0
                    3D
 Structure written by MMmdl.
158166  0  0  1  0            999 V2000
  -30.6949  -14.6305   20.5890 C   0  0  0  0  0  0
  -30.4211  -12.4148   19.4677 C   0  0  0  0  0  0
  -29.5057  -12.5303   18.2286 C   0  0  0  0  0  0
  -28.0339  -12.3343   18.6367 C   0  0  0  0  0  0
  -27.6460  -13.2160   19.8541 C   0  0  2  0  0  0
  -28.6797  -13.0750   20.9890 C   0  0  0  0  0  0
  -25.2531  -13.8150   20.5645 C   0  0  0  0  0  0
  -24.1798  -13.0414   20.9134 C   0  0  0  0  0  0
  -24.6365  -11.6887   20.8701 C   0  0  0  0  0  0
  -23.9044  -10.4277   21.0395 C   0  0  0  0  0  0
  -24.3606   -9.4209   21.9185 C   0  0  0  0  0  0
  -23.6287   -8.2244   22.0769 C   0  0  0  0  0  0
  -22.4272   -8.0268   21.3559 C   0  0  0  0  0  0
  -21.9895   -9.0233   20.4652 C   0  0  0  0  0  0
  -22.7214  -10.2114   20.3056 C   0  0  0  0  0  0
  -21.6850   -6.0730   22.5274 C   0  0  0  0  0  0
  -21.4005   -6.5637   23.8207 C   0  0  0  0  0  0
  -21.3661   -5.6794   24.9165 C   0  0  0  0  0  0
  -21.6045   -4.3062   24.7217 C   0  0  0  0  0  0
  -21.8822   -3.8143   23.4342 C   0  0  0  0  0  0
  -21.9189   -4.6954   22.3394 C   0  0  0  0  0  0
  -22.7825  -13.5218   21.1804 C   0  0  0  0  0  0
  -22.1663   -4.2145   21.0978 F   0  0  0  0  0  0
  -21.5633   -3.4543   25.7732 F   0  0  0  0  0  0
  -29.9971  -13.4457   20.4478 N   0  0  0  0  0  0
  -26.2931  -12.9327   20.3225 N   0  0  0  0  0  0
  -25.9287  -11.6481   20.5681 N   0  0  0  0  0  0
  -22.0476  -12.8235   22.0366 N   0  0  0  0  0  0
  -25.4262  -15.1864   20.4123 N   0  0  0  0  0  0
  -31.8252  -14.7163   20.0963 O   0  0  0  0  0  0
  -21.6640   -6.8865   21.4241 O   0  0  0  0  0  0
  -22.3528  -14.5533   20.6642 O   0  0  0  0  0  0
  -24.6222  -31.8617   23.2067 C   0  0  0  0  0  0
  -25.9082  -32.4817   23.8367 C   0  0  1  0  0  0
  -27.1927  -27.3254   20.1074 C   0  0  0  0  0  0
  -25.5923  -33.8614   24.2300 N   0  0  0  0  0  0
  -23.4147  -30.4891   21.5520 C   0  0  2  0  0  0
  -24.8563  -28.9610   20.0998 C   0  0  0  0  0  0
  -22.7476  -29.4600   22.4952 C   0  0  0  0  0  0
  -18.0278  -28.1358   22.8496 C   0  0  0  0  0  0
  -24.1503  -36.7293   23.2622 C   0  0  0  0  0  0
  -25.9547  -30.7960   21.3761 C   0  0  0  0  0  0
  -26.0254  -29.4258   20.7172 C   0  0  0  0  0  0
  -27.1981  -28.6135   20.7238 C   0  0  0  0  0  0
  -26.0169  -26.9413   19.4222 C   0  0  0  0  0  0
  -24.8555  -27.7283   19.4397 C   0  0  0  0  0  0
  -23.6237  -29.8372   20.1619 C   0  0  0  0  0  0
  -25.4116  -36.3104   24.0339 C   0  0  1  0  0  0
  -20.5878  -28.3658   23.1290 C   0  0  2  0  0  0
  -20.6780  -26.9388   22.5399 C   0  0  0  0  0  0
  -19.5751  -26.6384   21.5202 C   0  0  0  0  0  0
  -18.1924  -26.7906   22.1614 C   0  0  0  0  0  0
  -19.1540  -28.8832   23.2869 C   0  0  0  0  0  0
  -18.9462  -30.1427   23.8892 C   0  0  0  0  0  0
  -17.6465  -30.6563   24.0586 C   0  0  0  0  0  0
  -25.9049  -34.9472   23.5117 C   0  0  0  0  0  0
  -16.5350  -29.9087   23.6313 C   0  0  0  0  0  0
  -16.7269  -28.6497   23.0352 C   0  0  0  0  0  0
  -26.4460  -31.6595   25.0721 C   0  0  0  0  0  0
  -25.3697  -31.3745   26.1464 C   0  0  0  0  0  0
  -27.0223  -30.3017   24.6093 C   0  0  0  0  0  0
  -27.6059  -32.4286   25.7464 C   0  0  0  0  0  0
  -27.5603  -37.1768   24.8447 C   0  0  0  0  0  0
  -21.4193  -29.3016   22.3717 N   0  0  0  0  0  0
  -26.4276  -37.3817   23.9454 N   0  0  0  0  0  0
  -24.6832  -31.0658   22.1012 N   0  0  0  0  0  0
  -23.4247  -28.8108   23.2966 O   0  0  0  0  0  0
  -28.2719  -26.4328   20.1973 O   0  0  0  0  0  0
  -26.5603  -34.8929   22.4670 O   0  0  0  0  0  0
  -23.5389  -32.1382   23.7422 O   0  0  0  0  0  0
  -30.5145  -19.6669   20.1613 C   0  0  0  0  0  0
  -29.9626  -20.9782   20.2434 C   0  0  0  0  0  0
  -28.6233  -18.7693   21.3114 C   0  0  0  0  0  0
  -29.8826  -18.5217   20.7139 C   0  0  0  0  0  0
  -28.7207  -21.2496   20.8793 C   0  0  0  0  0  0
  -28.0487  -20.0740   21.3718 C   0  0  0  0  0  0
  -27.1843  -22.8202   22.0600 C   0  0  0  0  0  0
  -29.5127  -15.8182   22.4032 C   0  0  0  0  0  0
  -30.6356  -17.1374   20.6406 C   0  0  0  0  0  0
  -28.8911  -23.8680   20.6167 C   0  0  0  0  0  0
  -27.9649  -24.9976   19.9937 C   0  0  0  0  0  0
  -28.1911  -22.5984   21.0113 N   0  0  0  0  0  0
  -30.0726  -15.7879   21.0464 N   0  0  0  0  0  0
  -26.8078  -20.1560   21.9145 F   0  0  0  0  0  0
  -31.4670  -12.5096   19.1700 H   0  0  0  0  0  0
  -30.3355  -11.4191   19.9067 H   0  0  0  0  0  0
  -29.7894  -11.7932   17.4755 H   0  0  0  0  0  0
  -29.6313  -13.5103   17.7657 H   0  0  0  0  0  0
  -27.8997  -11.2817   18.8884 H   0  0  0  0  0  0
  -27.3715  -12.5254   17.7921 H   0  0  0  0  0  0
  -27.6638  -14.2501   19.5108 H   0  0  0  0  0  0
  -28.6988  -12.0448   21.3466 H   0  0  0  0  0  0
  -28.3725  -13.6580   21.8509 H   0  0  0  0  0  0
  -25.2756   -9.5676   22.4755 H   0  0  0  0  0  0
  -23.9983   -7.4636   22.7505 H   0  0  0  0  0  0
  -21.0825   -8.8733   19.8965 H   0  0  0  0  0  0
  -22.3670  -10.9642   19.6155 H   0  0  0  0  0  0
  -21.2002   -7.6148   23.9698 H   0  0  0  0  0  0
  -21.1484   -6.0534   25.9071 H   0  0  0  0  0  0
  -22.0605   -2.7605   23.2837 H   0  0  0  0  0  0
  -22.4098  -11.9898   22.4758 H   0  0  0  0  0  0
  -21.1092  -13.1264   22.2559 H   0  0  0  0  0  0
  -24.6626  -15.8419   20.5372 H   0  0  0  0  0  0
  -26.2888  -15.6292   20.1206 H   0  0  0  0  0  0
  -26.7148  -32.5493   23.1104 H   0  0  0  0  0  0
  -25.0179  -33.9773   25.0526 H   0  0  0  0  0  0
  -22.7018  -31.3051   21.4169 H   0  0  0  0  0  0
  -23.3795  -35.9585   23.3229 H   0  0  0  0  0  0
  -24.3645  -36.8958   22.2051 H   0  0  0  0  0  0
  -23.7172  -37.6454   23.6656 H   0  0  0  0  0  0
  -26.0769  -31.5581   20.6057 H   0  0  0  0  0  0
  -26.8380  -30.8483   21.9985 H   0  0  0  0  0  0
  -28.0841  -28.9502   21.2434 H   0  0  0  0  0  0
  -25.9498  -26.0147   18.8713 H   0  0  0  0  0  0
  -23.9709  -27.3788   18.9275 H   0  0  0  0  0  0
  -23.7357  -30.6181   19.4089 H   0  0  0  0  0  0
  -22.7415  -29.2659   19.8684 H   0  0  0  0  0  0
  -25.1267  -36.1947   25.0825 H   0  0  0  0  0  0
  -20.9946  -28.3213   24.1418 H   0  0  0  0  0  0
  -20.5655  -26.2265   23.3589 H   0  0  0  0  0  0
  -21.6654  -26.7404   22.1191 H   0  0  0  0  0  0
  -19.6944  -25.6320   21.1177 H   0  0  0  0  0  0
  -19.6716  -27.3254   20.6781 H   0  0  0  0  0  0
  -17.4215  -26.6662   21.4005 H   0  0  0  0  0  0
  -18.0292  -26.0016   22.8966 H   0  0  0  0  0  0
  -19.7946  -30.7217   24.2266 H   0  0  0  0  0  0
  -17.5043  -31.6238   24.5198 H   0  0  0  0  0  0
  -15.5351  -30.3019   23.7629 H   0  0  0  0  0  0
  -15.8648  -28.0824   22.7071 H   0  0  0  0  0  0
  -24.5946  -30.6999   25.7826 H   0  0  0  0  0  0
  -24.8810  -32.2919   26.4774 H   0  0  0  0  0  0
  -25.8047  -30.9049   27.0302 H   0  0  0  0  0  0
  -26.2738  -29.6857   24.1098 H   0  0  0  0  0  0
  -27.3914  -29.7190   25.4525 H   0  0  0  0  0  0
  -27.8641  -30.4323   23.9285 H   0  0  0  0  0  0
  -27.2773  -33.3701   26.1880 H   0  0  0  0  0  0
  -28.3955  -32.6621   25.0315 H   0  0  0  0  0  0
  -28.0598  -31.8468   26.5497 H   0  0  0  0  0  0
  -28.2506  -38.0177   24.7638 H   0  0  0  0  0  0
  -28.1182  -36.2701   24.6046 H   0  0  0  0  0  0
  -27.2340  -37.1157   25.8844 H   0  0  0  0  0  0
  -20.9327  -29.8796   21.7012 H   0  0  0  0  0  0
  -26.0148  -38.2865   24.1562 H   0  0  0  0  0  0
  -31.4673  -19.5534   19.6616 H   0  0  0  0  0  0
  -30.5302  -21.7806   19.8004 H   0  0  0  0  0  0
  -28.0620  -17.9605   21.7495 H   0  0  0  0  0  0
  -26.1689  -22.7427   21.6634 H   0  0  0  0  0  0
  -27.2839  -23.8217   22.4848 H   0  0  0  0  0  0
  -27.2705  -22.1432   22.9098 H   0  0  0  0  0  0
  -28.4240  -15.8249   22.3668 H   0  0  0  0  0  0
  -29.8306  -16.7053   22.9534 H   0  0  0  0  0  0
  -29.8333  -14.9643   23.0029 H   0  0  0  0  0  0
  -31.5341  -17.2716   21.2476 H   0  0  0  0  0  0
  -31.0013  -17.0631   19.6151 H   0  0  0  0  0  0
  -29.3431  -24.2736   21.5247 H   0  0  0  0  0  0
  -29.7166  -23.6889   19.9312 H   0  0  0  0  0  0
  -26.9576  -24.7981   20.3627 H   0  0  0  0  0  0
  -27.9193  -24.8237   18.9175 H   0  0  0  0  0  0
  1 25  1  0  0  0
  1 30  2  0  0  0
  1 83  1  0  0  0
  2  3  1  0  0  0
  2 25  1  0  0  0
  2 85  1  0  0  0
  2 86  1  0  0  0
  3  4  1  0  0  0
  3 87  1  0  0  0
  3 88  1  0  0  0
  4  5  1  0  0  0
  4 89  1  0  0  0
  4 90  1  0  0  0
  5  6  1  0  0  0
  5 26  1  0  0  0
  5 91  1  0  0  0
  6 25  1  0  0  0
  6 92  1  0  0  0
  6 93  1  0  0  0
  7  8  2  0  0  0
  7 26  1  0  0  0
  7 29  1  0  0  0
  8  9  1  0  0  0
  8 22  1  0  0  0
  9 10  1  0  0  0
  9 27  2  0  0  0
 10 11  2  0  0  0
 10 15  1  0  0  0
 11 12  1  0  0  0
 11 94  1  0  0  0
 12 13  2  0  0  0
 12 95  1  0  0  0
 13 14  1  0  0  0
 13 31  1  0  0  0
 14 15  2  0  0  0
 14 96  1  0  0  0
 15 97  1  0  0  0
 16 17  2  0  0  0
 16 21  1  0  0  0
 16 31  1  0  0  0
 17 18  1  0  0  0
 17 98  1  0  0  0
 18 19  2  0  0  0
 18 99  1  0  0  0
 19 20  1  0  0  0
 19 24  1  0  0  0
 20 21  2  0  0  0
 20100  1  0  0  0
 21 23  1  0  0  0
 22 28  1  0  0  0
 22 32  2  0  0  0
 26 27  1  0  0  0
 28101  1  0  0  0
 28102  1  0  0  0
 29103  1  0  0  0
 29104  1  0  0  0
 33 34  1  0  0  0
 33 66  1  0  0  0
 33 70  2  0  0  0
 34 36  1  0  0  0
 34 59  1  0  0  0
 34105  1  0  0  0
 35 44  2  0  0  0
 35 45  1  0  0  0
 35 68  1  0  0  0
 36 56  1  0  0  0
 36106  1  0  0  0
 37 39  1  0  0  0
 37 47  1  0  0  0
 37 66  1  0  0  0
 37107  1  0  0  0
 38 43  2  0  0  0
 38 46  1  0  0  0
 38 47  1  0  0  0
 39 64  1  0  0  0
 39 67  2  0  0  0
 40 52  1  0  0  0
 40 53  2  0  0  0
 40 58  1  0  0  0
 41108  1  0  0  0
 41109  1  0  0  0
 41110  1  0  0  0
 41 48  1  0  0  0
 42 43  1  0  0  0
 42 66  1  0  0  0
 42111  1  0  0  0
 42112  1  0  0  0
 43 44  1  0  0  0
 44113  1  0  0  0
 45 46  2  0  0  0
 45114  1  0  0  0
 46115  1  0  0  0
 47116  1  0  0  0
 47117  1  0  0  0
 48 56  1  0  0  0
 48 65  1  0  0  0
 48118  1  0  0  0
 49 50  1  0  0  0
 49 53  1  0  0  0
 49 64  1  0  0  0
 49119  1  0  0  0
 50 51  1  0  0  0
 50120  1  0  0  0
 50121  1  0  0  0
 51 52  1  0  0  0
 51122  1  0  0  0
 51123  1  0  0  0
 52124  1  0  0  0
 52125  1  0  0  0
 53 54  1  0  0  0
 54 55  2  0  0  0
 54126  1  0  0  0
 55 57  1  0  0  0
 55127  1  0  0  0
 56 69  2  0  0  0
 57 58  2  0  0  0
 57128  1  0  0  0
 58129  1  0  0  0
 59 60  1  0  0  0
 59 61  1  0  0  0
 59 62  1  0  0  0
 60130  1  0  0  0
 60131  1  0  0  0
 60132  1  0  0  0
 61133  1  0  0  0
 61134  1  0  0  0
 61135  1  0  0  0
 62136  1  0  0  0
 62137  1  0  0  0
 62138  1  0  0  0
 63 65  1  0  0  0
 63139  1  0  0  0
 63140  1  0  0  0
 63141  1  0  0  0
 64142  1  0  0  0
 65143  1  0  0  0
 68 81  1  0  0  0
 71 72  2  0  0  0
 71 74  1  0  0  0
 71144  1  0  0  0
 72 75  1  0  0  0
 72145  1  0  0  0
 73 74  2  0  0  0
 73 76  1  0  0  0
 73146  1  0  0  0
 74 79  1  0  0  0
 75 76  2  0  0  0
 75 82  1  0  0  0
 76 84  1  0  0  0
 77 82  1  0  0  0
 77147  1  0  0  0
 77148  1  0  0  0
 77149  1  0  0  0
 78 83  1  0  0  0
 78150  1  0  0  0
 78151  1  0  0  0
 78152  1  0  0  0
 79 83  1  0  0  0
 79153  1  0  0  0
 79154  1  0  0  0
 80 81  1  0  0  0
 80 82  1  0  0  0
 80155  1  0  0  0
 80156  1  0  0  0
 81157  1  0  0  0
 81158  1  0  0  0
M  ISO  4   1 100  68 101  81 101  83 100
M  END
> <chiral flag>
0

> <version>
0

> <s_m_source_file>
/data/baiqing/PycharmProjects/Reinvent-master-3.2/result/LINK_invent/BTK/process_docking_weight1_custom_product_contain_oxygen_bond_distance_aromatic_linkinvent_7_9_3/rearranged_h_0013.sdf

> <i_m_source_file_index>
1

> <r_mmod_Potential_Energy-OPLS-2005>
282.087982177734

> <r_mmod_Stretch_Energy-OPLS-2005>
90.8793334960938

> <r_mmod_Bend_Energy-OPLS-2005>
177.44465637207

> <r_mmod_Torsional_Energy-OPLS-2005>
238.673614501953

> <r_mmod_Improper_Torsional_Energy-OPLS-2005>
9.91357612609863

> <r_mmod_Van_der_Waal_Energy-OPLS-2005>
179.141708374023

> <r_mmod_Electrostatic_Energy-OPLS-2005>
-257.315521240234

> <r_mmod_Solvation_Energy-OPLS-2005>
-207.741561889648

> <b_mmod_Minimization_Converged-OPLS-2005>
0

> <r_mmod_RMS_Derivative-OPLS-2005>
4.32430124282837

$$$$
1
                    3D
 Structure written by MMmdl.
158166  0  0  1  0            999 V2000
  -30.5898  -14.6692   20.5111 C   0  0  0  0  0  0
  -30.4515  -12.4136   19.4515 C   0  0  0  0  0  0
  -29.5123  -12.5150   18.2266 C   0  0  0  0  0  0
  -28.0355  -12.3454   18.6404 C   0  0  0  0  0  0
  -27.6565  -13.2129   19.8702 C   0  0  2  0  0  0
  -28.7031  -13.0529   20.9968 C   0  0  0  0  0  0
  -25.2540  -13.8125   20.5640 C   0  0  0  0  0  0
  -24.1807  -13.0400   20.9129 C   0  0  0  0  0  0
  -24.6392  -11.6880   20.8712 C   0  0  0  0  0  0
  -23.9060  -10.4273   21.0394 C   0  0  0  0  0  0
  -24.3611   -9.4198   21.9179 C   0  0  0  0  0  0
  -23.6284   -8.2238   22.0753 C   0  0  0  0  0  0
  -22.4263   -8.0276   21.3547 C   0  0  0  0  0  0
  -21.9899   -9.0251   20.4650 C   0  0  0  0  0  0
  -22.7230  -10.2125   20.3051 C   0  0  0  0  0  0
  -21.6856   -6.0730   22.5278 C   0  0  0  0  0  0
  -21.4017   -6.5633   23.8212 C   0  0  0  0  0  0
  -21.3657   -5.6785   24.9174 C   0  0  0  0  0  0
  -21.6042   -4.3048   24.7225 C   0  0  0  0  0  0
  -21.8822   -3.8141   23.4347 C   0  0  0  0  0  0
  -21.9197   -4.6957   22.3403 C   0  0  0  0  0  0
  -22.7839  -13.5211   21.1818 C   0  0  0  0  0  0
  -22.1665   -4.2142   21.0981 F   0  0  0  0  0  0
  -21.5627   -3.4534   25.7740 F   0  0  0  0  0  0
  -30.0179  -13.4221   20.4395 N   0  0  0  0  0  0
  -26.3009  -12.9324   20.3365 N   0  0  0  0  0  0
  -25.9333  -11.6476   20.5775 N   0  0  0  0  0  0
  -22.0499  -12.8216   22.0399 N   0  0  0  0  0  0
  -25.4190  -15.1836   20.4067 N   0  0  0  0  0  0
  -31.7331  -14.8810   20.0927 O   0  0  0  0  0  0
  -21.6635   -6.8871   21.4240 O   0  0  0  0  0  0
  -22.3516  -14.5528   20.6691 O   0  0  0  0  0  0
  -24.6249  -31.8581   23.2001 C   0  0  0  0  0  0
  -25.9096  -32.4773   23.8332 C   0  0  1  0  0  0
  -27.2345  -27.3204   20.1306 C   0  0  0  0  0  0
  -25.5913  -33.8573   24.2267 N   0  0  0  0  0  0
  -23.4197  -30.4785   21.5415 C   0  0  2  0  0  0
  -24.8692  -28.9237   20.1164 C   0  0  0  0  0  0
  -22.7467  -29.4614   22.4933 C   0  0  0  0  0  0
  -18.0286  -28.1389   22.8486 C   0  0  0  0  0  0
  -24.1488  -36.7289   23.2641 C   0  0  0  0  0  0
  -25.9582  -30.7915   21.3677 C   0  0  0  0  0  0
  -26.0357  -29.4158   20.7155 C   0  0  0  0  0  0
  -27.2238  -28.6278   20.7051 C   0  0  0  0  0  0
  -26.0457  -26.8671   19.5227 C   0  0  0  0  0  0
  -24.8754  -27.6549   19.5102 C   0  0  0  0  0  0
  -23.6365  -29.8050   20.1595 C   0  0  0  0  0  0
  -25.4112  -36.3081   24.0331 C   0  0  1  0  0  0
  -20.5884  -28.3685   23.1293 C   0  0  2  0  0  0
  -20.6772  -26.9410   22.5417 C   0  0  0  0  0  0
  -19.5755  -26.6395   21.5209 C   0  0  0  0  0  0
  -18.1931  -26.7936   22.1616 C   0  0  0  0  0  0
  -19.1537  -28.8851   23.2886 C   0  0  0  0  0  0
  -18.9459  -30.1452   23.8903 C   0  0  0  0  0  0
  -17.6466  -30.6590   24.0566 C   0  0  0  0  0  0
  -25.9045  -34.9451   23.5100 C   0  0  0  0  0  0
  -16.5355  -29.9091   23.6335 C   0  0  0  0  0  0
  -16.7274  -28.6507   23.0354 C   0  0  0  0  0  0
  -26.4488  -31.6591   25.0703 C   0  0  0  0  0  0
  -25.3737  -31.3738   26.1445 C   0  0  0  0  0  0
  -27.0324  -30.3016   24.6152 C   0  0  0  0  0  0
  -27.6048  -32.4327   25.7469 C   0  0  0  0  0  0
  -27.5578  -37.1796   24.8462 C   0  0  0  0  0  0
  -21.4179  -29.3035   22.3680 N   0  0  0  0  0  0
  -26.4290  -37.3778   23.9409 N   0  0  0  0  0  0
  -24.6864  -31.0599   22.0941 N   0  0  0  0  0  0
  -23.4187  -28.8160   23.3021 O   0  0  0  0  0  0
  -28.3728  -26.5057   20.1141 O   0  0  0  0  0  0
  -26.5618  -34.8921   22.4670 O   0  0  0  0  0  0
  -23.5415  -32.1374   23.7335 O   0  0  0  0  0  0
  -30.1916  -19.4844   20.2986 C   0  0  0  0  0  0
  -30.5271  -18.0804   20.3368 C   0  0  0  0  0  0
  -28.0362  -18.9909   21.2001 C   0  0  0  0  0  0
  -28.9306  -20.0015   20.7404 C   0  0  0  0  0  0
  -29.6098  -17.1051   20.8263 C   0  0  0  0  0  0
  -28.3642  -17.6123   21.2509 C   0  0  0  0  0  0
  -28.3065  -21.9067   23.1897 C   0  0  0  0  0  0
  -28.6487  -23.8872   19.7097 C   0  0  0  0  0  0
  -27.6110  -21.8036   21.8250 C   0  0  0  0  0  0
  -29.3710  -22.5473   20.2483 C   0  0  0  0  0  0
  -28.3019  -25.1270   20.6559 C   0  0  0  0  0  0
  -29.7565  -15.6523   20.9721 N   0  0  0  0  0  0
  -28.5389  -21.4084   20.7565 N   0  0  0  0  0  0
  -27.4456  -16.7363   21.7250 F   0  0  0  0  0  0
  -31.4890  -12.5610   19.1460 H   0  0  0  0  0  0
  -30.4075  -11.4147   19.8876 H   0  0  0  0  0  0
  -29.7801  -11.7615   17.4848 H   0  0  0  0  0  0
  -29.6461  -13.4817   17.7387 H   0  0  0  0  0  0
  -27.8778  -11.2915   18.8725 H   0  0  0  0  0  0
  -27.3784  -12.5723   17.8001 H   0  0  0  0  0  0
  -27.6760  -14.2504   19.5358 H   0  0  0  0  0  0
  -28.7234  -12.0222   21.3546 H   0  0  0  0  0  0
  -28.4370  -13.6561   21.8664 H   0  0  0  0  0  0
  -25.2762   -9.5680   22.4746 H   0  0  0  0  0  0
  -23.9999   -7.4631   22.7470 H   0  0  0  0  0  0
  -21.0831   -8.8772   19.8960 H   0  0  0  0  0  0
  -22.3693  -10.9662   19.6154 H   0  0  0  0  0  0
  -21.2012   -7.6141   23.9711 H   0  0  0  0  0  0
  -21.1473   -6.0517   25.9075 H   0  0  0  0  0  0
  -22.0604   -2.7603   23.2850 H   0  0  0  0  0  0
  -22.4118  -11.9881   22.4789 H   0  0  0  0  0  0
  -21.1130  -13.1259   22.2633 H   0  0  0  0  0  0
  -24.6644  -15.8349   20.5878 H   0  0  0  0  0  0
  -26.3145  -15.6432   20.2994 H   0  0  0  0  0  0
  -26.7157  -32.5446   23.1073 H   0  0  0  0  0  0
  -25.0060  -33.9715   25.0412 H   0  0  0  0  0  0
  -22.7139  -31.2984   21.3945 H   0  0  0  0  0  0
  -23.3751  -35.9621   23.3307 H   0  0  0  0  0  0
  -24.3585  -36.8910   22.2057 H   0  0  0  0  0  0
  -23.7240  -37.6490   23.6660 H   0  0  0  0  0  0
  -26.0865  -31.5538   20.5978 H   0  0  0  0  0  0
  -26.8393  -30.8435   21.9958 H   0  0  0  0  0  0
  -28.1246  -29.0087   21.1656 H   0  0  0  0  0  0
  -26.0236  -25.8926   19.0559 H   0  0  0  0  0  0
  -23.9802  -27.2717   19.0398 H   0  0  0  0  0  0
  -23.7574  -30.5772   19.3989 H   0  0  0  0  0  0
  -22.7573  -29.2326   19.8575 H   0  0  0  0  0  0
  -25.1300  -36.1929   25.0825 H   0  0  0  0  0  0
  -20.9979  -28.3257   24.1412 H   0  0  0  0  0  0
  -20.5672  -26.2289   23.3610 H   0  0  0  0  0  0
  -21.6645  -26.7444   22.1214 H   0  0  0  0  0  0
  -19.6916  -25.6309   21.1231 H   0  0  0  0  0  0
  -19.6699  -27.3211   20.6743 H   0  0  0  0  0  0
  -17.4208  -26.6687   21.4012 H   0  0  0  0  0  0
  -18.0326  -26.0077   22.9010 H   0  0  0  0  0  0
  -19.7939  -30.7263   24.2280 H   0  0  0  0  0  0
  -17.5023  -31.6274   24.5166 H   0  0  0  0  0  0
  -15.5357  -30.2997   23.7658 H   0  0  0  0  0  0
  -15.8674  -28.0833   22.7070 H   0  0  0  0  0  0
  -24.5907  -30.7086   25.7790 H   0  0  0  0  0  0
  -24.8935  -32.2910   26.4864 H   0  0  0  0  0  0
  -25.8086  -30.8931   27.0218 H   0  0  0  0  0  0
  -26.2885  -29.6766   24.1197 H   0  0  0  0  0  0
  -27.4042  -29.7280   25.4652 H   0  0  0  0  0  0
  -27.8750  -30.4300   23.9353 H   0  0  0  0  0  0
  -27.2653  -33.3623   26.2050 H   0  0  0  0  0  0
  -28.3853  -32.6899   25.0294 H   0  0  0  0  0  0
  -28.0720  -31.8453   26.5383 H   0  0  0  0  0  0
  -28.2601  -38.0086   24.7513 H   0  0  0  0  0  0
  -28.1072  -36.2623   24.6288 H   0  0  0  0  0  0
  -27.2305  -37.1453   25.8868 H   0  0  0  0  0  0
  -20.9353  -29.8748   21.6888 H   0  0  0  0  0  0
  -26.0171  -38.2854   24.1417 H   0  0  0  0  0  0
  -30.9404  -20.1698   19.9294 H   0  0  0  0  0  0
  -31.5028  -17.7662   19.9946 H   0  0  0  0  0  0
  -27.0415  -19.2286   21.5347 H   0  0  0  0  0  0
  -27.5945  -22.1996   23.9618 H   0  0  0  0  0  0
  -29.1015  -22.6531   23.1825 H   0  0  0  0  0  0
  -28.7433  -20.9547   23.4925 H   0  0  0  0  0  0
  -27.7692  -23.6210   19.1234 H   0  0  0  0  0  0
  -29.3442  -24.2959   18.9763 H   0  0  0  0  0  0
  -27.1773  -22.7722   21.5861 H   0  0  0  0  0  0
  -26.7382  -21.1585   21.8897 H   0  0  0  0  0  0
  -30.1104  -22.8164   21.0040 H   0  0  0  0  0  0
  -29.9515  -22.1532   19.4132 H   0  0  0  0  0  0
  -29.0136  -25.1100   21.4814 H   0  0  0  0  0  0
  -27.3320  -24.9628   21.1267 H   0  0  0  0  0  0
  -28.9189  -15.2469   21.3631 H   0  0  0  0  0  0
  1 25  1  0  0  0
  1 30  2  0  0  0
  1 82  1  0  0  0
  2  3  1  0  0  0
  2 25  1  0  0  0
  2 85  1  0  0  0
  2 86  1  0  0  0
  3  4  1  0  0  0
  3 87  1  0  0  0
  3 88  1  0  0  0
  4  5  1  0  0  0
  4 89  1  0  0  0
  4 90  1  0  0  0
  5  6  1  0  0  0
  5 26  1  0  0  0
  5 91  1  0  0  0
  6 25  1  0  0  0
  6 92  1  0  0  0
  6 93  1  0  0  0
  7  8  2  0  0  0
  7 26  1  0  0  0
  7 29  1  0  0  0
  8  9  1  0  0  0
  8 22  1  0  0  0
  9 10  1  0  0  0
  9 27  2  0  0  0
 10 11  2  0  0  0
 10 15  1  0  0  0
 11 12  1  0  0  0
 11 94  1  0  0  0
 12 13  2  0  0  0
 12 95  1  0  0  0
 13 14  1  0  0  0
 13 31  1  0  0  0
 14 15  2  0  0  0
 14 96  1  0  0  0
 15 97  1  0  0  0
 16 17  2  0  0  0
 16 21  1  0  0  0
 16 31  1  0  0  0
 17 18  1  0  0  0
 17 98  1  0  0  0
 18 19  2  0  0  0
 18 99  1  0  0  0
 19 20  1  0  0  0
 19 24  1  0  0  0
 20 21  2  0  0  0
 20100  1  0  0  0
 21 23  1  0  0  0
 22 28  1  0  0  0
 22 32  2  0  0  0
 26 27  1  0  0  0
 28101  1  0  0  0
 28102  1  0  0  0
 29103  1  0  0  0
 29104  1  0  0  0
 33 34  1  0  0  0
 33 66  1  0  0  0
 33 70  2  0  0  0
 34 36  1  0  0  0
 34 59  1  0  0  0
 34105  1  0  0  0
 35 44  2  0  0  0
 35 45  1  0  0  0
 35 68  1  0  0  0
 36 56  1  0  0  0
 36106  1  0  0  0
 37 39  1  0  0  0
 37 47  1  0  0  0
 37 66  1  0  0  0
 37107  1  0  0  0
 38 43  2  0  0  0
 38 46  1  0  0  0
 38 47  1  0  0  0
 39 64  1  0  0  0
 39 67  2  0  0  0
 40 52  1  0  0  0
 40 53  2  0  0  0
 40 58  1  0  0  0
 41108  1  0  0  0
 41109  1  0  0  0
 41110  1  0  0  0
 41 48  1  0  0  0
 42 43  1  0  0  0
 42 66  1  0  0  0
 42111  1  0  0  0
 42112  1  0  0  0
 43 44  1  0  0  0
 44113  1  0  0  0
 45 46  2  0  0  0
 45114  1  0  0  0
 46115  1  0  0  0
 47116  1  0  0  0
 47117  1  0  0  0
 48 56  1  0  0  0
 48 65  1  0  0  0
 48118  1  0  0  0
 49 50  1  0  0  0
 49 53  1  0  0  0
 49 64  1  0  0  0
 49119  1  0  0  0
 50 51  1  0  0  0
 50120  1  0  0  0
 50121  1  0  0  0
 51 52  1  0  0  0
 51122  1  0  0  0
 51123  1  0  0  0
 52124  1  0  0  0
 52125  1  0  0  0
 53 54  1  0  0  0
 54 55  2  0  0  0
 54126  1  0  0  0
 55 57  1  0  0  0
 55127  1  0  0  0
 56 69  2  0  0  0
 57 58  2  0  0  0
 57128  1  0  0  0
 58129  1  0  0  0
 59 60  1  0  0  0
 59 61  1  0  0  0
 59 62  1  0  0  0
 60130  1  0  0  0
 60131  1  0  0  0
 60132  1  0  0  0
 61133  1  0  0  0
 61134  1  0  0  0
 61135  1  0  0  0
 62136  1  0  0  0
 62137  1  0  0  0
 62138  1  0  0  0
 63 65  1  0  0  0
 63139  1  0  0  0
 63140  1  0  0  0
 63141  1  0  0  0
 64142  1  0  0  0
 65143  1  0  0  0
 68 81  1  0  0  0
 71 72  2  0  0  0
 71 74  1  0  0  0
 71144  1  0  0  0
 72 75  1  0  0  0
 72145  1  0  0  0
 73 74  2  0  0  0
 73 76  1  0  0  0
 73146  1  0  0  0
 74 83  1  0  0  0
 75 76  2  0  0  0
 75 82  1  0  0  0
 76 84  1  0  0  0
 77 79  1  0  0  0
 77147  1  0  0  0
 77148  1  0  0  0
 77149  1  0  0  0
 78 80  1  0  0  0
 78 81  1  0  0  0
 78150  1  0  0  0
 78151  1  0  0  0
 79 83  1  0  0  0
 79152  1  0  0  0
 79153  1  0  0  0
 80 83  1  0  0  0
 80154  1  0  0  0
 80155  1  0  0  0
 81156  1  0  0  0
 81157  1  0  0  0
 82158  1  0  0  0
M  ISO  4   1 100  68 101  81 101  82 100
M  END
> <chiral flag>
0

> <version>
0

> <s_m_source_file>
/data/baiqing/PycharmProjects/Reinvent-master-3.2/result/LINK_invent/BTK/process_docking_weight1_custom_product_contain_oxygen_bond_distance_aromatic_linkinvent_7_9_3/rearranged_h_0013.sdf

> <i_m_source_file_index>
2

> <r_mmod_Potential_Energy-OPLS-2005>
80.5017395019531

> <r_mmod_Stretch_Energy-OPLS-2005>
90.056770324707

> <r_mmod_Bend_Energy-OPLS-2005>
187.848831176758

> <r_mmod_Torsional_Energy-OPLS-2005>
238.075881958008

> <r_mmod_Improper_Torsional_Energy-OPLS-2005>
5.68983364105225

> <r_mmod_Van_der_Waal_Energy-OPLS-2005>
143.257598876953

> <r_mmod_Electrostatic_Energy-OPLS-2005>
-426.571899414062

> <r_mmod_Solvation_Energy-OPLS-2005>
-208.997222900391

> <b_mmod_Minimization_Converged-OPLS-2005>
0

> <r_mmod_RMS_Derivative-OPLS-2005>
0.95570832490921

$$$$
2
                    3D
 Structure written by MMmdl.
155163  0  0  1  0            999 V2000
  -30.5491  -14.9706   20.3392 C   0  0  0  0  0  0
  -30.4533  -12.5772   19.4956 C   0  0  0  0  0  0
  -29.5306  -12.4242   18.2624 C   0  0  0  0  0  0
  -28.0545  -12.2614   18.6848 C   0  0  0  0  0  0
  -27.6224  -13.2149   19.8317 C   0  0  2  0  0  0
  -28.6800  -13.3110   20.9517 C   0  0  0  0  0  0
  -25.2510  -13.8132   20.5801 C   0  0  0  0  0  0
  -24.1780  -13.0408   20.9278 C   0  0  0  0  0  0
  -24.6349  -11.6878   20.8806 C   0  0  0  0  0  0
  -23.9026  -10.4273   21.0445 C   0  0  0  0  0  0
  -24.3588   -9.4189   21.9211 C   0  0  0  0  0  0
  -23.6277   -8.2219   22.0756 C   0  0  0  0  0  0
  -22.4263   -8.0262   21.3538 C   0  0  0  0  0  0
  -21.9889   -9.0241   20.4651 C   0  0  0  0  0  0
  -22.7212  -10.2123   20.3081 C   0  0  0  0  0  0
  -21.6849   -6.0729   22.5279 C   0  0  0  0  0  0
  -21.4013   -6.5634   23.8213 C   0  0  0  0  0  0
  -21.3664   -5.6781   24.9173 C   0  0  0  0  0  0
  -21.6050   -4.3044   24.7224 C   0  0  0  0  0  0
  -21.8820   -3.8137   23.4343 C   0  0  0  0  0  0
  -21.9191   -4.6956   22.3402 C   0  0  0  0  0  0
  -22.7808  -13.5223   21.1891 C   0  0  0  0  0  0
  -22.1658   -4.2145   21.0978 F   0  0  0  0  0  0
  -21.5626   -3.4533   25.7746 F   0  0  0  0  0  0
  -29.9475  -13.7086   20.3196 N   0  0  0  0  0  0
  -26.2877  -12.9274   20.3324 N   0  0  0  0  0  0
  -25.9273  -11.6445   20.5818 N   0  0  0  0  0  0
  -22.0406  -12.8242   22.0429 N   0  0  0  0  0  0
  -25.4228  -15.1858   20.4269 N   0  0  0  0  0  0
  -31.7797  -15.0065   20.2341 O   0  0  0  0  0  0
  -21.6620   -6.8867   21.4243 O   0  0  0  0  0  0
  -22.3530  -14.5531   20.6714 O   0  0  0  0  0  0
  -24.6395  -31.8464   23.1896 C   0  0  0  0  0  0
  -25.9186  -32.4712   23.8281 C   0  0  1  0  0  0
  -27.2343  -27.1687   20.1550 C   0  0  0  0  0  0
  -25.5949  -33.8517   24.2197 N   0  0  0  0  0  0
  -23.4438  -30.4633   21.5333 C   0  0  2  0  0  0
  -24.8977  -28.8941   20.1087 C   0  0  0  0  0  0
  -22.7558  -29.4555   22.4870 C   0  0  0  0  0  0
  -18.0298  -28.1389   22.8480 C   0  0  0  0  0  0
  -24.1486  -36.7252   23.2643 C   0  0  0  0  0  0
  -25.9959  -30.7282   21.3870 C   0  0  0  0  0  0
  -26.0690  -29.3420   20.7305 C   0  0  0  0  0  0
  -27.2342  -28.4936   20.7408 C   0  0  0  0  0  0
  -26.0417  -26.8205   19.4783 C   0  0  0  0  0  0
  -24.8953  -27.6453   19.4675 C   0  0  0  0  0  0
  -23.6699  -29.7888   20.1528 C   0  0  0  0  0  0
  -25.4125  -36.3043   24.0317 C   0  0  1  0  0  0
  -20.5909  -28.3714   23.1236 C   0  0  2  0  0  0
  -20.6777  -26.9421   22.5404 C   0  0  0  0  0  0
  -19.5752  -26.6380   21.5211 C   0  0  0  0  0  0
  -18.1934  -26.7928   22.1628 C   0  0  0  0  0  0
  -19.1556  -28.8873   23.2849 C   0  0  0  0  0  0
  -18.9475  -30.1466   23.8879 C   0  0  0  0  0  0
  -17.6476  -30.6589   24.0560 C   0  0  0  0  0  0
  -25.9072  -34.9416   23.5071 C   0  0  0  0  0  0
  -16.5363  -29.9080   23.6335 C   0  0  0  0  0  0
  -16.7286  -28.6498   23.0364 C   0  0  0  0  0  0
  -26.4520  -31.6572   25.0712 C   0  0  0  0  0  0
  -25.3719  -31.3753   26.1416 C   0  0  0  0  0  0
  -27.0384  -30.2975   24.6276 C   0  0  0  0  0  0
  -27.6040  -32.4349   25.7498 C   0  0  0  0  0  0
  -27.5573  -37.1789   24.8472 C   0  0  0  0  0  0
  -21.4254  -29.3045   22.3618 N   0  0  0  0  0  0
  -26.4289  -37.3759   23.9406 N   0  0  0  0  0  0
  -24.7118  -31.0345   22.0916 N   0  0  0  0  0  0
  -23.4210  -28.8118   23.3025 O   0  0  0  0  0  0
  -28.3084  -26.2178   20.2634 O   0  0  0  0  0  0
  -26.5656  -34.8911   22.4643 O   0  0  0  0  0  0
  -23.5518  -32.1329   23.7133 O   0  0  0  0  0  0
  -30.8762  -18.4952   19.8513 C   0  0  0  0  0  0
  -30.7376  -19.9349   19.7513 C   0  0  0  0  0  0
  -28.7672  -18.4077   20.8943 C   0  0  0  0  0  0
  -29.8770  -17.6328   20.3961 C   0  0  0  0  0  0
  -29.5945  -20.7158   20.1721 C   0  0  0  0  0  0
  -28.6321  -19.8570   20.8098 C   0  0  0  0  0  0
  -29.0287  -16.0952   18.7978 C   0  0  0  0  0  0
  -30.2683  -22.5479   18.6918 C   0  0  0  0  0  0
  -28.9755  -23.4177   20.6280 C   0  0  0  0  0  0
  -28.1605  -24.7143   19.9316 C   0  0  0  0  0  0
  -29.7642  -16.1444   20.0696 N   0  0  0  0  0  0
  -29.4184  -22.1644   19.8217 N   0  0  0  0  0  0
  -27.4894  -20.4152   21.2809 F   0  0  0  0  0  0
  -31.4820  -12.7410   19.1695 H   0  0  0  0  0  0
  -30.4674  -11.6581   20.0835 H   0  0  0  0  0  0
  -29.8352  -11.5489   17.6874 H   0  0  0  0  0  0
  -29.6555  -13.2596   17.5772 H   0  0  0  0  0  0
  -27.9391  -11.2298   19.0177 H   0  0  0  0  0  0
  -27.3949  -12.3717   17.8234 H   0  0  0  0  0  0
  -27.5299  -14.1848   19.3676 H   0  0  0  0  0  0
  -28.7800  -12.3653   21.4858 H   0  0  0  0  0  0
  -28.3826  -14.0612   21.6867 H   0  0  0  0  0  0
  -25.2736   -9.5669   22.4779 H   0  0  0  0  0  0
  -23.9997   -7.4608   22.7467 H   0  0  0  0  0  0
  -21.0815   -8.8764   19.8960 H   0  0  0  0  0  0
  -22.3680  -10.9664   19.6181 H   0  0  0  0  0  0
  -21.2004   -7.6141   23.9724 H   0  0  0  0  0  0
  -21.1481   -6.0502   25.9076 H   0  0  0  0  0  0
  -22.0595   -2.7606   23.2835 H   0  0  0  0  0  0
  -22.4003  -11.9924   22.4871 H   0  0  0  0  0  0
  -21.1014  -13.1280   22.2589 H   0  0  0  0  0  0
  -24.6602  -15.8416   20.5587 H   0  0  0  0  0  0
  -26.2844  -15.6284   20.1366 H   0  0  0  0  0  0
  -26.7249  -32.5326   23.1005 H   0  0  0  0  0  0
  -25.0100  -33.9640   25.0348 H   0  0  0  0  0  0
  -22.7446  -31.2876   21.3777 H   0  0  0  0  0  0
  -23.3760  -35.9574   23.3311 H   0  0  0  0  0  0
  -24.3569  -36.8880   22.2058 H   0  0  0  0  0  0
  -23.7227  -37.6446   23.6673 H   0  0  0  0  0  0
  -26.1511  -31.4838   20.6164 H   0  0  0  0  0  0
  -26.8653  -30.7765   22.0309 H   0  0  0  0  0  0
  -28.1231  -28.8318   21.2543 H   0  0  0  0  0  0
  -25.9631  -25.8736   18.9666 H   0  0  0  0  0  0
  -24.0030  -27.3007   18.9632 H   0  0  0  0  0  0
  -23.8006  -30.5604   19.3930 H   0  0  0  0  0  0
  -22.7881  -29.2230   19.8473 H   0  0  0  0  0  0
  -25.1312  -36.1880   25.0812 H   0  0  0  0  0  0
  -20.9994  -28.3299   24.1363 H   0  0  0  0  0  0
  -20.5652  -26.2347   23.3631 H   0  0  0  0  0  0
  -21.6643  -26.7417   22.1219 H   0  0  0  0  0  0
  -19.6912  -25.6288   21.1249 H   0  0  0  0  0  0
  -19.6670  -27.3184   20.6731 H   0  0  0  0  0  0
  -17.4205  -26.6675   21.4027 H   0  0  0  0  0  0
  -18.0328  -26.0065   22.9020 H   0  0  0  0  0  0
  -19.7954  -30.7279   24.2242 H   0  0  0  0  0  0
  -17.5033  -31.6266   24.5166 H   0  0  0  0  0  0
  -15.5365  -30.2982   23.7668 H   0  0  0  0  0  0
  -15.8685  -28.0807   22.7096 H   0  0  0  0  0  0
  -24.5896  -30.7104   25.7743 H   0  0  0  0  0  0
  -24.8912  -32.2933   26.4804 H   0  0  0  0  0  0
  -25.8016  -30.8955   27.0219 H   0  0  0  0  0  0
  -26.2996  -29.6711   24.1268 H   0  0  0  0  0  0
  -27.3996  -29.7260   25.4833 H   0  0  0  0  0  0
  -27.8902  -30.4223   23.9589 H   0  0  0  0  0  0
  -27.2612  -33.3659   26.2026 H   0  0  0  0  0  0
  -28.3870  -32.6908   25.0349 H   0  0  0  0  0  0
  -28.0689  -31.8523   26.5462 H   0  0  0  0  0  0
  -28.2603  -38.0075   24.7514 H   0  0  0  0  0  0
  -28.1057  -36.2608   24.6308 H   0  0  0  0  0  0
  -27.2291  -37.1451   25.8876 H   0  0  0  0  0  0
  -20.9478  -29.8778   21.6801 H   0  0  0  0  0  0
  -26.0157  -38.2831   24.1409 H   0  0  0  0  0  0
  -31.7445  -18.0390   19.3939 H   0  0  0  0  0  0
  -31.5580  -20.4333   19.2593 H   0  0  0  0  0  0
  -27.9212  -17.8670   21.2893 H   0  0  0  0  0  0
  -29.1125  -15.1644   18.2500 H   0  0  0  0  0  0
  -29.4049  -16.8516   18.1069 H   0  0  0  0  0  0
  -27.9727  -16.3140   18.9557 H   0  0  0  0  0  0
  -29.9891  -23.5106   18.2669 H   0  0  0  0  0  0
  -30.2119  -21.8226   17.8780 H   0  0  0  0  0  0
  -31.3100  -22.6366   19.0039 H   0  0  0  0  0  0
  -28.4123  -23.0856   21.5013 H   0  0  0  0  0  0
  -29.8971  -23.8266   21.0463 H   0  0  0  0  0  0
  -27.1137  -24.4541   20.0803 H   0  0  0  0  0  0
  -28.2917  -24.6636   18.8525 H   0  0  0  0  0  0
  1 25  1  0  0  0
  1 30  2  0  0  0
  1 81  1  0  0  0
  2  3  1  0  0  0
  2 25  1  0  0  0
  2 84  1  0  0  0
  2 85  1  0  0  0
  3  4  1  0  0  0
  3 86  1  0  0  0
  3 87  1  0  0  0
  4  5  1  0  0  0
  4 88  1  0  0  0
  4 89  1  0  0  0
  5  6  1  0  0  0
  5 26  1  0  0  0
  5 90  1  0  0  0
  6 25  1  0  0  0
  6 91  1  0  0  0
  6 92  1  0  0  0
  7  8  2  0  0  0
  7 26  1  0  0  0
  7 29  1  0  0  0
  8  9  1  0  0  0
  8 22  1  0  0  0
  9 10  1  0  0  0
  9 27  2  0  0  0
 10 11  2  0  0  0
 10 15  1  0  0  0
 11 12  1  0  0  0
 11 93  1  0  0  0
 12 13  2  0  0  0
 12 94  1  0  0  0
 13 14  1  0  0  0
 13 31  1  0  0  0
 14 15  2  0  0  0
 14 95  1  0  0  0
 15 96  1  0  0  0
 16 17  2  0  0  0
 16 21  1  0  0  0
 16 31  1  0  0  0
 17 18  1  0  0  0
 17 97  1  0  0  0
 18 19  2  0  0  0
 18 98  1  0  0  0
 19 20  1  0  0  0
 19 24  1  0  0  0
 20 21  2  0  0  0
 20 99  1  0  0  0
 21 23  1  0  0  0
 22 28  1  0  0  0
 22 32  2  0  0  0
 26 27  1  0  0  0
 28100  1  0  0  0
 28101  1  0  0  0
 29102  1  0  0  0
 29103  1  0  0  0
 33 34  1  0  0  0
 33 66  1  0  0  0
 33 70  2  0  0  0
 34 36  1  0  0  0
 34 59  1  0  0  0
 34104  1  0  0  0
 35 44  2  0  0  0
 35 45  1  0  0  0
 35 68  1  0  0  0
 36 56  1  0  0  0
 36105  1  0  0  0
 37 39  1  0  0  0
 37 47  1  0  0  0
 37 66  1  0  0  0
 37106  1  0  0  0
 38 43  2  0  0  0
 38 46  1  0  0  0
 38 47  1  0  0  0
 39 64  1  0  0  0
 39 67  2  0  0  0
 40 52  1  0  0  0
 40 53  2  0  0  0
 40 58  1  0  0  0
 41107  1  0  0  0
 41108  1  0  0  0
 41109  1  0  0  0
 41 48  1  0  0  0
 42 43  1  0  0  0
 42 66  1  0  0  0
 42110  1  0  0  0
 42111  1  0  0  0
 43 44  1  0  0  0
 44112  1  0  0  0
 45 46  2  0  0  0
 45113  1  0  0  0
 46114  1  0  0  0
 47115  1  0  0  0
 47116  1  0  0  0
 48 56  1  0  0  0
 48 65  1  0  0  0
 48117  1  0  0  0
 49 50  1  0  0  0
 49 53  1  0  0  0
 49 64  1  0  0  0
 49118  1  0  0  0
 50 51  1  0  0  0
 50119  1  0  0  0
 50120  1  0  0  0
 51 52  1  0  0  0
 51121  1  0  0  0
 51122  1  0  0  0
 52123  1  0  0  0
 52124  1  0  0  0
 53 54  1  0  0  0
 54 55  2  0  0  0
 54125  1  0  0  0
 55 57  1  0  0  0
 55126  1  0  0  0
 56 69  2  0  0  0
 57 58  2  0  0  0
 57127  1  0  0  0
 58128  1  0  0  0
 59 60  1  0  0  0
 59 61  1  0  0  0
 59 62  1  0  0  0
 60129  1  0  0  0
 60130  1  0  0  0
 60131  1  0  0  0
 61132  1  0  0  0
 61133  1  0  0  0
 61134  1  0  0  0
 62135  1  0  0  0
 62136  1  0  0  0
 62137  1  0  0  0
 63 65  1  0  0  0
 63138  1  0  0  0
 63139  1  0  0  0
 63140  1  0  0  0
 64141  1  0  0  0
 65142  1  0  0  0
 68 80  1  0  0  0
 71 72  2  0  0  0
 71 74  1  0  0  0
 71143  1  0  0  0
 72 75  1  0  0  0
 72144  1  0  0  0
 73 74  2  0  0  0
 73 76  1  0  0  0
 73145  1  0  0  0
 74 81  1  0  0  0
 75 76  2  0  0  0
 75 82  1  0  0  0
 76 83  1  0  0  0
 77 81  1  0  0  0
 77146  1  0  0  0
 77147  1  0  0  0
 77148  1  0  0  0
 78 82  1  0  0  0
 78149  1  0  0  0
 78150  1  0  0  0
 78151  1  0  0  0
 79 80  1  0  0  0
 79 82  1  0  0  0
 79152  1  0  0  0
 79153  1  0  0  0
 80154  1  0  0  0
 80155  1  0  0  0
M  ISO  4   1 100  68 101  80 101  81 100
M  END
> <chiral flag>
0

> <version>
0

> <s_m_source_file>
/data/baiqing/PycharmProjects/Reinvent-master-3.2/result/LINK_invent/BTK/process_docking_weight1_custom_product_contain_oxygen_bond_distance_aromatic_linkinvent_7_9_3/rearranged_h_0013.sdf

> <i_m_source_file_index>
3

> <r_mmod_Potential_Energy-OPLS-2005>
757.08544921875

> <r_mmod_Stretch_Energy-OPLS-2005>
221.660217285156

> <r_mmod_Bend_Energy-OPLS-2005>
277.215484619141

> <r_mmod_Torsional_Energy-OPLS-2005>
345.148010253906

> <r_mmod_Improper_Torsional_Energy-OPLS-2005>
20.6981258392334

> <r_mmod_Van_der_Waal_Energy-OPLS-2005>
151.594589233398

> <r_mmod_Electrostatic_Energy-OPLS-2005>
-246.331100463867

> <r_mmod_Solvation_Energy-OPLS-2005>
-209.666458129883

> <b_mmod_Minimization_Converged-OPLS-2005>
0

> <r_mmod_RMS_Derivative-OPLS-2005>
1.80845773220062

$$$$
3
                    3D
 Structure written by MMmdl.
151159  0  0  1  0            999 V2000
  -30.5694  -14.6346   20.4636 C   0  0  0  0  0  0
  -30.4375  -12.3747   19.4542 C   0  0  0  0  0  0
  -29.5034  -12.4882   18.2269 C   0  0  0  0  0  0
  -28.0206  -12.3476   18.6293 C   0  0  0  0  0  0
  -27.6466  -13.2095   19.8617 C   0  0  2  0  0  0
  -28.6883  -13.0347   20.9889 C   0  0  0  0  0  0
  -25.2482  -13.8115   20.5805 C   0  0  0  0  0  0
  -24.1780  -13.0368   20.9247 C   0  0  0  0  0  0
  -24.6330  -11.6829   20.8724 C   0  0  0  0  0  0
  -23.9007  -10.4242   21.0371 C   0  0  0  0  0  0
  -24.3580   -9.4176   21.9152 C   0  0  0  0  0  0
  -23.6269   -8.2208   22.0714 C   0  0  0  0  0  0
  -22.4250   -8.0239   21.3505 C   0  0  0  0  0  0
  -21.9878   -9.0199   20.4601 C   0  0  0  0  0  0
  -22.7190  -10.2069   20.3005 C   0  0  0  0  0  0
  -21.6840   -6.0697   22.5271 C   0  0  0  0  0  0
  -21.4011   -6.5601   23.8209 C   0  0  0  0  0  0
  -21.3639   -5.6749   24.9170 C   0  0  0  0  0  0
  -21.6057   -4.3019   24.7231 C   0  0  0  0  0  0
  -21.8837   -3.8099   23.4356 C   0  0  0  0  0  0
  -21.9214   -4.6923   22.3407 C   0  0  0  0  0  0
  -22.7798  -13.5147   21.1939 C   0  0  0  0  0  0
  -22.1678   -4.2104   21.0990 F   0  0  0  0  0  0
  -21.5632   -3.4523   25.7754 F   0  0  0  0  0  0
  -30.0054  -13.3882   20.4344 N   0  0  0  0  0  0
  -26.2916  -12.9320   20.3285 N   0  0  0  0  0  0
  -25.9251  -11.6454   20.5682 N   0  0  0  0  0  0
  -22.0432  -12.8121   22.0442 N   0  0  0  0  0  0
  -25.3975  -15.1883   20.4464 N   0  0  0  0  0  0
  -31.7313  -14.8276   20.0909 O   0  0  0  0  0  0
  -21.6613   -6.8837   21.4218 O   0  0  0  0  0  0
  -22.3481  -14.5460   20.6784 O   0  0  0  0  0  0
  -24.6285  -31.8629   23.2024 C   0  0  0  0  0  0
  -25.9139  -32.4787   23.8373 C   0  0  1  0  0  0
  -27.2137  -27.3100   20.1007 C   0  0  0  0  0  0
  -25.5976  -33.8597   24.2301 N   0  0  0  0  0  0
  -23.4203  -30.4892   21.5454 C   0  0  2  0  0  0
  -24.8637  -28.9427   20.1087 C   0  0  0  0  0  0
  -22.7474  -29.4696   22.4962 C   0  0  0  0  0  0
  -18.0308  -28.1248   22.8629 C   0  0  0  0  0  0
  -24.1490  -36.7259   23.2647 C   0  0  0  0  0  0
  -25.9651  -30.7818   21.3832 C   0  0  0  0  0  0
  -26.0340  -29.4114   20.7175 C   0  0  0  0  0  0
  -27.2149  -28.6064   20.7044 C   0  0  0  0  0  0
  -26.0253  -26.9014   19.4588 C   0  0  0  0  0  0
  -24.8628  -27.6954   19.4652 C   0  0  0  0  0  0
  -23.6349  -29.8256   20.1604 C   0  0  0  0  0  0
  -25.4122  -36.3088   24.0351 C   0  0  1  0  0  0
  -20.5932  -28.3679   23.1222 C   0  0  2  0  0  0
  -20.6887  -26.9508   22.5064 C   0  0  0  0  0  0
  -19.5590  -26.6285   21.5187 C   0  0  0  0  0  0
  -18.1963  -26.7679   22.1963 C   0  0  0  0  0  0
  -19.1573  -28.8809   23.2871 C   0  0  0  0  0  0
  -18.9461  -30.1479   23.8762 C   0  0  0  0  0  0
  -17.6458  -30.6606   24.0375 C   0  0  0  0  0  0
  -25.9063  -34.9459   23.5117 C   0  0  0  0  0  0
  -16.5373  -29.9038   23.6248 C   0  0  0  0  0  0
  -16.7298  -28.6355   23.0459 C   0  0  0  0  0  0
  -26.4511  -31.6604   25.0747 C   0  0  0  0  0  0
  -25.3713  -31.3748   26.1438 C   0  0  0  0  0  0
  -27.0381  -30.3025   24.6259 C   0  0  0  0  0  0
  -27.6115  -32.4310   25.7479 C   0  0  0  0  0  0
  -27.5580  -37.1808   24.8484 C   0  0  0  0  0  0
  -21.4187  -29.3152   22.3744 N   0  0  0  0  0  0
  -26.4304  -37.3778   23.9403 N   0  0  0  0  0  0
  -24.6900  -31.0616   22.0994 N   0  0  0  0  0  0
  -23.4217  -28.8182   23.2988 O   0  0  0  0  0  0
  -28.3253  -26.4520   20.0917 O   0  0  0  0  0  0
  -26.5605  -34.8913   22.4669 O   0  0  0  0  0  0
  -23.5450  -32.1452   23.7340 O   0  0  0  0  0  0
  -30.6058  -18.0277   20.5970 C   0  0  0  0  0  0
  -28.2069  -18.8986   19.4724 C   0  0  0  0  0  0
  -29.6223  -17.0407   20.3359 C   0  0  0  0  0  0
  -29.1403  -19.9147   19.8249 C   0  0  0  0  0  0
  -30.3694  -19.4232   20.3653 C   0  0  0  0  0  0
  -28.4266  -17.5135   19.7366 C   0  0  0  0  0  0
  -29.0604  -23.9215   19.7337 C   0  0  0  0  0  0
  -28.1321  -25.0142   20.4414 C   0  0  0  0  0  0
  -29.2747  -22.4355   20.3354 C   0  0  0  0  0  0
  -29.7082  -15.6466   20.7821 N   0  0  0  0  0  0
  -28.8024  -21.2736   19.5527 O   0  0  0  0  0  0
  -31.3692  -20.2841   20.6595 F   0  0  0  0  0  0
  -27.4566  -16.6269   19.4151 F   0  0  0  0  0  0
  -31.4730  -12.5241   19.1477 H   0  0  0  0  0  0
  -30.3957  -11.3772   19.8918 H   0  0  0  0  0  0
  -29.7553  -11.7248   17.4898 H   0  0  0  0  0  0
  -29.6578  -13.4505   17.7354 H   0  0  0  0  0  0
  -27.8379  -11.2939   18.8441 H   0  0  0  0  0  0
  -27.3722  -12.5986   17.7873 H   0  0  0  0  0  0
  -27.6639  -14.2459   19.5281 H   0  0  0  0  0  0
  -28.6892  -12.0028   21.3442 H   0  0  0  0  0  0
  -28.4279  -13.6451   21.8543 H   0  0  0  0  0  0
  -25.2725   -9.5681   22.4714 H   0  0  0  0  0  0
  -23.9995   -7.4608   22.7437 H   0  0  0  0  0  0
  -21.0804   -8.8689   19.8922 H   0  0  0  0  0  0
  -22.3651  -10.9588   19.6103 H   0  0  0  0  0  0
  -21.1970   -7.6103   23.9712 H   0  0  0  0  0  0
  -21.1441   -6.0459   25.9074 H   0  0  0  0  0  0
  -22.0637   -2.7564   23.2869 H   0  0  0  0  0  0
  -22.4102  -11.9799   22.4840 H   0  0  0  0  0  0
  -21.0997  -13.1005   22.2624 H   0  0  0  0  0  0
  -24.6094  -15.8101   20.6039 H   0  0  0  0  0  0
  -26.2187  -15.6712   20.0929 H   0  0  0  0  0  0
  -26.7234  -32.5420   23.1148 H   0  0  0  0  0  0
  -25.0217  -33.9762   25.0508 H   0  0  0  0  0  0
  -22.7166  -31.3125   21.4010 H   0  0  0  0  0  0
  -23.3774  -35.9578   23.3348 H   0  0  0  0  0  0
  -24.3556  -36.8794   22.2048 H   0  0  0  0  0  0
  -23.7202  -37.6471   23.6599 H   0  0  0  0  0  0
  -26.1139  -31.5508   20.6256 H   0  0  0  0  0  0
  -26.8416  -30.8144   22.0183 H   0  0  0  0  0  0
  -28.1130  -28.9684   21.1886 H   0  0  0  0  0  0
  -25.9819  -25.9585   18.9364 H   0  0  0  0  0  0
  -23.9744  -27.3392   18.9596 H   0  0  0  0  0  0
  -23.7532  -30.6013   19.4049 H   0  0  0  0  0  0
  -22.7532  -29.2564   19.8610 H   0  0  0  0  0  0
  -25.1299  -36.1983   25.0851 H   0  0  0  0  0  0
  -21.0077  -28.3091   24.1320 H   0  0  0  0  0  0
  -21.6603  -26.7843   22.0408 H   0  0  0  0  0  0
  -20.6403  -26.2323   23.3285 H   0  0  0  0  0  0
  -19.6734  -25.6154   21.1311 H   0  0  0  0  0  0
  -19.6162  -27.3022   20.6627 H   0  0  0  0  0  0
  -18.0852  -25.9972   22.9615 H   0  0  0  0  0  0
  -17.4004  -26.6003   21.4677 H   0  0  0  0  0  0
  -19.7923  -30.7360   24.2036 H   0  0  0  0  0  0
  -17.4956  -31.6344   24.4800 H   0  0  0  0  0  0
  -15.5364  -30.2950   23.7530 H   0  0  0  0  0  0
  -15.8689  -28.0575   22.7378 H   0  0  0  0  0  0
  -24.5901  -30.7107   25.7692 H   0  0  0  0  0  0
  -24.8915  -32.2938   26.4830 H   0  0  0  0  0  0
  -25.8008  -30.8895   27.0220 H   0  0  0  0  0  0
  -26.3013  -29.6717   24.1279 H   0  0  0  0  0  0
  -27.4056  -29.7312   25.4795 H   0  0  0  0  0  0
  -27.8865  -30.4280   23.9529 H   0  0  0  0  0  0
  -27.2814  -33.3619   26.2096 H   0  0  0  0  0  0
  -28.3909  -32.6861   25.0278 H   0  0  0  0  0  0
  -28.0837  -31.8413   26.5349 H   0  0  0  0  0  0
  -28.2670  -38.0039   24.7488 H   0  0  0  0  0  0
  -28.1034  -36.2590   24.6416 H   0  0  0  0  0  0
  -27.2295  -37.1545   25.8887 H   0  0  0  0  0  0
  -20.9322  -29.9001   21.7082 H   0  0  0  0  0  0
  -26.0203  -38.2869   24.1373 H   0  0  0  0  0  0
  -31.5509  -17.7198   21.0162 H   0  0  0  0  0  0
  -27.2756  -19.1808   19.0055 H   0  0  0  0  0  0
  -30.0428  -24.3913   19.7473 H   0  0  0  0  0  0
  -28.8063  -23.8528   18.6740 H   0  0  0  0  0  0
  -27.0954  -24.6996   20.3392 H   0  0  0  0  0  0
  -28.3207  -24.9651   21.5138 H   0  0  0  0  0  0
  -28.8169  -22.3814   21.3218 H   0  0  0  0  0  0
  -30.3461  -22.3338   20.5237 H   0  0  0  0  0  0
  -28.8304  -15.2850   21.1241 H   0  0  0  0  0  0
  1 25  1  0  0  0
  1 30  2  0  0  0
  1 80  1  0  0  0
  2  3  1  0  0  0
  2 25  1  0  0  0
  2 84  1  0  0  0
  2 85  1  0  0  0
  3  4  1  0  0  0
  3 86  1  0  0  0
  3 87  1  0  0  0
  4  5  1  0  0  0
  4 88  1  0  0  0
  4 89  1  0  0  0
  5  6  1  0  0  0
  5 26  1  0  0  0
  5 90  1  0  0  0
  6 25  1  0  0  0
  6 91  1  0  0  0
  6 92  1  0  0  0
  7  8  2  0  0  0
  7 26  1  0  0  0
  7 29  1  0  0  0
  8  9  1  0  0  0
  8 22  1  0  0  0
  9 10  1  0  0  0
  9 27  2  0  0  0
 10 11  2  0  0  0
 10 15  1  0  0  0
 11 12  1  0  0  0
 11 93  1  0  0  0
 12 13  2  0  0  0
 12 94  1  0  0  0
 13 14  1  0  0  0
 13 31  1  0  0  0
 14 15  2  0  0  0
 14 95  1  0  0  0
 15 96  1  0  0  0
 16 17  2  0  0  0
 16 21  1  0  0  0
 16 31  1  0  0  0
 17 18  1  0  0  0
 17 97  1  0  0  0
 18 19  2  0  0  0
 18 98  1  0  0  0
 19 20  1  0  0  0
 19 24  1  0  0  0
 20 21  2  0  0  0
 20 99  1  0  0  0
 21 23  1  0  0  0
 22 28  1  0  0  0
 22 32  2  0  0  0
 26 27  1  0  0  0
 28100  1  0  0  0
 28101  1  0  0  0
 29102  1  0  0  0
 29103  1  0  0  0
 33 34  1  0  0  0
 33 66  1  0  0  0
 33 70  2  0  0  0
 34 36  1  0  0  0
 34 59  1  0  0  0
 34104  1  0  0  0
 35 44  2  0  0  0
 35 45  1  0  0  0
 35 68  1  0  0  0
 36 56  1  0  0  0
 36105  1  0  0  0
 37 39  1  0  0  0
 37 47  1  0  0  0
 37 66  1  0  0  0
 37106  1  0  0  0
 38 43  2  0  0  0
 38 46  1  0  0  0
 38 47  1  0  0  0
 39 64  1  0  0  0
 39 67  2  0  0  0
 40 52  1  0  0  0
 40 53  2  0  0  0
 40 58  1  0  0  0
 41107  1  0  0  0
 41108  1  0  0  0
 41109  1  0  0  0
 41 48  1  0  0  0
 42 43  1  0  0  0
 42 66  1  0  0  0
 42110  1  0  0  0
 42111  1  0  0  0
 43 44  1  0  0  0
 44112  1  0  0  0
 45 46  2  0  0  0
 45113  1  0  0  0
 46114  1  0  0  0
 47115  1  0  0  0
 47116  1  0  0  0
 48 56  1  0  0  0
 48 65  1  0  0  0
 48117  1  0  0  0
 49 50  1  0  0  0
 49 53  1  0  0  0
 49 64  1  0  0  0
 49118  1  0  0  0
 50 51  1  0  0  0
 50119  1  0  0  0
 50120  1  0  0  0
 51 52  1  0  0  0
 51121  1  0  0  0
 51122  1  0  0  0
 52123  1  0  0  0
 52124  1  0  0  0
 53 54  1  0  0  0
 54 55  2  0  0  0
 54125  1  0  0  0
 55 57  1  0  0  0
 55126  1  0  0  0
 56 69  2  0  0  0
 57 58  2  0  0  0
 57127  1  0  0  0
 58128  1  0  0  0
 59 60  1  0  0  0
 59 61  1  0  0  0
 59 62  1  0  0  0
 60129  1  0  0  0
 60130  1  0  0  0
 60131  1  0  0  0
 61132  1  0  0  0
 61133  1  0  0  0
 61134  1  0  0  0
 62135  1  0  0  0
 62136  1  0  0  0
 62137  1  0  0  0
 63 65  1  0  0  0
 63138  1  0  0  0
 63139  1  0  0  0
 63140  1  0  0  0
 64141  1  0  0  0
 65142  1  0  0  0
 68 78  1  0  0  0
 71 73  2  0  0  0
 71 75  1  0  0  0
 71143  1  0  0  0
 72 74  1  0  0  0
 72 76  2  0  0  0
 72144  1  0  0  0
 73 76  1  0  0  0
 73 80  1  0  0  0
 74 75  2  0  0  0
 74 81  1  0  0  0
 75 82  1  0  0  0
 76 83  1  0  0  0
 77 78  1  0  0  0
 77 79  1  0  0  0
 77145  1  0  0  0
 77146  1  0  0  0
 78147  1  0  0  0
 78148  1  0  0  0
 79 81  1  0  0  0
 79149  1  0  0  0
 79150  1  0  0  0
 80151  1  0  0  0
M  ISO  4   1 100  68 101  78 101  80 100
M  END
> <chiral flag>
0

> <version>
0

> <s_m_source_file>
/data/baiqing/PycharmProjects/Reinvent-master-3.2/result/LINK_invent/BTK/process_docking_weight1_custom_product_contain_oxygen_bond_distance_aromatic_linkinvent_7_9_3/rearranged_h_0013.sdf

> <i_m_source_file_index>
4

> <r_mmod_Potential_Energy-OPLS-2005>
102.17041015625

> <r_mmod_Stretch_Energy-OPLS-2005>
90.379280090332

> <r_mmod_Bend_Energy-OPLS-2005>
159.205230712891

> <r_mmod_Torsional_Energy-OPLS-2005>
268.782775878906

> <r_mmod_Improper_Torsional_Energy-OPLS-2005>
5.80839776992798

> <r_mmod_Van_der_Waal_Energy-OPLS-2005>
144.05290222168

> <r_mmod_Electrostatic_Energy-OPLS-2005>
-418.21044921875

> <r_mmod_Solvation_Energy-OPLS-2005>
-199.910629272461

> <b_mmod_Minimization_Converged-OPLS-2005>
0

> <r_mmod_RMS_Derivative-OPLS-2005>
7.06093120574951

$$$$
4
                    3D
 Structure written by MMmdl.
159168  0  0  1  0            999 V2000
  -30.6161  -14.7710   20.5530 C   0  0  0  0  0  0
  -30.4347  -12.4942   19.4776 C   0  0  0  0  0  0
  -29.5125  -12.5445   18.2386 C   0  0  0  0  0  0
  -28.0411  -12.3464   18.6465 C   0  0  0  0  0  0
  -27.6440  -13.2326   19.8543 C   0  0  2  0  0  0
  -28.6805  -13.1439   20.9911 C   0  0  0  0  0  0
  -25.2518  -13.8194   20.5682 C   0  0  0  0  0  0
  -24.1802  -13.0444   20.9184 C   0  0  0  0  0  0
  -24.6392  -11.6918   20.8719 C   0  0  0  0  0  0
  -23.9069  -10.4295   21.0397 C   0  0  0  0  0  0
  -24.3621   -9.4215   21.9179 C   0  0  0  0  0  0
  -23.6298   -8.2250   22.0755 C   0  0  0  0  0  0
  -22.4280   -8.0281   21.3545 C   0  0  0  0  0  0
  -21.9912   -9.0252   20.4647 C   0  0  0  0  0  0
  -22.7241  -10.2131   20.3052 C   0  0  0  0  0  0
  -21.6856   -6.0734   22.5277 C   0  0  0  0  0  0
  -21.4015   -6.5639   23.8210 C   0  0  0  0  0  0
  -21.3661   -5.6793   24.9172 C   0  0  0  0  0  0
  -21.6043   -4.3055   24.7224 C   0  0  0  0  0  0
  -21.8819   -3.8144   23.4346 C   0  0  0  0  0  0
  -21.9196   -4.6961   22.3403 C   0  0  0  0  0  0
  -22.7828  -13.5229   21.1866 C   0  0  0  0  0  0
  -22.1661   -4.2147   21.0980 F   0  0  0  0  0  0
  -21.5632   -3.4538   25.7736 F   0  0  0  0  0  0
  -29.9890  -13.5364   20.4407 N   0  0  0  0  0  0
  -26.2938  -12.9400   20.3261 N   0  0  0  0  0  0
  -25.9322  -11.6540   20.5714 N   0  0  0  0  0  0
  -22.0482  -12.8207   22.0421 N   0  0  0  0  0  0
  -25.4242  -15.1917   20.4134 N   0  0  0  0  0  0
  -31.7165  -14.9305   20.0134 O   0  0  0  0  0  0
  -21.6646   -6.8876   21.4238 O   0  0  0  0  0  0
  -22.3509  -14.5539   20.6729 O   0  0  0  0  0  0
  -24.6348  -31.8508   23.1932 C   0  0  0  0  0  0
  -25.9156  -32.4729   23.8295 C   0  0  1  0  0  0
  -27.2218  -27.2188   20.1423 C   0  0  0  0  0  0
  -25.5946  -33.8532   24.2220 N   0  0  0  0  0  0
  -23.4343  -30.4704   21.5370 C   0  0  2  0  0  0
  -24.8822  -28.9067   20.1111 C   0  0  0  0  0  0
  -22.7522  -29.4578   22.4895 C   0  0  0  0  0  0
  -18.0295  -28.1396   22.8480 C   0  0  0  0  0  0
  -24.1492  -36.7257   23.2642 C   0  0  0  0  0  0
  -25.9827  -30.7502   21.3788 C   0  0  0  0  0  0
  -26.0544  -29.3680   20.7230 C   0  0  0  0  0  0
  -27.2264  -28.5385   20.7220 C   0  0  0  0  0  0
  -26.0285  -26.8384   19.4900 C   0  0  0  0  0  0
  -24.8771  -27.6525   19.4810 C   0  0  0  0  0  0
  -23.6544  -29.7979   20.1558 C   0  0  0  0  0  0
  -25.4119  -36.3046   24.0327 C   0  0  1  0  0  0
  -20.5898  -28.3706   23.1260 C   0  0  2  0  0  0
  -20.6777  -26.9422   22.5403 C   0  0  0  0  0  0
  -19.5757  -26.6383   21.5207 C   0  0  0  0  0  0
  -18.1937  -26.7938   22.1616 C   0  0  0  0  0  0
  -19.1549  -28.8870   23.2862 C   0  0  0  0  0  0
  -18.9469  -30.1472   23.8881 C   0  0  0  0  0  0
  -17.6466  -30.6598   24.0558 C   0  0  0  0  0  0
  -25.9067  -34.9426   23.5075 C   0  0  0  0  0  0
  -16.5357  -29.9089   23.6342 C   0  0  0  0  0  0
  -16.7279  -28.6507   23.0361 C   0  0  0  0  0  0
  -26.4513  -31.6580   25.0709 C   0  0  0  0  0  0
  -25.3724  -31.3745   26.1421 C   0  0  0  0  0  0
  -27.0370  -30.2990   24.6239 C   0  0  0  0  0  0
  -27.6055  -32.4340   25.7484 C   0  0  0  0  0  0
  -27.5582  -37.1774   24.8460 C   0  0  0  0  0  0
  -21.4222  -29.3044   22.3639 N   0  0  0  0  0  0
  -26.4279  -37.3760   23.9431 N   0  0  0  0  0  0
  -24.7028  -31.0438   22.0919 N   0  0  0  0  0  0
  -23.4204  -28.8129   23.3015 O   0  0  0  0  0  0
  -28.3207  -26.3163   20.1929 O   0  0  0  0  0  0
  -26.5640  -34.8920   22.4645 O   0  0  0  0  0  0
  -23.5487  -32.1340   23.7209 O   0  0  0  0  0  0
  -29.8697  -19.3931   19.6408 C   0  0  0  0  0  0
  -30.1030  -17.9717   19.8286 C   0  0  0  0  0  0
  -28.9017  -19.5293   21.7874 C   0  0  0  0  0  0
  -29.2778  -20.2582   20.6233 C   0  0  0  0  0  0
  -29.7639  -17.2570   21.0252 C   0  0  0  0  0  0
  -29.1132  -18.1214   21.9778 C   0  0  0  0  0  0
  -28.8224  -23.9435   19.1192 C   0  0  0  0  0  0
  -28.7323  -24.1037   21.5253 C   0  0  0  0  0  0
  -28.6840  -22.3496   19.2093 C   0  0  0  0  0  0
  -28.5553  -22.5223   21.6229 C   0  0  0  0  0  0
  -28.1437  -24.7990   20.2522 C   0  0  0  0  0  0
  -30.1516  -15.4487   22.7635 C   0  0  0  0  0  0
  -29.0938  -21.7179   20.4914 N   0  0  0  0  0  0
  -30.0455  -15.7886   21.3292 N   0  0  0  0  0  0
  -28.6417  -17.6197   23.1444 F   0  0  0  0  0  0
  -31.4749  -12.6271   19.1762 H   0  0  0  0  0  0
  -30.3906  -11.5082   19.9429 H   0  0  0  0  0  0
  -29.8056  -11.7824   17.5156 H   0  0  0  0  0  0
  -29.6259  -13.5056   17.7340 H   0  0  0  0  0  0
  -27.9058  -11.2941   18.8996 H   0  0  0  0  0  0
  -27.3822  -12.5428   17.8002 H   0  0  0  0  0  0
  -27.6459  -14.2612   19.4925 H   0  0  0  0  0  0
  -28.7254  -12.1335   21.3992 H   0  0  0  0  0  0
  -28.3632  -13.7803   21.8138 H   0  0  0  0  0  0
  -25.2769   -9.5692   22.4751 H   0  0  0  0  0  0
  -24.0008   -7.4640   22.7475 H   0  0  0  0  0  0
  -21.0844   -8.8768   19.8949 H   0  0  0  0  0  0
  -22.3700  -10.9667   19.6156 H   0  0  0  0  0  0
  -21.2002   -7.6147   23.9713 H   0  0  0  0  0  0
  -21.1484   -6.0522   25.9077 H   0  0  0  0  0  0
  -22.0595   -2.7604   23.2847 H   0  0  0  0  0  0
  -22.4095  -11.9845   22.4766 H   0  0  0  0  0  0
  -21.1107  -13.1231   22.2662 H   0  0  0  0  0  0
  -24.6654  -15.8530   20.5370 H   0  0  0  0  0  0
  -26.2892  -15.6295   20.1222 H   0  0  0  0  0  0
  -26.7223  -32.5360   23.1031 H   0  0  0  0  0  0
  -25.0104  -33.9656   25.0377 H   0  0  0  0  0  0
  -22.7328  -31.2931   21.3854 H   0  0  0  0  0  0
  -23.3771  -35.9566   23.3260 H   0  0  0  0  0  0
  -24.3589  -36.8925   22.2065 H   0  0  0  0  0  0
  -23.7223  -37.6435   23.6697 H   0  0  0  0  0  0
  -26.1291  -31.5076   20.6076 H   0  0  0  0  0  0
  -26.8569  -30.7980   22.0164 H   0  0  0  0  0  0
  -28.1247  -28.8884   21.2108 H   0  0  0  0  0  0
  -25.9643  -25.8873   18.9830 H   0  0  0  0  0  0
  -23.9828  -27.2974   18.9877 H   0  0  0  0  0  0
  -23.7800  -30.5696   19.3960 H   0  0  0  0  0  0
  -22.7726  -29.2303   19.8527 H   0  0  0  0  0  0
  -25.1303  -36.1865   25.0816 H   0  0  0  0  0  0
  -20.9990  -28.3284   24.1382 H   0  0  0  0  0  0
  -20.5669  -26.2322   23.3609 H   0  0  0  0  0  0
  -21.6645  -26.7440   22.1199 H   0  0  0  0  0  0
  -19.6914  -25.6288   21.1249 H   0  0  0  0  0  0
  -19.6703  -27.3181   20.6731 H   0  0  0  0  0  0
  -17.4208  -26.6693   21.4017 H   0  0  0  0  0  0
  -18.0338  -26.0085   22.9014 H   0  0  0  0  0  0
  -19.7945  -30.7290   24.2245 H   0  0  0  0  0  0
  -17.5024  -31.6280   24.5152 H   0  0  0  0  0  0
  -15.5356  -30.2981   23.7691 H   0  0  0  0  0  0
  -15.8678  -28.0819   22.7092 H   0  0  0  0  0  0
  -24.5909  -30.7084   25.7753 H   0  0  0  0  0  0
  -24.8902  -32.2911   26.4824 H   0  0  0  0  0  0
  -25.8027  -30.8940   27.0215 H   0  0  0  0  0  0
  -26.2963  -29.6721   24.1261 H   0  0  0  0  0  0
  -27.4026  -29.7289   25.4790 H   0  0  0  0  0  0
  -27.8856  -30.4251   23.9514 H   0  0  0  0  0  0
  -27.2663  -33.3675   26.1990 H   0  0  0  0  0  0
  -28.3900  -32.6841   25.0329 H   0  0  0  0  0  0
  -28.0680  -31.8507   26.5455 H   0  0  0  0  0  0
  -28.2554  -38.0119   24.7568 H   0  0  0  0  0  0
  -28.1124  -36.2649   24.6196 H   0  0  0  0  0  0
  -27.2313  -37.1310   25.8865 H   0  0  0  0  0  0
  -20.9420  -29.8759   21.6828 H   0  0  0  0  0  0
  -26.0137  -38.2819   24.1471 H   0  0  0  0  0  0
  -30.1953  -19.8274   18.7068 H   0  0  0  0  0  0
  -30.5853  -17.4325   19.0261 H   0  0  0  0  0  0
  -28.4152  -20.0481   22.5986 H   0  0  0  0  0  0
  -28.4276  -24.2699   18.1562 H   0  0  0  0  0  0
  -29.8839  -24.1923   19.0903 H   0  0  0  0  0  0
  -29.7947  -24.3410   21.5971 H   0  0  0  0  0  0
  -28.2757  -24.5560   22.4058 H   0  0  0  0  0  0
  -29.2563  -21.9050   18.3944 H   0  0  0  0  0  0
  -27.6431  -22.0797   19.0230 H   0  0  0  0  0  0
  -27.4949  -22.2908   21.7319 H   0  0  0  0  0  0
  -29.0337  -22.1943   22.5470 H   0  0  0  0  0  0
  -27.0813  -24.5612   20.2546 H   0  0  0  0  0  0
  -30.6921  -16.2259   23.3047 H   0  0  0  0  0  0
  -30.6903  -14.5202   22.9729 H   0  0  0  0  0  0
  -29.1666  -15.3396   23.2164 H   0  0  0  0  0  0
  1 25  1  0  0  0
  1 30  2  0  0  0
  1 84  1  0  0  0
  2  3  1  0  0  0
  2 25  1  0  0  0
  2 86  1  0  0  0
  2 87  1  0  0  0
  3  4  1  0  0  0
  3 88  1  0  0  0
  3 89  1  0  0  0
  4  5  1  0  0  0
  4 90  1  0  0  0
  4 91  1  0  0  0
  5  6  1  0  0  0
  5 26  1  0  0  0
  5 92  1  0  0  0
  6 25  1  0  0  0
  6 93  1  0  0  0
  6 94  1  0  0  0
  7  8  2  0  0  0
  7 26  1  0  0  0
  7 29  1  0  0  0
  8  9  1  0  0  0
  8 22  1  0  0  0
  9 10  1  0  0  0
  9 27  2  0  0  0
 10 11  2  0  0  0
 10 15  1  0  0  0
 11 12  1  0  0  0
 11 95  1  0  0  0
 12 13  2  0  0  0
 12 96  1  0  0  0
 13 14  1  0  0  0
 13 31  1  0  0  0
 14 15  2  0  0  0
 14 97  1  0  0  0
 15 98  1  0  0  0
 16 17  2  0  0  0
 16 21  1  0  0  0
 16 31  1  0  0  0
 17 18  1  0  0  0
 17 99  1  0  0  0
 18 19  2  0  0  0
 18100  1  0  0  0
 19 20  1  0  0  0
 19 24  1  0  0  0
 20 21  2  0  0  0
 20101  1  0  0  0
 21 23  1  0  0  0
 22 28  1  0  0  0
 22 32  2  0  0  0
 26 27  1  0  0  0
 28102  1  0  0  0
 28103  1  0  0  0
 29104  1  0  0  0
 29105  1  0  0  0
 33 34  1  0  0  0
 33 66  1  0  0  0
 33 70  2  0  0  0
 34 36  1  0  0  0
 34 59  1  0  0  0
 34106  1  0  0  0
 35 44  2  0  0  0
 35 45  1  0  0  0
 35 68  1  0  0  0
 36 56  1  0  0  0
 36107  1  0  0  0
 37 39  1  0  0  0
 37 47  1  0  0  0
 37 66  1  0  0  0
 37108  1  0  0  0
 38 43  2  0  0  0
 38 46  1  0  0  0
 38 47  1  0  0  0
 39 64  1  0  0  0
 39 67  2  0  0  0
 40 52  1  0  0  0
 40 53  2  0  0  0
 40 58  1  0  0  0
 41109  1  0  0  0
 41110  1  0  0  0
 41111  1  0  0  0
 41 48  1  0  0  0
 42 43  1  0  0  0
 42 66  1  0  0  0
 42112  1  0  0  0
 42113  1  0  0  0
 43 44  1  0  0  0
 44114  1  0  0  0
 45 46  2  0  0  0
 45115  1  0  0  0
 46116  1  0  0  0
 47117  1  0  0  0
 47118  1  0  0  0
 48 56  1  0  0  0
 48 65  1  0  0  0
 48119  1  0  0  0
 49 50  1  0  0  0
 49 53  1  0  0  0
 49 64  1  0  0  0
 49120  1  0  0  0
 50 51  1  0  0  0
 50121  1  0  0  0
 50122  1  0  0  0
 51 52  1  0  0  0
 51123  1  0  0  0
 51124  1  0  0  0
 52125  1  0  0  0
 52126  1  0  0  0
 53 54  1  0  0  0
 54 55  2  0  0  0
 54127  1  0  0  0
 55 57  1  0  0  0
 55128  1  0  0  0
 56 69  2  0  0  0
 57 58  2  0  0  0
 57129  1  0  0  0
 58130  1  0  0  0
 59 60  1  0  0  0
 59 61  1  0  0  0
 59 62  1  0  0  0
 60131  1  0  0  0
 60132  1  0  0  0
 60133  1  0  0  0
 61134  1  0  0  0
 61135  1  0  0  0
 61136  1  0  0  0
 62137  1  0  0  0
 62138  1  0  0  0
 62139  1  0  0  0
 63 65  1  0  0  0
 63140  1  0  0  0
 63141  1  0  0  0
 63142  1  0  0  0
 64143  1  0  0  0
 65144  1  0  0  0
 68 81  1  0  0  0
 71 72  2  0  0  0
 71 74  1  0  0  0
 71145  1  0  0  0
 72 75  1  0  0  0
 72146  1  0  0  0
 73 74  2  0  0  0
 73 76  1  0  0  0
 73147  1  0  0  0
 74 83  1  0  0  0
 75 76  2  0  0  0
 75 84  1  0  0  0
 76 85  1  0  0  0
 77 79  1  0  0  0
 77 81  1  0  0  0
 77148  1  0  0  0
 77149  1  0  0  0
 78 80  1  0  0  0
 78 81  1  0  0  0
 78150  1  0  0  0
 78151  1  0  0  0
 79 83  1  0  0  0
 79152  1  0  0  0
 79153  1  0  0  0
 80 83  1  0  0  0
 80154  1  0  0  0
 80155  1  0  0  0
 81156  1  0  0  0
 82 84  1  0  0  0
 82157  1  0  0  0
 82158  1  0  0  0
 82159  1  0  0  0
M  ISO  4   1 100  68 101  81 101  84 100
M  END
> <chiral flag>
0

> <version>
0

> <s_m_source_file>
/data/baiqing/PycharmProjects/Reinvent-master-3.2/result/LINK_invent/BTK/process_docking_weight1_custom_product_contain_oxygen_bond_distance_aromatic_linkinvent_7_9_3/rearranged_h_0013.sdf

> <i_m_source_file_index>
5

> <r_mmod_Potential_Energy-OPLS-2005>
392.996978759766

> <r_mmod_Stretch_Energy-OPLS-2005>
152.329360961914

> <r_mmod_Bend_Energy-OPLS-2005>
211.351501464844

> <r_mmod_Torsional_Energy-OPLS-2005>
302.739624023438

> <r_mmod_Improper_Torsional_Energy-OPLS-2005>
5.84255886077881

> <r_mmod_Van_der_Waal_Energy-OPLS-2005>
156.664749145508

> <r_mmod_Electrostatic_Energy-OPLS-2005>
-331.167694091797

> <r_mmod_Solvation_Energy-OPLS-2005>
-205.155532836914

> <b_mmod_Minimization_Converged-OPLS-2005>
0

> <r_mmod_RMS_Derivative-OPLS-2005>
0.996377766132355

$$$$
5
                    3D
 Structure written by MMmdl.
161169  0  0  1  0            999 V2000
  -30.6638  -14.6622   20.5158 C   0  0  0  0  0  0
  -30.4235  -12.4177   19.4566 C   0  0  0  0  0  0
  -29.5011  -12.5093   18.2237 C   0  0  0  0  0  0
  -28.0266  -12.3491   18.6392 C   0  0  0  0  0  0
  -27.6464  -13.2300   19.8594 C   0  0  2  0  0  0
  -28.6919  -13.1278   20.9910 C   0  0  0  0  0  0
  -25.2524  -13.8190   20.5709 C   0  0  0  0  0  0
  -24.1812  -13.0429   20.9207 C   0  0  0  0  0  0
  -24.6406  -11.6912   20.8750 C   0  0  0  0  0  0
  -23.9078  -10.4288   21.0410 C   0  0  0  0  0  0
  -24.3620   -9.4206   21.9194 C   0  0  0  0  0  0
  -23.6291   -8.2243   22.0762 C   0  0  0  0  0  0
  -22.4277   -8.0281   21.3545 C   0  0  0  0  0  0
  -21.9920   -9.0256   20.4644 C   0  0  0  0  0  0
  -22.7254  -10.2132   20.3055 C   0  0  0  0  0  0
  -21.6853   -6.0737   22.5280 C   0  0  0  0  0  0
  -21.4017   -6.5639   23.8216 C   0  0  0  0  0  0
  -21.3656   -5.6791   24.9175 C   0  0  0  0  0  0
  -21.6041   -4.3054   24.7226 C   0  0  0  0  0  0
  -21.8820   -3.8148   23.4350 C   0  0  0  0  0  0
  -21.9193   -4.6964   22.3403 C   0  0  0  0  0  0
  -22.7832  -13.5216   21.1862 C   0  0  0  0  0  0
  -22.1663   -4.2151   21.0981 F   0  0  0  0  0  0
  -21.5623   -3.4538   25.7739 F   0  0  0  0  0  0
  -29.9992  -13.4639   20.4137 N   0  0  0  0  0  0
  -26.2966  -12.9401   20.3334 N   0  0  0  0  0  0
  -25.9345  -11.6541   20.5777 N   0  0  0  0  0  0
  -22.0469  -12.8197   22.0398 N   0  0  0  0  0  0
  -25.4191  -15.1909   20.4114 N   0  0  0  0  0  0
  -31.8269  -14.7600   20.1101 O   0  0  0  0  0  0
  -21.6636   -6.8882   21.4243 O   0  0  0  0  0  0
  -22.3524  -14.5532   20.6719 O   0  0  0  0  0  0
  -24.6252  -31.8602   23.1989 C   0  0  0  0  0  0
  -25.9093  -32.4789   23.8328 C   0  0  1  0  0  0
  -27.2239  -27.3113   20.1152 C   0  0  0  0  0  0
  -25.5914  -33.8588   24.2278 N   0  0  0  0  0  0
  -23.4178  -30.4808   21.5435 C   0  0  2  0  0  0
  -24.8630  -28.9312   20.1077 C   0  0  0  0  0  0
  -22.7472  -29.4616   22.4941 C   0  0  0  0  0  0
  -18.0287  -28.1379   22.8495 C   0  0  0  0  0  0
  -24.1485  -36.7280   23.2640 C   0  0  0  0  0  0
  -25.9566  -30.7873   21.3679 C   0  0  0  0  0  0
  -26.0289  -29.4117   20.7143 C   0  0  0  0  0  0
  -27.2071  -28.6104   20.7119 C   0  0  0  0  0  0
  -26.0304  -26.8741   19.4977 C   0  0  0  0  0  0
  -24.8657  -27.6692   19.4923 C   0  0  0  0  0  0
  -23.6308  -29.8125   20.1582 C   0  0  0  0  0  0
  -25.4115  -36.3092   24.0337 C   0  0  1  0  0  0
  -20.5885  -28.3677   23.1291 C   0  0  2  0  0  0
  -20.6777  -26.9408   22.5394 C   0  0  0  0  0  0
  -19.5743  -26.6393   21.5199 C   0  0  0  0  0  0
  -18.1927  -26.7921   22.1624 C   0  0  0  0  0  0
  -19.1541  -28.8843   23.2888 C   0  0  0  0  0  0
  -18.9466  -30.1446   23.8903 C   0  0  0  0  0  0
  -17.6470  -30.6586   24.0560 C   0  0  0  0  0  0
  -25.9054  -34.9463   23.5113 C   0  0  0  0  0  0
  -16.5362  -29.9086   23.6328 C   0  0  0  0  0  0
  -16.7277  -28.6498   23.0359 C   0  0  0  0  0  0
  -26.4488  -31.6593   25.0691 C   0  0  0  0  0  0
  -25.3719  -31.3677   26.1407 C   0  0  0  0  0  0
  -27.0348  -30.3049   24.6088 C   0  0  0  0  0  0
  -27.6052  -32.4333   25.7458 C   0  0  0  0  0  0
  -27.5581  -37.1797   24.8482 C   0  0  0  0  0  0
  -21.4181  -29.3042   22.3697 N   0  0  0  0  0  0
  -26.4297  -37.3789   23.9419 N   0  0  0  0  0  0
  -24.6860  -31.0595   22.0944 N   0  0  0  0  0  0
  -23.4200  -28.8158   23.3015 O   0  0  0  0  0  0
  -28.3696  -26.5049   20.1905 O   0  0  0  0  0  0
  -26.5623  -34.8925   22.4679 O   0  0  0  0  0  0
  -23.5417  -32.1411   23.7315 O   0  0  0  0  0  0
  -28.9321  -19.1561   21.3289 C   0  0  0  0  0  0
  -28.9161  -20.5875   21.2096 C   0  0  0  0  0  0
  -29.6513  -20.3829   18.9432 C   0  0  0  0  0  0
  -29.3075  -18.2945   20.2551 C   0  0  0  0  0  0
  -29.2627  -21.2547   20.0003 C   0  0  0  0  0  0
  -29.6726  -18.9625   19.0575 C   0  0  0  0  0  0
  -27.0776  -23.3855   20.6811 C   0  0  0  0  0  0
  -30.7178  -23.0570   19.4340 C   0  0  0  0  0  0
  -30.6474  -16.3939   22.2229 C   0  0  0  0  0  0
  -29.1435  -16.7135   20.2761 C   0  0  0  0  0  0
  -28.5023  -25.1793   19.5453 C   0  0  0  0  0  0
  -28.5283  -23.8120   20.4069 C   0  0  2  0  0  0
  -29.3463  -22.6902   19.8015 N   0  0  0  0  0  0
  -30.0258  -15.7645   21.0566 N   0  0  0  0  0  0
  -30.0254  -18.2309   17.9728 F   0  0  0  0  0  0
  -31.4662  -12.5238   19.1525 H   0  0  0  0  0  0
  -30.3503  -11.4316   19.9179 H   0  0  0  0  0  0
  -29.7679  -11.7422   17.4955 H   0  0  0  0  0  0
  -29.6448  -13.4687   17.7239 H   0  0  0  0  0  0
  -27.8673  -11.2974   18.8801 H   0  0  0  0  0  0
  -27.3708  -12.5704   17.7965 H   0  0  0  0  0  0
  -27.6520  -14.2599   19.5041 H   0  0  0  0  0  0
  -28.7125  -12.1215   21.4116 H   0  0  0  0  0  0
  -28.4374  -13.7963   21.8146 H   0  0  0  0  0  0
  -25.2759   -9.5679   22.4778 H   0  0  0  0  0  0
  -23.9992   -7.4637   22.7493 H   0  0  0  0  0  0
  -21.0852   -8.8782   19.8949 H   0  0  0  0  0  0
  -22.3723  -10.9672   19.6159 H   0  0  0  0  0  0
  -21.2014   -7.6147   23.9721 H   0  0  0  0  0  0
  -21.1472   -6.0519   25.9077 H   0  0  0  0  0  0
  -22.0601   -2.7612   23.2852 H   0  0  0  0  0  0
  -22.4072  -11.9837   22.4753 H   0  0  0  0  0  0
  -21.1093  -13.1236   22.2607 H   0  0  0  0  0  0
  -24.6496  -15.8418   20.5246 H   0  0  0  0  0  0
  -26.2633  -15.6316   20.0719 H   0  0  0  0  0  0
  -26.7150  -32.5463   23.1064 H   0  0  0  0  0  0
  -25.0095  -33.9736   25.0446 H   0  0  0  0  0  0
  -22.7120  -31.3016   21.4008 H   0  0  0  0  0  0
  -23.3774  -35.9586   23.3310 H   0  0  0  0  0  0
  -24.3583  -36.8897   22.2055 H   0  0  0  0  0  0
  -23.7205  -37.6467   23.6663 H   0  0  0  0  0  0
  -26.0790  -31.5466   20.5940 H   0  0  0  0  0  0
  -26.8411  -30.8465   21.9904 H   0  0  0  0  0  0
  -28.1020  -28.9741   21.1962 H   0  0  0  0  0  0
  -25.9563  -25.9002   19.0402 H   0  0  0  0  0  0
  -23.9675  -27.2944   19.0204 H   0  0  0  0  0  0
  -23.7451  -30.5895   19.4016 H   0  0  0  0  0  0
  -22.7503  -29.2415   19.8584 H   0  0  0  0  0  0
  -25.1289  -36.1954   25.0831 H   0  0  0  0  0  0
  -20.9977  -28.3234   24.1411 H   0  0  0  0  0  0
  -20.5693  -26.2275   23.3581 H   0  0  0  0  0  0
  -21.6640  -26.7450   22.1167 H   0  0  0  0  0  0
  -19.6901  -25.6307   21.1219 H   0  0  0  0  0  0
  -19.6669  -27.3216   20.6734 H   0  0  0  0  0  0
  -17.4187  -26.6681   21.4034 H   0  0  0  0  0  0
  -18.0337  -26.0055   22.9016 H   0  0  0  0  0  0
  -19.7947  -30.7261   24.2279 H   0  0  0  0  0  0
  -17.5029  -31.6271   24.5156 H   0  0  0  0  0  0
  -15.5364  -30.2996   23.7640 H   0  0  0  0  0  0
  -15.8678  -28.0821   22.7075 H   0  0  0  0  0  0
  -24.5946  -30.6976   25.7715 H   0  0  0  0  0  0
  -24.8824  -32.2800   26.4819 H   0  0  0  0  0  0
  -25.8039  -30.8873   27.0193 H   0  0  0  0  0  0
  -26.2898  -29.6790   24.1159 H   0  0  0  0  0  0
  -27.4170  -29.7301   25.4533 H   0  0  0  0  0  0
  -27.8706  -30.4406   23.9220 H   0  0  0  0  0  0
  -27.2702  -33.3691   26.1947 H   0  0  0  0  0  0
  -28.3890  -32.6803   25.0283 H   0  0  0  0  0  0
  -28.0682  -31.8504   26.5431 H   0  0  0  0  0  0
  -28.2597  -38.0094   24.7554 H   0  0  0  0  0  0
  -28.1082  -36.2630   24.6304 H   0  0  0  0  0  0
  -27.2297  -37.1436   25.8882 H   0  0  0  0  0  0
  -20.9361  -29.8790   21.6932 H   0  0  0  0  0  0
  -26.0187  -38.2869   24.1423 H   0  0  0  0  0  0
  -28.6189  -18.7192   22.2662 H   0  0  0  0  0  0
  -28.6450  -21.1698   22.0788 H   0  0  0  0  0  0
  -29.9409  -20.8080   17.9941 H   0  0  0  0  0  0
  -26.5201  -24.2046   21.1363 H   0  0  0  0  0  0
  -27.0045  -22.5427   21.3652 H   0  0  0  0  0  0
  -26.5639  -23.1145   19.7585 H   0  0  0  0  0  0
  -31.4454  -22.2820   19.6830 H   0  0  0  0  0  0
  -31.0451  -23.9574   19.9561 H   0  0  0  0  0  0
  -30.7877  -23.2479   18.3619 H   0  0  0  0  0  0
  -29.8854  -16.8111   22.8809 H   0  0  0  0  0  0
  -31.3233  -17.1960   21.9224 H   0  0  0  0  0  0
  -31.2219  -15.6780   22.8137 H   0  0  0  0  0  0
  -29.1203  -16.3705   19.2406 H   0  0  0  0  0  0
  -28.1311  -16.5338   20.6372 H   0  0  0  0  0  0
  -27.8338  -25.0652   18.6944 H   0  0  0  0  0  0
  -29.4695  -25.2835   19.0588 H   0  0  0  0  0  0
  -28.9977  -24.0449   21.3646 H   0  0  0  0  0  0
  1 25  1  0  0  0
  1 30  2  0  0  0
  1 84  1  0  0  0
  2  3  1  0  0  0
  2 25  1  0  0  0
  2 86  1  0  0  0
  2 87  1  0  0  0
  3  4  1  0  0  0
  3 88  1  0  0  0
  3 89  1  0  0  0
  4  5  1  0  0  0
  4 90  1  0  0  0
  4 91  1  0  0  0
  5  6  1  0  0  0
  5 26  1  0  0  0
  5 92  1  0  0  0
  6 25  1  0  0  0
  6 93  1  0  0  0
  6 94  1  0  0  0
  7  8  2  0  0  0
  7 26  1  0  0  0
  7 29  1  0  0  0
  8  9  1  0  0  0
  8 22  1  0  0  0
  9 10  1  0  0  0
  9 27  2  0  0  0
 10 11  2  0  0  0
 10 15  1  0  0  0
 11 12  1  0  0  0
 11 95  1  0  0  0
 12 13  2  0  0  0
 12 96  1  0  0  0
 13 14  1  0  0  0
 13 31  1  0  0  0
 14 15  2  0  0  0
 14 97  1  0  0  0
 15 98  1  0  0  0
 16 17  2  0  0  0
 16 21  1  0  0  0
 16 31  1  0  0  0
 17 18  1  0  0  0
 17 99  1  0  0  0
 18 19  2  0  0  0
 18100  1  0  0  0
 19 20  1  0  0  0
 19 24  1  0  0  0
 20 21  2  0  0  0
 20101  1  0  0  0
 21 23  1  0  0  0
 22 28  1  0  0  0
 22 32  2  0  0  0
 26 27  1  0  0  0
 28102  1  0  0  0
 28103  1  0  0  0
 29104  1  0  0  0
 29105  1  0  0  0
 33 34  1  0  0  0
 33 66  1  0  0  0
 33 70  2  0  0  0
 34 36  1  0  0  0
 34 59  1  0  0  0
 34106  1  0  0  0
 35 44  2  0  0  0
 35 45  1  0  0  0
 35 68  1  0  0  0
 36 56  1  0  0  0
 36107  1  0  0  0
 37 39  1  0  0  0
 37 47  1  0  0  0
 37 66  1  0  0  0
 37108  1  0  0  0
 38 43  2  0  0  0
 38 46  1  0  0  0
 38 47  1  0  0  0
 39 64  1  0  0  0
 39 67  2  0  0  0
 40 52  1  0  0  0
 40 53  2  0  0  0
 40 58  1  0  0  0
 41109  1  0  0  0
 41110  1  0  0  0
 41111  1  0  0  0
 41 48  1  0  0  0
 42 43  1  0  0  0
 42 66  1  0  0  0
 42112  1  0  0  0
 42113  1  0  0  0
 43 44  1  0  0  0
 44114  1  0  0  0
 45 46  2  0  0  0
 45115  1  0  0  0
 46116  1  0  0  0
 47117  1  0  0  0
 47118  1  0  0  0
 48 56  1  0  0  0
 48 65  1  0  0  0
 48119  1  0  0  0
 49 50  1  0  0  0
 49 53  1  0  0  0
 49 64  1  0  0  0
 49120  1  0  0  0
 50 51  1  0  0  0
 50121  1  0  0  0
 50122  1  0  0  0
 51 52  1  0  0  0
 51123  1  0  0  0
 51124  1  0  0  0
 52125  1  0  0  0
 52126  1  0  0  0
 53 54  1  0  0  0
 54 55  2  0  0  0
 54127  1  0  0  0
 55 57  1  0  0  0
 55128  1  0  0  0
 56 69  2  0  0  0
 57 58  2  0  0  0
 57129  1  0  0  0
 58130  1  0  0  0
 59 60  1  0  0  0
 59 61  1  0  0  0
 59 62  1  0  0  0
 60131  1  0  0  0
 60132  1  0  0  0
 60133  1  0  0  0
 61134  1  0  0  0
 61135  1  0  0  0
 61136  1  0  0  0
 62137  1  0  0  0
 62138  1  0  0  0
 62139  1  0  0  0
 63 65  1  0  0  0
 63140  1  0  0  0
 63141  1  0  0  0
 63142  1  0  0  0
 64143  1  0  0  0
 65144  1  0  0  0
 68 81  1  0  0  0
 71 72  2  0  0  0
 71 74  1  0  0  0
 71145  1  0  0  0
 72 75  1  0  0  0
 72146  1  0  0  0
 73 75  2  0  0  0
 73 76  1  0  0  0
 73147  1  0  0  0
 74 76  2  0  0  0
 74 80  1  0  0  0
 75 83  1  0  0  0
 76 85  1  0  0  0
 77148  1  0  0  0
 77149  1  0  0  0
 77150  1  0  0  0
 77 82  1  0  0  0
 78 83  1  0  0  0
 78151  1  0  0  0
 78152  1  0  0  0
 78153  1  0  0  0
 79 84  1  0  0  0
 79154  1  0  0  0
 79155  1  0  0  0
 79156  1  0  0  0
 80 84  1  0  0  0
 80157  1  0  0  0
 80158  1  0  0  0
 81 82  1  0  0  0
 81159  1  0  0  0
 81160  1  0  0  0
 82 83  1  0  0  0
 82161  1  0  0  0
M  ISO  4   1 100  68 101  81 101  84 100
M  END
> <chiral flag>
0

> <version>
0

> <s_m_source_file>
/data/baiqing/PycharmProjects/Reinvent-master-3.2/result/LINK_invent/BTK/process_docking_weight1_custom_product_contain_oxygen_bond_distance_aromatic_linkinvent_7_9_3/rearranged_h_0013.sdf

> <i_m_source_file_index>
6

> <r_mmod_Potential_Energy-OPLS-2005>
266.708221435547

> <r_mmod_Stretch_Energy-OPLS-2005>
95.1585845947266

> <r_mmod_Bend_Energy-OPLS-2005>
186.759384155273

> <r_mmod_Torsional_Energy-OPLS-2005>
284.82080078125

> <r_mmod_Improper_Torsional_Energy-OPLS-2005>
6.43323516845703

> <r_mmod_Van_der_Waal_Energy-OPLS-2005>
144.237686157227

> <r_mmod_Electrostatic_Energy-OPLS-2005>
-299.594909667969

> <r_mmod_Solvation_Energy-OPLS-2005>
-203.404968261719

> <b_mmod_Minimization_Converged-OPLS-2005>
0

> <r_mmod_RMS_Derivative-OPLS-2005>
1.25049877166748

$$$$
6
                    3D
 Structure written by MMmdl.
153162  0  0  1  0            999 V2000
  -30.5614  -14.9291   20.3705 C   0  0  0  0  0  0
  -30.4501  -12.5571   19.4930 C   0  0  0  0  0  0
  -29.5228  -12.4335   18.2611 C   0  0  0  0  0  0
  -28.0401  -12.3099   18.6683 C   0  0  0  0  0  0
  -27.6313  -13.2398   19.8419 C   0  0  2  0  0  0
  -28.6887  -13.2748   20.9641 C   0  0  0  0  0  0
  -25.2478  -13.8211   20.5703 C   0  0  0  0  0  0
  -24.1788  -13.0449   20.9254 C   0  0  0  0  0  0
  -24.6374  -11.6931   20.8816 C   0  0  0  0  0  0
  -23.9047  -10.4308   21.0442 C   0  0  0  0  0  0
  -24.3607   -9.4214   21.9204 C   0  0  0  0  0  0
  -23.6297   -8.2235   22.0741 C   0  0  0  0  0  0
  -22.4285   -8.0268   21.3527 C   0  0  0  0  0  0
  -21.9915   -9.0247   20.4635 C   0  0  0  0  0  0
  -22.7226  -10.2142   20.3078 C   0  0  0  0  0  0
  -21.6842   -6.0736   22.5278 C   0  0  0  0  0  0
  -21.4006   -6.5638   23.8214 C   0  0  0  0  0  0
  -21.3668   -5.6790   24.9179 C   0  0  0  0  0  0
  -21.6057   -4.3049   24.7229 C   0  0  0  0  0  0
  -21.8827   -3.8150   23.4347 C   0  0  0  0  0  0
  -21.9189   -4.6964   22.3408 C   0  0  0  0  0  0
  -22.7799  -13.5212   21.1873 C   0  0  0  0  0  0
  -22.1644   -4.2145   21.0989 F   0  0  0  0  0  0
  -21.5641   -3.4532   25.7736 F   0  0  0  0  0  0
  -29.9520  -13.6771   20.3316 N   0  0  0  0  0  0
  -26.2912  -12.9417   20.3354 N   0  0  0  0  0  0
  -25.9318  -11.6565   20.5859 N   0  0  0  0  0  0
  -22.0427  -12.8221   22.0443 N   0  0  0  0  0  0
  -25.4158  -15.1921   20.3994 N   0  0  0  0  0  0
  -31.7955  -14.9558   20.2860 O   0  0  0  0  0  0
  -21.6647   -6.8866   21.4232 O   0  0  0  0  0  0
  -22.3484  -14.5498   20.6687 O   0  0  0  0  0  0
  -24.6423  -31.8458   23.1915 C   0  0  0  0  0  0
  -25.9190  -32.4707   23.8315 C   0  0  1  0  0  0
  -27.2304  -27.1593   20.1532 C   0  0  0  0  0  0
  -25.5936  -33.8511   24.2214 N   0  0  0  0  0  0
  -23.4467  -30.4643   21.5358 C   0  0  2  0  0  0
  -24.8988  -28.8946   20.1097 C   0  0  0  0  0  0
  -22.7576  -29.4550   22.4879 C   0  0  0  0  0  0
  -18.0302  -28.1414   22.8478 C   0  0  0  0  0  0
  -24.1476  -36.7246   23.2648 C   0  0  0  0  0  0
  -26.0021  -30.7241   21.3924 C   0  0  0  0  0  0
  -26.0729  -29.3391   20.7294 C   0  0  0  0  0  0
  -27.2358  -28.4865   20.7365 C   0  0  0  0  0  0
  -26.0341  -26.8155   19.4821 C   0  0  0  0  0  0
  -24.8906  -27.6451   19.4709 C   0  0  0  0  0  0
  -23.6737  -29.7944   20.1551 C   0  0  0  0  0  0
  -25.4106  -36.3041   24.0333 C   0  0  1  0  0  0
  -20.5924  -28.3732   23.1243 C   0  0  2  0  0  0
  -20.6787  -26.9433   22.5409 C   0  0  0  0  0  0
  -19.5758  -26.6382   21.5227 C   0  0  0  0  0  0
  -18.1936  -26.7951   22.1628 C   0  0  0  0  0  0
  -19.1557  -28.8882   23.2855 C   0  0  0  0  0  0
  -18.9477  -30.1485   23.8876 C   0  0  0  0  0  0
  -17.6470  -30.6604   24.0567 C   0  0  0  0  0  0
  -25.9057  -34.9417   23.5081 C   0  0  0  0  0  0
  -16.5361  -29.9097   23.6355 C   0  0  0  0  0  0
  -16.7286  -28.6524   23.0358 C   0  0  0  0  0  0
  -26.4505  -31.6584   25.0765 C   0  0  0  0  0  0
  -25.3689  -31.3819   26.1468 C   0  0  0  0  0  0
  -27.0352  -30.2967   24.6378 C   0  0  0  0  0  0
  -27.6055  -32.4359   25.7513 C   0  0  0  0  0  0
  -27.5582  -37.1769   24.8459 C   0  0  0  0  0  0
  -21.4268  -29.3054   22.3605 N   0  0  0  0  0  0
  -26.4275  -37.3759   23.9427 N   0  0  0  0  0  0
  -24.7158  -31.0330   22.0946 N   0  0  0  0  0  0
  -23.4221  -28.8113   23.3035 O   0  0  0  0  0  0
  -28.3001  -26.2005   20.2611 O   0  0  0  0  0  0
  -26.5661  -34.8921   22.4668 O   0  0  0  0  0  0
  -23.5535  -32.1322   23.7137 O   0  0  0  0  0  0
  -29.6118  -18.3718   21.3536 C   0  0  0  0  0  0
  -29.3842  -19.8242   21.2914 C   0  0  0  0  0  0
  -29.4269  -19.7361   18.9263 C   0  0  0  0  0  0
  -29.6582  -18.3157   19.0027 C   0  0  0  0  0  0
  -29.7486  -17.5486   20.1798 C   0  0  0  0  0  0
  -29.2517  -20.5840   20.0661 C   0  0  0  0  0  0
  -29.8267  -17.4187   17.8197 C   0  0  0  0  0  0
  -29.6978  -15.9916   18.3999 C   0  0  0  0  0  0
  -28.9529  -23.3733   20.5658 C   0  0  0  0  0  0
  -28.1420  -24.6980   19.9204 C   0  0  0  0  0  0
  -29.8332  -16.0534   19.8792 N   0  0  0  0  0  0
  -28.9178  -22.0125   19.8211 N   0  0  0  0  0  0
  -31.4780  -12.7199   19.1656 H   0  0  0  0  0  0
  -30.4629  -11.6291   20.0688 H   0  0  0  0  0  0
  -29.8122  -11.5547   17.6838 H   0  0  0  0  0  0
  -29.6545  -13.2810   17.5922 H   0  0  0  0  0  0
  -27.8781  -11.2726   18.9588 H   0  0  0  0  0  0
  -27.3950  -12.4860   17.8061 H   0  0  0  0  0  0
  -27.5858  -14.2418   19.4245 H   0  0  0  0  0  0
  -28.7753  -12.3044   21.4569 H   0  0  0  0  0  0
  -28.4110  -13.9938   21.7363 H   0  0  0  0  0  0
  -25.2733   -9.5699   22.4812 H   0  0  0  0  0  0
  -24.0018   -7.4624   22.7454 H   0  0  0  0  0  0
  -21.0845   -8.8743   19.8947 H   0  0  0  0  0  0
  -22.3644  -10.9698   19.6220 H   0  0  0  0  0  0
  -21.1975   -7.6139   23.9726 H   0  0  0  0  0  0
  -21.1483   -6.0506   25.9086 H   0  0  0  0  0  0
  -22.0598   -2.7616   23.2848 H   0  0  0  0  0  0
  -22.3988  -11.9867   22.4844 H   0  0  0  0  0  0
  -21.1051  -13.1282   22.2640 H   0  0  0  0  0  0
  -24.6358  -15.8393   20.4580 H   0  0  0  0  0  0
  -26.2578  -15.6190   20.0337 H   0  0  0  0  0  0
  -26.7262  -32.5312   23.1057 H   0  0  0  0  0  0
  -25.0052  -33.9619   25.0341 H   0  0  0  0  0  0
  -22.7504  -31.2918   21.3821 H   0  0  0  0  0  0
  -23.3776  -35.9537   23.3267 H   0  0  0  0  0  0
  -24.3582  -36.8910   22.2074 H   0  0  0  0  0  0
  -23.7172  -37.6406   23.6703 H   0  0  0  0  0  0
  -26.1677  -31.4845   20.6273 H   0  0  0  0  0  0
  -26.8689  -30.7644   22.0416 H   0  0  0  0  0  0
  -28.1294  -28.8216   21.2449 H   0  0  0  0  0  0
  -25.9454  -25.8687   18.9721 H   0  0  0  0  0  0
  -23.9947  -27.3015   18.9722 H   0  0  0  0  0  0
  -23.8118  -30.5700   19.4006 H   0  0  0  0  0  0
  -22.7897  -29.2351   19.8450 H   0  0  0  0  0  0
  -25.1289  -36.1871   25.0829 H   0  0  0  0  0  0
  -21.0016  -28.3316   24.1368 H   0  0  0  0  0  0
  -20.5680  -26.2351   23.3633 H   0  0  0  0  0  0
  -21.6647  -26.7434   22.1199 H   0  0  0  0  0  0
  -19.6908  -25.6279   21.1280 H   0  0  0  0  0  0
  -19.6696  -27.3181   20.6749 H   0  0  0  0  0  0
  -17.4208  -26.6715   21.4030 H   0  0  0  0  0  0
  -18.0316  -26.0104   22.9032 H   0  0  0  0  0  0
  -19.7948  -30.7312   24.2235 H   0  0  0  0  0  0
  -17.5023  -31.6287   24.5170 H   0  0  0  0  0  0
  -15.5360  -30.2988   23.7695 H   0  0  0  0  0  0
  -15.8694  -28.0837   22.7085 H   0  0  0  0  0  0
  -24.5758  -30.7309   25.7767 H   0  0  0  0  0  0
  -24.9014  -32.3032   26.4956 H   0  0  0  0  0  0
  -25.7923  -30.8879   27.0223 H   0  0  0  0  0  0
  -26.2974  -29.6704   24.1340 H   0  0  0  0  0  0
  -27.3882  -29.7265   25.4988 H   0  0  0  0  0  0
  -27.8932  -30.4187   23.9763 H   0  0  0  0  0  0
  -27.2650  -33.3661   26.2085 H   0  0  0  0  0  0
  -28.3838  -32.6925   25.0310 H   0  0  0  0  0  0
  -28.0767  -31.8503   26.5421 H   0  0  0  0  0  0
  -28.2566  -38.0105   24.7564 H   0  0  0  0  0  0
  -28.1111  -36.2638   24.6190 H   0  0  0  0  0  0
  -27.2334  -37.1303   25.8874 H   0  0  0  0  0  0
  -20.9487  -29.8716   21.6726 H   0  0  0  0  0  0
  -26.0143  -38.2820   24.1471 H   0  0  0  0  0  0
  -29.6424  -17.8940   22.3216 H   0  0  0  0  0  0
  -29.2756  -20.3496   22.2299 H   0  0  0  0  0  0
  -29.3649  -20.1795   17.9425 H   0  0  0  0  0  0
  -30.8292  -17.5757   17.4193 H   0  0  0  0  0  0
  -29.1055  -17.6291   17.0293 H   0  0  0  0  0  0
  -30.4342  -15.3466   17.9133 H   0  0  0  0  0  0
  -28.7136  -15.6000   18.1496 H   0  0  0  0  0  0
  -28.6150  -23.2183   21.5914 H   0  0  0  0  0  0
  -30.0043  -23.6503   20.6574 H   0  0  0  0  0  0
  -27.0933  -24.4413   20.0512 H   0  0  0  0  0  0
  -28.3132  -24.6605   18.8442 H   0  0  0  0  0  0
  -28.7983  -22.1868   18.8259 H   0  0  0  0  0  0
  1 25  1  0  0  0
  1 30  2  0  0  0
  1 81  1  0  0  0
  2  3  1  0  0  0
  2 25  1  0  0  0
  2 83  1  0  0  0
  2 84  1  0  0  0
  3  4  1  0  0  0
  3 85  1  0  0  0
  3 86  1  0  0  0
  4  5  1  0  0  0
  4 87  1  0  0  0
  4 88  1  0  0  0
  5  6  1  0  0  0
  5 26  1  0  0  0
  5 89  1  0  0  0
  6 25  1  0  0  0
  6 90  1  0  0  0
  6 91  1  0  0  0
  7  8  2  0  0  0
  7 26  1  0  0  0
  7 29  1  0  0  0
  8  9  1  0  0  0
  8 22  1  0  0  0
  9 10  1  0  0  0
  9 27  2  0  0  0
 10 11  2  0  0  0
 10 15  1  0  0  0
 11 12  1  0  0  0
 11 92  1  0  0  0
 12 13  2  0  0  0
 12 93  1  0  0  0
 13 14  1  0  0  0
 13 31  1  0  0  0
 14 15  2  0  0  0
 14 94  1  0  0  0
 15 95  1  0  0  0
 16 17  2  0  0  0
 16 21  1  0  0  0
 16 31  1  0  0  0
 17 18  1  0  0  0
 17 96  1  0  0  0
 18 19  2  0  0  0
 18 97  1  0  0  0
 19 20  1  0  0  0
 19 24  1  0  0  0
 20 21  2  0  0  0
 20 98  1  0  0  0
 21 23  1  0  0  0
 22 28  1  0  0  0
 22 32  2  0  0  0
 26 27  1  0  0  0
 28 99  1  0  0  0
 28100  1  0  0  0
 29101  1  0  0  0
 29102  1  0  0  0
 33 34  1  0  0  0
 33 66  1  0  0  0
 33 70  2  0  0  0
 34 36  1  0  0  0
 34 59  1  0  0  0
 34103  1  0  0  0
 35 44  2  0  0  0
 35 45  1  0  0  0
 35 68  1  0  0  0
 36 56  1  0  0  0
 36104  1  0  0  0
 37 39  1  0  0  0
 37 47  1  0  0  0
 37 66  1  0  0  0
 37105  1  0  0  0
 38 43  2  0  0  0
 38 46  1  0  0  0
 38 47  1  0  0  0
 39 64  1  0  0  0
 39 67  2  0  0  0
 40 52  1  0  0  0
 40 53  2  0  0  0
 40 58  1  0  0  0
 41106  1  0  0  0
 41107  1  0  0  0
 41108  1  0  0  0
 41 48  1  0  0  0
 42 43  1  0  0  0
 42 66  1  0  0  0
 42109  1  0  0  0
 42110  1  0  0  0
 43 44  1  0  0  0
 44111  1  0  0  0
 45 46  2  0  0  0
 45112  1  0  0  0
 46113  1  0  0  0
 47114  1  0  0  0
 47115  1  0  0  0
 48 56  1  0  0  0
 48 65  1  0  0  0
 48116  1  0  0  0
 49 50  1  0  0  0
 49 53  1  0  0  0
 49 64  1  0  0  0
 49117  1  0  0  0
 50 51  1  0  0  0
 50118  1  0  0  0
 50119  1  0  0  0
 51 52  1  0  0  0
 51120  1  0  0  0
 51121  1  0  0  0
 52122  1  0  0  0
 52123  1  0  0  0
 53 54  1  0  0  0
 54 55  2  0  0  0
 54124  1  0  0  0
 55 57  1  0  0  0
 55125  1  0  0  0
 56 69  2  0  0  0
 57 58  2  0  0  0
 57126  1  0  0  0
 58127  1  0  0  0
 59 60  1  0  0  0
 59 61  1  0  0  0
 59 62  1  0  0  0
 60128  1  0  0  0
 60129  1  0  0  0
 60130  1  0  0  0
 61131  1  0  0  0
 61132  1  0  0  0
 61133  1  0  0  0
 62134  1  0  0  0
 62135  1  0  0  0
 62136  1  0  0  0
 63 65  1  0  0  0
 63137  1  0  0  0
 63138  1  0  0  0
 63139  1  0  0  0
 64140  1  0  0  0
 65141  1  0  0  0
 68 80  1  0  0  0
 71 72  2  0  0  0
 71 75  1  0  0  0
 71142  1  0  0  0
 72 76  1  0  0  0
 72143  1  0  0  0
 73 74  1  0  0  0
 73 76  2  0  0  0
 73144  1  0  0  0
 74 75  2  0  0  0
 74 77  1  0  0  0
 75 81  1  0  0  0
 76 82  1  0  0  0
 77 78  1  0  0  0
 77145  1  0  0  0
 77146  1  0  0  0
 78 81  1  0  0  0
 78147  1  0  0  0
 78148  1  0  0  0
 79 80  1  0  0  0
 79 82  1  0  0  0
 79149  1  0  0  0
 79150  1  0  0  0
 80151  1  0  0  0
 80152  1  0  0  0
 82153  1  0  0  0
M  ISO  4   1 100  68 101  80 101  81 100
M  END
> <chiral flag>
0

> <version>
0

> <s_m_source_file>
/data/baiqing/PycharmProjects/Reinvent-master-3.2/result/LINK_invent/BTK/process_docking_weight1_custom_product_contain_oxygen_bond_distance_aromatic_linkinvent_7_9_3/rearranged_h_0013.sdf

> <i_m_source_file_index>
7

> <r_mmod_Potential_Energy-OPLS-2005>
681.594604492188

> <r_mmod_Stretch_Energy-OPLS-2005>
211.677322387695

> <r_mmod_Bend_Energy-OPLS-2005>
347.236633300781

> <r_mmod_Torsional_Energy-OPLS-2005>
299.074371337891

> <r_mmod_Improper_Torsional_Energy-OPLS-2005>
27.6745700836182

> <r_mmod_Van_der_Waal_Energy-OPLS-2005>
130.088027954102

> <r_mmod_Electrostatic_Energy-OPLS-2005>
-305.847747802734

> <r_mmod_Solvation_Energy-OPLS-2005>
-211.387298583984

> <b_mmod_Minimization_Converged-OPLS-2005>
0

> <r_mmod_RMS_Derivative-OPLS-2005>
3.1364152431488

$$$$
7
                    3D
 Structure written by MMmdl.
161169  0  0  1  0            999 V2000
  -30.6610  -14.6757   20.5967 C   0  0  0  0  0  0
  -30.4386  -12.4486   19.4498 C   0  0  0  0  0  0
  -29.5051  -12.5256   18.2219 C   0  0  0  0  0  0
  -28.0323  -12.3469   18.6341 C   0  0  0  0  0  0
  -27.6509  -13.2236   19.8540 C   0  0  2  0  0  0
  -28.6910  -13.0955   20.9852 C   0  0  0  0  0  0
  -25.2557  -13.8185   20.5676 C   0  0  0  0  0  0
  -24.1833  -13.0439   20.9177 C   0  0  0  0  0  0
  -24.6408  -11.6913   20.8720 C   0  0  0  0  0  0
  -23.9087  -10.4292   21.0388 C   0  0  0  0  0  0
  -24.3621   -9.4214   21.9177 C   0  0  0  0  0  0
  -23.6292   -8.2257   22.0758 C   0  0  0  0  0  0
  -22.4286   -8.0285   21.3541 C   0  0  0  0  0  0
  -21.9914   -9.0264   20.4654 C   0  0  0  0  0  0
  -22.7250  -10.2143   20.3052 C   0  0  0  0  0  0
  -21.6846   -6.0742   22.5274 C   0  0  0  0  0  0
  -21.4010   -6.5647   23.8208 C   0  0  0  0  0  0
  -21.3660   -5.6799   24.9174 C   0  0  0  0  0  0
  -21.6037   -4.3062   24.7220 C   0  0  0  0  0  0
  -21.8818   -3.8153   23.4344 C   0  0  0  0  0  0
  -21.9196   -4.6968   22.3400 C   0  0  0  0  0  0
  -22.7854  -13.5225   21.1856 C   0  0  0  0  0  0
  -22.1662   -4.2153   21.0972 F   0  0  0  0  0  0
  -21.5631   -3.4542   25.7738 F   0  0  0  0  0  0
  -30.0097  -13.4652   20.4424 N   0  0  0  0  0  0
  -26.2977  -12.9381   20.3260 N   0  0  0  0  0  0
  -25.9329  -11.6525   20.5707 N   0  0  0  0  0  0
  -22.0512  -12.8218   22.0405 N   0  0  0  0  0  0
  -25.4262  -15.1909   20.4133 N   0  0  0  0  0  0
  -31.7348  -14.8754   20.0194 O   0  0  0  0  0  0
  -21.6642   -6.8890   21.4243 O   0  0  0  0  0  0
  -22.3528  -14.5533   20.6707 O   0  0  0  0  0  0
  -24.6279  -31.8543   23.1961 C   0  0  0  0  0  0
  -25.9125  -32.4730   23.8311 C   0  0  1  0  0  0
  -27.2470  -27.2912   20.1419 C   0  0  0  0  0  0
  -25.5914  -33.8524   24.2242 N   0  0  0  0  0  0
  -23.4234  -30.4702   21.5400 C   0  0  2  0  0  0
  -24.8750  -28.9034   20.1276 C   0  0  0  0  0  0
  -22.7466  -29.4605   22.4952 C   0  0  0  0  0  0
  -18.0274  -28.1394   22.8472 C   0  0  0  0  0  0
  -24.1499  -36.7297   23.2655 C   0  0  0  0  0  0
  -25.9618  -30.7802   21.3631 C   0  0  0  0  0  0
  -26.0427  -29.3967   20.7249 C   0  0  0  0  0  0
  -27.2322  -28.6062   20.7102 C   0  0  0  0  0  0
  -26.0517  -26.8356   19.5472 C   0  0  0  0  0  0
  -24.8808  -27.6270   19.5348 C   0  0  0  0  0  0
  -23.6420  -29.7871   20.1626 C   0  0  0  0  0  0
  -25.4115  -36.3039   24.0328 C   0  0  1  0  0  0
  -20.5866  -28.3693   23.1268 C   0  0  2  0  0  0
  -20.6769  -26.9414   22.5406 C   0  0  0  0  0  0
  -19.5764  -26.6390   21.5200 C   0  0  0  0  0  0
  -18.1923  -26.7929   22.1604 C   0  0  0  0  0  0
  -19.1523  -28.8857   23.2854 C   0  0  0  0  0  0
  -18.9467  -30.1451   23.8882 C   0  0  0  0  0  0
  -17.6467  -30.6588   24.0550 C   0  0  0  0  0  0
  -25.9044  -34.9416   23.5079 C   0  0  0  0  0  0
  -16.5352  -29.9094   23.6336 C   0  0  0  0  0  0
  -16.7268  -28.6516   23.0348 C   0  0  0  0  0  0
  -26.4505  -31.6519   25.0673 C   0  0  0  0  0  0
  -25.3767  -31.3566   26.1401 C   0  0  0  0  0  0
  -27.0364  -30.2952   24.6095 C   0  0  0  0  0  0
  -27.6105  -32.4235   25.7413 C   0  0  0  0  0  0
  -27.5577  -37.1758   24.8463 C   0  0  0  0  0  0
  -21.4175  -29.3040   22.3665 N   0  0  0  0  0  0
  -26.4285  -37.3737   23.9412 N   0  0  0  0  0  0
  -24.6907  -31.0513   22.0924 N   0  0  0  0  0  0
  -23.4164  -28.8172   23.3083 O   0  0  0  0  0  0
  -28.4101  -26.5091   20.0565 O   0  0  0  0  0  0
  -26.5658  -34.8879   22.4669 O   0  0  0  0  0  0
  -23.5454  -32.1377   23.7276 O   0  0  0  0  0  0
  -30.0899  -17.8718   20.1070 C   0  0  0  0  0  0
  -29.2350  -17.8202   22.3243 C   0  0  0  0  0  0
  -29.8181  -19.2923   20.0485 C   0  0  0  0  0  0
  -28.9673  -19.2174   22.2647 C   0  0  0  0  0  0
  -29.8329  -17.0739   21.2667 C   0  0  0  0  0  0
  -29.2649  -20.0378   21.1407 C   0  0  0  0  0  0
  -30.8063  -22.1298   22.8213 C   0  0  0  0  0  0
  -30.2659  -15.1965   22.8809 C   0  0  0  0  0  0
  -28.2837  -23.7859   19.9029 C   0  0  0  0  0  0
  -29.3036  -22.1067   22.4886 C   0  0  0  0  0  0
  -29.1908  -22.4414   20.0392 C   0  0  0  0  0  0
  -28.5657  -25.1625   20.6797 C   0  0  0  0  0  0
  -30.1392  -15.6182   21.4719 N   0  0  0  0  0  0
  -29.0216  -21.4810   21.1866 N   0  0  0  0  0  0
  -31.4723  -12.5915   19.1308 H   0  0  0  0  0  0
  -30.4052  -11.4530   19.8934 H   0  0  0  0  0  0
  -29.7793  -11.7650   17.4901 H   0  0  0  0  0  0
  -29.6296  -13.4874   17.7213 H   0  0  0  0  0  0
  -27.8801  -11.2938   18.8740 H   0  0  0  0  0  0
  -27.3743  -12.5636   17.7913 H   0  0  0  0  0  0
  -27.6661  -14.2585   19.5088 H   0  0  0  0  0  0
  -28.7167  -12.0766   21.3740 H   0  0  0  0  0  0
  -28.3849  -13.7237   21.8175 H   0  0  0  0  0  0
  -25.2770   -9.5685   22.4754 H   0  0  0  0  0  0
  -23.9997   -7.4648   22.7477 H   0  0  0  0  0  0
  -21.0846   -8.8782   19.8959 H   0  0  0  0  0  0
  -22.3704  -10.9676   19.6157 H   0  0  0  0  0  0
  -21.2000   -7.6147   23.9704 H   0  0  0  0  0  0
  -21.1480   -6.0532   25.9069 H   0  0  0  0  0  0
  -22.0598   -2.7615   23.2840 H   0  0  0  0  0  0
  -22.4135  -11.9867   22.4767 H   0  0  0  0  0  0
  -21.1126  -13.1221   22.2625 H   0  0  0  0  0  0
  -24.6659  -15.8492   20.5461 H   0  0  0  0  0  0
  -26.2896  -15.6355   20.1267 H   0  0  0  0  0  0
  -26.7166  -32.5395   23.1050 H   0  0  0  0  0  0
  -24.9945  -33.9638   25.0306 H   0  0  0  0  0  0
  -22.7205  -31.2916   21.3832 H   0  0  0  0  0  0
  -23.3728  -35.9644   23.3268 H   0  0  0  0  0  0
  -24.3635  -36.9005   22.2083 H   0  0  0  0  0  0
  -23.7256  -37.6484   23.6735 H   0  0  0  0  0  0
  -26.0774  -31.5297   20.5788 H   0  0  0  0  0  0
  -26.8494  -30.8529   21.9798 H   0  0  0  0  0  0
  -28.1403  -28.9954   21.1515 H   0  0  0  0  0  0
  -26.0311  -25.8616   19.0766 H   0  0  0  0  0  0
  -23.9801  -27.2387   19.0798 H   0  0  0  0  0  0
  -23.7616  -30.5530   19.3961 H   0  0  0  0  0  0
  -22.7621  -29.2154   19.8663 H   0  0  0  0  0  0
  -25.1254  -36.1891   25.0816 H   0  0  0  0  0  0
  -20.9949  -28.3308   24.1403 H   0  0  0  0  0  0
  -20.5675  -26.2311   23.3610 H   0  0  0  0  0  0
  -21.6634  -26.7462   22.1197 H   0  0  0  0  0  0
  -19.6934  -25.6311   21.1226 H   0  0  0  0  0  0
  -19.6698  -27.3202   20.6731 H   0  0  0  0  0  0
  -17.4190  -26.6661   21.4009 H   0  0  0  0  0  0
  -18.0328  -26.0061   22.9001 H   0  0  0  0  0  0
  -19.7948  -30.7237   24.2279 H   0  0  0  0  0  0
  -17.5039  -31.6283   24.5143 H   0  0  0  0  0  0
  -15.5361  -30.2987   23.7691 H   0  0  0  0  0  0
  -15.8658  -28.0833   22.7092 H   0  0  0  0  0  0
  -24.6070  -30.6756   25.7731 H   0  0  0  0  0  0
  -24.8764  -32.2643   26.4788 H   0  0  0  0  0  0
  -25.8144  -30.8831   27.0199 H   0  0  0  0  0  0
  -26.2901  -29.6602   24.1294 H   0  0  0  0  0  0
  -27.4279  -29.7278   25.4546 H   0  0  0  0  0  0
  -27.8657  -30.4225   23.9135 H   0  0  0  0  0  0
  -27.2843  -33.3648   26.1832 H   0  0  0  0  0  0
  -28.3989  -32.6590   25.0256 H   0  0  0  0  0  0
  -28.0662  -31.8420   26.5435 H   0  0  0  0  0  0
  -28.2525  -38.0114   24.7573 H   0  0  0  0  0  0
  -28.1124  -36.2644   24.6197 H   0  0  0  0  0  0
  -27.2311  -37.1322   25.8867 H   0  0  0  0  0  0
  -20.9401  -29.8739   21.6815 H   0  0  0  0  0  0
  -26.0151  -38.2793   24.1450 H   0  0  0  0  0  0
  -30.5339  -17.4060   19.2380 H   0  0  0  0  0  0
  -28.9567  -17.3321   23.2456 H   0  0  0  0  0  0
  -30.0692  -19.8119   19.1364 H   0  0  0  0  0  0
  -28.5188  -19.6420   23.1491 H   0  0  0  0  0  0
  -30.9922  -22.6880   23.7417 H   0  0  0  0  0  0
  -31.3874  -22.6106   22.0337 H   0  0  0  0  0  0
  -31.2081  -21.1259   22.9676 H   0  0  0  0  0  0
  -30.8785  -15.9065   23.4383 H   0  0  0  0  0  0
  -30.7421  -14.2217   23.0148 H   0  0  0  0  0  0
  -29.2888  -15.1356   23.3599 H   0  0  0  0  0  0
  -27.2311  -23.5270   20.0009 H   0  0  0  0  0  0
  -28.3925  -24.0668   18.8548 H   0  0  0  0  0  0
  -28.9475  -23.1360   22.4698 H   0  0  0  0  0  0
  -28.7361  -21.6585   23.3015 H   0  0  0  0  0  0
  -30.2418  -22.7285   19.9915 H   0  0  0  0  0  0
  -29.0175  -21.8594   19.1323 H   0  0  0  0  0  0
  -29.6272  -25.1345   20.9280 H   0  0  0  0  0  0
  -28.0584  -25.1502   21.6444 H   0  0  0  0  0  0
  1 25  1  0  0  0
  1 30  2  0  0  0
  1 83  1  0  0  0
  2  3  1  0  0  0
  2 25  1  0  0  0
  2 85  1  0  0  0
  2 86  1  0  0  0
  3  4  1  0  0  0
  3 87  1  0  0  0
  3 88  1  0  0  0
  4  5  1  0  0  0
  4 89  1  0  0  0
  4 90  1  0  0  0
  5  6  1  0  0  0
  5 26  1  0  0  0
  5 91  1  0  0  0
  6 25  1  0  0  0
  6 92  1  0  0  0
  6 93  1  0  0  0
  7  8  2  0  0  0
  7 26  1  0  0  0
  7 29  1  0  0  0
  8  9  1  0  0  0
  8 22  1  0  0  0
  9 10  1  0  0  0
  9 27  2  0  0  0
 10 11  2  0  0  0
 10 15  1  0  0  0
 11 12  1  0  0  0
 11 94  1  0  0  0
 12 13  2  0  0  0
 12 95  1  0  0  0
 13 14  1  0  0  0
 13 31  1  0  0  0
 14 15  2  0  0  0
 14 96  1  0  0  0
 15 97  1  0  0  0
 16 17  2  0  0  0
 16 21  1  0  0  0
 16 31  1  0  0  0
 17 18  1  0  0  0
 17 98  1  0  0  0
 18 19  2  0  0  0
 18 99  1  0  0  0
 19 20  1  0  0  0
 19 24  1  0  0  0
 20 21  2  0  0  0
 20100  1  0  0  0
 21 23  1  0  0  0
 22 28  1  0  0  0
 22 32  2  0  0  0
 26 27  1  0  0  0
 28101  1  0  0  0
 28102  1  0  0  0
 29103  1  0  0  0
 29104  1  0  0  0
 33 34  1  0  0  0
 33 66  1  0  0  0
 33 70  2  0  0  0
 34 36  1  0  0  0
 34 59  1  0  0  0
 34105  1  0  0  0
 35 44  2  0  0  0
 35 45  1  0  0  0
 35 68  1  0  0  0
 36 56  1  0  0  0
 36106  1  0  0  0
 37 39  1  0  0  0
 37 47  1  0  0  0
 37 66  1  0  0  0
 37107  1  0  0  0
 38 43  2  0  0  0
 38 46  1  0  0  0
 38 47  1  0  0  0
 39 64  1  0  0  0
 39 67  2  0  0  0
 40 52  1  0  0  0
 40 53  2  0  0  0
 40 58  1  0  0  0
 41108  1  0  0  0
 41109  1  0  0  0
 41110  1  0  0  0
 41 48  1  0  0  0
 42 43  1  0  0  0
 42 66  1  0  0  0
 42111  1  0  0  0
 42112  1  0  0  0
 43 44  1  0  0  0
 44113  1  0  0  0
 45 46  2  0  0  0
 45114  1  0  0  0
 46115  1  0  0  0
 47116  1  0  0  0
 47117  1  0  0  0
 48 56  1  0  0  0
 48 65  1  0  0  0
 48118  1  0  0  0
 49 50  1  0  0  0
 49 53  1  0  0  0
 49 64  1  0  0  0
 49119  1  0  0  0
 50 51  1  0  0  0
 50120  1  0  0  0
 50121  1  0  0  0
 51 52  1  0  0  0
 51122  1  0  0  0
 51123  1  0  0  0
 52124  1  0  0  0
 52125  1  0  0  0
 53 54  1  0  0  0
 54 55  2  0  0  0
 54126  1  0  0  0
 55 57  1  0  0  0
 55127  1  0  0  0
 56 69  2  0  0  0
 57 58  2  0  0  0
 57128  1  0  0  0
 58129  1  0  0  0
 59 60  1  0  0  0
 59 61  1  0  0  0
 59 62  1  0  0  0
 60130  1  0  0  0
 60131  1  0  0  0
 60132  1  0  0  0
 61133  1  0  0  0
 61134  1  0  0  0
 61135  1  0  0  0
 62136  1  0  0  0
 62137  1  0  0  0
 62138  1  0  0  0
 63 65  1  0  0  0
 63139  1  0  0  0
 63140  1  0  0  0
 63141  1  0  0  0
 64142  1  0  0  0
 65143  1  0  0  0
 68 82  1  0  0  0
 71 73  2  0  0  0
 71 75  1  0  0  0
 71144  1  0  0  0
 72 74  1  0  0  0
 72 75  2  0  0  0
 72145  1  0  0  0
 73 76  1  0  0  0
 73146  1  0  0  0
 74 76  2  0  0  0
 74147  1  0  0  0
 75 83  1  0  0  0
 76 84  1  0  0  0
 77 80  1  0  0  0
 77148  1  0  0  0
 77149  1  0  0  0
 77150  1  0  0  0
 78 83  1  0  0  0
 78151  1  0  0  0
 78152  1  0  0  0
 78153  1  0  0  0
 79 81  1  0  0  0
 79 82  1  0  0  0
 79154  1  0  0  0
 79155  1  0  0  0
 80 84  1  0  0  0
 80156  1  0  0  0
 80157  1  0  0  0
 81 84  1  0  0  0
 81158  1  0  0  0
 81159  1  0  0  0
 82160  1  0  0  0
 82161  1  0  0  0
M  ISO  4   1 100  68 101  82 101  83 100
M  END
> <chiral flag>
0

> <version>
0

> <s_m_source_file>
/data/baiqing/PycharmProjects/Reinvent-master-3.2/result/LINK_invent/BTK/process_docking_weight1_custom_product_contain_oxygen_bond_distance_aromatic_linkinvent_7_9_3/rearranged_h_0013.sdf

> <i_m_source_file_index>
8

> <r_mmod_Potential_Energy-OPLS-2005>
321.031402587891

> <r_mmod_Stretch_Energy-OPLS-2005>
117.730880737305

> <r_mmod_Bend_Energy-OPLS-2005>
212.923141479492

> <r_mmod_Torsional_Energy-OPLS-2005>
302.503967285156

> <r_mmod_Improper_Torsional_Energy-OPLS-2005>
5.62985610961914

> <r_mmod_Van_der_Waal_Energy-OPLS-2005>
149.044723510742

> <r_mmod_Electrostatic_Energy-OPLS-2005>
-319.977294921875

> <r_mmod_Solvation_Energy-OPLS-2005>
-201.382919311523

> <b_mmod_Minimization_Converged-OPLS-2005>
0

> <r_mmod_RMS_Derivative-OPLS-2005>
3.41932582855225

$$$$
8
                    3D
 Structure written by MMmdl.
159167  0  0  1  0            999 V2000
  -30.7061  -14.5978   20.5599 C   0  0  0  0  0  0
  -30.4078  -12.3928   19.4379 C   0  0  0  0  0  0
  -29.4990  -12.5332   18.1986 C   0  0  0  0  0  0
  -28.0118  -12.3862   18.5897 C   0  0  0  0  0  0
  -27.6466  -13.2137   19.8527 C   0  0  2  0  0  0
  -28.6917  -13.0145   20.9732 C   0  0  0  0  0  0
  -25.2516  -13.8112   20.5636 C   0  0  0  0  0  0
  -24.1835  -13.0384   20.9163 C   0  0  0  0  0  0
  -24.6427  -11.6864   20.8698 C   0  0  0  0  0  0
  -23.9109  -10.4256   21.0352 C   0  0  0  0  0  0
  -24.3664   -9.4150   21.9126 C   0  0  0  0  0  0
  -23.6312   -8.2212   22.0702 C   0  0  0  0  0  0
  -22.4272   -8.0287   21.3513 C   0  0  0  0  0  0
  -21.9925   -9.0269   20.4604 C   0  0  0  0  0  0
  -22.7277  -10.2118   20.2991 C   0  0  0  0  0  0
  -21.6853   -6.0766   22.5289 C   0  0  0  0  0  0
  -21.4021   -6.5651   23.8228 C   0  0  0  0  0  0
  -21.3655   -5.6797   24.9176 C   0  0  0  0  0  0
  -21.6039   -4.3063   24.7198 C   0  0  0  0  0  0
  -21.8809   -3.8170   23.4317 C   0  0  0  0  0  0
  -21.9173   -4.6994   22.3382 C   0  0  0  0  0  0
  -22.7865  -13.5147   21.1897 C   0  0  0  0  0  0
  -22.1633   -4.2210   21.0941 F   0  0  0  0  0  0
  -21.5621   -3.4497   25.7683 F   0  0  0  0  0  0
  -29.9898  -13.4257   20.4222 N   0  0  0  0  0  0
  -26.2956  -12.9338   20.3229 N   0  0  0  0  0  0
  -25.9341  -11.6484   20.5667 N   0  0  0  0  0  0
  -22.0553  -12.8098   22.0437 N   0  0  0  0  0  0
  -25.4112  -15.1855   20.4092 N   0  0  0  0  0  0
  -31.8802  -14.6005   20.1685 O   0  0  0  0  0  0
  -21.6623   -6.8901   21.4248 O   0  0  0  0  0  0
  -22.3552  -14.5496   20.6774 O   0  0  0  0  0  0
  -24.6182  -31.8641   23.2096 C   0  0  0  0  0  0
  -25.9045  -32.4826   23.8402 C   0  0  1  0  0  0
  -27.2804  -27.3999   20.1512 C   0  0  0  0  0  0
  -25.5880  -33.8625   24.2298 N   0  0  0  0  0  0
  -23.4181  -30.4765   21.5518 C   0  0  2  0  0  0
  -24.8820  -28.9339   20.1341 C   0  0  0  0  0  0
  -22.7468  -29.4631   22.5071 C   0  0  0  0  0  0
  -18.0287  -28.1381   22.8469 C   0  0  0  0  0  0
  -24.1479  -36.7314   23.2641 C   0  0  0  0  0  0
  -25.9507  -30.8134   21.3824 C   0  0  0  0  0  0
  -26.0381  -29.4418   20.7429 C   0  0  0  0  0  0
  -27.2395  -28.6853   20.7546 C   0  0  0  0  0  0
  -26.1159  -26.9361   19.5045 C   0  0  0  0  0  0
  -24.9182  -27.6776   19.5052 C   0  0  0  0  0  0
  -23.6352  -29.7931   20.1765 C   0  0  0  0  0  0
  -25.4116  -36.3106   24.0323 C   0  0  1  0  0  0
  -20.5873  -28.3679   23.1327 C   0  0  2  0  0  0
  -20.6801  -26.9430   22.5418 C   0  0  0  0  0  0
  -19.5782  -26.6401   21.5218 C   0  0  0  0  0  0
  -18.1948  -26.7939   22.1596 C   0  0  0  0  0  0
  -19.1531  -28.8868   23.2869 C   0  0  0  0  0  0
  -18.9438  -30.1477   23.8883 C   0  0  0  0  0  0
  -17.6431  -30.6586   24.0569 C   0  0  0  0  0  0
  -25.9035  -34.9479   23.5110 C   0  0  0  0  0  0
  -16.5331  -29.9070   23.6331 C   0  0  0  0  0  0
  -16.7264  -28.6490   23.0345 C   0  0  0  0  0  0
  -26.4454  -31.6642   25.0768 C   0  0  0  0  0  0
  -25.3730  -31.3758   26.1531 C   0  0  0  0  0  0
  -27.0268  -30.3053   24.6198 C   0  0  0  0  0  0
  -27.5962  -32.4464   25.7505 C   0  0  0  0  0  0
  -27.5590  -37.1812   24.8444 C   0  0  0  0  0  0
  -21.4207  -29.3003   22.3739 N   0  0  0  0  0  0
  -26.4285  -37.3804   23.9415 N   0  0  0  0  0  0
  -24.6785  -31.0683   22.1028 N   0  0  0  0  0  0
  -23.4170  -28.8223   23.3193 O   0  0  0  0  0  0
  -28.3682  -26.5375   20.0944 O   0  0  0  0  0  0
  -26.5609  -34.8925   22.4675 O   0  0  0  0  0  0
  -23.5352  -32.1404   23.7458 O   0  0  0  0  0  0
  -30.2930  -20.4799   22.5060 C   0  0  0  0  0  0
  -30.3499  -19.0747   22.3052 C   0  0  0  0  0  0
  -30.4971  -20.8426   20.1320 C   0  0  0  0  0  0
  -30.4136  -21.3988   21.4311 C   0  0  0  0  0  0
  -30.5525  -18.5230   21.0143 C   0  0  0  0  0  0
  -30.5566  -19.4353   19.9267 C   0  0  0  0  0  0
  -28.7668  -16.1198   21.3528 C   0  0  0  0  0  0
  -31.0206  -17.0425   20.8129 C   0  0  0  0  0  0
  -30.6188  -22.9168   21.7258 C   0  0  0  0  0  0
  -29.6204  -25.2366   21.9121 C   0  0  0  0  0  0
  -29.4483  -26.5420   21.0522 C   0  0  0  0  0  0
  -30.1414  -15.8220   20.9224 N   0  0  0  0  0  0
  -29.6454  -23.9176   21.1804 N   0  3  0  0  0  0
  -30.6879  -18.9584   18.6649 F   0  0  0  0  0  0
  -31.4561  -12.4713   19.1486 H   0  0  0  0  0  0
  -30.3146  -11.3903   19.8541 H   0  0  0  0  0  0
  -29.7469  -11.7733   17.4548 H   0  0  0  0  0  0
  -29.6809  -13.5022   17.7302 H   0  0  0  0  0  0
  -27.8207  -11.3254   18.7569 H   0  0  0  0  0  0
  -27.3782  -12.6793   17.7490 H   0  0  0  0  0  0
  -27.6693  -14.2495   19.5203 H   0  0  0  0  0  0
  -28.7143  -11.9612   21.2513 H   0  0  0  0  0  0
  -28.4418  -13.4929   21.9094 H   0  0  0  0  0  0
  -25.2803   -9.5629   22.4722 H   0  0  0  0  0  0
  -23.9992   -7.4588   22.7410 H   0  0  0  0  0  0
  -21.0845   -8.8821   19.8915 H   0  0  0  0  0  0
  -22.3734  -10.9687   19.6113 H   0  0  0  0  0  0
  -21.2035   -7.6174   23.9748 H   0  0  0  0  0  0
  -21.1471   -6.0519   25.9092 H   0  0  0  0  0  0
  -22.0575   -2.7646   23.2778 H   0  0  0  0  0  0
  -22.4215  -11.9722   22.4725 H   0  0  0  0  0  0
  -21.1140  -13.1071   22.2654 H   0  0  0  0  0  0
  -24.6298  -15.8170   20.5343 H   0  0  0  0  0  0
  -26.2554  -15.6564   20.1229 H   0  0  0  0  0  0
  -26.7134  -32.5517   23.1174 H   0  0  0  0  0  0
  -25.0041  -33.9783   25.0451 H   0  0  0  0  0  0
  -22.7081  -31.2915   21.4038 H   0  0  0  0  0  0
  -23.3735  -35.9639   23.3274 H   0  0  0  0  0  0
  -24.3566  -36.8969   22.2052 H   0  0  0  0  0  0
  -23.7209  -37.6505   23.6679 H   0  0  0  0  0  0
  -26.0883  -31.5754   20.6137 H   0  0  0  0  0  0
  -26.8268  -30.8613   22.0161 H   0  0  0  0  0  0
  -28.1184  -29.1039   21.2215 H   0  0  0  0  0  0
  -26.1468  -25.9784   19.0030 H   0  0  0  0  0  0
  -24.0447  -27.2743   19.0103 H   0  0  0  0  0  0
  -23.7427  -30.5572   19.4072 H   0  0  0  0  0  0
  -22.7629  -29.2017   19.8897 H   0  0  0  0  0  0
  -25.1305  -36.1949   25.0812 H   0  0  0  0  0  0
  -20.9922  -28.3225   24.1458 H   0  0  0  0  0  0
  -20.5775  -26.2274   23.3587 H   0  0  0  0  0  0
  -21.6667  -26.7531   22.1164 H   0  0  0  0  0  0
  -19.6968  -25.6315   21.1245 H   0  0  0  0  0  0
  -19.6741  -27.3216   20.6751 H   0  0  0  0  0  0
  -17.4249  -26.6703   21.3960 H   0  0  0  0  0  0
  -18.0318  -26.0084   22.8980 H   0  0  0  0  0  0
  -19.7909  -30.7318   24.2218 H   0  0  0  0  0  0
  -17.4971  -31.6265   24.5173 H   0  0  0  0  0  0
  -15.5321  -30.2947   23.7712 H   0  0  0  0  0  0
  -15.8663  -28.0820   22.7047 H   0  0  0  0  0  0
  -24.5735  -30.7329   25.7835 H   0  0  0  0  0  0
  -24.9152  -32.2938   26.5207 H   0  0  0  0  0  0
  -25.8071  -30.8678   27.0145 H   0  0  0  0  0  0
  -26.2803  -29.6859   24.1198 H   0  0  0  0  0  0
  -27.3899  -29.7263   25.4697 H   0  0  0  0  0  0
  -27.8723  -30.4312   23.9436 H   0  0  0  0  0  0
  -27.2421  -33.3664   26.2158 H   0  0  0  0  0  0
  -28.3650  -32.7251   25.0295 H   0  0  0  0  0  0
  -28.0766  -31.8632   26.5355 H   0  0  0  0  0  0
  -28.2581  -38.0144   24.7563 H   0  0  0  0  0  0
  -28.1129  -36.2681   24.6184 H   0  0  0  0  0  0
  -27.2330  -37.1364   25.8853 H   0  0  0  0  0  0
  -20.9458  -29.8540   21.6761 H   0  0  0  0  0  0
  -26.0165  -38.2869   24.1447 H   0  0  0  0  0  0
  -30.2574  -20.8577   23.5192 H   0  0  0  0  0  0
  -30.3139  -18.4283   23.1723 H   0  0  0  0  0  0
  -30.5914  -21.4994   19.2809 H   0  0  0  0  0  0
  -28.3799  -15.4562   22.1147 H   0  0  0  0  0  0
  -28.1110  -16.1526   20.4860 H   0  0  0  0  0  0
  -28.6581  -17.0877   21.8363 H   0  0  0  0  0  0
  -31.5477  -17.0060   19.8523 H   0  0  0  0  0  0
  -31.7997  -16.9060   21.5611 H   0  0  0  0  0  0
  -31.6159  -23.2140   21.3875 H   0  0  0  0  0  0
  -30.6439  -23.0283   22.8111 H   0  0  0  0  0  0
  -28.8633  -25.1851   22.7008 H   0  0  0  0  0  0
  -30.5721  -25.3662   22.4387 H   0  0  0  0  0  0
  -30.3662  -26.6982   20.4818 H   0  0  0  0  0  0
  -29.3899  -27.3891   21.7359 H   0  0  0  0  0  0
  -28.7185  -23.5260   21.2067 H   0  0  0  0  0  0
  -29.8764  -24.0695   20.2123 H   0  0  0  0  0  0
  1 25  1  0  0  0
  1 30  2  0  0  0
  1 82  1  0  0  0
  2  3  1  0  0  0
  2 25  1  0  0  0
  2 85  1  0  0  0
  2 86  1  0  0  0
  3  4  1  0  0  0
  3 87  1  0  0  0
  3 88  1  0  0  0
  4  5  1  0  0  0
  4 89  1  0  0  0
  4 90  1  0  0  0
  5  6  1  0  0  0
  5 26  1  0  0  0
  5 91  1  0  0  0
  6 25  1  0  0  0
  6 92  1  0  0  0
  6 93  1  0  0  0
  7  8  2  0  0  0
  7 26  1  0  0  0
  7 29  1  0  0  0
  8  9  1  0  0  0
  8 22  1  0  0  0
  9 10  1  0  0  0
  9 27  2  0  0  0
 10 11  2  0  0  0
 10 15  1  0  0  0
 11 12  1  0  0  0
 11 94  1  0  0  0
 12 13  2  0  0  0
 12 95  1  0  0  0
 13 14  1  0  0  0
 13 31  1  0  0  0
 14 15  2  0  0  0
 14 96  1  0  0  0
 15 97  1  0  0  0
 16 17  2  0  0  0
 16 21  1  0  0  0
 16 31  1  0  0  0
 17 18  1  0  0  0
 17 98  1  0  0  0
 18 19  2  0  0  0
 18 99  1  0  0  0
 19 20  1  0  0  0
 19 24  1  0  0  0
 20 21  2  0  0  0
 20100  1  0  0  0
 21 23  1  0  0  0
 22 28  1  0  0  0
 22 32  2  0  0  0
 26 27  1  0  0  0
 28101  1  0  0  0
 28102  1  0  0  0
 29103  1  0  0  0
 29104  1  0  0  0
 33 34  1  0  0  0
 33 66  1  0  0  0
 33 70  2  0  0  0
 34 36  1  0  0  0
 34 59  1  0  0  0
 34105  1  0  0  0
 35 44  2  0  0  0
 35 45  1  0  0  0
 35 68  1  0  0  0
 36 56  1  0  0  0
 36106  1  0  0  0
 37 39  1  0  0  0
 37 47  1  0  0  0
 37 66  1  0  0  0
 37107  1  0  0  0
 38 43  2  0  0  0
 38 46  1  0  0  0
 38 47  1  0  0  0
 39 64  1  0  0  0
 39 67  2  0  0  0
 40 52  1  0  0  0
 40 53  2  0  0  0
 40 58  1  0  0  0
 41108  1  0  0  0
 41109  1  0  0  0
 41110  1  0  0  0
 41 48  1  0  0  0
 42 43  1  0  0  0
 42 66  1  0  0  0
 42111  1  0  0  0
 42112  1  0  0  0
 43 44  1  0  0  0
 44113  1  0  0  0
 45 46  2  0  0  0
 45114  1  0  0  0
 46115  1  0  0  0
 47116  1  0  0  0
 47117  1  0  0  0
 48 56  1  0  0  0
 48 65  1  0  0  0
 48118  1  0  0  0
 49 50  1  0  0  0
 49 53  1  0  0  0
 49 64  1  0  0  0
 49119  1  0  0  0
 50 51  1  0  0  0
 50120  1  0  0  0
 50121  1  0  0  0
 51 52  1  0  0  0
 51122  1  0  0  0
 51123  1  0  0  0
 52124  1  0  0  0
 52125  1  0  0  0
 53 54  1  0  0  0
 54 55  2  0  0  0
 54126  1  0  0  0
 55 57  1  0  0  0
 55127  1  0  0  0
 56 69  2  0  0  0
 57 58  2  0  0  0
 57128  1  0  0  0
 58129  1  0  0  0
 59 60  1  0  0  0
 59 61  1  0  0  0
 59 62  1  0  0  0
 60130  1  0  0  0
 60131  1  0  0  0
 60132  1  0  0  0
 61133  1  0  0  0
 61134  1  0  0  0
 61135  1  0  0  0
 62136  1  0  0  0
 62137  1  0  0  0
 62138  1  0  0  0
 63 65  1  0  0  0
 63139  1  0  0  0
 63140  1  0  0  0
 63141  1  0  0  0
 64142  1  0  0  0
 65143  1  0  0  0
 68 81  1  0  0  0
 71 72  2  0  0  0
 71 74  1  0  0  0
 71144  1  0  0  0
 72 75  1  0  0  0
 72145  1  0  0  0
 73 74  2  0  0  0
 73 76  1  0  0  0
 73146  1  0  0  0
 74 79  1  0  0  0
 75 76  2  0  0  0
 75 78  1  0  0  0
 76 84  1  0  0  0
 77 82  1  0  0  0
 77147  1  0  0  0
 77148  1  0  0  0
 77149  1  0  0  0
 78 82  1  0  0  0
 78150  1  0  0  0
 78151  1  0  0  0
 79 83  1  0  0  0
 79152  1  0  0  0
 79153  1  0  0  0
 80 81  1  0  0  0
 80 83  1  0  0  0
 80154  1  0  0  0
 80155  1  0  0  0
 81156  1  0  0  0
 81157  1  0  0  0
 83158  1  0  0  0
 83159  1  0  0  0
M  CHG  1  83   1
M  ISO  4   1 100  68 101  81 101  82 100
M  END
> <chiral flag>
0

> <version>
0

> <s_m_source_file>
/data/baiqing/PycharmProjects/Reinvent-master-3.2/result/LINK_invent/BTK/process_docking_weight1_custom_product_contain_oxygen_bond_distance_aromatic_linkinvent_7_9_3/rearranged_h_0013.sdf

> <i_m_source_file_index>
9

> <r_mmod_Potential_Energy-OPLS-2005>
38.1530151367188

> <r_mmod_Stretch_Energy-OPLS-2005>
67.8955764770508

> <r_mmod_Bend_Energy-OPLS-2005>
188.157775878906

> <r_mmod_Torsional_Energy-OPLS-2005>
266.891754150391

> <r_mmod_Improper_Torsional_Energy-OPLS-2005>
6.40519905090332

> <r_mmod_Van_der_Waal_Energy-OPLS-2005>
164.521575927734

> <r_mmod_Electrostatic_Energy-OPLS-2005>
-245.291381835938

> <r_mmod_Solvation_Energy-OPLS-2005>
-443.012451171875

> <b_mmod_Minimization_Converged-OPLS-2005>
0

> <r_mmod_RMS_Derivative-OPLS-2005>
6.70386981964111

$$$$
9
                    3D
 Structure written by MMmdl.
167176  0  0  1  0            999 V2000
  -30.6909  -14.5611   20.3958 C   0  0  0  0  0  0
  -30.4182  -12.3181   19.4358 C   0  0  0  0  0  0
  -29.4801  -12.3987   18.2111 C   0  0  0  0  0  0
  -28.0057  -12.3016   18.6403 C   0  0  0  0  0  0
  -27.6454  -13.2136   19.8444 C   0  0  2  0  0  0
  -28.7008  -13.1210   20.9683 C   0  0  0  0  0  0
  -25.2562  -13.8192   20.5717 C   0  0  0  0  0  0
  -24.1820  -13.0457   20.9206 C   0  0  0  0  0  0
  -24.6382  -11.6927   20.8771 C   0  0  0  0  0  0
  -23.9056  -10.4303   21.0422 C   0  0  0  0  0  0
  -24.3612   -9.4212   21.9190 C   0  0  0  0  0  0
  -23.6291   -8.2245   22.0753 C   0  0  0  0  0  0
  -22.4273   -8.0284   21.3544 C   0  0  0  0  0  0
  -21.9909   -9.0260   20.4647 C   0  0  0  0  0  0
  -22.7236  -10.2142   20.3062 C   0  0  0  0  0  0
  -21.6854   -6.0736   22.5277 C   0  0  0  0  0  0
  -21.4013   -6.5640   23.8211 C   0  0  0  0  0  0
  -21.3660   -5.6791   24.9172 C   0  0  0  0  0  0
  -21.6047   -4.3055   24.7223 C   0  0  0  0  0  0
  -21.8821   -3.8148   23.4344 C   0  0  0  0  0  0
  -21.9194   -4.6963   22.3400 C   0  0  0  0  0  0
  -22.7842  -13.5248   21.1856 C   0  0  0  0  0  0
  -22.1663   -4.2150   21.0977 F   0  0  0  0  0  0
  -21.5628   -3.4537   25.7735 F   0  0  0  0  0  0
  -30.0136  -13.3802   20.3680 N   0  0  0  0  0  0
  -26.2972  -12.9368   20.3330 N   0  0  0  0  0  0
  -25.9310  -11.6529   20.5821 N   0  0  0  0  0  0
  -22.0482  -12.8241   22.0410 N   0  0  0  0  0  0
  -25.4305  -15.1908   20.4147 N   0  0  0  0  0  0
  -31.9209  -14.5986   20.3175 O   0  0  0  0  0  0
  -21.6645   -6.8877   21.4237 O   0  0  0  0  0  0
  -22.3529  -14.5552   20.6699 O   0  0  0  0  0  0
  -24.6184  -31.8661   23.2094 C   0  0  0  0  0  0
  -25.9066  -32.4812   23.8388 C   0  0  1  0  0  0
  -27.2207  -27.3860   20.1006 C   0  0  0  0  0  0
  -25.5916  -33.8612   24.2318 N   0  0  0  0  0  0
  -23.4064  -30.4925   21.5515 C   0  0  2  0  0  0
  -24.8476  -28.9563   20.1153 C   0  0  0  0  0  0
  -22.7425  -29.4658   22.4981 C   0  0  0  0  0  0
  -18.0277  -28.1380   22.8497 C   0  0  0  0  0  0
  -24.1486  -36.7301   23.2639 C   0  0  0  0  0  0
  -25.9407  -30.8169   21.3698 C   0  0  0  0  0  0
  -26.0118  -29.4494   20.7142 C   0  0  0  0  0  0
  -27.1972  -28.6723   20.7025 C   0  0  0  0  0  0
  -26.0291  -26.9238   19.4904 C   0  0  0  0  0  0
  -24.8538  -27.6953   19.5011 C   0  0  0  0  0  0
  -23.6151  -29.8303   20.1647 C   0  0  0  0  0  0
  -25.4108  -36.3105   24.0339 C   0  0  1  0  0  0
  -20.5870  -28.3669   23.1312 C   0  0  2  0  0  0
  -20.6769  -26.9404   22.5415 C   0  0  0  0  0  0
  -19.5746  -26.6387   21.5215 C   0  0  0  0  0  0
  -18.1923  -26.7929   22.1624 C   0  0  0  0  0  0
  -19.1527  -28.8840   23.2902 C   0  0  0  0  0  0
  -18.9456  -30.1449   23.8909 C   0  0  0  0  0  0
  -17.6459  -30.6587   24.0569 C   0  0  0  0  0  0
  -25.9043  -34.9473   23.5124 C   0  0  0  0  0  0
  -16.5349  -29.9090   23.6331 C   0  0  0  0  0  0
  -16.7265  -28.6506   23.0352 C   0  0  0  0  0  0
  -26.4482  -31.6600   25.0727 C   0  0  0  0  0  0
  -25.3741  -31.3714   26.1473 C   0  0  0  0  0  0
  -27.0318  -30.3040   24.6121 C   0  0  0  0  0  0
  -27.6053  -32.4326   25.7487 C   0  0  0  0  0  0
  -27.5582  -37.1804   24.8467 C   0  0  0  0  0  0
  -21.4150  -29.3036   22.3718 N   0  0  0  0  0  0
  -26.4291  -37.3794   23.9415 N   0  0  0  0  0  0
  -24.6739  -31.0736   22.1012 N   0  0  0  0  0  0
  -23.4187  -28.8196   23.3029 O   0  0  0  0  0  0
  -28.4001  -26.6504   20.1407 O   0  0  0  0  0  0
  -26.5601  -34.8929   22.4684 O   0  0  0  0  0  0
  -23.5370  -32.1429   23.7470 O   0  0  0  0  0  0
  -28.4628  -17.5000   19.7840 C   0  0  0  0  0  0
  -29.5297  -18.5480   22.1361 C   0  0  0  0  0  0
  -28.0426  -18.7745   20.2326 C   0  0  0  0  0  0
  -28.5938  -19.3292   21.4129 C   0  0  0  0  0  0
  -29.4573  -16.7471   20.4613 C   0  0  0  0  0  0
  -29.9562  -17.2756   21.6799 C   0  0  0  0  0  0
  -27.9859  -23.0715   21.1108 C   0  0  0  0  0  0
  -30.2479  -23.5188   20.5259 C   0  0  0  0  0  0
  -30.0977  -22.1146   21.1432 C   0  0  0  0  0  0
  -28.9263  -24.2557   20.8131 C   0  0  1  0  0  0
  -27.0018  -19.5315   19.4251 C   0  0  0  0  0  0
  -31.2220  -17.0765   18.1283 C   0  0  0  0  0  0
  -28.1351  -20.6989   21.9603 C   0  0  0  0  0  0
  -28.4723  -25.2651   19.7033 C   0  0  0  0  0  0
  -30.3731  -15.8093   18.3703 C   0  0  0  0  0  0
  -28.6656  -21.9217   21.3144 N   0  0  0  0  0  0
  -30.0103  -15.5849   19.7962 N   0  0  0  0  0  0
  -26.7633  -23.2030   21.2122 O   0  0  0  0  0  0
  -30.8822  -16.6017   22.4032 F   0  0  0  0  0  0
  -31.4581  -12.4164   19.1179 H   0  0  0  0  0  0
  -30.3389  -11.3446   19.9214 H   0  0  0  0  0  0
  -29.7127  -11.5894   17.5174 H   0  0  0  0  0  0
  -29.6294  -13.3147   17.6472 H   0  0  0  0  0  0
  -27.8213  -11.2592   18.9019 H   0  0  0  0  0  0
  -27.3518  -12.5187   17.7946 H   0  0  0  0  0  0
  -27.6494  -14.2355   19.4658 H   0  0  0  0  0  0
  -28.6894  -12.1355   21.4360 H   0  0  0  0  0  0
  -28.4864  -13.8470   21.7546 H   0  0  0  0  0  0
  -25.2752   -9.5693   22.4770 H   0  0  0  0  0  0
  -24.0005   -7.4637   22.7469 H   0  0  0  0  0  0
  -21.0843   -8.8783   19.8948 H   0  0  0  0  0  0
  -22.3694  -10.9687   19.6179 H   0  0  0  0  0  0
  -21.2001   -7.6148   23.9715 H   0  0  0  0  0  0
  -21.1478   -6.0518   25.9076 H   0  0  0  0  0  0
  -22.0597   -2.7610   23.2844 H   0  0  0  0  0  0
  -22.4088  -11.9902   22.4805 H   0  0  0  0  0  0
  -21.1095  -13.1262   22.2597 H   0  0  0  0  0  0
  -24.6707  -15.8507   20.5391 H   0  0  0  0  0  0
  -26.2991  -15.6330   20.1432 H   0  0  0  0  0  0
  -26.7130  -32.5501   23.1139 H   0  0  0  0  0  0
  -25.0090  -33.9773   25.0481 H   0  0  0  0  0  0
  -22.6968  -31.3110   21.4147 H   0  0  0  0  0  0
  -23.3756  -35.9627   23.3310 H   0  0  0  0  0  0
  -24.3579  -36.8904   22.2052 H   0  0  0  0  0  0
  -23.7229  -37.6505   23.6645 H   0  0  0  0  0  0
  -26.0629  -31.5829   20.6026 H   0  0  0  0  0  0
  -26.8259  -30.8647   21.9920 H   0  0  0  0  0  0
  -28.0950  -29.0512   21.1710 H   0  0  0  0  0  0
  -25.9491  -25.9726   18.9924 H   0  0  0  0  0  0
  -23.9581  -27.3107   19.0332 H   0  0  0  0  0  0
  -23.7314  -30.6082   19.4090 H   0  0  0  0  0  0
  -22.7357  -29.2578   19.8639 H   0  0  0  0  0  0
  -25.1286  -36.1967   25.0832 H   0  0  0  0  0  0
  -20.9962  -28.3231   24.1432 H   0  0  0  0  0  0
  -20.5677  -26.2273   23.3602 H   0  0  0  0  0  0
  -21.6638  -26.7450   22.1201 H   0  0  0  0  0  0
  -19.6908  -25.6302   21.1233 H   0  0  0  0  0  0
  -19.6686  -27.3209   20.6754 H   0  0  0  0  0  0
  -17.4196  -26.6686   21.4022 H   0  0  0  0  0  0
  -18.0319  -26.0063   22.9010 H   0  0  0  0  0  0
  -19.7933  -30.7263   24.2276 H   0  0  0  0  0  0
  -17.5016  -31.6269   24.5170 H   0  0  0  0  0  0
  -15.5351  -30.2998   23.7652 H   0  0  0  0  0  0
  -15.8663  -28.0834   22.7057 H   0  0  0  0  0  0
  -24.5915  -30.7059   25.7812 H   0  0  0  0  0  0
  -24.8935  -32.2874   26.4922 H   0  0  0  0  0  0
  -25.8094  -30.8883   27.0231 H   0  0  0  0  0  0
  -26.2869  -29.6796   24.1176 H   0  0  0  0  0  0
  -27.4088  -29.7285   25.4585 H   0  0  0  0  0  0
  -27.8706  -30.4362   23.9282 H   0  0  0  0  0  0
  -27.2672  -33.3623   26.2078 H   0  0  0  0  0  0
  -28.3853  -32.6890   25.0305 H   0  0  0  0  0  0
  -28.0732  -31.8442   26.5391 H   0  0  0  0  0  0
  -28.2602  -38.0102   24.7527 H   0  0  0  0  0  0
  -28.1078  -36.2635   24.6276 H   0  0  0  0  0  0
  -27.2305  -37.1434   25.8872 H   0  0  0  0  0  0
  -20.9309  -29.8758   21.6942 H   0  0  0  0  0  0
  -26.0180  -38.2871   24.1426 H   0  0  0  0  0  0
  -28.0454  -17.1194   18.8632 H   0  0  0  0  0  0
  -29.9463  -18.9306   23.0566 H   0  0  0  0  0  0
  -30.4084  -23.4215   19.4513 H   0  0  0  0  0  0
  -31.1084  -24.0497   20.9340 H   0  0  0  0  0  0
  -30.5857  -22.0622   22.1178 H   0  0  0  0  0  0
  -30.5314  -21.3429   20.5057 H   0  0  0  0  0  0
  -29.0271  -24.7962   21.7545 H   0  0  0  0  0  0
  -26.7392  -19.0009   18.5090 H   0  0  0  0  0  0
  -27.3737  -20.5154   19.1392 H   0  0  0  0  0  0
  -26.0869  -19.6618   20.0034 H   0  0  0  0  0  0
  -31.5707  -17.1101   17.0958 H   0  0  0  0  0  0
  -32.1041  -17.0899   18.7698 H   0  0  0  0  0  0
  -30.6664  -17.9975   18.3038 H   0  0  0  0  0  0
  -28.3960  -20.7560   23.0177 H   0  0  0  0  0  0
  -27.0445  -20.7186   21.9467 H   0  0  0  0  0  0
  -27.5860  -24.8771   19.2151 H   0  0  0  0  0  0
  -29.2142  -25.2676   18.9049 H   0  0  0  0  0  0
  -30.9555  -14.9784   17.9672 H   0  0  0  0  0  0
  -29.4707  -15.8342   17.7597 H   0  0  0  0  0  0
  1 25  1  0  0  0
  1 30  2  0  0  0
  1 87  1  0  0  0
  2  3  1  0  0  0
  2 25  1  0  0  0
  2 90  1  0  0  0
  2 91  1  0  0  0
  3  4  1  0  0  0
  3 92  1  0  0  0
  3 93  1  0  0  0
  4  5  1  0  0  0
  4 94  1  0  0  0
  4 95  1  0  0  0
  5  6  1  0  0  0
  5 26  1  0  0  0
  5 96  1  0  0  0
  6 25  1  0  0  0
  6 97  1  0  0  0
  6 98  1  0  0  0
  7  8  2  0  0  0
  7 26  1  0  0  0
  7 29  1  0  0  0
  8  9  1  0  0  0
  8 22  1  0  0  0
  9 10  1  0  0  0
  9 27  2  0  0  0
 10 11  2  0  0  0
 10 15  1  0  0  0
 11 12  1  0  0  0
 11 99  1  0  0  0
 12 13  2  0  0  0
 12100  1  0  0  0
 13 14  1  0  0  0
 13 31  1  0  0  0
 14 15  2  0  0  0
 14101  1  0  0  0
 15102  1  0  0  0
 16 17  2  0  0  0
 16 21  1  0  0  0
 16 31  1  0  0  0
 17 18  1  0  0  0
 17103  1  0  0  0
 18 19  2  0  0  0
 18104  1  0  0  0
 19 20  1  0  0  0
 19 24  1  0  0  0
 20 21  2  0  0  0
 20105  1  0  0  0
 21 23  1  0  0  0
 22 28  1  0  0  0
 22 32  2  0  0  0
 26 27  1  0  0  0
 28106  1  0  0  0
 28107  1  0  0  0
 29108  1  0  0  0
 29109  1  0  0  0
 33 34  1  0  0  0
 33 66  1  0  0  0
 33 70  2  0  0  0
 34 36  1  0  0  0
 34 59  1  0  0  0
 34110  1  0  0  0
 35 44  2  0  0  0
 35 45  1  0  0  0
 35 68  1  0  0  0
 36 56  1  0  0  0
 36111  1  0  0  0
 37 39  1  0  0  0
 37 47  1  0  0  0
 37 66  1  0  0  0
 37112  1  0  0  0
 38 43  2  0  0  0
 38 46  1  0  0  0
 38 47  1  0  0  0
 39 64  1  0  0  0
 39 67  2  0  0  0
 40 52  1  0  0  0
 40 53  2  0  0  0
 40 58  1  0  0  0
 41113  1  0  0  0
 41114  1  0  0  0
 41115  1  0  0  0
 41 48  1  0  0  0
 42 43  1  0  0  0
 42 66  1  0  0  0
 42116  1  0  0  0
 42117  1  0  0  0
 43 44  1  0  0  0
 44118  1  0  0  0
 45 46  2  0  0  0
 45119  1  0  0  0
 46120  1  0  0  0
 47121  1  0  0  0
 47122  1  0  0  0
 48 56  1  0  0  0
 48 65  1  0  0  0
 48123  1  0  0  0
 49 50  1  0  0  0
 49 53  1  0  0  0
 49 64  1  0  0  0
 49124  1  0  0  0
 50 51  1  0  0  0
 50125  1  0  0  0
 50126  1  0  0  0
 51 52  1  0  0  0
 51127  1  0  0  0
 51128  1  0  0  0
 52129  1  0  0  0
 52130  1  0  0  0
 53 54  1  0  0  0
 54 55  2  0  0  0
 54131  1  0  0  0
 55 57  1  0  0  0
 55132  1  0  0  0
 56 69  2  0  0  0
 57 58  2  0  0  0
 57133  1  0  0  0
 58134  1  0  0  0
 59 60  1  0  0  0
 59 61  1  0  0  0
 59 62  1  0  0  0
 60135  1  0  0  0
 60136  1  0  0  0
 60137  1  0  0  0
 61138  1  0  0  0
 61139  1  0  0  0
 61140  1  0  0  0
 62141  1  0  0  0
 62142  1  0  0  0
 62143  1  0  0  0
 63 65  1  0  0  0
 63144  1  0  0  0
 63145  1  0  0  0
 63146  1  0  0  0
 64147  1  0  0  0
 65148  1  0  0  0
 68 84  1  0  0  0
 71 73  2  0  0  0
 71 75  1  0  0  0
 71149  1  0  0  0
 72 74  2  0  0  0
 72 76  1  0  0  0
 72150  1  0  0  0
 73 74  1  0  0  0
 73 81  1  0  0  0
 74 83  1  0  0  0
 75 76  2  0  0  0
 75 87  1  0  0  0
 76 89  1  0  0  0
 77 80  1  0  0  0
 77 86  1  0  0  0
 77 88  2  0  0  0
 78 79  1  0  0  0
 78 80  1  0  0  0
 78151  1  0  0  0
 78152  1  0  0  0
 79 86  1  0  0  0
 79153  1  0  0  0
 79154  1  0  0  0
 80 84  1  0  0  0
 80155  1  0  0  0
 81156  1  0  0  0
 81157  1  0  0  0
 81158  1  0  0  0
 82 85  1  0  0  0
 82159  1  0  0  0
 82160  1  0  0  0
 82161  1  0  0  0
 83 86  1  0  0  0
 83162  1  0  0  0
 83163  1  0  0  0
 84164  1  0  0  0
 84165  1  0  0  0
 85 87  1  0  0  0
 85166  1  0  0  0
 85167  1  0  0  0
M  ISO  4   1 100  68 101  84 101  87 100
M  END
> <chiral flag>
0

> <version>
0

> <s_m_source_file>
/data/baiqing/PycharmProjects/Reinvent-master-3.2/result/LINK_invent/BTK/process_docking_weight1_custom_product_contain_oxygen_bond_distance_aromatic_linkinvent_7_9_3/rearranged_h_0013.sdf

> <i_m_source_file_index>
10

> <r_mmod_Potential_Energy-OPLS-2005>
254.794204711914

> <r_mmod_Stretch_Energy-OPLS-2005>
51.235034942627

> <r_mmod_Bend_Energy-OPLS-2005>
152.434936523438

> <r_mmod_Torsional_Energy-OPLS-2005>
341.732513427734

> <r_mmod_Improper_Torsional_Energy-OPLS-2005>
30.1576099395752

> <r_mmod_Van_der_Waal_Energy-OPLS-2005>
148.918441772461

> <r_mmod_Electrostatic_Energy-OPLS-2005>
-307.433166503906

> <r_mmod_Solvation_Energy-OPLS-2005>
-206.071823120117

> <b_mmod_Minimization_Converged-OPLS-2005>
0

> <r_mmod_RMS_Derivative-OPLS-2005>
0.66057151556015

$$$$
10
                    3D
 Structure written by MMmdl.
162170  0  0  1  0            999 V2000
  -29.6311  -15.8985   20.3272 C   0  0  0  0  0  0
  -30.2596  -13.3192   19.5829 C   0  0  0  0  0  0
  -29.5042  -12.7151   18.3599 C   0  0  0  0  0  0
  -28.0897  -12.2738   18.7705 C   0  0  0  0  0  0
  -27.4896  -13.2736   19.7822 C   0  0  2  0  0  0
  -28.4092  -13.6360   20.9429 C   0  0  0  0  0  0
  -25.1862  -13.8153   20.5722 C   0  0  0  0  0  0
  -24.1338  -13.0325   20.9332 C   0  0  0  0  0  0
  -24.6034  -11.6824   20.8792 C   0  0  0  0  0  0
  -23.8851  -10.4201   21.0447 C   0  0  0  0  0  0
  -24.3502   -9.4154   21.9199 C   0  0  0  0  0  0
  -23.6234   -8.2167   22.0745 C   0  0  0  0  0  0
  -22.4220   -8.0190   21.3533 C   0  0  0  0  0  0
  -21.9801   -9.0133   20.4639 C   0  0  0  0  0  0
  -22.7061  -10.2036   20.3065 C   0  0  0  0  0  0
  -21.6829   -6.0681   22.5283 C   0  0  0  0  0  0
  -21.3995   -6.5608   23.8205 C   0  0  0  0  0  0
  -21.3659   -5.6776   24.9178 C   0  0  0  0  0  0
  -21.6048   -4.3037   24.7241 C   0  0  0  0  0  0
  -21.8824   -3.8113   23.4368 C   0  0  0  0  0  0
  -21.9183   -4.6916   22.3416 C   0  0  0  0  0  0
  -22.7431  -13.5113   21.2036 C   0  0  0  0  0  0
  -22.1660   -4.2103   21.0994 F   0  0  0  0  0  0
  -21.5633   -3.4531   25.7761 F   0  0  0  0  0  0
  -29.4126  -14.4364   20.2706 N   0  0  0  0  0  0
  -26.1998  -12.9301   20.2846 N   0  0  0  0  0  0
  -25.8861  -11.6444   20.5546 N   0  0  0  0  0  0
  -22.0157  -12.8089   22.0624 N   0  0  0  0  0  0
  -25.3653  -15.1904   20.4278 N   0  0  0  0  0  0
  -30.8969  -15.9123   20.2153 O   0  0  0  0  0  0
  -21.6603   -6.8792   21.4232 O   0  0  0  0  0  0
  -22.3147  -14.5432   20.6882 O   0  0  0  0  0  0
  -24.7181  -31.8766   22.7767 C   0  0  0  0  0  0
  -25.9473  -32.4843   23.6319 C   0  0  1  0  0  0
  -26.5807  -27.9738   21.4276 C   0  0  0  0  0  0
  -25.5579  -33.8363   24.0730 N   0  0  0  0  0  0
  -24.0264  -29.5169   21.1314 C   0  0  2  0  0  0
  -25.3391  -29.0234   19.4810 C   0  0  0  0  0  0
  -23.5837  -27.7627   22.1082 C   0  0  0  0  0  0
  -18.1706  -28.1063   22.7530 C   0  0  0  0  0  0
  -24.1402  -36.7268   23.2721 C   0  0  0  0  0  0
  -26.0558  -31.0331   20.9018 C   0  0  0  0  0  0
  -26.3634  -29.7186   20.1951 C   0  0  0  0  0  0
  -27.3402  -28.9286   20.7884 C   0  0  0  0  0  0
  -26.0349  -27.0485   20.4488 C   0  0  0  0  0  0
  -25.3553  -27.6278   19.3742 C   0  0  0  0  0  0
  -24.0285  -29.5655   19.6144 C   0  0  0  0  0  0
  -25.4116  -36.3020   24.0254 C   0  0  1  0  0  0
  -20.7741  -27.6157   23.3300 C   0  0  2  0  0  0
  -20.3245  -26.2599   22.8504 C   0  0  0  0  0  0
  -19.4060  -26.2113   21.6410 C   0  0  0  0  0  0
  -18.0727  -26.8046   21.9940 C   0  0  0  0  0  0
  -19.4315  -28.6327   23.2444 C   0  0  0  0  0  0
  -19.2292  -29.8928   23.9230 C   0  0  0  0  0  0
  -17.9621  -30.5361   24.0709 C   0  0  0  0  0  0
  -25.9141  -34.9623   23.4515 C   0  0  0  0  0  0
  -16.7824  -29.9409   23.6059 C   0  0  0  0  0  0
  -16.9021  -28.7177   22.9465 C   0  0  0  0  0  0
  -26.4683  -31.7338   24.9696 C   0  0  0  0  0  0
  -25.4115  -31.5554   26.1086 C   0  0  0  0  0  0
  -27.1715  -30.3877   24.6521 C   0  0  0  0  0  0
  -27.6104  -32.5544   25.6349 C   0  0  0  0  0  0
  -27.5545  -37.1736   24.8485 C   0  0  0  0  0  0
  -22.3555  -27.4234   22.9274 N   0  0  0  0  0  0
  -26.4207  -37.3829   23.9525 N   0  0  0  0  0  0
  -24.8185  -30.9234   21.6669 N   0  0  0  0  0  0
  -24.2991  -27.0482   22.7213 O   0  0  0  0  0  0
  -25.9915  -28.6685   22.6557 O   0  0  0  0  0  0
  -26.6081  -34.9526   22.4333 O   0  0  0  0  0  0
  -23.6417  -32.1668   23.3311 O   0  0  0  0  0  0
  -26.0994  -21.4850   19.4353 C   0  0  0  0  0  0
  -25.2251  -22.8184   19.4629 C   0  0  0  0  0  0
  -26.3752  -20.3210   20.4118 C   0  0  0  0  0  0
  -24.2872  -23.4947   20.4771 C   0  0  0  0  0  0
  -25.4470  -21.0131   21.4180 C   0  0  0  0  0  0
  -24.5821  -22.3399   21.4447 C   0  0  0  0  0  0
  -21.6605  -26.5371   18.8693 C   0  0  0  0  0  0
  -27.2187  -18.4739   20.4031 C   0  0  0  0  0  0
  -23.0576  -25.0872   20.7295 C   0  0  0  0  0  0
  -22.3488  -29.7780   22.7283 C   0  0  0  0  0  0
  -21.6124  -28.5060   20.9078 C   0  0  0  0  0  0
  -24.3916  -29.4002   23.5999 C   0  0  0  0  0  0
  -28.7325  -17.3017   20.3341 N   0  0  0  0  0  0
  -22.2989  -26.7668   20.1854 N   0  3  1  0  0  0
  -25.3248  -20.2940   22.5601 F   0  0  0  0  0  0
  -23.9142  -22.4884   22.6148 F   0  0  0  0  0  0
  -31.2184  -13.7103   19.2380 H   0  0  0  0  0  0
  -30.5321  -12.5263   20.2833 H   0  0  0  0  0  0
  -30.0572  -11.8798   17.9268 H   0  0  0  0  0  0
  -29.4331  -13.4755   17.5807 H   0  0  0  0  0  0
  -28.1540  -11.2847   19.2259 H   0  0  0  0  0  0
  -27.4479  -12.1717   17.8936 H   0  0  0  0  0  0
  -27.3241  -14.1707   19.1814 H   0  0  0  0  0  0
  -28.7804  -12.7595   21.4783 H   0  0  0  0  0  0
  -27.8980  -14.2611   21.6775 H   0  0  0  0  0  0
  -25.2641   -9.5676   22.4766 H   0  0  0  0  0  0
  -23.9967   -7.4553   22.7443 H   0  0  0  0  0  0
  -21.0739   -8.8601   19.8949 H   0  0  0  0  0  0
  -22.3482  -10.9570   19.6188 H   0  0  0  0  0  0
  -21.1981   -7.6117   23.9692 H   0  0  0  0  0  0
  -21.1487   -6.0517   25.9081 H   0  0  0  0  0  0
  -22.0609   -2.7573   23.2882 H   0  0  0  0  0  0
  -22.3829  -11.9745   22.4967 H   0  0  0  0  0  0
  -21.0789  -13.1084   22.2918 H   0  0  0  0  0  0
  -24.6096  -15.8517   20.5703 H   0  0  0  0  0  0
  -26.2160  -15.6206   20.0912 H   0  0  0  0  0  0
  -26.8209  -32.5932   22.9978 H   0  0  0  0  0  0
  -24.9182  -33.8962   24.8516 H   0  0  0  0  0  0
  -23.2174  -30.1780   20.8315 H   0  0  0  0  0  0
  -23.3811  -35.9434   23.3270 H   0  0  0  0  0  0
  -24.3450  -36.9125   22.2156 H   0  0  0  0  0  0
  -23.7002  -37.6306   23.6948 H   0  0  0  0  0  0
  -25.9278  -31.8171   20.1552 H   0  0  0  0  0  0
  -26.9382  -31.3186   21.4597 H   0  0  0  0  0  0
  -28.0105  -29.4744   21.4345 H   0  0  0  0  0  0
  -25.7601  -26.0451   20.7308 H   0  0  0  0  0  0
  -24.6544  -27.0529   18.7869 H   0  0  0  0  0  0
  -24.0074  -30.5587   19.1424 H   0  0  0  0  0  0
  -23.3309  -28.9410   19.0625 H   0  0  0  0  0  0
  -25.1417  -36.1511   25.0740 H   0  0  0  0  0  0
  -20.8749  -27.5479   24.4166 H   0  0  0  0  0  0
  -19.7380  -25.8350   23.6698 H   0  0  0  0  0  0
  -21.1133  -25.5166   22.7466 H   0  0  0  0  0  0
  -19.2398  -25.1641   21.3841 H   0  0  0  0  0  0
  -19.7832  -26.6342   20.7275 H   0  0  0  0  0  0
  -17.5289  -26.9829   21.0614 H   0  0  0  0  0  0
  -17.4677  -26.0996   22.5681 H   0  0  0  0  0  0
  -20.0427  -30.3690   24.4484 H   0  0  0  0  0  0
  -17.9067  -31.4694   24.6124 H   0  0  0  0  0  0
  -15.8180  -30.4108   23.7480 H   0  0  0  0  0  0
  -16.0071  -28.2448   22.5611 H   0  0  0  0  0  0
  -25.6342  -30.6958   26.7408 H   0  0  0  0  0  0
  -24.3787  -31.4790   25.7766 H   0  0  0  0  0  0
  -25.4023  -32.4238   26.7673 H   0  0  0  0  0  0
  -27.5364  -30.3555   23.6294 H   0  0  0  0  0  0
  -26.5783  -29.5042   24.8580 H   0  0  0  0  0  0
  -28.0537  -30.2270   25.2729 H   0  0  0  0  0  0
  -27.3100  -33.5681   25.9020 H   0  0  0  0  0  0
  -28.4675  -32.6514   24.9657 H   0  0  0  0  0  0
  -27.9633  -32.0909   26.5584 H   0  0  0  0  0  0
  -28.2561  -38.0048   24.7667 H   0  0  0  0  0  0
  -28.1029  -36.2606   24.6110 H   0  0  0  0  0  0
  -27.2325  -37.1184   25.8900 H   0  0  0  0  0  0
  -22.6883  -26.6700   23.5120 H   0  0  0  0  0  0
  -26.0067  -38.2844   24.1720 H   0  0  0  0  0  0
  -26.6002  -21.3489   18.4853 H   0  0  0  0  0  0
  -25.2935  -23.3772   18.5396 H   0  0  0  0  0  0
  -22.3888  -26.1510   18.1532 H   0  0  0  0  0  0
  -20.8442  -25.8207   18.9348 H   0  0  0  0  0  0
  -21.2620  -27.4600   18.4518 H   0  0  0  0  0  0
  -26.6191  -18.0273   19.6087 H   0  0  0  0  0  0
  -26.7646  -18.0892   21.3163 H   0  0  0  0  0  0
  -23.2787  -25.1969   21.7817 H   0  0  0  0  0  0
  -22.1182  -24.5430   20.8228 H   0  0  0  0  0  0
  -21.7607  -29.7330   23.6310 H   0  0  0  0  0  0
  -22.0891  -30.7993   22.4520 H   0  0  0  0  0  0
  -21.5576  -29.1828   20.0567 H   0  0  0  0  0  0
  -20.5411  -28.4670   20.9815 H   0  0  0  0  0  0
  -24.2247  -28.6684   24.3973 H   0  0  0  0  0  0
  -24.6197  -30.0959   24.3616 H   0  0  0  0  0  0
  -29.4951  -17.9663   20.3044 H   0  0  0  0  0  0
  -23.1811  -27.1461   19.8756 H   0  0  0  0  0  0
  1 25  1  0  0  0
  1 30  2  0  0  0
  1 83  1  0  0  0
  2  3  1  0  0  0
  2 25  1  0  0  0
  2 87  1  0  0  0
  2 88  1  0  0  0
  3  4  1  0  0  0
  3 89  1  0  0  0
  3 90  1  0  0  0
  4  5  1  0  0  0
  4 91  1  0  0  0
  4 92  1  0  0  0
  5  6  1  0  0  0
  5 26  1  0  0  0
  5 93  1  0  0  0
  6 25  1  0  0  0
  6 94  1  0  0  0
  6 95  1  0  0  0
  7  8  2  0  0  0
  7 26  1  0  0  0
  7 29  1  0  0  0
  8  9  1  0  0  0
  8 22  1  0  0  0
  9 10  1  0  0  0
  9 27  2  0  0  0
 10 11  2  0  0  0
 10 15  1  0  0  0
 11 12  1  0  0  0
 11 96  1  0  0  0
 12 13  2  0  0  0
 12 97  1  0  0  0
 13 14  1  0  0  0
 13 31  1  0  0  0
 14 15  2  0  0  0
 14 98  1  0  0  0
 15 99  1  0  0  0
 16 17  2  0  0  0
 16 21  1  0  0  0
 16 31  1  0  0  0
 17 18  1  0  0  0
 17100  1  0  0  0
 18 19  2  0  0  0
 18101  1  0  0  0
 19 20  1  0  0  0
 19 24  1  0  0  0
 20 21  2  0  0  0
 20102  1  0  0  0
 21 23  1  0  0  0
 22 28  1  0  0  0
 22 32  2  0  0  0
 26 27  1  0  0  0
 28103  1  0  0  0
 28104  1  0  0  0
 29105  1  0  0  0
 29106  1  0  0  0
 33 34  1  0  0  0
 33 66  1  0  0  0
 33 70  2  0  0  0
 34 36  1  0  0  0
 34 59  1  0  0  0
 34107  1  0  0  0
 35 44  2  0  0  0
 35 45  1  0  0  0
 35 68  1  0  0  0
 36 56  1  0  0  0
 36108  1  0  0  0
 37 39  1  0  0  0
 37 47  1  0  0  0
 37 66  1  0  0  0
 37109  1  0  0  0
 38 43  2  0  0  0
 38 46  1  0  0  0
 38 47  1  0  0  0
 39 64  1  0  0  0
 39 67  2  0  0  0
 40 52  1  0  0  0
 40 53  2  0  0  0
 40 58  1  0  0  0
 41110  1  0  0  0
 41111  1  0  0  0
 41112  1  0  0  0
 41 48  1  0  0  0
 42 43  1  0  0  0
 42 66  1  0  0  0
 42113  1  0  0  0
 42114  1  0  0  0
 43 44  1  0  0  0
 44115  1  0  0  0
 45 46  2  0  0  0
 45116  1  0  0  0
 46117  1  0  0  0
 47118  1  0  0  0
 47119  1  0  0  0
 48 56  1  0  0  0
 48 65  1  0  0  0
 48120  1  0  0  0
 49 50  1  0  0  0
 49 53  1  0  0  0
 49 64  1  0  0  0
 49121  1  0  0  0
 50 51  1  0  0  0
 50122  1  0  0  0
 50123  1  0  0  0
 51 52  1  0  0  0
 51124  1  0  0  0
 51125  1  0  0  0
 52126  1  0  0  0
 52127  1  0  0  0
 53 54  1  0  0  0
 54 55  2  0  0  0
 54128  1  0  0  0
 55 57  1  0  0  0
 55129  1  0  0  0
 56 69  2  0  0  0
 57 58  2  0  0  0
 57130  1  0  0  0
 58131  1  0  0  0
 59 60  1  0  0  0
 59 61  1  0  0  0
 59 62  1  0  0  0
 60132  1  0  0  0
 60133  1  0  0  0
 60134  1  0  0  0
 61135  1  0  0  0
 61136  1  0  0  0
 61137  1  0  0  0
 62138  1  0  0  0
 62139  1  0  0  0
 62140  1  0  0  0
 63 65  1  0  0  0
 63141  1  0  0  0
 63142  1  0  0  0
 63143  1  0  0  0
 64144  1  0  0  0
 65145  1  0  0  0
 68 82  1  0  0  0
 71 72  2  0  0  0
 71 73  1  0  0  0
 71146  1  0  0  0
 72 74  1  0  0  0
 72147  1  0  0  0
 73 75  2  0  0  0
 73 78  1  0  0  0
 74 76  2  0  0  0
 74 79  1  0  0  0
 75 76  1  0  0  0
 75 85  1  0  0  0
 76 86  1  0  0  0
 77148  1  0  0  0
 77149  1  0  0  0
 77150  1  0  0  0
 77 84  1  0  0  0
 78 83  1  0  0  0
 78151  1  0  0  0
 78152  1  0  0  0
 79 84  1  0  0  0
 79153  1  0  0  0
 79154  1  0  0  0
 80 81  1  0  0  0
 80 82  1  0  0  0
 80155  1  0  0  0
 80156  1  0  0  0
 81 84  1  0  0  0
 81157  1  0  0  0
 81158  1  0  0  0
 82159  1  0  0  0
 82160  1  0  0  0
 83161  1  0  0  0
 84162  1  0  0  0
M  CHG  1  84   1
M  ISO  4   1 100  68 101  82 101  83 100
M  END
> <chiral flag>
0

> <version>
0

> <s_m_source_file>
/data/baiqing/PycharmProjects/Reinvent-master-3.2/result/LINK_invent/BTK/process_docking_weight1_custom_product_contain_oxygen_bond_distance_aromatic_linkinvent_7_9_3/rearranged_h_0013.sdf

> <i_m_source_file_index>
11

> <r_mmod_Potential_Energy-OPLS-2005>
13850.6376953125

> <r_mmod_Stretch_Energy-OPLS-2005>
4923.88623046875

> <r_mmod_Bend_Energy-OPLS-2005>
2187.94921875

> <r_mmod_Torsional_Energy-OPLS-2005>
678.77197265625

> <r_mmod_Improper_Torsional_Energy-OPLS-2005>
79.7231750488281

> <r_mmod_Van_der_Waal_Energy-OPLS-2005>
1720.4501953125

> <r_mmod_Electrostatic_Energy-OPLS-2005>
-272.125335693359

> <r_mmod_Solvation_Energy-OPLS-2005>
-412.222381591797

> <b_mmod_Minimization_Converged-OPLS-2005>
0

> <r_mmod_RMS_Derivative-OPLS-2005>
7.18681287765503

$$$$
11
                    3D
 Structure written by MMmdl.
155163  0  0  1  0            999 V2000
  -30.5491  -14.9706   20.3392 C   0  0  0  0  0  0
  -30.4533  -12.5772   19.4956 C   0  0  0  0  0  0
  -29.5306  -12.4242   18.2624 C   0  0  0  0  0  0
  -28.0545  -12.2614   18.6848 C   0  0  0  0  0  0
  -27.6224  -13.2149   19.8317 C   0  0  2  0  0  0
  -28.6800  -13.3110   20.9517 C   0  0  0  0  0  0
  -25.2510  -13.8132   20.5801 C   0  0  0  0  0  0
  -24.1780  -13.0408   20.9278 C   0  0  0  0  0  0
  -24.6349  -11.6878   20.8806 C   0  0  0  0  0  0
  -23.9026  -10.4273   21.0445 C   0  0  0  0  0  0
  -24.3588   -9.4189   21.9211 C   0  0  0  0  0  0
  -23.6277   -8.2219   22.0756 C   0  0  0  0  0  0
  -22.4263   -8.0262   21.3538 C   0  0  0  0  0  0
  -21.9889   -9.0241   20.4651 C   0  0  0  0  0  0
  -22.7212  -10.2123   20.3081 C   0  0  0  0  0  0
  -21.6849   -6.0729   22.5279 C   0  0  0  0  0  0
  -21.4013   -6.5634   23.8213 C   0  0  0  0  0  0
  -21.3664   -5.6781   24.9173 C   0  0  0  0  0  0
  -21.6050   -4.3044   24.7224 C   0  0  0  0  0  0
  -21.8820   -3.8137   23.4343 C   0  0  0  0  0  0
  -21.9191   -4.6956   22.3402 C   0  0  0  0  0  0
  -22.7808  -13.5223   21.1891 C   0  0  0  0  0  0
  -22.1658   -4.2145   21.0978 F   0  0  0  0  0  0
  -21.5626   -3.4533   25.7746 F   0  0  0  0  0  0
  -29.9475  -13.7086   20.3196 N   0  0  0  0  0  0
  -26.2877  -12.9274   20.3324 N   0  0  0  0  0  0
  -25.9273  -11.6445   20.5818 N   0  0  0  0  0  0
  -22.0406  -12.8242   22.0429 N   0  0  0  0  0  0
  -25.4228  -15.1858   20.4269 N   0  0  0  0  0  0
  -31.7797  -15.0065   20.2341 O   0  0  0  0  0  0
  -21.6620   -6.8867   21.4243 O   0  0  0  0  0  0
  -22.3530  -14.5531   20.6714 O   0  0  0  0  0  0
  -24.6395  -31.8464   23.1896 C   0  0  0  0  0  0
  -25.9186  -32.4712   23.8281 C   0  0  1  0  0  0
  -27.2343  -27.1687   20.1550 C   0  0  0  0  0  0
  -25.5949  -33.8517   24.2197 N   0  0  0  0  0  0
  -23.4438  -30.4633   21.5333 C   0  0  2  0  0  0
  -24.8977  -28.8941   20.1087 C   0  0  0  0  0  0
  -22.7558  -29.4555   22.4870 C   0  0  0  0  0  0
  -18.0298  -28.1389   22.8480 C   0  0  0  0  0  0
  -24.1486  -36.7252   23.2643 C   0  0  0  0  0  0
  -25.9959  -30.7282   21.3870 C   0  0  0  0  0  0
  -26.0690  -29.3420   20.7305 C   0  0  0  0  0  0
  -27.2342  -28.4936   20.7408 C   0  0  0  0  0  0
  -26.0417  -26.8205   19.4783 C   0  0  0  0  0  0
  -24.8953  -27.6453   19.4675 C   0  0  0  0  0  0
  -23.6699  -29.7888   20.1528 C   0  0  0  0  0  0
  -25.4125  -36.3043   24.0317 C   0  0  1  0  0  0
  -20.5909  -28.3714   23.1236 C   0  0  2  0  0  0
  -20.6777  -26.9421   22.5404 C   0  0  0  0  0  0
  -19.5752  -26.6380   21.5211 C   0  0  0  0  0  0
  -18.1934  -26.7928   22.1628 C   0  0  0  0  0  0
  -19.1556  -28.8873   23.2849 C   0  0  0  0  0  0
  -18.9475  -30.1466   23.8879 C   0  0  0  0  0  0
  -17.6476  -30.6589   24.0560 C   0  0  0  0  0  0
  -25.9072  -34.9416   23.5071 C   0  0  0  0  0  0
  -16.5363  -29.9080   23.6335 C   0  0  0  0  0  0
  -16.7286  -28.6498   23.0364 C   0  0  0  0  0  0
  -26.4520  -31.6572   25.0712 C   0  0  0  0  0  0
  -25.3719  -31.3753   26.1416 C   0  0  0  0  0  0
  -27.0384  -30.2975   24.6276 C   0  0  0  0  0  0
  -27.6040  -32.4349   25.7498 C   0  0  0  0  0  0
  -27.5573  -37.1789   24.8472 C   0  0  0  0  0  0
  -21.4254  -29.3045   22.3618 N   0  0  0  0  0  0
  -26.4289  -37.3759   23.9406 N   0  0  0  0  0  0
  -24.7118  -31.0345   22.0916 N   0  0  0  0  0  0
  -23.4210  -28.8118   23.3025 O   0  0  0  0  0  0
  -28.3084  -26.2178   20.2634 O   0  0  0  0  0  0
  -26.5656  -34.8911   22.4643 O   0  0  0  0  0  0
  -23.5518  -32.1329   23.7133 O   0  0  0  0  0  0
  -30.8762  -18.4952   19.8513 C   0  0  0  0  0  0
  -30.7376  -19.9349   19.7513 C   0  0  0  0  0  0
  -28.7672  -18.4077   20.8943 C   0  0  0  0  0  0
  -29.8770  -17.6328   20.3961 C   0  0  0  0  0  0
  -29.5945  -20.7158   20.1721 C   0  0  0  0  0  0
  -28.6321  -19.8570   20.8098 C   0  0  0  0  0  0
  -29.0287  -16.0952   18.7978 C   0  0  0  0  0  0
  -30.2683  -22.5479   18.6918 C   0  0  0  0  0  0
  -28.9755  -23.4177   20.6280 C   0  0  0  0  0  0
  -28.1605  -24.7143   19.9316 C   0  0  0  0  0  0
  -29.7642  -16.1444   20.0696 N   0  0  0  0  0  0
  -29.4184  -22.1644   19.8217 N   0  0  0  0  0  0
  -27.4894  -20.4152   21.2809 F   0  0  0  0  0  0
  -31.4820  -12.7410   19.1695 H   0  0  0  0  0  0
  -30.4674  -11.6581   20.0835 H   0  0  0  0  0  0
  -29.8352  -11.5489   17.6874 H   0  0  0  0  0  0
  -29.6555  -13.2596   17.5772 H   0  0  0  0  0  0
  -27.9391  -11.2298   19.0177 H   0  0  0  0  0  0
  -27.3949  -12.3717   17.8234 H   0  0  0  0  0  0
  -27.5299  -14.1848   19.3676 H   0  0  0  0  0  0
  -28.7800  -12.3653   21.4858 H   0  0  0  0  0  0
  -28.3826  -14.0612   21.6867 H   0  0  0  0  0  0
  -25.2736   -9.5669   22.4779 H   0  0  0  0  0  0
  -23.9997   -7.4608   22.7467 H   0  0  0  0  0  0
  -21.0815   -8.8764   19.8960 H   0  0  0  0  0  0
  -22.3680  -10.9664   19.6181 H   0  0  0  0  0  0
  -21.2004   -7.6141   23.9724 H   0  0  0  0  0  0
  -21.1481   -6.0502   25.9076 H   0  0  0  0  0  0
  -22.0595   -2.7606   23.2835 H   0  0  0  0  0  0
  -22.4003  -11.9924   22.4871 H   0  0  0  0  0  0
  -21.1014  -13.1280   22.2589 H   0  0  0  0  0  0
  -24.6602  -15.8416   20.5587 H   0  0  0  0  0  0
  -26.2844  -15.6284   20.1366 H   0  0  0  0  0  0
  -26.7249  -32.5326   23.1005 H   0  0  0  0  0  0
  -25.0100  -33.9640   25.0348 H   0  0  0  0  0  0
  -22.7446  -31.2876   21.3777 H   0  0  0  0  0  0
  -23.3760  -35.9574   23.3311 H   0  0  0  0  0  0
  -24.3569  -36.8880   22.2058 H   0  0  0  0  0  0
  -23.7227  -37.6446   23.6673 H   0  0  0  0  0  0
  -26.1511  -31.4838   20.6164 H   0  0  0  0  0  0
  -26.8653  -30.7765   22.0309 H   0  0  0  0  0  0
  -28.1231  -28.8318   21.2543 H   0  0  0  0  0  0
  -25.9631  -25.8736   18.9666 H   0  0  0  0  0  0
  -24.0030  -27.3007   18.9632 H   0  0  0  0  0  0
  -23.8006  -30.5604   19.3930 H   0  0  0  0  0  0
  -22.7881  -29.2230   19.8473 H   0  0  0  0  0  0
  -25.1312  -36.1880   25.0812 H   0  0  0  0  0  0
  -20.9994  -28.3299   24.1363 H   0  0  0  0  0  0
  -20.5652  -26.2347   23.3631 H   0  0  0  0  0  0
  -21.6643  -26.7417   22.1219 H   0  0  0  0  0  0
  -19.6912  -25.6288   21.1249 H   0  0  0  0  0  0
  -19.6670  -27.3184   20.6731 H   0  0  0  0  0  0
  -17.4205  -26.6675   21.4027 H   0  0  0  0  0  0
  -18.0328  -26.0065   22.9020 H   0  0  0  0  0  0
  -19.7954  -30.7279   24.2242 H   0  0  0  0  0  0
  -17.5033  -31.6266   24.5166 H   0  0  0  0  0  0
  -15.5365  -30.2982   23.7668 H   0  0  0  0  0  0
  -15.8685  -28.0807   22.7096 H   0  0  0  0  0  0
  -24.5896  -30.7104   25.7743 H   0  0  0  0  0  0
  -24.8912  -32.2933   26.4804 H   0  0  0  0  0  0
  -25.8016  -30.8955   27.0219 H   0  0  0  0  0  0
  -26.2996  -29.6711   24.1268 H   0  0  0  0  0  0
  -27.3996  -29.7260   25.4833 H   0  0  0  0  0  0
  -27.8902  -30.4223   23.9589 H   0  0  0  0  0  0
  -27.2612  -33.3659   26.2026 H   0  0  0  0  0  0
  -28.3870  -32.6908   25.0349 H   0  0  0  0  0  0
  -28.0689  -31.8523   26.5462 H   0  0  0  0  0  0
  -28.2603  -38.0075   24.7514 H   0  0  0  0  0  0
  -28.1057  -36.2608   24.6308 H   0  0  0  0  0  0
  -27.2291  -37.1451   25.8876 H   0  0  0  0  0  0
  -20.9478  -29.8778   21.6801 H   0  0  0  0  0  0
  -26.0157  -38.2831   24.1409 H   0  0  0  0  0  0
  -31.7445  -18.0390   19.3939 H   0  0  0  0  0  0
  -31.5580  -20.4333   19.2593 H   0  0  0  0  0  0
  -27.9212  -17.8670   21.2893 H   0  0  0  0  0  0
  -29.1125  -15.1644   18.2500 H   0  0  0  0  0  0
  -29.4049  -16.8516   18.1069 H   0  0  0  0  0  0
  -27.9727  -16.3140   18.9557 H   0  0  0  0  0  0
  -29.9891  -23.5106   18.2669 H   0  0  0  0  0  0
  -30.2119  -21.8226   17.8780 H   0  0  0  0  0  0
  -31.3100  -22.6366   19.0039 H   0  0  0  0  0  0
  -28.4123  -23.0856   21.5013 H   0  0  0  0  0  0
  -29.8971  -23.8266   21.0463 H   0  0  0  0  0  0
  -27.1137  -24.4541   20.0803 H   0  0  0  0  0  0
  -28.2917  -24.6636   18.8525 H   0  0  0  0  0  0
  1 25  1  0  0  0
  1 30  2  0  0  0
  1 81  1  0  0  0
  2  3  1  0  0  0
  2 25  1  0  0  0
  2 84  1  0  0  0
  2 85  1  0  0  0
  3  4  1  0  0  0
  3 86  1  0  0  0
  3 87  1  0  0  0
  4  5  1  0  0  0
  4 88  1  0  0  0
  4 89  1  0  0  0
  5  6  1  0  0  0
  5 26  1  0  0  0
  5 90  1  0  0  0
  6 25  1  0  0  0
  6 91  1  0  0  0
  6 92  1  0  0  0
  7  8  2  0  0  0
  7 26  1  0  0  0
  7 29  1  0  0  0
  8  9  1  0  0  0
  8 22  1  0  0  0
  9 10  1  0  0  0
  9 27  2  0  0  0
 10 11  2  0  0  0
 10 15  1  0  0  0
 11 12  1  0  0  0
 11 93  1  0  0  0
 12 13  2  0  0  0
 12 94  1  0  0  0
 13 14  1  0  0  0
 13 31  1  0  0  0
 14 15  2  0  0  0
 14 95  1  0  0  0
 15 96  1  0  0  0
 16 17  2  0  0  0
 16 21  1  0  0  0
 16 31  1  0  0  0
 17 18  1  0  0  0
 17 97  1  0  0  0
 18 19  2  0  0  0
 18 98  1  0  0  0
 19 20  1  0  0  0
 19 24  1  0  0  0
 20 21  2  0  0  0
 20 99  1  0  0  0
 21 23  1  0  0  0
 22 28  1  0  0  0
 22 32  2  0  0  0
 26 27  1  0  0  0
 28100  1  0  0  0
 28101  1  0  0  0
 29102  1  0  0  0
 29103  1  0  0  0
 33 34  1  0  0  0
 33 66  1  0  0  0
 33 70  2  0  0  0
 34 36  1  0  0  0
 34 59  1  0  0  0
 34104  1  0  0  0
 35 44  2  0  0  0
 35 45  1  0  0  0
 35 68  1  0  0  0
 36 56  1  0  0  0
 36105  1  0  0  0
 37 39  1  0  0  0
 37 47  1  0  0  0
 37 66  1  0  0  0
 37106  1  0  0  0
 38 43  2  0  0  0
 38 46  1  0  0  0
 38 47  1  0  0  0
 39 64  1  0  0  0
 39 67  2  0  0  0
 40 52  1  0  0  0
 40 53  2  0  0  0
 40 58  1  0  0  0
 41107  1  0  0  0
 41108  1  0  0  0
 41109  1  0  0  0
 41 48  1  0  0  0
 42 43  1  0  0  0
 42 66  1  0  0  0
 42110  1  0  0  0
 42111  1  0  0  0
 43 44  1  0  0  0
 44112  1  0  0  0
 45 46  2  0  0  0
 45113  1  0  0  0
 46114  1  0  0  0
 47115  1  0  0  0
 47116  1  0  0  0
 48 56  1  0  0  0
 48 65  1  0  0  0
 48117  1  0  0  0
 49 50  1  0  0  0
 49 53  1  0  0  0
 49 64  1  0  0  0
 49118  1  0  0  0
 50 51  1  0  0  0
 50119  1  0  0  0
 50120  1  0  0  0
 51 52  1  0  0  0
 51121  1  0  0  0
 51122  1  0  0  0
 52123  1  0  0  0
 52124  1  0  0  0
 53 54  1  0  0  0
 54 55  2  0  0  0
 54125  1  0  0  0
 55 57  1  0  0  0
 55126  1  0  0  0
 56 69  2  0  0  0
 57 58  2  0  0  0
 57127  1  0  0  0
 58128  1  0  0  0
 59 60  1  0  0  0
 59 61  1  0  0  0
 59 62  1  0  0  0
 60129  1  0  0  0
 60130  1  0  0  0
 60131  1  0  0  0
 61132  1  0  0  0
 61133  1  0  0  0
 61134  1  0  0  0
 62135  1  0  0  0
 62136  1  0  0  0
 62137  1  0  0  0
 63 65  1  0  0  0
 63138  1  0  0  0
 63139  1  0  0  0
 63140  1  0  0  0
 64141  1  0  0  0
 65142  1  0  0  0
 68 80  1  0  0  0
 71 72  2  0  0  0
 71 74  1  0  0  0
 71143  1  0  0  0
 72 75  1  0  0  0
 72144  1  0  0  0
 73 74  2  0  0  0
 73 76  1  0  0  0
 73145  1  0  0  0
 74 81  1  0  0  0
 75 76  2  0  0  0
 75 82  1  0  0  0
 76 83  1  0  0  0
 77 81  1  0  0  0
 77146  1  0  0  0
 77147  1  0  0  0
 77148  1  0  0  0
 78 82  1  0  0  0
 78149  1  0  0  0
 78150  1  0  0  0
 78151  1  0  0  0
 79 80  1  0  0  0
 79 82  1  0  0  0
 79152  1  0  0  0
 79153  1  0  0  0
 80154  1  0  0  0
 80155  1  0  0  0
M  ISO  4   1 100  68 101  80 101  81 100
M  END
> <chiral flag>
0

> <version>
0

> <s_m_source_file>
/data/baiqing/PycharmProjects/Reinvent-master-3.2/result/LINK_invent/BTK/process_docking_weight1_custom_product_contain_oxygen_bond_distance_aromatic_linkinvent_7_9_3/rearranged_h_0013.sdf

> <i_m_source_file_index>
12

> <r_mmod_Potential_Energy-OPLS-2005>
757.08544921875

> <r_mmod_Stretch_Energy-OPLS-2005>
221.660217285156

> <r_mmod_Bend_Energy-OPLS-2005>
277.215484619141

> <r_mmod_Torsional_Energy-OPLS-2005>
345.148010253906

> <r_mmod_Improper_Torsional_Energy-OPLS-2005>
20.6981258392334

> <r_mmod_Van_der_Waal_Energy-OPLS-2005>
151.594589233398

> <r_mmod_Electrostatic_Energy-OPLS-2005>
-246.331100463867

> <r_mmod_Solvation_Energy-OPLS-2005>
-209.666458129883

> <b_mmod_Minimization_Converged-OPLS-2005>
0

> <r_mmod_RMS_Derivative-OPLS-2005>
1.80845773220062

$$$$
12
                    3D
 Structure written by MMmdl.
151159  0  0  1  0            999 V2000
  -30.5629  -14.9226   20.4887 C   0  0  0  0  0  0
  -30.4318  -12.5805   19.5101 C   0  0  0  0  0  0
  -29.5187  -12.5274   18.2645 C   0  0  0  0  0  0
  -28.0560  -12.2992   18.6790 C   0  0  0  0  0  0
  -27.6258  -13.2418   19.8308 C   0  0  2  0  0  0
  -28.6526  -13.2593   20.9798 C   0  0  0  0  0  0
  -25.2440  -13.8226   20.5662 C   0  0  0  0  0  0
  -24.1757  -13.0448   20.9204 C   0  0  0  0  0  0
  -24.6370  -11.6933   20.8721 C   0  0  0  0  0  0
  -23.9070  -10.4293   21.0386 C   0  0  0  0  0  0
  -24.3619   -9.4218   21.9170 C   0  0  0  0  0  0
  -23.6301   -8.2245   22.0751 C   0  0  0  0  0  0
  -22.4284   -8.0267   21.3539 C   0  0  0  0  0  0
  -21.9912   -9.0243   20.4643 C   0  0  0  0  0  0
  -22.7239  -10.2127   20.3046 C   0  0  0  0  0  0
  -21.6851   -6.0735   22.5287 C   0  0  0  0  0  0
  -21.4015   -6.5639   23.8224 C   0  0  0  0  0  0
  -21.3663   -5.6789   24.9189 C   0  0  0  0  0  0
  -21.6038   -4.3050   24.7231 C   0  0  0  0  0  0
  -21.8824   -3.8146   23.4352 C   0  0  0  0  0  0
  -21.9200   -4.6966   22.3413 C   0  0  0  0  0  0
  -22.7788  -13.5233   21.1889 C   0  0  0  0  0  0
  -22.1663   -4.2155   21.0988 F   0  0  0  0  0  0
  -21.5627   -3.4531   25.7739 F   0  0  0  0  0  0
  -29.9497  -13.6676   20.4135 N   0  0  0  0  0  0
  -26.2828  -12.9430   20.3129 N   0  0  0  0  0  0
  -25.9283  -11.6573   20.5670 N   0  0  0  0  0  0
  -22.0441  -12.8187   22.0422 N   0  0  0  0  0  0
  -25.4083  -15.1955   20.4149 N   0  0  0  0  0  0
  -31.7043  -15.0167   20.0186 O   0  0  0  0  0  0
  -21.6636   -6.8872   21.4248 O   0  0  0  0  0  0
  -22.3468  -14.5542   20.6761 O   0  0  0  0  0  0
  -24.6426  -31.8460   23.1909 C   0  0  0  0  0  0
  -25.9199  -32.4711   23.8300 C   0  0  1  0  0  0
  -27.2017  -27.1283   20.1259 C   0  0  0  0  0  0
  -25.5954  -33.8512   24.2223 N   0  0  0  0  0  0
  -23.4469  -30.4682   21.5386 C   0  0  2  0  0  0
  -24.8912  -28.9006   20.1029 C   0  0  0  0  0  0
  -22.7572  -29.4553   22.4858 C   0  0  0  0  0  0
  -18.0321  -28.1385   22.8493 C   0  0  0  0  0  0
  -24.1471  -36.7254   23.2639 C   0  0  0  0  0  0
  -26.0040  -30.7091   21.3950 C   0  0  0  0  0  0
  -26.0684  -29.3216   20.7326 C   0  0  0  0  0  0
  -27.2226  -28.4489   20.7334 C   0  0  0  0  0  0
  -26.0026  -26.8199   19.4470 C   0  0  0  0  0  0
  -24.8716  -27.6636   19.4461 C   0  0  0  0  0  0
  -23.6699  -29.8077   20.1535 C   0  0  0  0  0  0
  -25.4102  -36.3036   24.0317 C   0  0  1  0  0  0
  -20.5937  -28.3706   23.1232 C   0  0  2  0  0  0
  -20.6805  -26.9411   22.5401 C   0  0  0  0  0  0
  -19.5754  -26.6375   21.5226 C   0  0  0  0  0  0
  -18.1940  -26.7936   22.1633 C   0  0  0  0  0  0
  -19.1582  -28.8861   23.2856 C   0  0  0  0  0  0
  -18.9499  -30.1471   23.8852 C   0  0  0  0  0  0
  -17.6490  -30.6581   24.0558 C   0  0  0  0  0  0
  -25.9065  -34.9409   23.5079 C   0  0  0  0  0  0
  -16.5377  -29.9081   23.6339 C   0  0  0  0  0  0
  -16.7311  -28.6507   23.0351 C   0  0  0  0  0  0
  -26.4528  -31.6562   25.0736 C   0  0  0  0  0  0
  -25.3710  -31.3735   26.1432 C   0  0  0  0  0  0
  -27.0408  -30.2955   24.6310 C   0  0  0  0  0  0
  -27.6059  -32.4351   25.7485 C   0  0  0  0  0  0
  -27.5581  -37.1754   24.8458 C   0  0  0  0  0  0
  -21.4267  -29.3039   22.3599 N   0  0  0  0  0  0
  -26.4264  -37.3747   23.9432 N   0  0  0  0  0  0
  -24.7184  -31.0286   22.0966 N   0  0  0  0  0  0
  -23.4219  -28.8086   23.2999 O   0  0  0  0  0  0
  -28.2396  -26.1249   20.1949 O   0  0  0  0  0  0
  -26.5647  -34.8916   22.4658 O   0  0  0  0  0  0
  -23.5548  -32.1365   23.7117 O   0  0  0  0  0  0
  -29.9175  -18.6294   21.6204 C   0  0  0  0  0  0
  -29.6026  -20.0258   21.3456 C   0  0  0  0  0  0
  -28.8403  -19.3718   19.2208 C   0  0  0  0  0  0
  -29.7256  -17.5086   20.7209 C   0  0  0  0  0  0
  -29.0219  -20.4875   20.1199 C   0  0  0  0  0  0
  -29.1705  -17.9744   19.4840 C   0  0  0  0  0  0
  -30.0518  -15.8625   22.5949 C   0  0  0  0  0  0
  -27.9577  -24.6142   19.9107 C   0  0  0  0  0  0
  -28.8429  -23.2389   20.3466 C   0  0  0  0  0  0
  -29.9532  -16.0355   21.1364 N   0  0  0  0  0  0
  -28.5721  -21.8391   19.7523 O   0  0  0  0  0  0
  -28.8915  -17.0534   18.5282 F   0  0  0  0  0  0
  -31.4653  -12.7317   19.1975 H   0  0  0  0  0  0
  -30.4233  -11.6237   20.0332 H   0  0  0  0  0  0
  -29.8448  -11.7330   17.5937 H   0  0  0  0  0  0
  -29.5991  -13.4588   17.7019 H   0  0  0  0  0  0
  -27.9704  -11.2619   19.0054 H   0  0  0  0  0  0
  -27.3921  -12.4019   17.8205 H   0  0  0  0  0  0
  -27.5969  -14.2448   19.4031 H   0  0  0  0  0  0
  -28.7196  -12.2851   21.4645 H   0  0  0  0  0  0
  -28.3075  -13.9540   21.7431 H   0  0  0  0  0  0
  -25.2771   -9.5708   22.4739 H   0  0  0  0  0  0
  -24.0022   -7.4650   22.7479 H   0  0  0  0  0  0
  -21.0842   -8.8769   19.8953 H   0  0  0  0  0  0
  -22.3694  -10.9662   19.6148 H   0  0  0  0  0  0
  -21.1996   -7.6145   23.9734 H   0  0  0  0  0  0
  -21.1475   -6.0509   25.9089 H   0  0  0  0  0  0
  -22.0593   -2.7604   23.2850 H   0  0  0  0  0  0
  -22.4073  -11.9854   22.4798 H   0  0  0  0  0  0
  -21.1042  -13.1165   22.2612 H   0  0  0  0  0  0
  -24.6418  -15.8436   20.5596 H   0  0  0  0  0  0
  -26.2579  -15.6482   20.1004 H   0  0  0  0  0  0
  -26.7247  -32.5283   23.1016 H   0  0  0  0  0  0
  -25.0060  -33.9639   25.0340 H   0  0  0  0  0  0
  -22.7492  -31.2945   21.3915 H   0  0  0  0  0  0
  -23.3763  -35.9555   23.3260 H   0  0  0  0  0  0
  -24.3565  -36.8948   22.2067 H   0  0  0  0  0  0
  -23.7221  -37.6429   23.6720 H   0  0  0  0  0  0
  -26.1615  -31.4623   20.6233 H   0  0  0  0  0  0
  -26.8731  -30.7581   22.0388 H   0  0  0  0  0  0
  -28.1159  -28.7589   21.2565 H   0  0  0  0  0  0
  -25.9027  -25.8851   18.9154 H   0  0  0  0  0  0
  -23.9767  -27.3454   18.9288 H   0  0  0  0  0  0
  -23.8105  -30.5921   19.4081 H   0  0  0  0  0  0
  -22.7804  -29.2590   19.8384 H   0  0  0  0  0  0
  -25.1284  -36.1855   25.0810 H   0  0  0  0  0  0
  -21.0039  -28.3309   24.1353 H   0  0  0  0  0  0
  -20.5740  -26.2314   23.3619 H   0  0  0  0  0  0
  -21.6661  -26.7433   22.1159 H   0  0  0  0  0  0
  -19.6907  -25.6296   21.1244 H   0  0  0  0  0  0
  -19.6683  -27.3190   20.6755 H   0  0  0  0  0  0
  -17.4219  -26.6713   21.4019 H   0  0  0  0  0  0
  -18.0304  -26.0062   22.9008 H   0  0  0  0  0  0
  -19.7978  -30.7309   24.2180 H   0  0  0  0  0  0
  -17.5053  -31.6261   24.5183 H   0  0  0  0  0  0
  -15.5390  -30.2956   23.7699 H   0  0  0  0  0  0
  -15.8713  -28.0834   22.7029 H   0  0  0  0  0  0
  -24.5896  -30.7085   25.7758 H   0  0  0  0  0  0
  -24.8879  -32.2897   26.4810 H   0  0  0  0  0  0
  -25.7987  -30.8945   27.0245 H   0  0  0  0  0  0
  -26.3033  -29.6634   24.1359 H   0  0  0  0  0  0
  -27.4089  -29.7289   25.4872 H   0  0  0  0  0  0
  -27.8907  -30.4208   23.9603 H   0  0  0  0  0  0
  -27.2679  -33.3703   26.1947 H   0  0  0  0  0  0
  -28.3891  -32.6829   25.0317 H   0  0  0  0  0  0
  -28.0694  -31.8560   26.5479 H   0  0  0  0  0  0
  -28.2528  -38.0114   24.7604 H   0  0  0  0  0  0
  -28.1159  -36.2659   24.6167 H   0  0  0  0  0  0
  -27.2319  -37.1262   25.8860 H   0  0  0  0  0  0
  -20.9466  -29.8800   21.6821 H   0  0  0  0  0  0
  -26.0133  -38.2800   24.1527 H   0  0  0  0  0  0
  -30.3106  -18.4252   22.6051 H   0  0  0  0  0  0
  -29.7880  -20.7497   22.1274 H   0  0  0  0  0  0
  -28.3949  -19.5887   18.2612 H   0  0  0  0  0  0
  -29.2589  -16.4073   23.1090 H   0  0  0  0  0  0
  -31.0133  -16.2393   22.9485 H   0  0  0  0  0  0
  -29.9836  -14.8265   22.9321 H   0  0  0  0  0  0
  -26.9541  -24.4188   20.2873 H   0  0  0  0  0  0
  -27.8553  -24.5616   18.8261 H   0  0  0  0  0  0
  -28.8174  -23.1458   21.4329 H   0  0  0  0  0  0
  -29.8815  -23.4579   20.0970 H   0  0  0  0  0  0
  1 25  1  0  0  0
  1 30  2  0  0  0
  1 80  1  0  0  0
  2  3  1  0  0  0
  2 25  1  0  0  0
  2 83  1  0  0  0
  2 84  1  0  0  0
  3  4  1  0  0  0
  3 85  1  0  0  0
  3 86  1  0  0  0
  4  5  1  0  0  0
  4 87  1  0  0  0
  4 88  1  0  0  0
  5  6  1  0  0  0
  5 26  1  0  0  0
  5 89  1  0  0  0
  6 25  1  0  0  0
  6 90  1  0  0  0
  6 91  1  0  0  0
  7  8  2  0  0  0
  7 26  1  0  0  0
  7 29  1  0  0  0
  8  9  1  0  0  0
  8 22  1  0  0  0
  9 10  1  0  0  0
  9 27  2  0  0  0
 10 11  2  0  0  0
 10 15  1  0  0  0
 11 12  1  0  0  0
 11 92  1  0  0  0
 12 13  2  0  0  0
 12 93  1  0  0  0
 13 14  1  0  0  0
 13 31  1  0  0  0
 14 15  2  0  0  0
 14 94  1  0  0  0
 15 95  1  0  0  0
 16 17  2  0  0  0
 16 21  1  0  0  0
 16 31  1  0  0  0
 17 18  1  0  0  0
 17 96  1  0  0  0
 18 19  2  0  0  0
 18 97  1  0  0  0
 19 20  1  0  0  0
 19 24  1  0  0  0
 20 21  2  0  0  0
 20 98  1  0  0  0
 21 23  1  0  0  0
 22 28  1  0  0  0
 22 32  2  0  0  0
 26 27  1  0  0  0
 28 99  1  0  0  0
 28100  1  0  0  0
 29101  1  0  0  0
 29102  1  0  0  0
 33 34  1  0  0  0
 33 66  1  0  0  0
 33 70  2  0  0  0
 34 36  1  0  0  0
 34 59  1  0  0  0
 34103  1  0  0  0
 35 44  2  0  0  0
 35 45  1  0  0  0
 35 68  1  0  0  0
 36 56  1  0  0  0
 36104  1  0  0  0
 37 39  1  0  0  0
 37 47  1  0  0  0
 37 66  1  0  0  0
 37105  1  0  0  0
 38 43  2  0  0  0
 38 46  1  0  0  0
 38 47  1  0  0  0
 39 64  1  0  0  0
 39 67  2  0  0  0
 40 52  1  0  0  0
 40 53  2  0  0  0
 40 58  1  0  0  0
 41106  1  0  0  0
 41107  1  0  0  0
 41108  1  0  0  0
 41 48  1  0  0  0
 42 43  1  0  0  0
 42 66  1  0  0  0
 42109  1  0  0  0
 42110  1  0  0  0
 43 44  1  0  0  0
 44111  1  0  0  0
 45 46  2  0  0  0
 45112  1  0  0  0
 46113  1  0  0  0
 47114  1  0  0  0
 47115  1  0  0  0
 48 56  1  0  0  0
 48 65  1  0  0  0
 48116  1  0  0  0
 49 50  1  0  0  0
 49 53  1  0  0  0
 49 64  1  0  0  0
 49117  1  0  0  0
 50 51  1  0  0  0
 50118  1  0  0  0
 50119  1  0  0  0
 51 52  1  0  0  0
 51120  1  0  0  0
 51121  1  0  0  0
 52122  1  0  0  0
 52123  1  0  0  0
 53 54  1  0  0  0
 54 55  2  0  0  0
 54124  1  0  0  0
 55 57  1  0  0  0
 55125  1  0  0  0
 56 69  2  0  0  0
 57 58  2  0  0  0
 57126  1  0  0  0
 58127  1  0  0  0
 59 60  1  0  0  0
 59 61  1  0  0  0
 59 62  1  0  0  0
 60128  1  0  0  0
 60129  1  0  0  0
 60130  1  0  0  0
 61131  1  0  0  0
 61132  1  0  0  0
 61133  1  0  0  0
 62134  1  0  0  0
 62135  1  0  0  0
 62136  1  0  0  0
 63 65  1  0  0  0
 63137  1  0  0  0
 63138  1  0  0  0
 63139  1  0  0  0
 64140  1  0  0  0
 65141  1  0  0  0
 68 78  1  0  0  0
 71 72  2  0  0  0
 71 74  1  0  0  0
 71142  1  0  0  0
 72 75  1  0  0  0
 72143  1  0  0  0
 73 75  2  0  0  0
 73 76  1  0  0  0
 73144  1  0  0  0
 74 76  2  0  0  0
 74 80  1  0  0  0
 75 81  1  0  0  0
 76 82  1  0  0  0
 77 80  1  0  0  0
 77145  1  0  0  0
 77146  1  0  0  0
 77147  1  0  0  0
 78 79  1  0  0  0
 78148  1  0  0  0
 78149  1  0  0  0
 79 81  1  0  0  0
 79150  1  0  0  0
 79151  1  0  0  0
M  ISO  4   1 100  68 101  78 101  80 100
M  END
> <chiral flag>
0

> <version>
0

> <s_m_source_file>
/data/baiqing/PycharmProjects/Reinvent-master-3.2/result/LINK_invent/BTK/process_docking_weight1_custom_product_contain_oxygen_bond_distance_aromatic_linkinvent_7_9_3/rearranged_h_0013.sdf

> <i_m_source_file_index>
13

> <r_mmod_Potential_Energy-OPLS-2005>
628.907043457031

> <r_mmod_Stretch_Energy-OPLS-2005>
245.900985717773

> <r_mmod_Bend_Energy-OPLS-2005>
286.098541259766

> <r_mmod_Torsional_Energy-OPLS-2005>
279.547088623047

> <r_mmod_Improper_Torsional_Energy-OPLS-2005>
4.31507015228271

> <r_mmod_Van_der_Waal_Energy-OPLS-2005>
140.764587402344

> <r_mmod_Electrostatic_Energy-OPLS-2005>
-320.791687011719

> <r_mmod_Solvation_Energy-OPLS-2005>
-194.976348876953

> <b_mmod_Minimization_Converged-OPLS-2005>
0

> <r_mmod_RMS_Derivative-OPLS-2005>
3.69370436668396

$$$$
13
                    3D
 Structure written by MMmdl.
151159  0  0  1  0            999 V2000
  -30.6172  -14.6556   20.4964 C   0  0  0  0  0  0
  -30.4403  -12.4033   19.4541 C   0  0  0  0  0  0
  -29.5089  -12.5134   18.2264 C   0  0  0  0  0  0
  -28.0328  -12.3447   18.6393 C   0  0  0  0  0  0
  -27.6528  -13.2184   19.8649 C   0  0  2  0  0  0
  -28.6986  -13.0814   20.9942 C   0  0  0  0  0  0
  -25.2554  -13.8167   20.5679 C   0  0  0  0  0  0
  -24.1821  -13.0428   20.9161 C   0  0  0  0  0  0
  -24.6401  -11.6903   20.8730 C   0  0  0  0  0  0
  -23.9072  -10.4288   21.0397 C   0  0  0  0  0  0
  -24.3621   -9.4208   21.9177 C   0  0  0  0  0  0
  -23.6293   -8.2245   22.0753 C   0  0  0  0  0  0
  -22.4276   -8.0280   21.3545 C   0  0  0  0  0  0
  -21.9910   -9.0254   20.4650 C   0  0  0  0  0  0
  -22.7240  -10.2131   20.3055 C   0  0  0  0  0  0
  -21.6856   -6.0736   22.5279 C   0  0  0  0  0  0
  -21.4015   -6.5640   23.8212 C   0  0  0  0  0  0
  -21.3663   -5.6793   24.9175 C   0  0  0  0  0  0
  -21.6048   -4.3055   24.7227 C   0  0  0  0  0  0
  -21.8820   -3.8147   23.4349 C   0  0  0  0  0  0
  -21.9193   -4.6963   22.3404 C   0  0  0  0  0  0
  -22.7846  -13.5225   21.1836 C   0  0  0  0  0  0
  -22.1659   -4.2152   21.0980 F   0  0  0  0  0  0
  -21.5631   -3.4538   25.7740 F   0  0  0  0  0  0
  -30.0123  -13.4270   20.4285 N   0  0  0  0  0  0
  -26.2995  -12.9356   20.3346 N   0  0  0  0  0  0
  -25.9336  -11.6506   20.5769 N   0  0  0  0  0  0
  -22.0496  -12.8222   22.0401 N   0  0  0  0  0  0
  -25.4233  -15.1892   20.4132 N   0  0  0  0  0  0
  -31.7842  -14.8111   20.1248 O   0  0  0  0  0  0
  -21.6639   -6.8879   21.4243 O   0  0  0  0  0  0
  -22.3525  -14.5532   20.6690 O   0  0  0  0  0  0
  -24.6264  -31.8606   23.2026 C   0  0  0  0  0  0
  -25.9111  -32.4784   23.8352 C   0  0  1  0  0  0
  -27.2220  -27.3194   20.1159 C   0  0  0  0  0  0
  -25.5929  -33.8587   24.2285 N   0  0  0  0  0  0
  -23.4190  -30.4845   21.5463 C   0  0  2  0  0  0
  -24.8641  -28.9398   20.1108 C   0  0  0  0  0  0
  -22.7473  -29.4632   22.4951 C   0  0  0  0  0  0
  -18.0285  -28.1384   22.8493 C   0  0  0  0  0  0
  -24.1489  -36.7296   23.2635 C   0  0  0  0  0  0
  -25.9596  -30.7920   21.3725 C   0  0  0  0  0  0
  -26.0332  -29.4188   20.7152 C   0  0  0  0  0  0
  -27.2150  -28.6203   20.7078 C   0  0  0  0  0  0
  -26.0294  -26.8945   19.4855 C   0  0  0  0  0  0
  -24.8641  -27.6831   19.4874 C   0  0  0  0  0  0
  -23.6322  -29.8199   20.1612 C   0  0  0  0  0  0
  -25.4115  -36.3092   24.0328 C   0  0  1  0  0  0
  -20.5885  -28.3693   23.1290 C   0  0  2  0  0  0
  -20.6780  -26.9420   22.5411 C   0  0  0  0  0  0
  -19.5750  -26.6385   21.5222 C   0  0  0  0  0  0
  -18.1930  -26.7926   22.1632 C   0  0  0  0  0  0
  -19.1537  -28.8857   23.2885 C   0  0  0  0  0  0
  -18.9459  -30.1459   23.8903 C   0  0  0  0  0  0
  -17.6458  -30.6589   24.0568 C   0  0  0  0  0  0
  -25.9052  -34.9460   23.5108 C   0  0  0  0  0  0
  -16.5350  -29.9088   23.6329 C   0  0  0  0  0  0
  -16.7271  -28.6502   23.0356 C   0  0  0  0  0  0
  -26.4493  -31.6590   25.0721 C   0  0  0  0  0  0
  -25.3730  -31.3734   26.1451 C   0  0  0  0  0  0
  -27.0322  -30.3013   24.6163 C   0  0  0  0  0  0
  -27.6060  -32.4314   25.7488 C   0  0  0  0  0  0
  -27.5587  -37.1799   24.8459 C   0  0  0  0  0  0
  -21.4190  -29.3048   22.3690 N   0  0  0  0  0  0
  -26.4291  -37.3785   23.9413 N   0  0  0  0  0  0
  -24.6873  -31.0618   22.0977 N   0  0  0  0  0  0
  -23.4199  -28.8176   23.3031 O   0  0  0  0  0  0
  -28.3411  -26.4727   20.1707 O   0  0  0  0  0  0
  -26.5623  -34.8926   22.4677 O   0  0  0  0  0  0
  -23.5431  -32.1407   23.7360 O   0  0  0  0  0  0
  -31.1162  -19.3034   20.3510 C   0  0  0  0  0  0
  -31.1004  -17.8774   20.3973 C   0  0  0  0  0  0
  -28.7759  -19.3897   20.8855 C   0  0  0  0  0  0
  -29.9660  -20.1095   20.5997 C   0  0  0  0  0  0
  -29.9153  -17.1624   20.7048 C   0  0  0  0  0  0
  -28.7574  -17.9595   20.9348 C   0  0  0  0  0  0
  -30.1119  -21.6471   20.6956 C   0  0  0  0  0  0
  -29.3045  -24.0448   20.4876 C   0  0  0  0  0  0
  -28.1343  -25.0109   20.0206 C   0  0  0  0  0  0
  -29.7979  -15.7053   20.8234 N   0  0  0  0  0  0
  -29.1186  -22.5419   20.3987 N   0  0  0  0  0  0
  -31.2177  -22.0799   21.0286 O   0  0  0  0  0  0
  -27.5944  -17.3289   21.2274 F   0  0  0  0  0  0
  -31.4809  -12.5318   19.1513 H   0  0  0  0  0  0
  -30.3779  -11.4091   19.8992 H   0  0  0  0  0  0
  -29.7773  -11.7659   17.4794 H   0  0  0  0  0  0
  -29.6460  -13.4847   17.7481 H   0  0  0  0  0  0
  -27.8756  -11.2908   18.8731 H   0  0  0  0  0  0
  -27.3772  -12.5695   17.7975 H   0  0  0  0  0  0
  -27.6662  -14.2524   19.5197 H   0  0  0  0  0  0
  -28.7146  -12.0619   21.3828 H   0  0  0  0  0  0
  -28.4431  -13.7187   21.8424 H   0  0  0  0  0  0
  -25.2766   -9.5686   22.4753 H   0  0  0  0  0  0
  -24.0007   -7.4639   22.7472 H   0  0  0  0  0  0
  -21.0845   -8.8774   19.8954 H   0  0  0  0  0  0
  -22.3697  -10.9673   19.6166 H   0  0  0  0  0  0
  -21.2002   -7.6147   23.9719 H   0  0  0  0  0  0
  -21.1485   -6.0520   25.9079 H   0  0  0  0  0  0
  -22.0596   -2.7611   23.2848 H   0  0  0  0  0  0
  -22.4109  -11.9888   22.4799 H   0  0  0  0  0  0
  -21.1119  -13.1258   22.2613 H   0  0  0  0  0  0
  -24.6607  -15.8416   20.5557 H   0  0  0  0  0  0
  -26.2944  -15.6527   20.1882 H   0  0  0  0  0  0
  -26.7181  -32.5453   23.1102 H   0  0  0  0  0  0
  -25.0081  -33.9731   25.0434 H   0  0  0  0  0  0
  -22.7130  -31.3053   21.4043 H   0  0  0  0  0  0
  -23.3762  -35.9616   23.3279 H   0  0  0  0  0  0
  -24.3586  -36.8938   22.2053 H   0  0  0  0  0  0
  -23.7222  -37.6486   23.6668 H   0  0  0  0  0  0
  -26.0881  -31.5549   20.6035 H   0  0  0  0  0  0
  -26.8413  -30.8427   21.9997 H   0  0  0  0  0  0
  -28.1112  -28.9832   21.1912 H   0  0  0  0  0  0
  -25.9688  -25.9356   18.9931 H   0  0  0  0  0  0
  -23.9683  -27.3112   19.0096 H   0  0  0  0  0  0
  -23.7502  -30.5963   19.4044 H   0  0  0  0  0  0
  -22.7520  -29.2488   19.8598 H   0  0  0  0  0  0
  -25.1294  -36.1945   25.0820 H   0  0  0  0  0  0
  -20.9973  -28.3265   24.1411 H   0  0  0  0  0  0
  -20.5700  -26.2306   23.3611 H   0  0  0  0  0  0
  -21.6647  -26.7463   22.1194 H   0  0  0  0  0  0
  -19.6915  -25.6296   21.1253 H   0  0  0  0  0  0
  -19.6683  -27.3199   20.6754 H   0  0  0  0  0  0
  -17.4203  -26.6682   21.4029 H   0  0  0  0  0  0
  -18.0326  -26.0065   22.9024 H   0  0  0  0  0  0
  -19.7934  -30.7276   24.2274 H   0  0  0  0  0  0
  -17.5010  -31.6269   24.5167 H   0  0  0  0  0  0
  -15.5350  -30.2992   23.7644 H   0  0  0  0  0  0
  -15.8674  -28.0819   22.7075 H   0  0  0  0  0  0
  -24.5855  -30.7150   25.7763 H   0  0  0  0  0  0
  -24.8984  -32.2913   26.4932 H   0  0  0  0  0  0
  -25.8038  -30.8838   27.0193 H   0  0  0  0  0  0
  -26.2884  -29.6772   24.1192 H   0  0  0  0  0  0
  -27.4028  -29.7259   25.4657 H   0  0  0  0  0  0
  -27.8754  -30.4302   23.9374 H   0  0  0  0  0  0
  -27.2675  -33.3603   26.2090 H   0  0  0  0  0  0
  -28.3855  -32.6890   25.0305 H   0  0  0  0  0  0
  -28.0745  -31.8422   26.5382 H   0  0  0  0  0  0
  -28.2586  -38.0115   24.7543 H   0  0  0  0  0  0
  -28.1102  -36.2649   24.6237 H   0  0  0  0  0  0
  -27.2311  -37.1394   25.8861 H   0  0  0  0  0  0
  -20.9371  -29.8773   21.6901 H   0  0  0  0  0  0
  -26.0176  -38.2858   24.1430 H   0  0  0  0  0  0
  -32.0595  -19.7920   20.1480 H   0  0  0  0  0  0
  -32.0237  -17.3470   20.2155 H   0  0  0  0  0  0
  -27.8672  -19.9294   21.1088 H   0  0  0  0  0  0
  -29.5403  -24.2846   21.5251 H   0  0  0  0  0  0
  -30.1960  -24.3070   19.9163 H   0  0  0  0  0  0
  -27.2386  -24.7253   20.5743 H   0  0  0  0  0  0
  -27.9302  -24.8070   18.9688 H   0  0  0  0  0  0
  -28.8759  -15.4081   21.1053 H   0  0  0  0  0  0
  -28.2158  -22.1849   20.1167 H   0  0  0  0  0  0
  1 25  1  0  0  0
  1 30  2  0  0  0
  1 80  1  0  0  0
  2  3  1  0  0  0
  2 25  1  0  0  0
  2 84  1  0  0  0
  2 85  1  0  0  0
  3  4  1  0  0  0
  3 86  1  0  0  0
  3 87  1  0  0  0
  4  5  1  0  0  0
  4 88  1  0  0  0
  4 89  1  0  0  0
  5  6  1  0  0  0
  5 26  1  0  0  0
  5 90  1  0  0  0
  6 25  1  0  0  0
  6 91  1  0  0  0
  6 92  1  0  0  0
  7  8  2  0  0  0
  7 26  1  0  0  0
  7 29  1  0  0  0
  8  9  1  0  0  0
  8 22  1  0  0  0
  9 10  1  0  0  0
  9 27  2  0  0  0
 10 11  2  0  0  0
 10 15  1  0  0  0
 11 12  1  0  0  0
 11 93  1  0  0  0
 12 13  2  0  0  0
 12 94  1  0  0  0
 13 14  1  0  0  0
 13 31  1  0  0  0
 14 15  2  0  0  0
 14 95  1  0  0  0
 15 96  1  0  0  0
 16 17  2  0  0  0
 16 21  1  0  0  0
 16 31  1  0  0  0
 17 18  1  0  0  0
 17 97  1  0  0  0
 18 19  2  0  0  0
 18 98  1  0  0  0
 19 20  1  0  0  0
 19 24  1  0  0  0
 20 21  2  0  0  0
 20 99  1  0  0  0
 21 23  1  0  0  0
 22 28  1  0  0  0
 22 32  2  0  0  0
 26 27  1  0  0  0
 28100  1  0  0  0
 28101  1  0  0  0
 29102  1  0  0  0
 29103  1  0  0  0
 33 34  1  0  0  0
 33 66  1  0  0  0
 33 70  2  0  0  0
 34 36  1  0  0  0
 34 59  1  0  0  0
 34104  1  0  0  0
 35 44  2  0  0  0
 35 45  1  0  0  0
 35 68  1  0  0  0
 36 56  1  0  0  0
 36105  1  0  0  0
 37 39  1  0  0  0
 37 47  1  0  0  0
 37 66  1  0  0  0
 37106  1  0  0  0
 38 43  2  0  0  0
 38 46  1  0  0  0
 38 47  1  0  0  0
 39 64  1  0  0  0
 39 67  2  0  0  0
 40 52  1  0  0  0
 40 53  2  0  0  0
 40 58  1  0  0  0
 41107  1  0  0  0
 41108  1  0  0  0
 41109  1  0  0  0
 41 48  1  0  0  0
 42 43  1  0  0  0
 42 66  1  0  0  0
 42110  1  0  0  0
 42111  1  0  0  0
 43 44  1  0  0  0
 44112  1  0  0  0
 45 46  2  0  0  0
 45113  1  0  0  0
 46114  1  0  0  0
 47115  1  0  0  0
 47116  1  0  0  0
 48 56  1  0  0  0
 48 65  1  0  0  0
 48117  1  0  0  0
 49 50  1  0  0  0
 49 53  1  0  0  0
 49 64  1  0  0  0
 49118  1  0  0  0
 50 51  1  0  0  0
 50119  1  0  0  0
 50120  1  0  0  0
 51 52  1  0  0  0
 51121  1  0  0  0
 51122  1  0  0  0
 52123  1  0  0  0
 52124  1  0  0  0
 53 54  1  0  0  0
 54 55  2  0  0  0
 54125  1  0  0  0
 55 57  1  0  0  0
 55126  1  0  0  0
 56 69  2  0  0  0
 57 58  2  0  0  0
 57127  1  0  0  0
 58128  1  0  0  0
 59 60  1  0  0  0
 59 61  1  0  0  0
 59 62  1  0  0  0
 60129  1  0  0  0
 60130  1  0  0  0
 60131  1  0  0  0
 61132  1  0  0  0
 61133  1  0  0  0
 61134  1  0  0  0
 62135  1  0  0  0
 62136  1  0  0  0
 62137  1  0  0  0
 63 65  1  0  0  0
 63138  1  0  0  0
 63139  1  0  0  0
 63140  1  0  0  0
 64141  1  0  0  0
 65142  1  0  0  0
 68 79  1  0  0  0
 71 72  2  0  0  0
 71 74  1  0  0  0
 71143  1  0  0  0
 72 75  1  0  0  0
 72144  1  0  0  0
 73 74  2  0  0  0
 73 76  1  0  0  0
 73145  1  0  0  0
 74 77  1  0  0  0
 75 76  2  0  0  0
 75 80  1  0  0  0
 76 83  1  0  0  0
 77 81  1  0  0  0
 77 82  2  0  0  0
 78 79  1  0  0  0
 78 81  1  0  0  0
 78146  1  0  0  0
 78147  1  0  0  0
 79148  1  0  0  0
 79149  1  0  0  0
 80150  1  0  0  0
 81151  1  0  0  0
M  ISO  4   1 100  68 101  79 101  80 100
M  END
> <chiral flag>
0

> <version>
0

> <s_m_source_file>
/data/baiqing/PycharmProjects/Reinvent-master-3.2/result/LINK_invent/BTK/process_docking_weight1_custom_product_contain_oxygen_bond_distance_aromatic_linkinvent_7_9_3/rearranged_h_0013.sdf

> <i_m_source_file_index>
14

> <r_mmod_Potential_Energy-OPLS-2005>
-77.2847366333008

> <r_mmod_Stretch_Energy-OPLS-2005>
78.8824691772461

> <r_mmod_Bend_Energy-OPLS-2005>
141.790603637695

> <r_mmod_Torsional_Energy-OPLS-2005>
217.442764282227

> <r_mmod_Improper_Torsional_Energy-OPLS-2005>
4.70903921127319

> <r_mmod_Van_der_Waal_Energy-OPLS-2005>
148.05241394043

> <r_mmod_Electrostatic_Energy-OPLS-2005>
-492.010955810547

> <r_mmod_Solvation_Energy-OPLS-2005>
-227.451812744141

> <b_mmod_Minimization_Converged-OPLS-2005>
0

> <r_mmod_RMS_Derivative-OPLS-2005>
0.871422171592712

$$$$
14
                    3D
 Structure written by MMmdl.
155163  0  0  1  0            999 V2000
  -30.6007  -14.6594   20.5107 C   0  0  0  0  0  0
  -30.4512  -12.4055   19.4539 C   0  0  0  0  0  0
  -29.5146  -12.5064   18.2272 C   0  0  0  0  0  0
  -28.0344  -12.3508   18.6348 C   0  0  0  0  0  0
  -27.6579  -13.2149   19.8665 C   0  0  2  0  0  0
  -28.7039  -13.0480   20.9922 C   0  0  0  0  0  0
  -25.2575  -13.8169   20.5692 C   0  0  0  0  0  0
  -24.1836  -13.0439   20.9205 C   0  0  0  0  0  0
  -24.6398  -11.6904   20.8739 C   0  0  0  0  0  0
  -23.9065  -10.4289   21.0411 C   0  0  0  0  0  0
  -24.3612   -9.4206   21.9197 C   0  0  0  0  0  0
  -23.6286   -8.2243   22.0757 C   0  0  0  0  0  0
  -22.4274   -8.0280   21.3542 C   0  0  0  0  0  0
  -21.9918   -9.0251   20.4640 C   0  0  0  0  0  0
  -22.7241  -10.2133   20.3052 C   0  0  0  0  0  0
  -21.6854   -6.0740   22.5284 C   0  0  0  0  0  0
  -21.4003   -6.5640   23.8216 C   0  0  0  0  0  0
  -21.3658   -5.6793   24.9173 C   0  0  0  0  0  0
  -21.6051   -4.3059   24.7226 C   0  0  0  0  0  0
  -21.8818   -3.8153   23.4346 C   0  0  0  0  0  0
  -21.9186   -4.6968   22.3402 C   0  0  0  0  0  0
  -22.7852  -13.5233   21.1869 C   0  0  0  0  0  0
  -22.1659   -4.2155   21.0980 F   0  0  0  0  0  0
  -21.5635   -3.4541   25.7743 F   0  0  0  0  0  0
  -30.0206  -13.4161   20.4397 N   0  0  0  0  0  0
  -26.3006  -12.9340   20.3324 N   0  0  0  0  0  0
  -25.9322  -11.6500   20.5745 N   0  0  0  0  0  0
  -22.0478  -12.8207   22.0402 N   0  0  0  0  0  0
  -25.4317  -15.1891   20.4118 N   0  0  0  0  0  0
  -31.7390  -14.8677   20.0782 O   0  0  0  0  0  0
  -21.6630   -6.8882   21.4241 O   0  0  0  0  0  0
  -22.3546  -14.5554   20.6743 O   0  0  0  0  0  0
  -24.6260  -31.8594   23.1983 C   0  0  0  0  0  0
  -25.9106  -32.4773   23.8329 C   0  0  1  0  0  0
  -27.2375  -27.3212   20.1213 C   0  0  0  0  0  0
  -25.5933  -33.8571   24.2260 N   0  0  0  0  0  0
  -23.4200  -30.4771   21.5432 C   0  0  2  0  0  0
  -24.8691  -28.9228   20.1159 C   0  0  0  0  0  0
  -22.7491  -29.4591   22.4953 C   0  0  0  0  0  0
  -18.0281  -28.1376   22.8464 C   0  0  0  0  0  0
  -24.1495  -36.7286   23.2642 C   0  0  0  0  0  0
  -25.9575  -30.7916   21.3646 C   0  0  0  0  0  0
  -26.0370  -29.4137   20.7147 C   0  0  0  0  0  0
  -27.2251  -28.6255   20.7017 C   0  0  0  0  0  0
  -26.0457  -26.8669   19.5175 C   0  0  0  0  0  0
  -24.8743  -27.6535   19.5117 C   0  0  0  0  0  0
  -23.6348  -29.8037   20.1606 C   0  0  0  0  0  0
  -25.4120  -36.3071   24.0336 C   0  0  1  0  0  0
  -20.5883  -28.3674   23.1298 C   0  0  2  0  0  0
  -20.6772  -26.9403   22.5412 C   0  0  0  0  0  0
  -19.5756  -26.6389   21.5197 C   0  0  0  0  0  0
  -18.1923  -26.7920   22.1602 C   0  0  0  0  0  0
  -19.1540  -28.8845   23.2861 C   0  0  0  0  0  0
  -18.9463  -30.1445   23.8876 C   0  0  0  0  0  0
  -17.6464  -30.6576   24.0562 C   0  0  0  0  0  0
  -25.9070  -34.9444   23.5107 C   0  0  0  0  0  0
  -16.5352  -29.9078   23.6333 C   0  0  0  0  0  0
  -16.7269  -28.6504   23.0334 C   0  0  0  0  0  0
  -26.4486  -31.6576   25.0701 C   0  0  0  0  0  0
  -25.3709  -31.3697   26.1423 C   0  0  0  0  0  0
  -27.0320  -30.3020   24.6087 C   0  0  0  0  0  0
  -27.6068  -32.4294   25.7456 C   0  0  0  0  0  0
  -27.5575  -37.1785   24.8464 C   0  0  0  0  0  0
  -21.4199  -29.3018   22.3696 N   0  0  0  0  0  0
  -26.4284  -37.3776   23.9415 N   0  0  0  0  0  0
  -24.6860  -31.0600   22.0935 N   0  0  0  0  0  0
  -23.4201  -28.8138   23.3038 O   0  0  0  0  0  0
  -28.3806  -26.5124   20.0894 O   0  0  0  0  0  0
  -26.5632  -34.8916   22.4665 O   0  0  0  0  0  0
  -23.5432  -32.1414   23.7317 O   0  0  0  0  0  0
  -28.5154  -17.6675   21.4869 C   0  0  0  0  0  0
  -30.4958  -18.0347   20.1930 C   0  0  0  0  0  0
  -28.2108  -19.0502   21.4250 C   0  0  0  0  0  0
  -30.1882  -19.4452   20.1456 C   0  0  0  0  0  0
  -29.6544  -17.1020   20.8710 C   0  0  0  0  0  0
  -29.0253  -20.0137   20.7608 C   0  0  0  0  0  0
  -27.6177  -21.7905   21.7330 C   0  0  0  0  0  0
  -28.6791  -23.8911   19.6836 C   0  0  0  0  0  0
  -29.4382  -22.5726   20.2241 C   0  0  0  0  0  0
  -28.3274  -25.1320   20.6261 C   0  0  0  0  0  0
  -29.7814  -15.6443   20.9974 N   0  0  0  0  0  0
  -28.6348  -21.4194   20.7467 N   0  0  0  0  0  0
  -31.4897  -12.5457   19.1515 H   0  0  0  0  0  0
  -30.4031  -11.4081   19.8931 H   0  0  0  0  0  0
  -29.7759  -11.7426   17.4926 H   0  0  0  0  0  0
  -29.6619  -13.4677   17.7325 H   0  0  0  0  0  0
  -27.8648  -11.2978   18.8600 H   0  0  0  0  0  0
  -27.3846  -12.5867   17.7919 H   0  0  0  0  0  0
  -27.6802  -14.2543   19.5371 H   0  0  0  0  0  0
  -28.7193  -12.0135   21.3379 H   0  0  0  0  0  0
  -28.4392  -13.6410   21.8683 H   0  0  0  0  0  0
  -25.2749   -9.5688   22.4779 H   0  0  0  0  0  0
  -23.9996   -7.4630   22.7477 H   0  0  0  0  0  0
  -21.0860   -8.8765   19.8933 H   0  0  0  0  0  0
  -22.3710  -10.9668   19.6160 H   0  0  0  0  0  0
  -21.1988   -7.6149   23.9721 H   0  0  0  0  0  0
  -21.1485   -6.0524   25.9083 H   0  0  0  0  0  0
  -22.0598   -2.7612   23.2845 H   0  0  0  0  0  0
  -22.4057  -11.9841   22.4768 H   0  0  0  0  0  0
  -21.1089  -13.1227   22.2587 H   0  0  0  0  0  0
  -24.6701  -15.8491   20.5206 H   0  0  0  0  0  0
  -26.2824  -15.6195   20.0716 H   0  0  0  0  0  0
  -26.7189  -32.5465   23.1096 H   0  0  0  0  0  0
  -25.0030  -33.9692   25.0368 H   0  0  0  0  0  0
  -22.7135  -31.2963   21.3973 H   0  0  0  0  0  0
  -23.3754  -35.9622   23.3292 H   0  0  0  0  0  0
  -24.3575  -36.8924   22.2057 H   0  0  0  0  0  0
  -23.7249  -37.6484   23.6675 H   0  0  0  0  0  0
  -26.0721  -31.5492   20.5889 H   0  0  0  0  0  0
  -26.8443  -30.8558   21.9826 H   0  0  0  0  0  0
  -28.1276  -29.0009   21.1656 H   0  0  0  0  0  0
  -26.0212  -25.8947   19.0455 H   0  0  0  0  0  0
  -23.9775  -27.2697   19.0449 H   0  0  0  0  0  0
  -23.7497  -30.5775   19.4005 H   0  0  0  0  0  0
  -22.7558  -29.2282   19.8629 H   0  0  0  0  0  0
  -25.1278  -36.1927   25.0831 H   0  0  0  0  0  0
  -20.9942  -28.3244   24.1435 H   0  0  0  0  0  0
  -20.5703  -26.2270   23.3590 H   0  0  0  0  0  0
  -21.6643  -26.7460   22.1189 H   0  0  0  0  0  0
  -19.6947  -25.6312   21.1198 H   0  0  0  0  0  0
  -19.6718  -27.3235   20.6746 H   0  0  0  0  0  0
  -17.4208  -26.6678   21.3983 H   0  0  0  0  0  0
  -18.0313  -26.0058   22.9004 H   0  0  0  0  0  0
  -19.7957  -30.7237   24.2257 H   0  0  0  0  0  0
  -17.5037  -31.6266   24.5156 H   0  0  0  0  0  0
  -15.5357  -30.2963   23.7690 H   0  0  0  0  0  0
  -15.8662  -28.0823   22.7040 H   0  0  0  0  0  0
  -24.5937  -30.6985   25.7729 H   0  0  0  0  0  0
  -24.8831  -32.2861   26.4777 H   0  0  0  0  0  0
  -25.8047  -30.8930   27.0231 H   0  0  0  0  0  0
  -26.2861  -29.6777   24.1157 H   0  0  0  0  0  0
  -27.4111  -29.7260   25.4531 H   0  0  0  0  0  0
  -27.8693  -30.4322   23.9221 H   0  0  0  0  0  0
  -27.2712  -33.3647   26.1945 H   0  0  0  0  0  0
  -28.3917  -32.6759   25.0287 H   0  0  0  0  0  0
  -28.0679  -31.8456   26.5433 H   0  0  0  0  0  0
  -28.2568  -38.0096   24.7499 H   0  0  0  0  0  0
  -28.1085  -36.2621   24.6293 H   0  0  0  0  0  0
  -27.2279  -37.1427   25.8859 H   0  0  0  0  0  0
  -20.9396  -29.8721   21.6873 H   0  0  0  0  0  0
  -26.0169  -38.2850   24.1444 H   0  0  0  0  0  0
  -27.8315  -17.0273   22.0263 H   0  0  0  0  0  0
  -31.3877  -17.6819   19.6942 H   0  0  0  0  0  0
  -27.2975  -19.3390   21.9206 H   0  0  0  0  0  0
  -30.8709  -20.0909   19.6137 H   0  0  0  0  0  0
  -27.8441  -21.3717   22.7149 H   0  0  0  0  0  0
  -26.6336  -21.4367   21.4220 H   0  0  0  0  0  0
  -27.5414  -22.8668   21.8730 H   0  0  0  0  0  0
  -27.7878  -23.6032   19.1247 H   0  0  0  0  0  0
  -29.3478  -24.3025   18.9275 H   0  0  0  0  0  0
  -30.1784  -22.8608   20.9723 H   0  0  0  0  0  0
  -30.0211  -22.1897   19.3862 H   0  0  0  0  0  0
  -29.0468  -25.1259   21.4447 H   0  0  0  0  0  0
  -27.3622  -24.9570   21.1003 H   0  0  0  0  0  0
  -28.9737  -15.2234   21.4302 H   0  0  0  0  0  0
  1 25  1  0  0  0
  1 30  2  0  0  0
  1 81  1  0  0  0
  2  3  1  0  0  0
  2 25  1  0  0  0
  2 83  1  0  0  0
  2 84  1  0  0  0
  3  4  1  0  0  0
  3 85  1  0  0  0
  3 86  1  0  0  0
  4  5  1  0  0  0
  4 87  1  0  0  0
  4 88  1  0  0  0
  5  6  1  0  0  0
  5 26  1  0  0  0
  5 89  1  0  0  0
  6 25  1  0  0  0
  6 90  1  0  0  0
  6 91  1  0  0  0
  7  8  2  0  0  0
  7 26  1  0  0  0
  7 29  1  0  0  0
  8  9  1  0  0  0
  8 22  1  0  0  0
  9 10  1  0  0  0
  9 27  2  0  0  0
 10 11  2  0  0  0
 10 15  1  0  0  0
 11 12  1  0  0  0
 11 92  1  0  0  0
 12 13  2  0  0  0
 12 93  1  0  0  0
 13 14  1  0  0  0
 13 31  1  0  0  0
 14 15  2  0  0  0
 14 94  1  0  0  0
 15 95  1  0  0  0
 16 17  2  0  0  0
 16 21  1  0  0  0
 16 31  1  0  0  0
 17 18  1  0  0  0
 17 96  1  0  0  0
 18 19  2  0  0  0
 18 97  1  0  0  0
 19 20  1  0  0  0
 19 24  1  0  0  0
 20 21  2  0  0  0
 20 98  1  0  0  0
 21 23  1  0  0  0
 22 28  1  0  0  0
 22 32  2  0  0  0
 26 27  1  0  0  0
 28 99  1  0  0  0
 28100  1  0  0  0
 29101  1  0  0  0
 29102  1  0  0  0
 33 34  1  0  0  0
 33 66  1  0  0  0
 33 70  2  0  0  0
 34 36  1  0  0  0
 34 59  1  0  0  0
 34103  1  0  0  0
 35 44  2  0  0  0
 35 45  1  0  0  0
 35 68  1  0  0  0
 36 56  1  0  0  0
 36104  1  0  0  0
 37 39  1  0  0  0
 37 47  1  0  0  0
 37 66  1  0  0  0
 37105  1  0  0  0
 38 43  2  0  0  0
 38 46  1  0  0  0
 38 47  1  0  0  0
 39 64  1  0  0  0
 39 67  2  0  0  0
 40 52  1  0  0  0
 40 53  2  0  0  0
 40 58  1  0  0  0
 41106  1  0  0  0
 41107  1  0  0  0
 41108  1  0  0  0
 41 48  1  0  0  0
 42 43  1  0  0  0
 42 66  1  0  0  0
 42109  1  0  0  0
 42110  1  0  0  0
 43 44  1  0  0  0
 44111  1  0  0  0
 45 46  2  0  0  0
 45112  1  0  0  0
 46113  1  0  0  0
 47114  1  0  0  0
 47115  1  0  0  0
 48 56  1  0  0  0
 48 65  1  0  0  0
 48116  1  0  0  0
 49 50  1  0  0  0
 49 53  1  0  0  0
 49 64  1  0  0  0
 49117  1  0  0  0
 50 51  1  0  0  0
 50118  1  0  0  0
 50119  1  0  0  0
 51 52  1  0  0  0
 51120  1  0  0  0
 51121  1  0  0  0
 52122  1  0  0  0
 52123  1  0  0  0
 53 54  1  0  0  0
 54 55  2  0  0  0
 54124  1  0  0  0
 55 57  1  0  0  0
 55125  1  0  0  0
 56 69  2  0  0  0
 57 58  2  0  0  0
 57126  1  0  0  0
 58127  1  0  0  0
 59 60  1  0  0  0
 59 61  1  0  0  0
 59 62  1  0  0  0
 60128  1  0  0  0
 60129  1  0  0  0
 60130  1  0  0  0
 61131  1  0  0  0
 61132  1  0  0  0
 61133  1  0  0  0
 62134  1  0  0  0
 62135  1  0  0  0
 62136  1  0  0  0
 63 65  1  0  0  0
 63137  1  0  0  0
 63138  1  0  0  0
 63139  1  0  0  0
 64140  1  0  0  0
 65141  1  0  0  0
 68 80  1  0  0  0
 71 73  2  0  0  0
 71 75  1  0  0  0
 71142  1  0  0  0
 72 74  1  0  0  0
 72 75  2  0  0  0
 72143  1  0  0  0
 73 76  1  0  0  0
 73144  1  0  0  0
 74 76  2  0  0  0
 74145  1  0  0  0
 75 81  1  0  0  0
 76 82  1  0  0  0
 77 82  1  0  0  0
 77146  1  0  0  0
 77147  1  0  0  0
 77148  1  0  0  0
 78 79  1  0  0  0
 78 80  1  0  0  0
 78149  1  0  0  0
 78150  1  0  0  0
 79 82  1  0  0  0
 79151  1  0  0  0
 79152  1  0  0  0
 80153  1  0  0  0
 80154  1  0  0  0
 81155  1  0  0  0
M  ISO  4   1 100  68 101  80 101  81 100
M  END
> <chiral flag>
0

> <version>
0

> <s_m_source_file>
/data/baiqing/PycharmProjects/Reinvent-master-3.2/result/LINK_invent/BTK/process_docking_weight1_custom_product_contain_oxygen_bond_distance_aromatic_linkinvent_7_9_3/rearranged_h_0013.sdf

> <i_m_source_file_index>
15

> <r_mmod_Potential_Energy-OPLS-2005>
96.0075302124023

> <r_mmod_Stretch_Energy-OPLS-2005>
90.3139038085938

> <r_mmod_Bend_Energy-OPLS-2005>
187.635864257812

> <r_mmod_Torsional_Energy-OPLS-2005>
230.668258666992

> <r_mmod_Improper_Torsional_Energy-OPLS-2005>
4.55378293991089

> <r_mmod_Van_der_Waal_Energy-OPLS-2005>
145.405334472656

> <r_mmod_Electrostatic_Energy-OPLS-2005>
-383.672637939453

> <r_mmod_Solvation_Energy-OPLS-2005>
-227.081100463867

> <b_mmod_Minimization_Converged-OPLS-2005>
0

> <r_mmod_RMS_Derivative-OPLS-2005>
2.64921760559082

$$$$
16
                    3D
 Structure written by MMmdl.
159168  0  0  1  0            999 V2000
  -30.7677  -14.3722   20.6590 C   0  0  0  0  0  0
  -30.4104  -12.2865   19.3934 C   0  0  0  0  0  0
  -29.4792  -12.5223   18.1902 C   0  0  0  0  0  0
  -28.0039  -12.3814   18.6096 C   0  0  0  0  0  0
  -27.6634  -13.2048   19.8804 C   0  0  2  0  0  0
  -28.7044  -12.9530   20.9935 C   0  0  0  0  0  0
  -25.2591  -13.8164   20.5682 C   0  0  0  0  0  0
  -24.1838  -13.0443   20.9169 C   0  0  0  0  0  0
  -24.6392  -11.6908   20.8739 C   0  0  0  0  0  0
  -23.9056  -10.4293   21.0408 C   0  0  0  0  0  0
  -24.3611   -9.4206   21.9182 C   0  0  0  0  0  0
  -23.6290   -8.2242   22.0751 C   0  0  0  0  0  0
  -22.4270   -8.0282   21.3543 C   0  0  0  0  0  0
  -21.9905   -9.0253   20.4645 C   0  0  0  0  0  0
  -22.7232  -10.2133   20.3054 C   0  0  0  0  0  0
  -21.6851   -6.0736   22.5277 C   0  0  0  0  0  0
  -21.4014   -6.5639   23.8212 C   0  0  0  0  0  0
  -21.3661   -5.6792   24.9174 C   0  0  0  0  0  0
  -21.6044   -4.3055   24.7224 C   0  0  0  0  0  0
  -21.8821   -3.8145   23.4346 C   0  0  0  0  0  0
  -21.9192   -4.6963   22.3401 C   0  0  0  0  0  0
  -22.7861  -13.5240   21.1838 C   0  0  0  0  0  0
  -22.1659   -4.2149   21.0979 F   0  0  0  0  0  0
  -21.5631   -3.4538   25.7737 F   0  0  0  0  0  0
  -30.0409  -13.2448   20.4450 N   0  0  0  0  0  0
  -26.3032  -12.9331   20.3400 N   0  0  0  0  0  0
  -25.9316  -11.6489   20.5776 N   0  0  0  0  0  0
  -22.0503  -12.8232   22.0399 N   0  0  0  0  0  0
  -25.4332  -15.1882   20.4079 N   0  0  0  0  0  0
  -31.8240  -14.6131   20.0656 O   0  0  0  0  0  0
  -21.6637   -6.8877   21.4238 O   0  0  0  0  0  0
  -22.3543  -14.5547   20.6693 O   0  0  0  0  0  0
  -24.6112  -31.8701   23.2113 C   0  0  0  0  0  0
  -25.9018  -32.4836   23.8401 C   0  0  1  0  0  0
  -27.2322  -27.4630   20.0960 C   0  0  0  0  0  0
  -25.5890  -33.8632   24.2341 N   0  0  0  0  0  0
  -23.3974  -30.4940   21.5517 C   0  0  2  0  0  0
  -24.8439  -28.9662   20.1123 C   0  0  0  0  0  0
  -22.7393  -29.4670   22.5000 C   0  0  0  0  0  0
  -18.0273  -28.1378   22.8491 C   0  0  0  0  0  0
  -24.1488  -36.7316   23.2641 C   0  0  0  0  0  0
  -25.9229  -30.8483   21.3573 C   0  0  0  0  0  0
  -26.0029  -29.4851   20.7037 C   0  0  0  0  0  0
  -27.2032  -28.7423   20.6889 C   0  0  0  0  0  0
  -26.0600  -26.9533   19.4953 C   0  0  0  0  0  0
  -24.8663  -27.6985   19.5044 C   0  0  0  0  0  0
  -23.6033  -29.8278   20.1653 C   0  0  0  0  0  0
  -25.4109  -36.3122   24.0343 C   0  0  1  0  0  0
  -20.5858  -28.3649   23.1338 C   0  0  2  0  0  0
  -20.6768  -26.9390   22.5423 C   0  0  0  0  0  0
  -19.5747  -26.6386   21.5223 C   0  0  0  0  0  0
  -18.1926  -26.7925   22.1627 C   0  0  0  0  0  0
  -19.1522  -28.8828   23.2912 C   0  0  0  0  0  0
  -18.9452  -30.1441   23.8909 C   0  0  0  0  0  0
  -17.6458  -30.6582   24.0564 C   0  0  0  0  0  0
  -25.9034  -34.9487   23.5141 C   0  0  0  0  0  0
  -16.5347  -29.9083   23.6330 C   0  0  0  0  0  0
  -16.7264  -28.6507   23.0338 C   0  0  0  0  0  0
  -26.4456  -31.6598   25.0710 C   0  0  0  0  0  0
  -25.3739  -31.3690   26.1468 C   0  0  0  0  0  0
  -27.0278  -30.3059   24.6036 C   0  0  0  0  0  0
  -27.6045  -32.4296   25.7467 C   0  0  0  0  0  0
  -27.5580  -37.1818   24.8472 C   0  0  0  0  0  0
  -21.4125  -29.3022   22.3745 N   0  0  0  0  0  0
  -26.4301  -37.3799   23.9404 N   0  0  0  0  0  0
  -24.6624  -31.0833   22.0996 N   0  0  0  0  0  0
  -23.4181  -28.8229   23.3043 O   0  0  0  0  0  0
  -28.3925  -26.7267   20.1192 O   0  0  0  0  0  0
  -26.5595  -34.8930   22.4703 O   0  0  0  0  0  0
  -23.5315  -32.1424   23.7534 O   0  0  0  0  0  0
  -32.8400  -17.2579   23.3166 C   0  0  0  0  0  0
  -32.2626  -18.5390   23.2614 C   0  0  0  0  0  0
  -30.1648  -20.7841   23.7865 C   0  0  0  0  0  0
  -30.2035  -20.7592   21.3606 C   0  0  0  0  0  0
  -32.1758  -16.1640   22.7367 C   0  0  0  0  0  0
  -29.6654  -22.0995   23.7667 C   0  0  0  0  0  0
  -29.7205  -22.0854   21.3360 C   0  0  0  0  0  0
  -30.3495  -17.6375   22.0576 C   0  0  0  0  0  0
  -30.4462  -20.1005   22.5859 C   0  0  0  0  0  0
  -31.0173  -18.7453   22.6293 C   0  0  0  0  0  0
  -29.4572  -22.7681   22.5443 C   0  0  0  0  0  0
  -30.9301  -16.3495   22.0969 C   0  0  0  0  0  0
  -29.3830  -25.0531   21.5637 C   0  0  0  0  0  0
  -28.2367  -25.3864   20.5937 C   0  0  0  0  0  0
  -30.2435  -15.2451   21.5327 N   0  0  0  0  0  0
  -28.9884  -24.0865   22.5864 N   0  0  0  0  0  0
  -31.4545  -12.3773   19.0872 H   0  0  0  0  0  0
  -30.3018  -11.2668   19.7657 H   0  0  0  0  0  0
  -29.7097  -11.8185   17.3893 H   0  0  0  0  0  0
  -29.6516  -13.5194   17.7817 H   0  0  0  0  0  0
  -27.8087  -11.3235   18.7897 H   0  0  0  0  0  0
  -27.3500  -12.6740   17.7875 H   0  0  0  0  0  0
  -27.7197  -14.2585   19.6054 H   0  0  0  0  0  0
  -28.6689  -11.9106   21.3134 H   0  0  0  0  0  0
  -28.4613  -13.5321   21.8845 H   0  0  0  0  0  0
  -25.2759   -9.5684   22.4751 H   0  0  0  0  0  0
  -24.0003   -7.4633   22.7470 H   0  0  0  0  0  0
  -21.0837   -8.8770   19.8950 H   0  0  0  0  0  0
  -22.3692  -10.9670   19.6161 H   0  0  0  0  0  0
  -21.2003   -7.6146   23.9717 H   0  0  0  0  0  0
  -21.1482   -6.0519   25.9079 H   0  0  0  0  0  0
  -22.0599   -2.7607   23.2845 H   0  0  0  0  0  0
  -22.4112  -11.9884   22.4773 H   0  0  0  0  0  0
  -21.1124  -13.1261   22.2617 H   0  0  0  0  0  0
  -24.6711  -15.8493   20.5143 H   0  0  0  0  0  0
  -26.2935  -15.6233   20.0974 H   0  0  0  0  0  0
  -26.7090  -32.5563   23.1170 H   0  0  0  0  0  0
  -25.0043  -33.9800   25.0489 H   0  0  0  0  0  0
  -22.6853  -31.3106   21.4150 H   0  0  0  0  0  0
  -23.3745  -35.9657   23.3342 H   0  0  0  0  0  0
  -24.3582  -36.8892   22.2049 H   0  0  0  0  0  0
  -23.7255  -37.6543   23.6620 H   0  0  0  0  0  0
  -26.0278  -31.6175   20.5904 H   0  0  0  0  0  0
  -26.8140  -30.9036   21.9708 H   0  0  0  0  0  0
  -28.0986  -29.1359   21.1493 H   0  0  0  0  0  0
  -26.0666  -25.9790   19.0268 H   0  0  0  0  0  0
  -23.9749  -27.2923   19.0469 H   0  0  0  0  0  0
  -23.7071  -30.6037   19.4064 H   0  0  0  0  0  0
  -22.7275  -29.2463   19.8704 H   0  0  0  0  0  0
  -25.1293  -36.2000   25.0839 H   0  0  0  0  0  0
  -20.9944  -28.3197   24.1460 H   0  0  0  0  0  0
  -20.5691  -26.2244   23.3596 H   0  0  0  0  0  0
  -21.6638  -26.7450   22.1206 H   0  0  0  0  0  0
  -19.6906  -25.6308   21.1224 H   0  0  0  0  0  0
  -19.6696  -27.3217   20.6776 H   0  0  0  0  0  0
  -17.4201  -26.6683   21.4020 H   0  0  0  0  0  0
  -18.0312  -26.0070   22.9022 H   0  0  0  0  0  0
  -19.7934  -30.7258   24.2270 H   0  0  0  0  0  0
  -17.5019  -31.6262   24.5164 H   0  0  0  0  0  0
  -15.5350  -30.2989   23.7656 H   0  0  0  0  0  0
  -15.8668  -28.0841   22.7027 H   0  0  0  0  0  0
  -24.5915  -30.7032   25.7805 H   0  0  0  0  0  0
  -24.8924  -32.2844   26.4916 H   0  0  0  0  0  0
  -25.8108  -30.8859   27.0219 H   0  0  0  0  0  0
  -26.2804  -29.6829   24.1110 H   0  0  0  0  0  0
  -27.4116  -29.7268   25.4445 H   0  0  0  0  0  0
  -27.8601  -30.4411   23.9126 H   0  0  0  0  0  0
  -27.2686  -33.3589   26.2070 H   0  0  0  0  0  0
  -28.3840  -32.6860   25.0281 H   0  0  0  0  0  0
  -28.0724  -31.8400   26.5360 H   0  0  0  0  0  0
  -28.2629  -38.0084   24.7486 H   0  0  0  0  0  0
  -28.1047  -36.2617   24.6343 H   0  0  0  0  0  0
  -27.2288  -37.1528   25.8875 H   0  0  0  0  0  0
  -20.9266  -29.8735   21.6971 H   0  0  0  0  0  0
  -26.0200  -38.2888   24.1381 H   0  0  0  0  0  0
  -33.7942  -17.1131   23.8037 H   0  0  0  0  0  0
  -32.7849  -19.3752   23.7066 H   0  0  0  0  0  0
  -30.3381  -20.2981   24.7364 H   0  0  0  0  0  0
  -30.4104  -20.2521   20.4285 H   0  0  0  0  0  0
  -32.6292  -15.1836   22.7911 H   0  0  0  0  0  0
  -29.4599  -22.5934   24.7060 H   0  0  0  0  0  0
  -29.5548  -22.5626   20.3810 H   0  0  0  0  0  0
  -29.3918  -17.7845   21.5782 H   0  0  0  0  0  0
  -29.6653  -25.9627   22.0959 H   0  0  0  0  0  0
  -30.2756  -24.7392   21.0200 H   0  0  0  0  0  0
  -27.2892  -25.2675   21.1249 H   0  0  0  0  0  0
  -28.2196  -24.6874   19.7563 H   0  0  0  0  0  0
  -29.2988  -15.0722   21.8422 H   0  0  0  0  0  0
  -28.8271  -24.4797   23.5108 H   0  0  0  0  0  0
  1 25  1  0  0  0
  1 30  2  0  0  0
  1 85  1  0  0  0
  2  3  1  0  0  0
  2 25  1  0  0  0
  2 87  1  0  0  0
  2 88  1  0  0  0
  3  4  1  0  0  0
  3 89  1  0  0  0
  3 90  1  0  0  0
  4  5  1  0  0  0
  4 91  1  0  0  0
  4 92  1  0  0  0
  5  6  1  0  0  0
  5 26  1  0  0  0
  5 93  1  0  0  0
  6 25  1  0  0  0
  6 94  1  0  0  0
  6 95  1  0  0  0
  7  8  2  0  0  0
  7 26  1  0  0  0
  7 29  1  0  0  0
  8  9  1  0  0  0
  8 22  1  0  0  0
  9 10  1  0  0  0
  9 27  2  0  0  0
 10 11  2  0  0  0
 10 15  1  0  0  0
 11 12  1  0  0  0
 11 96  1  0  0  0
 12 13  2  0  0  0
 12 97  1  0  0  0
 13 14  1  0  0  0
 13 31  1  0  0  0
 14 15  2  0  0  0
 14 98  1  0  0  0
 15 99  1  0  0  0
 16 17  2  0  0  0
 16 21  1  0  0  0
 16 31  1  0  0  0
 17 18  1  0  0  0
 17100  1  0  0  0
 18 19  2  0  0  0
 18101  1  0  0  0
 19 20  1  0  0  0
 19 24  1  0  0  0
 20 21  2  0  0  0
 20102  1  0  0  0
 21 23  1  0  0  0
 22 28  1  0  0  0
 22 32  2  0  0  0
 26 27  1  0  0  0
 28103  1  0  0  0
 28104  1  0  0  0
 29105  1  0  0  0
 29106  1  0  0  0
 33 34  1  0  0  0
 33 66  1  0  0  0
 33 70  2  0  0  0
 34 36  1  0  0  0
 34 59  1  0  0  0
 34107  1  0  0  0
 35 44  2  0  0  0
 35 45  1  0  0  0
 35 68  1  0  0  0
 36 56  1  0  0  0
 36108  1  0  0  0
 37 39  1  0  0  0
 37 47  1  0  0  0
 37 66  1  0  0  0
 37109  1  0  0  0
 38 43  2  0  0  0
 38 46  1  0  0  0
 38 47  1  0  0  0
 39 64  1  0  0  0
 39 67  2  0  0  0
 40 52  1  0  0  0
 40 53  2  0  0  0
 40 58  1  0  0  0
 41110  1  0  0  0
 41111  1  0  0  0
 41112  1  0  0  0
 41 48  1  0  0  0
 42 43  1  0  0  0
 42 66  1  0  0  0
 42113  1  0  0  0
 42114  1  0  0  0
 43 44  1  0  0  0
 44115  1  0  0  0
 45 46  2  0  0  0
 45116  1  0  0  0
 46117  1  0  0  0
 47118  1  0  0  0
 47119  1  0  0  0
 48 56  1  0  0  0
 48 65  1  0  0  0
 48120  1  0  0  0
 49 50  1  0  0  0
 49 53  1  0  0  0
 49 64  1  0  0  0
 49121  1  0  0  0
 50 51  1  0  0  0
 50122  1  0  0  0
 50123  1  0  0  0
 51 52  1  0  0  0
 51124  1  0  0  0
 51125  1  0  0  0
 52126  1  0  0  0
 52127  1  0  0  0
 53 54  1  0  0  0
 54 55  2  0  0  0
 54128  1  0  0  0
 55 57  1  0  0  0
 55129  1  0  0  0
 56 69  2  0  0  0
 57 58  2  0  0  0
 57130  1  0  0  0
 58131  1  0  0  0
 59 60  1  0  0  0
 59 61  1  0  0  0
 59 62  1  0  0  0
 60132  1  0  0  0
 60133  1  0  0  0
 60134  1  0  0  0
 61135  1  0  0  0
 61136  1  0  0  0
 61137  1  0  0  0
 62138  1  0  0  0
 62139  1  0  0  0
 62140  1  0  0  0
 63 65  1  0  0  0
 63141  1  0  0  0
 63142  1  0  0  0
 63143  1  0  0  0
 64144  1  0  0  0
 65145  1  0  0  0
 68 84  1  0  0  0
 71 72  2  0  0  0
 71 75  1  0  0  0
 71146  1  0  0  0
 72 80  1  0  0  0
 72147  1  0  0  0
 73 76  2  0  0  0
 73 79  1  0  0  0
 73148  1  0  0  0
 74 77  1  0  0  0
 74 79  2  0  0  0
 74149  1  0  0  0
 75 82  2  0  0  0
 75150  1  0  0  0
 76 81  1  0  0  0
 76151  1  0  0  0
 77 81  2  0  0  0
 77152  1  0  0  0
 78 80  2  0  0  0
 78 82  1  0  0  0
 78153  1  0  0  0
 79 80  1  0  0  0
 81 86  1  0  0  0
 82 85  1  0  0  0
 83 84  1  0  0  0
 83 86  1  0  0  0
 83154  1  0  0  0
 83155  1  0  0  0
 84156  1  0  0  0
 84157  1  0  0  0
 85158  1  0  0  0
 86159  1  0  0  0
M  ISO  4   1 100  68 101  84 101  85 100
M  END
> <chiral flag>
0

> <version>
0

> <s_m_source_file>
/data/baiqing/PycharmProjects/Reinvent-master-3.2/result/LINK_invent/BTK/process_docking_weight1_custom_product_contain_oxygen_bond_distance_aromatic_linkinvent_7_9_3/rearranged_h_0013.sdf

> <i_m_source_file_index>
16

> <r_mmod_Potential_Energy-OPLS-2005>
-38.309139251709

> <r_mmod_Stretch_Energy-OPLS-2005>
32.6739463806152

> <r_mmod_Bend_Energy-OPLS-2005>
92.2661590576172

> <r_mmod_Torsional_Energy-OPLS-2005>
250.592971801758

> <r_mmod_Improper_Torsional_Energy-OPLS-2005>
4.19098472595215

> <r_mmod_Van_der_Waal_Energy-OPLS-2005>
175.506927490234

> <r_mmod_Electrostatic_Energy-OPLS-2005>
-381.095245361328

> <r_mmod_Solvation_Energy-OPLS-2005>
-220.514144897461

> <b_mmod_Minimization_Converged-OPLS-2005>
0

> <r_mmod_RMS_Derivative-OPLS-2005>
1.15787160396576

$$$$
17
                    3D
 Structure written by MMmdl.
151160  0  0  1  0            999 V2000
  -30.4923  -15.2372   20.3456 C   0  0  0  0  0  0
  -30.4236  -12.7794   19.5449 C   0  0  0  0  0  0
  -29.5326  -12.5628   18.2972 C   0  0  0  0  0  0
  -28.0822  -12.2849   18.7210 C   0  0  0  0  0  0
  -27.6044  -13.2711   19.8131 C   0  0  2  0  0  0
  -28.6292  -13.4840   20.9473 C   0  0  0  0  0  0
  -25.2382  -13.8236   20.5771 C   0  0  0  0  0  0
  -24.1728  -13.0432   20.9266 C   0  0  0  0  0  0
  -24.6377  -11.6930   20.8763 C   0  0  0  0  0  0
  -23.9074  -10.4290   21.0419 C   0  0  0  0  0  0
  -24.3630   -9.4205   21.9190 C   0  0  0  0  0  0
  -23.6310   -8.2237   22.0748 C   0  0  0  0  0  0
  -22.4285   -8.0273   21.3544 C   0  0  0  0  0  0
  -21.9924   -9.0246   20.4641 C   0  0  0  0  0  0
  -22.7250  -10.2130   20.3063 C   0  0  0  0  0  0
  -21.6854   -6.0739   22.5282 C   0  0  0  0  0  0
  -21.4013   -6.5647   23.8218 C   0  0  0  0  0  0
  -21.3662   -5.6801   24.9178 C   0  0  0  0  0  0
  -21.6051   -4.3061   24.7228 C   0  0  0  0  0  0
  -21.8817   -3.8149   23.4352 C   0  0  0  0  0  0
  -21.9193   -4.6969   22.3405 C   0  0  0  0  0  0
  -22.7752  -13.5185   21.1919 C   0  0  0  0  0  0
  -22.1665   -4.2154   21.0985 F   0  0  0  0  0  0
  -21.5627   -3.4543   25.7741 F   0  0  0  0  0  0
  -29.8811  -13.9505   20.3334 N   0  0  0  0  0  0
  -26.2778  -12.9501   20.3177 N   0  0  0  0  0  0
  -25.9305  -11.6615   20.5704 N   0  0  0  0  0  0
  -22.0424  -12.8155   22.0478 N   0  0  0  0  0  0
  -25.4039  -15.1959   20.4285 N   0  0  0  0  0  0
  -31.7157  -15.1479   20.1579 O   0  0  0  0  0  0
  -21.6641   -6.8876   21.4240 O   0  0  0  0  0  0
  -22.3421  -14.5480   20.6758 O   0  0  0  0  0  0
  -24.6620  -31.8265   23.1740 C   0  0  0  0  0  0
  -25.9317  -32.4601   23.8191 C   0  0  1  0  0  0
  -27.2125  -26.9544   20.1818 C   0  0  0  0  0  0
  -25.5999  -33.8410   24.2109 N   0  0  0  0  0  0
  -23.4728  -30.4411   21.5236 C   0  0  2  0  0  0
  -24.9226  -28.8328   20.1167 C   0  0  0  0  0  0
  -22.7658  -29.4452   22.4807 C   0  0  0  0  0  0
  -18.0319  -28.1402   22.8469 C   0  0  0  0  0  0
  -24.1487  -36.7209   23.2650 C   0  0  0  0  0  0
  -26.0407  -30.6437   21.3980 C   0  0  0  0  0  0
  -26.1083  -29.2358   20.7438 C   0  0  0  0  0  0
  -27.2497  -28.3186   20.7484 C   0  0  0  0  0  0
  -25.9956  -26.6970   19.5151 C   0  0  0  0  0  0
  -24.8893  -27.5818   19.4838 C   0  0  0  0  0  0
  -23.7099  -29.7600   20.1491 C   0  0  0  0  0  0
  -25.4127  -36.2967   24.0304 C   0  0  1  0  0  0
  -20.5944  -28.3737   23.1195 C   0  0  2  0  0  0
  -20.6799  -26.9422   22.5398 C   0  0  0  0  0  0
  -19.5764  -26.6370   21.5214 C   0  0  0  0  0  0
  -18.1947  -26.7935   22.1621 C   0  0  0  0  0  0
  -19.1583  -28.8893   23.2818 C   0  0  0  0  0  0
  -18.9489  -30.1490   23.8839 C   0  0  0  0  0  0
  -17.6480  -30.6593   24.0551 C   0  0  0  0  0  0
  -25.9085  -34.9349   23.5014 C   0  0  0  0  0  0
  -16.5373  -29.9070   23.6349 C   0  0  0  0  0  0
  -16.7302  -28.6497   23.0356 C   0  0  0  0  0  0
  -26.4577  -31.6527   25.0698 C   0  0  0  0  0  0
  -25.3724  -31.3774   26.1377 C   0  0  0  0  0  0
  -27.0471  -30.2898   24.6404 C   0  0  0  0  0  0
  -27.6071  -32.4337   25.7496 C   0  0  0  0  0  0
  -27.5549  -37.1773   24.8480 C   0  0  0  0  0  0
  -21.4333  -29.3034   22.3553 N   0  0  0  0  0  0
  -26.4277  -37.3693   23.9393 N   0  0  0  0  0  0
  -24.7465  -30.9964   22.0856 N   0  0  0  0  0  0
  -23.4220  -28.8022   23.3037 O   0  0  0  0  0  0
  -28.2365  -25.8787   20.2263 O   0  0  0  0  0  0
  -26.5673  -34.8877   22.4596 O   0  0  0  0  0  0
  -23.5697  -32.1216   23.6855 O   0  0  0  0  0  0
  -30.6978  -17.9786   20.8289 C   0  0  0  0  0  0
  -30.3333  -19.4216   20.7861 C   0  0  0  0  0  0
  -28.2969  -18.8404   19.9149 C   0  0  0  0  0  0
  -29.9019  -16.8135   20.4357 C   0  0  0  0  0  0
  -29.0902  -20.0072   20.3089 C   0  0  0  0  0  0
  -28.6496  -17.3915   19.9613 C   0  0  0  0  0  0
  -27.5061  -23.4612   19.0555 C   0  0  0  0  0  0
  -27.5076  -21.8927   19.3545 C   0  0  0  0  0  0
  -29.0942  -22.9453   20.6542 C   0  0  0  0  0  0
  -28.0240  -24.2477   20.2942 C   0  0  1  0  0  0
  -28.6606  -21.4971   20.1852 N   0  0  0  0  0  0
  -27.7151  -16.5372   19.4883 F   0  0  0  0  0  0
  -31.4526  -12.9394   19.2211 H   0  0  0  0  0  0
  -30.4533  -11.8782   20.1601 H   0  0  0  0  0  0
  -29.9122  -11.7381   17.6931 H   0  0  0  0  0  0
  -29.5660  -13.4513   17.6652 H   0  0  0  0  0  0
  -28.0431  -11.2641   19.1047 H   0  0  0  0  0  0
  -27.4155  -12.3148   17.8580 H   0  0  0  0  0  0
  -27.5079  -14.2172   19.2861 H   0  0  0  0  0  0
  -28.7792  -12.5728   21.5286 H   0  0  0  0  0  0
  -28.2666  -14.2430   21.6427 H   0  0  0  0  0  0
  -25.2778   -9.5684   22.4759 H   0  0  0  0  0  0
  -24.0029   -7.4624   22.7460 H   0  0  0  0  0  0
  -21.0857   -8.8759   19.8945 H   0  0  0  0  0  0
  -22.3703  -10.9669   19.6172 H   0  0  0  0  0  0
  -21.2005   -7.6156   23.9717 H   0  0  0  0  0  0
  -21.1487   -6.0534   25.9080 H   0  0  0  0  0  0
  -22.0593   -2.7610   23.2845 H   0  0  0  0  0  0
  -22.4077  -11.9835   22.4876 H   0  0  0  0  0  0
  -21.1021  -13.1126   22.2679 H   0  0  0  0  0  0
  -24.6412  -15.8504   20.5575 H   0  0  0  0  0  0
  -26.2598  -15.6407   20.1064 H   0  0  0  0  0  0
  -26.7385  -32.5150   23.0909 H   0  0  0  0  0  0
  -25.0165  -33.9493   25.0277 H   0  0  0  0  0  0
  -22.7840  -31.2725   21.3576 H   0  0  0  0  0  0
  -23.3728  -35.9566   23.3349 H   0  0  0  0  0  0
  -24.3548  -36.8811   22.2055 H   0  0  0  0  0  0
  -23.7283  -37.6427   23.6678 H   0  0  0  0  0  0
  -26.2141  -31.3838   20.6155 H   0  0  0  0  0  0
  -26.9044  -30.7021   22.0489 H   0  0  0  0  0  0
  -28.1507  -28.6282   21.2590 H   0  0  0  0  0  0
  -25.8615  -25.7499   19.0221 H   0  0  0  0  0  0
  -23.9868  -27.2636   18.9805 H   0  0  0  0  0  0
  -23.8667  -30.5296   19.3918 H   0  0  0  0  0  0
  -22.8188  -29.2170   19.8309 H   0  0  0  0  0  0
  -25.1329  -36.1770   25.0796 H   0  0  0  0  0  0
  -21.0027  -28.3333   24.1317 H   0  0  0  0  0  0
  -20.5685  -26.2348   23.3630 H   0  0  0  0  0  0
  -21.6659  -26.7407   22.1196 H   0  0  0  0  0  0
  -19.6916  -25.6270   21.1261 H   0  0  0  0  0  0
  -19.6701  -27.3166   20.6734 H   0  0  0  0  0  0
  -17.4221  -26.6687   21.4023 H   0  0  0  0  0  0
  -18.0335  -26.0088   22.9027 H   0  0  0  0  0  0
  -19.7966  -30.7328   24.2164 H   0  0  0  0  0  0
  -17.5032  -31.6264   24.5163 H   0  0  0  0  0  0
  -15.5368  -30.2946   23.7713 H   0  0  0  0  0  0
  -15.8707  -28.0802   22.7085 H   0  0  0  0  0  0
  -24.5870  -30.7167   25.7694 H   0  0  0  0  0  0
  -24.8961  -32.2977   26.4755 H   0  0  0  0  0  0
  -25.7967  -30.8950   27.0194 H   0  0  0  0  0  0
  -26.3135  -29.6578   24.1386 H   0  0  0  0  0  0
  -27.3998  -29.7253   25.5050 H   0  0  0  0  0  0
  -27.9080  -30.4102   23.9827 H   0  0  0  0  0  0
  -27.2644  -33.3679   26.1965 H   0  0  0  0  0  0
  -28.3936  -32.6840   25.0359 H   0  0  0  0  0  0
  -28.0688  -31.8536   26.5497 H   0  0  0  0  0  0
  -28.2610  -38.0023   24.7426 H   0  0  0  0  0  0
  -28.0995  -36.2539   24.6437 H   0  0  0  0  0  0
  -27.2245  -37.1585   25.8881 H   0  0  0  0  0  0
  -20.9574  -29.8748   21.6710 H   0  0  0  0  0  0
  -26.0123  -38.2760   24.1350 H   0  0  0  0  0  0
  -31.6988  -17.7622   21.1745 H   0  0  0  0  0  0
  -31.0934  -20.1143   21.1184 H   0  0  0  0  0  0
  -27.3141  -19.0529   19.5215 H   0  0  0  0  0  0
  -26.5111  -23.7702   18.7439 H   0  0  0  0  0  0
  -28.1687  -23.6637   18.2137 H   0  0  0  0  0  0
  -27.4978  -21.3306   18.4193 H   0  0  0  0  0  0
  -26.5956  -21.6271   19.8917 H   0  0  0  0  0  0
  -29.3046  -22.9320   21.7240 H   0  0  0  0  0  0
  -30.0489  -23.1549   20.1706 H   0  0  0  0  0  0
  -27.2370  -24.1593   21.0438 H   0  0  0  0  0  0
  1 25  1  0  0  0
  1 30  2  0  0  0
  1 74  1  0  0  0
  2  3  1  0  0  0
  2 25  1  0  0  0
  2 83  1  0  0  0
  2 84  1  0  0  0
  3  4  1  0  0  0
  3 85  1  0  0  0
  3 86  1  0  0  0
  4  5  1  0  0  0
  4 87  1  0  0  0
  4 88  1  0  0  0
  5  6  1  0  0  0
  5 26  1  0  0  0
  5 89  1  0  0  0
  6 25  1  0  0  0
  6 90  1  0  0  0
  6 91  1  0  0  0
  7  8  2  0  0  0
  7 26  1  0  0  0
  7 29  1  0  0  0
  8  9  1  0  0  0
  8 22  1  0  0  0
  9 10  1  0  0  0
  9 27  2  0  0  0
 10 11  2  0  0  0
 10 15  1  0  0  0
 11 12  1  0  0  0
 11 92  1  0  0  0
 12 13  2  0  0  0
 12 93  1  0  0  0
 13 14  1  0  0  0
 13 31  1  0  0  0
 14 15  2  0  0  0
 14 94  1  0  0  0
 15 95  1  0  0  0
 16 17  2  0  0  0
 16 21  1  0  0  0
 16 31  1  0  0  0
 17 18  1  0  0  0
 17 96  1  0  0  0
 18 19  2  0  0  0
 18 97  1  0  0  0
 19 20  1  0  0  0
 19 24  1  0  0  0
 20 21  2  0  0  0
 20 98  1  0  0  0
 21 23  1  0  0  0
 22 28  1  0  0  0
 22 32  2  0  0  0
 26 27  1  0  0  0
 28 99  1  0  0  0
 28100  1  0  0  0
 29101  1  0  0  0
 29102  1  0  0  0
 33 34  1  0  0  0
 33 66  1  0  0  0
 33 70  2  0  0  0
 34 36  1  0  0  0
 34 59  1  0  0  0
 34103  1  0  0  0
 35 44  2  0  0  0
 35 45  1  0  0  0
 35 68  1  0  0  0
 36 56  1  0  0  0
 36104  1  0  0  0
 37 39  1  0  0  0
 37 47  1  0  0  0
 37 66  1  0  0  0
 37105  1  0  0  0
 38 43  2  0  0  0
 38 46  1  0  0  0
 38 47  1  0  0  0
 39 64  1  0  0  0
 39 67  2  0  0  0
 40 52  1  0  0  0
 40 53  2  0  0  0
 40 58  1  0  0  0
 41106  1  0  0  0
 41107  1  0  0  0
 41108  1  0  0  0
 41 48  1  0  0  0
 42 43  1  0  0  0
 42 66  1  0  0  0
 42109  1  0  0  0
 42110  1  0  0  0
 43 44  1  0  0  0
 44111  1  0  0  0
 45 46  2  0  0  0
 45112  1  0  0  0
 46113  1  0  0  0
 47114  1  0  0  0
 47115  1  0  0  0
 48 56  1  0  0  0
 48 65  1  0  0  0
 48116  1  0  0  0
 49 50  1  0  0  0
 49 53  1  0  0  0
 49 64  1  0  0  0
 49117  1  0  0  0
 50 51  1  0  0  0
 50118  1  0  0  0
 50119  1  0  0  0
 51 52  1  0  0  0
 51120  1  0  0  0
 51121  1  0  0  0
 52122  1  0  0  0
 52123  1  0  0  0
 53 54  1  0  0  0
 54 55  2  0  0  0
 54124  1  0  0  0
 55 57  1  0  0  0
 55125  1  0  0  0
 56 69  2  0  0  0
 57 58  2  0  0  0
 57126  1  0  0  0
 58127  1  0  0  0
 59 60  1  0  0  0
 59 61  1  0  0  0
 59 62  1  0  0  0
 60128  1  0  0  0
 60129  1  0  0  0
 60130  1  0  0  0
 61131  1  0  0  0
 61132  1  0  0  0
 61133  1  0  0  0
 62134  1  0  0  0
 62135  1  0  0  0
 62136  1  0  0  0
 63 65  1  0  0  0
 63137  1  0  0  0
 63138  1  0  0  0
 63139  1  0  0  0
 64140  1  0  0  0
 65141  1  0  0  0
 68 80  1  0  0  0
 71 72  2  0  0  0
 71 74  1  0  0  0
 71142  1  0  0  0
 72 75  1  0  0  0
 72143  1  0  0  0
 73 75  2  0  0  0
 73 76  1  0  0  0
 73144  1  0  0  0
 74 76  2  0  0  0
 75 81  1  0  0  0
 76 82  1  0  0  0
 77 78  1  0  0  0
 77 80  1  0  0  0
 77145  1  0  0  0
 77146  1  0  0  0
 78 81  1  0  0  0
 78147  1  0  0  0
 78148  1  0  0  0
 79 80  1  0  0  0
 79 81  1  0  0  0
 79149  1  0  0  0
 79150  1  0  0  0
 80151  1  0  0  0
M  ISO  4   1 100  68 101  74 100  80 101
M  END
> <chiral flag>
0

> <version>
0

> <s_m_source_file>
/data/baiqing/PycharmProjects/Reinvent-master-3.2/result/LINK_invent/BTK/process_docking_weight1_custom_product_contain_oxygen_bond_distance_aromatic_linkinvent_7_9_3/rearranged_h_0013.sdf

> <i_m_source_file_index>
17

> <r_mmod_Potential_Energy-OPLS-2005>
1198.67272949219

> <r_mmod_Stretch_Energy-OPLS-2005>
436.693237304688

> <r_mmod_Bend_Energy-OPLS-2005>
480.946044921875

> <r_mmod_Torsional_Energy-OPLS-2005>
236.732727050781

> <r_mmod_Improper_Torsional_Energy-OPLS-2005>
3.27524447441101

> <r_mmod_Van_der_Waal_Energy-OPLS-2005>
129.252792358398

> <r_mmod_Electrostatic_Energy-OPLS-2005>
-299.551055908203

> <r_mmod_Solvation_Energy-OPLS-2005>
-205.415466308594

> <b_mmod_Minimization_Converged-OPLS-2005>
0

> <r_mmod_RMS_Derivative-OPLS-2005>
1.55861139297485

$$$$
18
                    3D
 Structure written by MMmdl.
160169  0  0  1  0            999 V2000
  -30.7209  -14.4368   20.6001 C   0  0  0  0  0  0
  -30.4209  -12.2911   19.4219 C   0  0  0  0  0  0
  -29.4958  -12.5163   18.2085 C   0  0  0  0  0  0
  -28.0178  -12.3753   18.6174 C   0  0  0  0  0  0
  -27.6667  -13.2068   19.8813 C   0  0  2  0  0  0
  -28.7038  -12.9655   21.0017 C   0  0  0  0  0  0
  -25.2600  -13.8160   20.5711 C   0  0  0  0  0  0
  -24.1843  -13.0426   20.9160 C   0  0  0  0  0  0
  -24.6403  -11.6894   20.8719 C   0  0  0  0  0  0
  -23.9074  -10.4282   21.0405 C   0  0  0  0  0  0
  -24.3626   -9.4189   21.9183 C   0  0  0  0  0  0
  -23.6295   -8.2225   22.0761 C   0  0  0  0  0  0
  -22.4274   -8.0274   21.3551 C   0  0  0  0  0  0
  -21.9920   -9.0250   20.4640 C   0  0  0  0  0  0
  -22.7251  -10.2124   20.3044 C   0  0  0  0  0  0
  -21.6838   -6.0727   22.5288 C   0  0  0  0  0  0
  -21.4007   -6.5642   23.8213 C   0  0  0  0  0  0
  -21.3663   -5.6795   24.9183 C   0  0  0  0  0  0
  -21.6045   -4.3056   24.7229 C   0  0  0  0  0  0
  -21.8811   -3.8140   23.4352 C   0  0  0  0  0  0
  -21.9186   -4.6956   22.3407 C   0  0  0  0  0  0
  -22.7859  -13.5219   21.1834 C   0  0  0  0  0  0
  -22.1645   -4.2138   21.0988 F   0  0  0  0  0  0
  -21.5644   -3.4545   25.7751 F   0  0  0  0  0  0
  -30.0465  -13.2615   20.4637 N   0  0  0  0  0  0
  -26.3046  -12.9342   20.3383 N   0  0  0  0  0  0
  -25.9334  -11.6485   20.5747 N   0  0  0  0  0  0
  -22.0498  -12.8200   22.0376 N   0  0  0  0  0  0
  -25.4333  -15.1885   20.4234 N   0  0  0  0  0  0
  -31.8089  -14.6460   20.0562 O   0  0  0  0  0  0
  -21.6626   -6.8877   21.4254 O   0  0  0  0  0  0
  -22.3529  -14.5520   20.6703 O   0  0  0  0  0  0
  -24.6132  -31.8690   23.2113 C   0  0  0  0  0  0
  -25.9035  -32.4825   23.8402 C   0  0  1  0  0  0
  -27.2361  -27.4400   20.0834 C   0  0  0  0  0  0
  -25.5897  -33.8623   24.2327 N   0  0  0  0  0  0
  -23.3990  -30.4945   21.5519 C   0  0  2  0  0  0
  -24.8430  -28.9620   20.1154 C   0  0  0  0  0  0
  -22.7393  -29.4663   22.4987 C   0  0  0  0  0  0
  -18.0268  -28.1382   22.8486 C   0  0  0  0  0  0
  -24.1481  -36.7315   23.2640 C   0  0  0  0  0  0
  -25.9286  -30.8346   21.3651 C   0  0  0  0  0  0
  -26.0025  -29.4703   20.7107 C   0  0  0  0  0  0
  -27.1956  -28.7153   20.6940 C   0  0  0  0  0  0
  -26.0465  -26.9372   19.5014 C   0  0  0  0  0  0
  -24.8602  -27.6941   19.5112 C   0  0  0  0  0  0
  -23.6061  -29.8301   20.1649 C   0  0  0  0  0  0
  -25.4103  -36.3115   24.0335 C   0  0  1  0  0  0
  -20.5856  -28.3665   23.1317 C   0  0  2  0  0  0
  -20.6760  -26.9402   22.5414 C   0  0  0  0  0  0
  -19.5739  -26.6389   21.5212 C   0  0  0  0  0  0
  -18.1916  -26.7927   22.1621 C   0  0  0  0  0  0
  -19.1518  -28.8839   23.2903 C   0  0  0  0  0  0
  -18.9446  -30.1452   23.8912 C   0  0  0  0  0  0
  -17.6451  -30.6591   24.0569 C   0  0  0  0  0  0
  -25.9036  -34.9479   23.5128 C   0  0  0  0  0  0
  -16.5342  -29.9095   23.6330 C   0  0  0  0  0  0
  -16.7259  -28.6515   23.0337 C   0  0  0  0  0  0
  -26.4465  -31.6611   25.0737 C   0  0  0  0  0  0
  -25.3737  -31.3720   26.1489 C   0  0  0  0  0  0
  -27.0301  -30.3055   24.6124 C   0  0  0  0  0  0
  -27.6045  -32.4335   25.7495 C   0  0  0  0  0  0
  -27.5579  -37.1809   24.8460 C   0  0  0  0  0  0
  -21.4121  -29.3038   22.3726 N   0  0  0  0  0  0
  -26.4289  -37.3800   23.9413 N   0  0  0  0  0  0
  -24.6652  -31.0794   22.1014 N   0  0  0  0  0  0
  -23.4178  -28.8191   23.3015 O   0  0  0  0  0  0
  -28.4433  -26.7662   20.1062 O   0  0  0  0  0  0
  -26.5598  -34.8926   22.4691 O   0  0  0  0  0  0
  -23.5336  -32.1430   23.7533 O   0  0  0  0  0  0
  -30.5328  -18.8386   19.8749 C   0  0  0  0  0  0
  -28.4834  -18.7237   21.1736 C   0  0  0  0  0  0
  -30.8395  -17.5099   20.2428 C   0  0  0  0  0  0
  -28.7865  -17.3967   21.5389 C   0  0  0  0  0  0
  -29.3331  -19.4447   20.3079 C   0  0  0  0  0  0
  -29.9428  -16.7560   21.0426 C   0  0  0  0  0  0
  -30.4679  -23.8342   20.0845 C   0  0  0  0  0  0
  -30.4558  -22.4606   20.7646 C   0  0  0  0  0  0
  -28.2032  -23.1174   20.2929 C   0  0  0  0  0  0
  -29.0701  -24.3913   20.3614 C   0  0  2  0  0  0
  -28.8901  -20.7986   19.7475 C   0  0  0  0  0  0
  -28.6472  -25.5360   19.4017 C   0  0  0  0  0  0
  -30.0999  -15.3688   21.3466 N   0  0  0  0  0  0
  -29.0663  -21.9583   20.6604 N   0  3  1  0  0  0
  -31.4673  -12.3770   19.1252 H   0  0  0  0  0  0
  -30.3082  -11.2756   19.8025 H   0  0  0  0  0  0
  -29.7321  -11.8087   17.4126 H   0  0  0  0  0  0
  -29.6674  -13.5119   17.7967 H   0  0  0  0  0  0
  -27.8239  -11.3186   18.8056 H   0  0  0  0  0  0
  -27.3721  -12.6604   17.7862 H   0  0  0  0  0  0
  -27.7196  -14.2596   19.6025 H   0  0  0  0  0  0
  -28.6648  -11.9252   21.3262 H   0  0  0  0  0  0
  -28.4537  -13.5508   21.8875 H   0  0  0  0  0  0
  -25.2782   -9.5643   22.4743 H   0  0  0  0  0  0
  -23.9986   -7.4606   22.7491 H   0  0  0  0  0  0
  -21.0853   -8.8778   19.8944 H   0  0  0  0  0  0
  -22.3730  -10.9666   19.6135 H   0  0  0  0  0  0
  -21.1984   -7.6147   23.9719 H   0  0  0  0  0  0
  -21.1504   -6.0533   25.9091 H   0  0  0  0  0  0
  -22.0585   -2.7605   23.2869 H   0  0  0  0  0  0
  -22.4136  -11.9852   22.4737 H   0  0  0  0  0  0
  -21.1106  -13.1206   22.2576 H   0  0  0  0  0  0
  -24.6766  -15.8500   20.5587 H   0  0  0  0  0  0
  -26.2979  -15.6288   20.1356 H   0  0  0  0  0  0
  -26.7105  -32.5529   23.1170 H   0  0  0  0  0  0
  -25.0046  -33.9792   25.0474 H   0  0  0  0  0  0
  -22.6877  -31.3121   21.4162 H   0  0  0  0  0  0
  -23.3743  -35.9646   23.3300 H   0  0  0  0  0  0
  -24.3571  -36.8935   22.2052 H   0  0  0  0  0  0
  -23.7234  -37.6518   23.6656 H   0  0  0  0  0  0
  -26.0450  -31.6032   20.5996 H   0  0  0  0  0  0
  -26.8157  -30.8821   21.9855 H   0  0  0  0  0  0
  -28.0930  -29.1106   21.1495 H   0  0  0  0  0  0
  -25.9863  -25.9656   19.0391 H   0  0  0  0  0  0
  -23.9655  -27.2920   19.0557 H   0  0  0  0  0  0
  -23.7172  -30.6085   19.4088 H   0  0  0  0  0  0
  -22.7276  -29.2550   19.8656 H   0  0  0  0  0  0
  -25.1282  -36.1976   25.0828 H   0  0  0  0  0  0
  -20.9950  -28.3239   24.1438 H   0  0  0  0  0  0
  -20.5665  -26.2275   23.3598 H   0  0  0  0  0  0
  -21.6629  -26.7449   22.1208 H   0  0  0  0  0  0
  -19.6902  -25.6305   21.1228 H   0  0  0  0  0  0
  -19.6682  -27.3212   20.6745 H   0  0  0  0  0  0
  -17.4181  -26.6671   21.4028 H   0  0  0  0  0  0
  -18.0323  -26.0072   22.9022 H   0  0  0  0  0  0
  -19.7926  -30.7261   24.2285 H   0  0  0  0  0  0
  -17.5011  -31.6267   24.5171 H   0  0  0  0  0  0
  -15.5347  -30.3007   23.7648 H   0  0  0  0  0  0
  -15.8651  -28.0855   22.7032 H   0  0  0  0  0  0
  -24.5894  -30.7083   25.7830 H   0  0  0  0  0  0
  -24.8947  -32.2876   26.4965 H   0  0  0  0  0  0
  -25.8094  -30.8865   27.0232 H   0  0  0  0  0  0
  -26.2852  -29.6818   24.1165 H   0  0  0  0  0  0
  -27.4048  -29.7293   25.4596 H   0  0  0  0  0  0
  -27.8694  -30.4369   23.9293 H   0  0  0  0  0  0
  -27.2665  -33.3624   26.2099 H   0  0  0  0  0  0
  -28.3839  -32.6911   25.0313 H   0  0  0  0  0  0
  -28.0725  -31.8441   26.5390 H   0  0  0  0  0  0
  -28.2590  -38.0114   24.7525 H   0  0  0  0  0  0
  -28.1081  -36.2645   24.6262 H   0  0  0  0  0  0
  -27.2294  -37.1438   25.8863 H   0  0  0  0  0  0
  -20.9270  -29.8785   21.6972 H   0  0  0  0  0  0
  -26.0172  -38.2871   24.1433 H   0  0  0  0  0  0
  -31.2054  -19.3710   19.2148 H   0  0  0  0  0  0
  -27.5564  -19.1605   21.5165 H   0  0  0  0  0  0
  -31.7527  -17.0776   19.8617 H   0  0  0  0  0  0
  -28.0898  -16.8555   22.1639 H   0  0  0  0  0  0
  -30.6137  -23.7005   19.0109 H   0  0  0  0  0  0
  -31.2650  -24.4818   20.4505 H   0  0  0  0  0  0
  -30.6947  -22.5761   21.8224 H   0  0  0  0  0  0
  -31.1994  -21.7859   20.3393 H   0  0  0  0  0  0
  -27.8184  -22.9892   19.2798 H   0  0  0  0  0  0
  -27.3363  -23.1796   20.9508 H   0  0  0  0  0  0
  -29.0497  -24.7586   21.3891 H   0  0  0  0  0  0
  -27.8306  -20.6970   19.5060 H   0  0  0  0  0  0
  -29.3891  -20.9967   18.7979 H   0  0  0  0  0  0
  -27.8377  -25.2236   18.7499 H   0  0  0  0  0  0
  -29.4642  -25.7394   18.7092 H   0  0  0  0  0  0
  -29.3589  -14.9816   21.9102 H   0  0  0  0  0  0
  -28.7911  -21.6496   21.5808 H   0  0  0  0  0  0
  1 25  1  0  0  0
  1 30  2  0  0  0
  1 83  1  0  0  0
  2  3  1  0  0  0
  2 25  1  0  0  0
  2 85  1  0  0  0
  2 86  1  0  0  0
  3  4  1  0  0  0
  3 87  1  0  0  0
  3 88  1  0  0  0
  4  5  1  0  0  0
  4 89  1  0  0  0
  4 90  1  0  0  0
  5  6  1  0  0  0
  5 26  1  0  0  0
  5 91  1  0  0  0
  6 25  1  0  0  0
  6 92  1  0  0  0
  6 93  1  0  0  0
  7  8  2  0  0  0
  7 26  1  0  0  0
  7 29  1  0  0  0
  8  9  1  0  0  0
  8 22  1  0  0  0
  9 10  1  0  0  0
  9 27  2  0  0  0
 10 11  2  0  0  0
 10 15  1  0  0  0
 11 12  1  0  0  0
 11 94  1  0  0  0
 12 13  2  0  0  0
 12 95  1  0  0  0
 13 14  1  0  0  0
 13 31  1  0  0  0
 14 15  2  0  0  0
 14 96  1  0  0  0
 15 97  1  0  0  0
 16 17  2  0  0  0
 16 21  1  0  0  0
 16 31  1  0  0  0
 17 18  1  0  0  0
 17 98  1  0  0  0
 18 19  2  0  0  0
 18 99  1  0  0  0
 19 20  1  0  0  0
 19 24  1  0  0  0
 20 21  2  0  0  0
 20100  1  0  0  0
 21 23  1  0  0  0
 22 28  1  0  0  0
 22 32  2  0  0  0
 26 27  1  0  0  0
 28101  1  0  0  0
 28102  1  0  0  0
 29103  1  0  0  0
 29104  1  0  0  0
 33 34  1  0  0  0
 33 66  1  0  0  0
 33 70  2  0  0  0
 34 36  1  0  0  0
 34 59  1  0  0  0
 34105  1  0  0  0
 35 44  2  0  0  0
 35 45  1  0  0  0
 35 68  1  0  0  0
 36 56  1  0  0  0
 36106  1  0  0  0
 37 39  1  0  0  0
 37 47  1  0  0  0
 37 66  1  0  0  0
 37107  1  0  0  0
 38 43  2  0  0  0
 38 46  1  0  0  0
 38 47  1  0  0  0
 39 64  1  0  0  0
 39 67  2  0  0  0
 40 52  1  0  0  0
 40 53  2  0  0  0
 40 58  1  0  0  0
 41108  1  0  0  0
 41109  1  0  0  0
 41110  1  0  0  0
 41 48  1  0  0  0
 42 43  1  0  0  0
 42 66  1  0  0  0
 42111  1  0  0  0
 42112  1  0  0  0
 43 44  1  0  0  0
 44113  1  0  0  0
 45 46  2  0  0  0
 45114  1  0  0  0
 46115  1  0  0  0
 47116  1  0  0  0
 47117  1  0  0  0
 48 56  1  0  0  0
 48 65  1  0  0  0
 48118  1  0  0  0
 49 50  1  0  0  0
 49 53  1  0  0  0
 49 64  1  0  0  0
 49119  1  0  0  0
 50 51  1  0  0  0
 50120  1  0  0  0
 50121  1  0  0  0
 51 52  1  0  0  0
 51122  1  0  0  0
 51123  1  0  0  0
 52124  1  0  0  0
 52125  1  0  0  0
 53 54  1  0  0  0
 54 55  2  0  0  0
 54126  1  0  0  0
 55 57  1  0  0  0
 55127  1  0  0  0
 56 69  2  0  0  0
 57 58  2  0  0  0
 57128  1  0  0  0
 58129  1  0  0  0
 59 60  1  0  0  0
 59 61  1  0  0  0
 59 62  1  0  0  0
 60130  1  0  0  0
 60131  1  0  0  0
 60132  1  0  0  0
 61133  1  0  0  0
 61134  1  0  0  0
 61135  1  0  0  0
 62136  1  0  0  0
 62137  1  0  0  0
 62138  1  0  0  0
 63 65  1  0  0  0
 63139  1  0  0  0
 63140  1  0  0  0
 63141  1  0  0  0
 64142  1  0  0  0
 65143  1  0  0  0
 68 82  1  0  0  0
 71 73  2  0  0  0
 71 75  1  0  0  0
 71144  1  0  0  0
 72 74  1  0  0  0
 72 75  2  0  0  0
 72145  1  0  0  0
 73 76  1  0  0  0
 73146  1  0  0  0
 74 76  2  0  0  0
 74147  1  0  0  0
 75 81  1  0  0  0
 76 83  1  0  0  0
 77 78  1  0  0  0
 77 80  1  0  0  0
 77148  1  0  0  0
 77149  1  0  0  0
 78 84  1  0  0  0
 78150  1  0  0  0
 78151  1  0  0  0
 79 80  1  0  0  0
 79 84  1  0  0  0
 79152  1  0  0  0
 79153  1  0  0  0
 80 82  1  0  0  0
 80154  1  0  0  0
 81155  1  0  0  0
 81156  1  0  0  0
 81 84  1  0  0  0
 82157  1  0  0  0
 82158  1  0  0  0
 83159  1  0  0  0
 84160  1  0  0  0
M  CHG  1  84   1
M  ISO  4   1 100  68 101  82 101  83 100
M  END
> <chiral flag>
0

> <version>
0

> <s_m_source_file>
/data/baiqing/PycharmProjects/Reinvent-master-3.2/result/LINK_invent/BTK/process_docking_weight1_custom_product_contain_oxygen_bond_distance_aromatic_linkinvent_7_9_3/rearranged_h_0013.sdf

> <i_m_source_file_index>
18

> <r_mmod_Potential_Energy-OPLS-2005>
-98.3063049316406

> <r_mmod_Stretch_Energy-OPLS-2005>
36.9532814025879

> <r_mmod_Bend_Energy-OPLS-2005>
133.901504516602

> <r_mmod_Torsional_Energy-OPLS-2005>
283.286407470703

> <r_mmod_Improper_Torsional_Energy-OPLS-2005>
4.44681596755981

> <r_mmod_Van_der_Waal_Energy-OPLS-2005>
153.652893066406

> <r_mmod_Electrostatic_Energy-OPLS-2005>
-269.971130371094

> <r_mmod_Solvation_Energy-OPLS-2005>
-450.916168212891

> <b_mmod_Minimization_Converged-OPLS-2005>
0

> <r_mmod_RMS_Derivative-OPLS-2005>
2.27252650260925

$$$$
19
                    3D
 Structure written by MMmdl.
170178  0  0  1  0            999 V2000
  -30.7080  -14.6012   20.5409 C   0  0  0  0  0  0
  -30.4188  -12.3852   19.4501 C   0  0  0  0  0  0
  -29.4961  -12.5070   18.2194 C   0  0  0  0  0  0
  -28.0192  -12.3560   18.6321 C   0  0  0  0  0  0
  -27.6499  -13.2240   19.8660 C   0  0  2  0  0  0
  -28.6990  -13.0651   20.9892 C   0  0  0  0  0  0
  -25.2483  -13.8181   20.5602 C   0  0  0  0  0  0
  -24.1806  -13.0436   20.9214 C   0  0  0  0  0  0
  -24.6398  -11.6919   20.8774 C   0  0  0  0  0  0
  -23.9071  -10.4294   21.0415 C   0  0  0  0  0  0
  -24.3620   -9.4208   21.9187 C   0  0  0  0  0  0
  -23.6294   -8.2242   22.0758 C   0  0  0  0  0  0
  -22.4281   -8.0279   21.3541 C   0  0  0  0  0  0
  -21.9917   -9.0254   20.4647 C   0  0  0  0  0  0
  -22.7244  -10.2135   20.3061 C   0  0  0  0  0  0
  -21.6856   -6.0725   22.5269 C   0  0  0  0  0  0
  -21.4014   -6.5628   23.8202 C   0  0  0  0  0  0
  -21.3664   -5.6785   24.9167 C   0  0  0  0  0  0
  -21.6048   -4.3049   24.7223 C   0  0  0  0  0  0
  -21.8820   -3.8137   23.4344 C   0  0  0  0  0  0
  -21.9193   -4.6951   22.3397 C   0  0  0  0  0  0
  -22.7829  -13.5225   21.1871 C   0  0  0  0  0  0
  -22.1666   -4.2132   21.0976 F   0  0  0  0  0  0
  -21.5632   -3.4538   25.7739 F   0  0  0  0  0  0
  -30.0062  -13.4238   20.4225 N   0  0  0  0  0  0
  -26.2960  -12.9399   20.3333 N   0  0  0  0  0  0
  -25.9335  -11.6550   20.5816 N   0  0  0  0  0  0
  -22.0474  -12.8219   22.0428 N   0  0  0  0  0  0
  -25.4057  -15.1888   20.3793 N   0  0  0  0  0  0
  -31.8642  -14.6562   20.1092 O   0  0  0  0  0  0
  -21.6650   -6.8873   21.4233 O   0  0  0  0  0  0
  -22.3531  -14.5538   20.6724 O   0  0  0  0  0  0
  -24.6247  -31.8630   23.2072 C   0  0  0  0  0  0
  -25.9111  -32.4794   23.8379 C   0  0  1  0  0  0
  -27.2130  -27.3340   20.1053 C   0  0  0  0  0  0
  -25.5940  -33.8592   24.2299 N   0  0  0  0  0  0
  -23.4160  -30.4914   21.5495 C   0  0  2  0  0  0
  -24.8597  -28.9579   20.1067 C   0  0  0  0  0  0
  -22.7469  -29.4646   22.4938 C   0  0  0  0  0  0
  -18.0283  -28.1383   22.8485 C   0  0  0  0  0  0
  -24.1488  -36.7300   23.2633 C   0  0  0  0  0  0
  -25.9581  -30.7965   21.3790 C   0  0  0  0  0  0
  -26.0296  -29.4279   20.7170 C   0  0  0  0  0  0
  -27.2088  -28.6256   20.7129 C   0  0  0  0  0  0
  -26.0226  -26.9303   19.4515 C   0  0  0  0  0  0
  -24.8571  -27.7124   19.4670 C   0  0  0  0  0  0
  -23.6280  -29.8357   20.1614 C   0  0  0  0  0  0
  -25.4114  -36.3086   24.0326 C   0  0  1  0  0  0
  -20.5886  -28.3697   23.1279 C   0  0  2  0  0  0
  -20.6781  -26.9425   22.5404 C   0  0  0  0  0  0
  -19.5751  -26.6383   21.5210 C   0  0  0  0  0  0
  -18.1921  -26.7930   22.1617 C   0  0  0  0  0  0
  -19.1535  -28.8853   23.2875 C   0  0  0  0  0  0
  -18.9465  -30.1454   23.8897 C   0  0  0  0  0  0
  -17.6465  -30.6591   24.0563 C   0  0  0  0  0  0
  -25.9053  -34.9459   23.5108 C   0  0  0  0  0  0
  -16.5357  -29.9095   23.6328 C   0  0  0  0  0  0
  -16.7274  -28.6508   23.0355 C   0  0  0  0  0  0
  -26.4507  -31.6600   25.0743 C   0  0  0  0  0  0
  -25.3743  -31.3746   26.1472 C   0  0  0  0  0  0
  -27.0365  -30.3026   24.6204 C   0  0  0  0  0  0
  -27.6045  -32.4357   25.7523 C   0  0  0  0  0  0
  -27.5584  -37.1800   24.8459 C   0  0  0  0  0  0
  -21.4183  -29.3058   22.3679 N   0  0  0  0  0  0
  -26.4290  -37.3783   23.9412 N   0  0  0  0  0  0
  -24.6848  -31.0663   22.1015 N   0  0  0  0  0  0
  -23.4205  -28.8152   23.2981 O   0  0  0  0  0  0
  -28.3162  -26.4673   20.1737 O   0  0  0  0  0  0
  -26.5612  -34.8925   22.4669 O   0  0  0  0  0  0
  -23.5417  -32.1425   23.7409 O   0  0  0  0  0  0
  -30.6810  -19.5438   20.8693 C   0  0  0  0  0  0
  -28.7176  -18.7950   19.6967 C   0  0  0  0  0  0
  -30.2194  -20.8919   20.8135 C   0  0  0  0  0  0
  -28.2451  -20.1370   19.6643 C   0  0  0  0  0  0
  -29.9513  -18.4619   20.3033 C   0  0  0  0  0  0
  -28.9835  -21.2242   20.2042 C   0  0  0  0  0  0
  -29.1461  -23.9946   21.9870 C   0  0  0  0  0  0
  -26.4158  -17.5959   23.6217 C   0  0  0  0  0  0
  -27.3614  -15.4980   24.4665 C   0  0  0  0  0  0
  -30.5959  -17.0378   20.1767 C   0  0  0  0  0  0
  -29.5796  -16.0385   22.2101 C   0  0  0  0  0  0
  -28.0756  -16.3870   22.2698 C   0  0  0  0  0  0
  -28.0422  -25.0349   19.9405 C   0  0  0  0  0  0
  -28.9910  -23.8749   20.4626 C   0  0  2  0  0  0
  -28.4372  -22.5399   20.0842 N   0  0  0  0  0  0
  -30.0529  -15.7886   20.8356 N   0  0  0  0  0  0
  -27.5990  -16.7042   23.6392 N   0  3  0  0  0  0
  -31.4617  -12.4734   19.1418 H   0  0  0  0  0  0
  -30.3361  -11.3920   19.8939 H   0  0  0  0  0  0
  -29.7552  -11.7480   17.4799 H   0  0  0  0  0  0
  -29.6489  -13.4729   17.7353 H   0  0  0  0  0  0
  -27.8492  -11.3025   18.8573 H   0  0  0  0  0  0
  -27.3651  -12.5927   17.7920 H   0  0  0  0  0  0
  -27.6741  -14.2633   19.5372 H   0  0  0  0  0  0
  -28.7154  -12.0332   21.3429 H   0  0  0  0  0  0
  -28.4486  -13.6487   21.8680 H   0  0  0  0  0  0
  -25.2760   -9.5684   22.4770 H   0  0  0  0  0  0
  -23.9991   -7.4639   22.7490 H   0  0  0  0  0  0
  -21.0843   -8.8778   19.8959 H   0  0  0  0  0  0
  -22.3698  -10.9675   19.6179 H   0  0  0  0  0  0
  -21.2005   -7.6136   23.9699 H   0  0  0  0  0  0
  -21.1490   -6.0517   25.9069 H   0  0  0  0  0  0
  -22.0596   -2.7595   23.2849 H   0  0  0  0  0  0
  -22.4075  -11.9856   22.4779 H   0  0  0  0  0  0
  -21.1098  -13.1253   22.2643 H   0  0  0  0  0  0
  -24.5823  -15.7808   20.3662 H   0  0  0  0  0  0
  -26.1632  -15.5657   19.8249 H   0  0  0  0  0  0
  -26.7179  -32.5481   23.1121 H   0  0  0  0  0  0
  -25.0116  -33.9732   25.0465 H   0  0  0  0  0  0
  -22.7085  -31.3121   21.4121 H   0  0  0  0  0  0
  -23.3746  -35.9634   23.3279 H   0  0  0  0  0  0
  -24.3572  -36.8942   22.2050 H   0  0  0  0  0  0
  -23.7250  -37.6498   23.6676 H   0  0  0  0  0  0
  -26.0935  -31.5629   20.6150 H   0  0  0  0  0  0
  -26.8378  -30.8387   22.0105 H   0  0  0  0  0  0
  -28.1021  -28.9758   21.2102 H   0  0  0  0  0  0
  -25.9515  -25.9905   18.9253 H   0  0  0  0  0  0
  -23.9631  -27.3499   18.9776 H   0  0  0  0  0  0
  -23.7461  -30.6181   19.4105 H   0  0  0  0  0  0
  -22.7484  -29.2669   19.8552 H   0  0  0  0  0  0
  -25.1284  -36.1936   25.0817 H   0  0  0  0  0  0
  -20.9978  -28.3288   24.1406 H   0  0  0  0  0  0
  -20.5702  -26.2309   23.3604 H   0  0  0  0  0  0
  -21.6643  -26.7461   22.1185 H   0  0  0  0  0  0
  -19.6915  -25.6290   21.1248 H   0  0  0  0  0  0
  -19.6688  -27.3183   20.6730 H   0  0  0  0  0  0
  -17.4196  -26.6670   21.4021 H   0  0  0  0  0  0
  -18.0319  -26.0074   22.9014 H   0  0  0  0  0  0
  -19.7944  -30.7257   24.2281 H   0  0  0  0  0  0
  -17.5026  -31.6278   24.5155 H   0  0  0  0  0  0
  -15.5362  -30.2996   23.7659 H   0  0  0  0  0  0
  -15.8667  -28.0831   22.7080 H   0  0  0  0  0  0
  -24.5904  -30.7111   25.7799 H   0  0  0  0  0  0
  -24.8952  -32.2923   26.4903 H   0  0  0  0  0  0
  -25.8059  -30.8918   27.0247 H   0  0  0  0  0  0
  -26.2953  -29.6766   24.1219 H   0  0  0  0  0  0
  -27.4056  -29.7295   25.4716 H   0  0  0  0  0  0
  -27.8819  -30.4302   23.9436 H   0  0  0  0  0  0
  -27.2627  -33.3656   26.2083 H   0  0  0  0  0  0
  -28.3868  -32.6931   25.0370 H   0  0  0  0  0  0
  -28.0703  -31.8511   26.5466 H   0  0  0  0  0  0
  -28.2574  -38.0122   24.7538 H   0  0  0  0  0  0
  -28.1108  -36.2655   24.6243 H   0  0  0  0  0  0
  -27.2299  -37.1402   25.8858 H   0  0  0  0  0  0
  -20.9357  -29.8817   21.6924 H   0  0  0  0  0  0
  -26.0168  -38.2854   24.1425 H   0  0  0  0  0  0
  -31.6459  -19.3540   21.3171 H   0  0  0  0  0  0
  -28.1346  -18.0212   19.2154 H   0  0  0  0  0  0
  -30.8466  -21.6664   21.2286 H   0  0  0  0  0  0
  -27.2982  -20.3281   19.1794 H   0  0  0  0  0  0
  -29.5493  -24.9709   22.2562 H   0  0  0  0  0  0
  -29.8224  -23.2488   22.3997 H   0  0  0  0  0  0
  -28.1860  -23.8879   22.4930 H   0  0  0  0  0  0
  -26.1136  -17.8651   24.6341 H   0  0  0  0  0  0
  -25.5677  -17.1167   23.1303 H   0  0  0  0  0  0
  -26.6314  -18.5248   23.0918 H   0  0  0  0  0  0
  -27.0707  -15.7759   25.4799 H   0  0  0  0  0  0
  -28.2556  -14.8804   24.5460 H   0  0  0  0  0  0
  -26.5625  -14.8845   24.0476 H   0  0  0  0  0  0
  -31.6359  -17.1465   20.4911 H   0  0  0  0  0  0
  -30.6508  -16.8383   19.1043 H   0  0  0  0  0  0
  -29.7982  -15.1808   22.8481 H   0  0  0  0  0  0
  -30.1609  -16.8554   22.6403 H   0  0  0  0  0  0
  -27.4706  -15.5858   21.8586 H   0  0  0  0  0  0
  -27.8855  -17.2457   21.6320 H   0  0  0  0  0  0
  -27.0741  -24.8026   20.3880 H   0  0  0  0  0  0
  -27.9265  -24.9059   18.8638 H   0  0  0  0  0  0
  -29.9710  -23.9846   19.9944 H   0  0  0  0  0  0
  -27.5384  -22.5901   19.6116 H   0  0  0  0  0  0
  -28.3286  -17.2346   24.0931 H   0  0  0  0  0  0
  1 25  1  0  0  0
  1 30  2  0  0  0
  1 86  1  0  0  0
  2  3  1  0  0  0
  2 25  1  0  0  0
  2 88  1  0  0  0
  2 89  1  0  0  0
  3  4  1  0  0  0
  3 90  1  0  0  0
  3 91  1  0  0  0
  4  5  1  0  0  0
  4 92  1  0  0  0
  4 93  1  0  0  0
  5  6  1  0  0  0
  5 26  1  0  0  0
  5 94  1  0  0  0
  6 25  1  0  0  0
  6 95  1  0  0  0
  6 96  1  0  0  0
  7  8  2  0  0  0
  7 26  1  0  0  0
  7 29  1  0  0  0
  8  9  1  0  0  0
  8 22  1  0  0  0
  9 10  1  0  0  0
  9 27  2  0  0  0
 10 11  2  0  0  0
 10 15  1  0  0  0
 11 12  1  0  0  0
 11 97  1  0  0  0
 12 13  2  0  0  0
 12 98  1  0  0  0
 13 14  1  0  0  0
 13 31  1  0  0  0
 14 15  2  0  0  0
 14 99  1  0  0  0
 15100  1  0  0  0
 16 17  2  0  0  0
 16 21  1  0  0  0
 16 31  1  0  0  0
 17 18  1  0  0  0
 17101  1  0  0  0
 18 19  2  0  0  0
 18102  1  0  0  0
 19 20  1  0  0  0
 19 24  1  0  0  0
 20 21  2  0  0  0
 20103  1  0  0  0
 21 23  1  0  0  0
 22 28  1  0  0  0
 22 32  2  0  0  0
 26 27  1  0  0  0
 28104  1  0  0  0
 28105  1  0  0  0
 29106  1  0  0  0
 29107  1  0  0  0
 33 34  1  0  0  0
 33 66  1  0  0  0
 33 70  2  0  0  0
 34 36  1  0  0  0
 34 59  1  0  0  0
 34108  1  0  0  0
 35 44  2  0  0  0
 35 45  1  0  0  0
 35 68  1  0  0  0
 36 56  1  0  0  0
 36109  1  0  0  0
 37 39  1  0  0  0
 37 47  1  0  0  0
 37 66  1  0  0  0
 37110  1  0  0  0
 38 43  2  0  0  0
 38 46  1  0  0  0
 38 47  1  0  0  0
 39 64  1  0  0  0
 39 67  2  0  0  0
 40 52  1  0  0  0
 40 53  2  0  0  0
 40 58  1  0  0  0
 41111  1  0  0  0
 41112  1  0  0  0
 41113  1  0  0  0
 41 48  1  0  0  0
 42 43  1  0  0  0
 42 66  1  0  0  0
 42114  1  0  0  0
 42115  1  0  0  0
 43 44  1  0  0  0
 44116  1  0  0  0
 45 46  2  0  0  0
 45117  1  0  0  0
 46118  1  0  0  0
 47119  1  0  0  0
 47120  1  0  0  0
 48 56  1  0  0  0
 48 65  1  0  0  0
 48121  1  0  0  0
 49 50  1  0  0  0
 49 53  1  0  0  0
 49 64  1  0  0  0
 49122  1  0  0  0
 50 51  1  0  0  0
 50123  1  0  0  0
 50124  1  0  0  0
 51 52  1  0  0  0
 51125  1  0  0  0
 51126  1  0  0  0
 52127  1  0  0  0
 52128  1  0  0  0
 53 54  1  0  0  0
 54 55  2  0  0  0
 54129  1  0  0  0
 55 57  1  0  0  0
 55130  1  0  0  0
 56 69  2  0  0  0
 57 58  2  0  0  0
 57131  1  0  0  0
 58132  1  0  0  0
 59 60  1  0  0  0
 59 61  1  0  0  0
 59 62  1  0  0  0
 60133  1  0  0  0
 60134  1  0  0  0
 60135  1  0  0  0
 61136  1  0  0  0
 61137  1  0  0  0
 61138  1  0  0  0
 62139  1  0  0  0
 62140  1  0  0  0
 62141  1  0  0  0
 63 65  1  0  0  0
 63142  1  0  0  0
 63143  1  0  0  0
 63144  1  0  0  0
 64145  1  0  0  0
 65146  1  0  0  0
 68 83  1  0  0  0
 71 73  2  0  0  0
 71 75  1  0  0  0
 71147  1  0  0  0
 72 74  1  0  0  0
 72 75  2  0  0  0
 72148  1  0  0  0
 73 76  1  0  0  0
 73149  1  0  0  0
 74 76  2  0  0  0
 74150  1  0  0  0
 75 80  1  0  0  0
 76 85  1  0  0  0
 77151  1  0  0  0
 77152  1  0  0  0
 77153  1  0  0  0
 77 84  1  0  0  0
 78154  1  0  0  0
 78155  1  0  0  0
 78156  1  0  0  0
 78 87  1  0  0  0
 79 87  1  0  0  0
 79157  1  0  0  0
 79158  1  0  0  0
 79159  1  0  0  0
 80 86  1  0  0  0
 80160  1  0  0  0
 80161  1  0  0  0
 81 82  1  0  0  0
 81 86  1  0  0  0
 81162  1  0  0  0
 81163  1  0  0  0
 82 87  1  0  0  0
 82164  1  0  0  0
 82165  1  0  0  0
 83 84  1  0  0  0
 83166  1  0  0  0
 83167  1  0  0  0
 84 85  1  0  0  0
 84168  1  0  0  0
 85169  1  0  0  0
 87170  1  0  0  0
M  CHG  1  87   1
M  ISO  4   1 100  68 101  83 101  86 100
M  END
> <chiral flag>
0

> <version>
0

> <s_m_source_file>
/data/baiqing/PycharmProjects/Reinvent-master-3.2/result/LINK_invent/BTK/process_docking_weight1_custom_product_contain_oxygen_bond_distance_aromatic_linkinvent_7_9_3/rearranged_h_0013.sdf

> <i_m_source_file_index>
19

> <r_mmod_Potential_Energy-OPLS-2005>
36.5941886901855

> <r_mmod_Stretch_Energy-OPLS-2005>
77.0022277832031

> <r_mmod_Bend_Energy-OPLS-2005>
174.103652954102

> <r_mmod_Torsional_Energy-OPLS-2005>
263.361511230469

> <r_mmod_Improper_Torsional_Energy-OPLS-2005>
14.3151073455811

> <r_mmod_Van_der_Waal_Energy-OPLS-2005>
150.662658691406

> <r_mmod_Electrostatic_Energy-OPLS-2005>
-246.340484619141

> <r_mmod_Solvation_Energy-OPLS-2005>
-439.127899169922

> <b_mmod_Minimization_Converged-OPLS-2005>
0

> <r_mmod_RMS_Derivative-OPLS-2005>
1.29333031177521

$$$$
20
                    3D
 Structure written by MMmdl.
156164  0  0  1  0            999 V2000
  -30.5238  -14.9046   20.4275 C   0  0  0  0  0  0
  -30.4512  -12.5585   19.4840 C   0  0  0  0  0  0
  -29.5185  -12.5248   18.2491 C   0  0  0  0  0  0
  -28.0497  -12.3224   18.6687 C   0  0  0  0  0  0
  -27.6389  -13.2385   19.8505 C   0  0  2  0  0  0
  -28.6857  -13.2151   20.9854 C   0  0  0  0  0  0
  -25.2512  -13.8212   20.5738 C   0  0  0  0  0  0
  -24.1802  -13.0444   20.9216 C   0  0  0  0  0  0
  -24.6402  -11.6922   20.8755 C   0  0  0  0  0  0
  -23.9080  -10.4294   21.0410 C   0  0  0  0  0  0
  -24.3627   -9.4203   21.9185 C   0  0  0  0  0  0
  -23.6295   -8.2240   22.0754 C   0  0  0  0  0  0
  -22.4279   -8.0287   21.3540 C   0  0  0  0  0  0
  -21.9919   -9.0263   20.4647 C   0  0  0  0  0  0
  -22.7251  -10.2139   20.3057 C   0  0  0  0  0  0
  -21.6849   -6.0736   22.5275 C   0  0  0  0  0  0
  -21.4008   -6.5635   23.8209 C   0  0  0  0  0  0
  -21.3658   -5.6788   24.9172 C   0  0  0  0  0  0
  -21.6045   -4.3052   24.7223 C   0  0  0  0  0  0
  -21.8821   -3.8144   23.4344 C   0  0  0  0  0  0
  -21.9190   -4.6964   22.3401 C   0  0  0  0  0  0
  -22.7820  -13.5223   21.1872 C   0  0  0  0  0  0
  -22.1662   -4.2149   21.0979 F   0  0  0  0  0  0
  -21.5629   -3.4540   25.7735 F   0  0  0  0  0  0
  -29.9677  -13.6295   20.3984 N   0  0  0  0  0  0
  -26.2937  -12.9423   20.3310 N   0  0  0  0  0  0
  -25.9341  -11.6561   20.5769 N   0  0  0  0  0  0
  -22.0464  -12.8210   22.0426 N   0  0  0  0  0  0
  -25.4206  -15.1946   20.4228 N   0  0  0  0  0  0
  -31.7089  -15.0294   20.0991 O   0  0  0  0  0  0
  -21.6634   -6.8890   21.4242 O   0  0  0  0  0  0
  -22.3503  -14.5531   20.6721 O   0  0  0  0  0  0
  -24.6428  -31.8440   23.1881 C   0  0  0  0  0  0
  -25.9206  -32.4693   23.8266 C   0  0  1  0  0  0
  -27.2160  -27.1402   20.1471 C   0  0  0  0  0  0
  -25.5949  -33.8500   24.2181 N   0  0  0  0  0  0
  -23.4445  -30.4641   21.5331 C   0  0  2  0  0  0
  -24.8936  -28.8919   20.1071 C   0  0  0  0  0  0
  -22.7562  -29.4537   22.4846 C   0  0  0  0  0  0
  -18.0301  -28.1394   22.8471 C   0  0  0  0  0  0
  -24.1476  -36.7231   23.2646 C   0  0  0  0  0  0
  -26.0015  -30.7172   21.3889 C   0  0  0  0  0  0
  -26.0695  -29.3310   20.7262 C   0  0  0  0  0  0
  -27.2268  -28.4694   20.7319 C   0  0  0  0  0  0
  -26.0122  -26.7978   19.4908 C   0  0  0  0  0  0
  -24.8787  -27.6392   19.4753 C   0  0  0  0  0  0
  -23.6715  -29.7955   20.1508 C   0  0  0  0  0  0
  -25.4113  -36.3026   24.0324 C   0  0  1  0  0  0
  -20.5917  -28.3708   23.1236 C   0  0  2  0  0  0
  -20.6779  -26.9410   22.5407 C   0  0  0  0  0  0
  -19.5757  -26.6367   21.5212 C   0  0  0  0  0  0
  -18.1933  -26.7925   22.1617 C   0  0  0  0  0  0
  -19.1562  -28.8867   23.2838 C   0  0  0  0  0  0
  -18.9491  -30.1457   23.8870 C   0  0  0  0  0  0
  -17.6494  -30.6593   24.0553 C   0  0  0  0  0  0
  -25.9074  -34.9407   23.5059 C   0  0  0  0  0  0
  -16.5379  -29.9087   23.6347 C   0  0  0  0  0  0
  -16.7286  -28.6503   23.0371 C   0  0  0  0  0  0
  -26.4524  -31.6578   25.0722 C   0  0  0  0  0  0
  -25.3697  -31.3794   26.1415 C   0  0  0  0  0  0
  -27.0411  -30.2978   24.6326 C   0  0  0  0  0  0
  -27.6038  -32.4370   25.7513 C   0  0  0  0  0  0
  -27.5567  -37.1765   24.8474 C   0  0  0  0  0  0
  -21.4259  -29.3029   22.3598 N   0  0  0  0  0  0
  -26.4269  -37.3746   23.9431 N   0  0  0  0  0  0
  -24.7153  -31.0304   22.0908 N   0  0  0  0  0  0
  -23.4214  -28.8088   23.2989 O   0  0  0  0  0  0
  -28.2882  -26.1858   20.2664 O   0  0  0  0  0  0
  -26.5668  -34.8912   22.4645 O   0  0  0  0  0  0
  -23.5550  -32.1317   23.7108 O   0  0  0  0  0  0
  -28.5537  -19.8011   20.9285 C   0  0  0  0  0  0
  -30.6201  -18.3259   19.7891 C   0  0  0  0  0  0
  -29.4878  -20.6193   20.2046 C   0  0  0  0  0  0
  -29.6912  -17.5303   20.5183 C   0  0  0  0  0  0
  -28.6372  -18.3409   21.0750 C   0  0  0  0  0  0
  -30.5157  -19.7638   19.6223 C   0  0  0  0  0  0
  -30.7768  -22.6865   19.7973 C   0  0  0  0  0  0
  -26.6220  -18.2919   22.4015 C   0  0  0  0  0  0
  -28.5139  -23.2577   20.5700 C   0  0  0  0  0  0
  -28.3230  -24.7219   19.7391 C   0  0  0  0  0  0
  -29.6800  -16.0086   20.6818 N   0  0  0  0  0  0
  -29.4488  -22.1210   20.0518 N   0  0  0  0  0  0
  -27.6943  -17.6070   21.7678 O   0  0  0  0  0  0
  -31.4665  -20.3111   18.8259 F   0  0  0  0  0  0
  -31.4793  -12.7350   19.1627 H   0  0  0  0  0  0
  -30.4596  -11.5937   19.9940 H   0  0  0  0  0  0
  -29.8243  -11.7300   17.5675 H   0  0  0  0  0  0
  -29.6127  -13.4576   17.6915 H   0  0  0  0  0  0
  -27.9316  -11.2770   18.9567 H   0  0  0  0  0  0
  -27.3861  -12.4810   17.8181 H   0  0  0  0  0  0
  -27.6175  -14.2522   19.4490 H   0  0  0  0  0  0
  -28.7642  -12.2190   21.4235 H   0  0  0  0  0  0
  -28.3953  -13.8836   21.7978 H   0  0  0  0  0  0
  -25.2776   -9.5666   22.4759 H   0  0  0  0  0  0
  -23.9997   -7.4628   22.7470 H   0  0  0  0  0  0
  -21.0845   -8.8790   19.8954 H   0  0  0  0  0  0
  -22.3717  -10.9680   19.6169 H   0  0  0  0  0  0
  -21.1997   -7.6143   23.9712 H   0  0  0  0  0  0
  -21.1477   -6.0517   25.9072 H   0  0  0  0  0  0
  -22.0604   -2.7608   23.2841 H   0  0  0  0  0  0
  -22.4078  -11.9870   22.4805 H   0  0  0  0  0  0
  -21.1085  -13.1233   22.2640 H   0  0  0  0  0  0
  -24.6570  -15.8483   20.5558 H   0  0  0  0  0  0
  -26.2806  -15.6452   20.1394 H   0  0  0  0  0  0
  -26.7264  -32.5302   23.0986 H   0  0  0  0  0  0
  -25.0056  -33.9609   25.0303 H   0  0  0  0  0  0
  -22.7470  -31.2896   21.3790 H   0  0  0  0  0  0
  -23.3764  -35.9532   23.3296 H   0  0  0  0  0  0
  -24.3541  -36.8881   22.2057 H   0  0  0  0  0  0
  -23.7201  -37.6408   23.6698 H   0  0  0  0  0  0
  -26.1653  -31.4752   20.6223 H   0  0  0  0  0  0
  -26.8674  -30.7586   22.0370 H   0  0  0  0  0  0
  -28.1207  -28.7969   21.2439 H   0  0  0  0  0  0
  -25.8915  -25.8393   19.0149 H   0  0  0  0  0  0
  -23.9779  -27.2951   18.9852 H   0  0  0  0  0  0
  -23.8130  -30.5722   19.3987 H   0  0  0  0  0  0
  -22.7855  -29.2412   19.8340 H   0  0  0  0  0  0
  -25.1294  -36.1840   25.0812 H   0  0  0  0  0  0
  -21.0000  -28.3302   24.1361 H   0  0  0  0  0  0
  -20.5668  -26.2320   23.3626 H   0  0  0  0  0  0
  -21.6644  -26.7404   22.1209 H   0  0  0  0  0  0
  -19.6917  -25.6269   21.1257 H   0  0  0  0  0  0
  -19.6707  -27.3157   20.6729 H   0  0  0  0  0  0
  -17.4201  -26.6678   21.4018 H   0  0  0  0  0  0
  -18.0325  -26.0072   22.9015 H   0  0  0  0  0  0
  -19.7975  -30.7260   24.2239 H   0  0  0  0  0  0
  -17.5064  -31.6283   24.5136 H   0  0  0  0  0  0
  -15.5379  -30.2990   23.7695 H   0  0  0  0  0  0
  -15.8681  -28.0809   22.7135 H   0  0  0  0  0  0
  -24.5857  -30.7177   25.7731 H   0  0  0  0  0  0
  -24.8921  -32.2996   26.4786 H   0  0  0  0  0  0
  -25.7951  -30.8987   27.0232 H   0  0  0  0  0  0
  -26.3050  -29.6684   24.1317 H   0  0  0  0  0  0
  -27.4010  -29.7297   25.4915 H   0  0  0  0  0  0
  -27.8955  -30.4224   23.9669 H   0  0  0  0  0  0
  -27.2615  -33.3702   26.1998 H   0  0  0  0  0  0
  -28.3890  -32.6887   25.0371 H   0  0  0  0  0  0
  -28.0661  -31.8567   26.5507 H   0  0  0  0  0  0
  -28.2572  -38.0072   24.7524 H   0  0  0  0  0  0
  -28.1069  -36.2599   24.6289 H   0  0  0  0  0  0
  -27.2286  -37.1401   25.8877 H   0  0  0  0  0  0
  -20.9474  -29.8755   21.6784 H   0  0  0  0  0  0
  -26.0136  -38.2804   24.1471 H   0  0  0  0  0  0
  -27.7343  -20.3311   21.3864 H   0  0  0  0  0  0
  -31.4441  -17.8261   19.3019 H   0  0  0  0  0  0
  -31.5689  -22.1264   20.2984 H   0  0  0  0  0  0
  -30.8654  -23.7079   20.1702 H   0  0  0  0  0  0
  -30.9880  -22.7153   18.7278 H   0  0  0  0  0  0
  -26.0096  -17.5721   22.9457 H   0  0  0  0  0  0
  -25.9762  -18.7881   21.6750 H   0  0  0  0  0  0
  -26.9829  -19.0237   23.1259 H   0  0  0  0  0  0
  -27.5242  -22.8274   20.7278 H   0  0  0  0  0  0
  -28.8653  -23.5007   21.5740 H   0  0  0  0  0  0
  -27.4924  -24.5617   19.0582 H   0  0  0  0  0  0
  -29.1625  -24.7683   19.0468 H   0  0  0  0  0  0
  -28.7903  -15.6886   21.0343 H   0  0  0  0  0  0
  1 25  1  0  0  0
  1 30  2  0  0  0
  1 81  1  0  0  0
  2  3  1  0  0  0
  2 25  1  0  0  0
  2 85  1  0  0  0
  2 86  1  0  0  0
  3  4  1  0  0  0
  3 87  1  0  0  0
  3 88  1  0  0  0
  4  5  1  0  0  0
  4 89  1  0  0  0
  4 90  1  0  0  0
  5  6  1  0  0  0
  5 26  1  0  0  0
  5 91  1  0  0  0
  6 25  1  0  0  0
  6 92  1  0  0  0
  6 93  1  0  0  0
  7  8  2  0  0  0
  7 26  1  0  0  0
  7 29  1  0  0  0
  8  9  1  0  0  0
  8 22  1  0  0  0
  9 10  1  0  0  0
  9 27  2  0  0  0
 10 11  2  0  0  0
 10 15  1  0  0  0
 11 12  1  0  0  0
 11 94  1  0  0  0
 12 13  2  0  0  0
 12 95  1  0  0  0
 13 14  1  0  0  0
 13 31  1  0  0  0
 14 15  2  0  0  0
 14 96  1  0  0  0
 15 97  1  0  0  0
 16 17  2  0  0  0
 16 21  1  0  0  0
 16 31  1  0  0  0
 17 18  1  0  0  0
 17 98  1  0  0  0
 18 19  2  0  0  0
 18 99  1  0  0  0
 19 20  1  0  0  0
 19 24  1  0  0  0
 20 21  2  0  0  0
 20100  1  0  0  0
 21 23  1  0  0  0
 22 28  1  0  0  0
 22 32  2  0  0  0
 26 27  1  0  0  0
 28101  1  0  0  0
 28102  1  0  0  0
 29103  1  0  0  0
 29104  1  0  0  0
 33 34  1  0  0  0
 33 66  1  0  0  0
 33 70  2  0  0  0
 34 36  1  0  0  0
 34 59  1  0  0  0
 34105  1  0  0  0
 35 44  2  0  0  0
 35 45  1  0  0  0
 35 68  1  0  0  0
 36 56  1  0  0  0
 36106  1  0  0  0
 37 39  1  0  0  0
 37 47  1  0  0  0
 37 66  1  0  0  0
 37107  1  0  0  0
 38 43  2  0  0  0
 38 46  1  0  0  0
 38 47  1  0  0  0
 39 64  1  0  0  0
 39 67  2  0  0  0
 40 52  1  0  0  0
 40 53  2  0  0  0
 40 58  1  0  0  0
 41108  1  0  0  0
 41109  1  0  0  0
 41110  1  0  0  0
 41 48  1  0  0  0
 42 43  1  0  0  0
 42 66  1  0  0  0
 42111  1  0  0  0
 42112  1  0  0  0
 43 44  1  0  0  0
 44113  1  0  0  0
 45 46  2  0  0  0
 45114  1  0  0  0
 46115  1  0  0  0
 47116  1  0  0  0
 47117  1  0  0  0
 48 56  1  0  0  0
 48 65  1  0  0  0
 48118  1  0  0  0
 49 50  1  0  0  0
 49 53  1  0  0  0
 49 64  1  0  0  0
 49119  1  0  0  0
 50 51  1  0  0  0
 50120  1  0  0  0
 50121  1  0  0  0
 51 52  1  0  0  0
 51122  1  0  0  0
 51123  1  0  0  0
 52124  1  0  0  0
 52125  1  0  0  0
 53 54  1  0  0  0
 54 55  2  0  0  0
 54126  1  0  0  0
 55 57  1  0  0  0
 55127  1  0  0  0
 56 69  2  0  0  0
 57 58  2  0  0  0
 57128  1  0  0  0
 58129  1  0  0  0
 59 60  1  0  0  0
 59 61  1  0  0  0
 59 62  1  0  0  0
 60130  1  0  0  0
 60131  1  0  0  0
 60132  1  0  0  0
 61133  1  0  0  0
 61134  1  0  0  0
 61135  1  0  0  0
 62136  1  0  0  0
 62137  1  0  0  0
 62138  1  0  0  0
 63 65  1  0  0  0
 63139  1  0  0  0
 63140  1  0  0  0
 63141  1  0  0  0
 64142  1  0  0  0
 65143  1  0  0  0
 68 80  1  0  0  0
 71 73  2  0  0  0
 71 75  1  0  0  0
 71144  1  0  0  0
 72 74  1  0  0  0
 72 76  2  0  0  0
 72145  1  0  0  0
 73 76  1  0  0  0
 73 82  1  0  0  0
 74 75  2  0  0  0
 74 81  1  0  0  0
 75 83  1  0  0  0
 76 84  1  0  0  0
 77 82  1  0  0  0
 77146  1  0  0  0
 77147  1  0  0  0
 77148  1  0  0  0
 78 83  1  0  0  0
 78149  1  0  0  0
 78150  1  0  0  0
 78151  1  0  0  0
 79 80  1  0  0  0
 79 82  1  0  0  0
 79152  1  0  0  0
 79153  1  0  0  0
 80154  1  0  0  0
 80155  1  0  0  0
 81156  1  0  0  0
M  ISO  4   1 100  68 101  80 101  81 100
M  END
> <chiral flag>
0

> <version>
0

> <s_m_source_file>
/data/baiqing/PycharmProjects/Reinvent-master-3.2/result/LINK_invent/BTK/process_docking_weight1_custom_product_contain_oxygen_bond_distance_aromatic_linkinvent_7_9_3/rearranged_h_0013.sdf

> <i_m_source_file_index>
20

> <r_mmod_Potential_Energy-OPLS-2005>
486.704040527344

> <r_mmod_Stretch_Energy-OPLS-2005>
232.850006103516

> <r_mmod_Bend_Energy-OPLS-2005>
297.056640625

> <r_mmod_Torsional_Energy-OPLS-2005>
208.002700805664

> <r_mmod_Improper_Torsional_Energy-OPLS-2005>
5.14018058776855

> <r_mmod_Van_der_Waal_Energy-OPLS-2005>
148.609710693359

> <r_mmod_Electrostatic_Energy-OPLS-2005>
-354.831665039062

> <r_mmod_Solvation_Energy-OPLS-2005>
-224.086654663086

> <b_mmod_Minimization_Converged-OPLS-2005>
0

> <r_mmod_RMS_Derivative-OPLS-2005>
1.71702980995178

$$$$
21
                    3D
 Structure written by MMmdl.
158166  0  0  1  0            999 V2000
  -30.5649  -14.9273   20.4994 C   0  0  0  0  0  0
  -30.4351  -12.5907   19.4964 C   0  0  0  0  0  0
  -29.5244  -12.5544   18.2474 C   0  0  0  0  0  0
  -28.0541  -12.3454   18.6500 C   0  0  0  0  0  0
  -27.6328  -13.2453   19.8379 C   0  0  2  0  0  0
  -28.6643  -13.2418   20.9787 C   0  0  0  0  0  0
  -25.2492  -13.8186   20.5686 C   0  0  0  0  0  0
  -24.1794  -13.0438   20.9186 C   0  0  0  0  0  0
  -24.6375  -11.6907   20.8686 C   0  0  0  0  0  0
  -23.9040  -10.4298   21.0352 C   0  0  0  0  0  0
  -24.3603   -9.4230   21.9132 C   0  0  0  0  0  0
  -23.6284   -8.2262   22.0735 C   0  0  0  0  0  0
  -22.4268   -8.0263   21.3535 C   0  0  0  0  0  0
  -21.9886   -9.0223   20.4631 C   0  0  0  0  0  0
  -22.7200  -10.2113   20.3014 C   0  0  0  0  0  0
  -21.6864   -6.0702   22.5276 C   0  0  0  0  0  0
  -21.4023   -6.5608   23.8203 C   0  0  0  0  0  0
  -21.3689   -5.6764   24.9173 C   0  0  0  0  0  0
  -21.6057   -4.3029   24.7229 C   0  0  0  0  0  0
  -21.8827   -3.8111   23.4351 C   0  0  0  0  0  0
  -21.9207   -4.6924   22.3406 C   0  0  0  0  0  0
  -22.7827  -13.5214   21.1905 C   0  0  0  0  0  0
  -22.1666   -4.2100   21.0986 F   0  0  0  0  0  0
  -21.5650   -3.4525   25.7753 F   0  0  0  0  0  0
  -29.9570  -13.6666   20.4152 N   0  0  0  0  0  0
  -26.2891  -12.9403   20.3154 N   0  0  0  0  0  0
  -25.9304  -11.6541   20.5624 N   0  0  0  0  0  0
  -22.0479  -12.8199   22.0454 N   0  0  0  0  0  0
  -25.4215  -15.1932   20.4224 N   0  0  0  0  0  0
  -31.7003  -15.0356   20.0207 O   0  0  0  0  0  0
  -21.6660   -6.8839   21.4230 O   0  0  0  0  0  0
  -22.3518  -14.5528   20.6772 O   0  0  0  0  0  0
  -24.6408  -31.8459   23.1926 C   0  0  0  0  0  0
  -25.9183  -32.4716   23.8305 C   0  0  1  0  0  0
  -27.1957  -27.1488   20.1490 C   0  0  0  0  0  0
  -25.5949  -33.8523   24.2232 N   0  0  0  0  0  0
  -23.4428  -30.4696   21.5368 C   0  0  2  0  0  0
  -24.8877  -28.9063   20.1064 C   0  0  0  0  0  0
  -22.7568  -29.4545   22.4856 C   0  0  0  0  0  0
  -18.0302  -28.1386   22.8495 C   0  0  0  0  0  0
  -24.1490  -36.7281   23.2636 C   0  0  0  0  0  0
  -25.9980  -30.7262   21.3870 C   0  0  0  0  0  0
  -26.0650  -29.3377   20.7293 C   0  0  0  0  0  0
  -27.2231  -28.4746   20.7379 C   0  0  0  0  0  0
  -26.0000  -26.8243   19.4693 C   0  0  0  0  0  0
  -24.8660  -27.6617   19.4615 C   0  0  0  0  0  0
  -23.6688  -29.8102   20.1510 C   0  0  0  0  0  0
  -25.4121  -36.3058   24.0317 C   0  0  1  0  0  0
  -20.5923  -28.3699   23.1256 C   0  0  2  0  0  0
  -20.6800  -26.9411   22.5398 C   0  0  0  0  0  0
  -19.5754  -26.6372   21.5225 C   0  0  0  0  0  0
  -18.1938  -26.7918   22.1640 C   0  0  0  0  0  0
  -19.1565  -28.8860   23.2864 C   0  0  0  0  0  0
  -18.9485  -30.1466   23.8863 C   0  0  0  0  0  0
  -17.6480  -30.6581   24.0557 C   0  0  0  0  0  0
  -25.9067  -34.9422   23.5080 C   0  0  0  0  0  0
  -16.5367  -29.9078   23.6332 C   0  0  0  0  0  0
  -16.7288  -28.6499   23.0353 C   0  0  0  0  0  0
  -26.4514  -31.6563   25.0721 C   0  0  0  0  0  0
  -25.3737  -31.3750   26.1453 C   0  0  0  0  0  0
  -27.0353  -30.2953   24.6280 C   0  0  0  0  0  0
  -27.6043  -32.4329   25.7511 C   0  0  0  0  0  0
  -27.5588  -37.1802   24.8465 C   0  0  0  0  0  0
  -21.4263  -29.3042   22.3645 N   0  0  0  0  0  0
  -26.4289  -37.3767   23.9420 N   0  0  0  0  0  0
  -24.7135  -31.0360   22.0925 N   0  0  0  0  0  0
  -23.4238  -28.8076   23.2970 O   0  0  0  0  0  0
  -28.2341  -26.1524   20.2493 O   0  0  0  0  0  0
  -26.5638  -34.8900   22.4653 O   0  0  0  0  0  0
  -23.5529  -32.1313   23.7162 O   0  0  0  0  0  0
  -29.8668  -18.1906   19.4994 C   0  0  0  0  0  0
  -29.2289  -18.5032   21.7329 C   0  0  0  0  0  0
  -29.5590  -19.6001   19.2604 C   0  0  0  0  0  0
  -28.9419  -19.9029   21.4998 C   0  0  0  0  0  0
  -29.7055  -17.5326   20.7639 C   0  0  0  0  0  0
  -29.0670  -20.5484   20.2354 C   0  0  0  0  0  0
  -27.0266  -24.4380   21.5798 C   0  0  0  0  0  0
  -29.8229  -15.8230   22.5769 C   0  0  0  0  0  0
  -27.6989  -21.9068   18.7308 C   0  0  0  0  0  0
  -28.9872  -23.3499   20.3224 C   0  0  0  0  0  0
  -27.8995  -24.6331   20.3222 C   0  0  2  0  0  0
  -29.9281  -16.0420   21.1287 N   0  0  0  0  0  0
  -28.5476  -21.9110   19.9225 N   0  0  0  0  0  0
  -31.4698  -12.7502   19.1915 H   0  0  0  0  0  0
  -30.4139  -11.6220   19.9980 H   0  0  0  0  0  0
  -29.8379  -11.7515   17.5807 H   0  0  0  0  0  0
  -29.6304  -13.4817   17.6818 H   0  0  0  0  0  0
  -27.9401  -11.2966   18.9249 H   0  0  0  0  0  0
  -27.4014  -12.5186   17.7941 H   0  0  0  0  0  0
  -27.6087  -14.2616   19.4442 H   0  0  0  0  0  0
  -28.7457  -12.2601   21.4470 H   0  0  0  0  0  0
  -28.3037  -13.9221   21.7470 H   0  0  0  0  0  0
  -25.2755   -9.5743   22.4683 H   0  0  0  0  0  0
  -24.0016   -7.4687   22.7485 H   0  0  0  0  0  0
  -21.0799   -8.8712   19.8959 H   0  0  0  0  0  0
  -22.3615  -10.9629   19.6122 H   0  0  0  0  0  0
  -21.1975   -7.6111   23.9684 H   0  0  0  0  0  0
  -21.1533   -6.0504   25.9074 H   0  0  0  0  0  0
  -22.0577   -2.7568   23.2871 H   0  0  0  0  0  0
  -22.4095  -11.9842   22.4819 H   0  0  0  0  0  0
  -21.1098  -13.1231   22.2673 H   0  0  0  0  0  0
  -24.6597  -15.8487   20.5474 H   0  0  0  0  0  0
  -26.2814  -15.6398   20.1317 H   0  0  0  0  0  0
  -26.7261  -32.5335   23.1046 H   0  0  0  0  0  0
  -25.0125  -33.9663   25.0403 H   0  0  0  0  0  0
  -22.7424  -31.2948   21.3905 H   0  0  0  0  0  0
  -23.3748  -35.9616   23.3268 H   0  0  0  0  0  0
  -24.3589  -36.8920   22.2055 H   0  0  0  0  0  0
  -23.7228  -37.6470   23.6671 H   0  0  0  0  0  0
  -26.1535  -31.4803   20.6137 H   0  0  0  0  0  0
  -26.8699  -30.7774   22.0266 H   0  0  0  0  0  0
  -28.1154  -28.7897   21.2608 H   0  0  0  0  0  0
  -25.8930  -25.8818   18.9542 H   0  0  0  0  0  0
  -23.9672  -27.3346   18.9574 H   0  0  0  0  0  0
  -23.8152  -30.5927   19.4041 H   0  0  0  0  0  0
  -22.7794  -29.2625   19.8351 H   0  0  0  0  0  0
  -25.1309  -36.1897   25.0809 H   0  0  0  0  0  0
  -21.0024  -28.3254   24.1374 H   0  0  0  0  0  0
  -20.5718  -26.2303   23.3612 H   0  0  0  0  0  0
  -21.6668  -26.7429   22.1178 H   0  0  0  0  0  0
  -19.6902  -25.6282   21.1254 H   0  0  0  0  0  0
  -19.6669  -27.3189   20.6760 H   0  0  0  0  0  0
  -17.4219  -26.6669   21.4032 H   0  0  0  0  0  0
  -18.0319  -26.0066   22.9037 H   0  0  0  0  0  0
  -19.7960  -30.7301   24.2209 H   0  0  0  0  0  0
  -17.5025  -31.6250   24.5183 H   0  0  0  0  0  0
  -15.5364  -30.2962   23.7681 H   0  0  0  0  0  0
  -15.8687  -28.0805   22.7087 H   0  0  0  0  0  0
  -24.5896  -30.7106   25.7806 H   0  0  0  0  0  0
  -24.8965  -32.2941   26.4866 H   0  0  0  0  0  0
  -25.8059  -30.8935   27.0238 H   0  0  0  0  0  0
  -26.2948  -29.6695   24.1282 H   0  0  0  0  0  0
  -27.3956  -29.7229   25.4839 H   0  0  0  0  0  0
  -27.8863  -30.4178   23.9581 H   0  0  0  0  0  0
  -27.2613  -33.3620   26.2089 H   0  0  0  0  0  0
  -28.3861  -32.6917   25.0356 H   0  0  0  0  0  0
  -28.0724  -31.8473   26.5444 H   0  0  0  0  0  0
  -28.2600  -38.0106   24.7533 H   0  0  0  0  0  0
  -28.1088  -36.2641   24.6262 H   0  0  0  0  0  0
  -27.2322  -37.1425   25.8869 H   0  0  0  0  0  0
  -20.9444  -29.8771   21.6862 H   0  0  0  0  0  0
  -26.0147  -38.2834   24.1406 H   0  0  0  0  0  0
  -30.2121  -17.5999   18.6640 H   0  0  0  0  0  0
  -29.0223  -18.1992   22.7455 H   0  0  0  0  0  0
  -29.6776  -19.9495   18.2454 H   0  0  0  0  0  0
  -28.5448  -20.4650   22.3347 H   0  0  0  0  0  0
  -27.6238  -24.5328   22.4871 H   0  0  0  0  0  0
  -26.5690  -23.4469   21.5951 H   0  0  0  0  0  0
  -26.2154  -25.1614   21.6519 H   0  0  0  0  0  0
  -29.9994  -14.8006   22.9090 H   0  0  0  0  0  0
  -28.8196  -16.0747   22.9143 H   0  0  0  0  0  0
  -30.5471  -16.4587   23.0954 H   0  0  0  0  0  0
  -27.9839  -22.6987   18.0345 H   0  0  0  0  0  0
  -26.6621  -22.0771   19.0248 H   0  0  0  0  0  0
  -27.7188  -20.9689   18.1781 H   0  0  0  0  0  0
  -29.4784  -23.2960   21.2953 H   0  0  0  0  0  0
  -29.7791  -23.6130   19.6205 H   0  0  0  0  0  0
  -27.2841  -24.4447   19.4470 H   0  0  0  0  0  0
  1 25  1  0  0  0
  1 30  2  0  0  0
  1 82  1  0  0  0
  2  3  1  0  0  0
  2 25  1  0  0  0
  2 84  1  0  0  0
  2 85  1  0  0  0
  3  4  1  0  0  0
  3 86  1  0  0  0
  3 87  1  0  0  0
  4  5  1  0  0  0
  4 88  1  0  0  0
  4 89  1  0  0  0
  5  6  1  0  0  0
  5 26  1  0  0  0
  5 90  1  0  0  0
  6 25  1  0  0  0
  6 91  1  0  0  0
  6 92  1  0  0  0
  7  8  2  0  0  0
  7 26  1  0  0  0
  7 29  1  0  0  0
  8  9  1  0  0  0
  8 22  1  0  0  0
  9 10  1  0  0  0
  9 27  2  0  0  0
 10 11  2  0  0  0
 10 15  1  0  0  0
 11 12  1  0  0  0
 11 93  1  0  0  0
 12 13  2  0  0  0
 12 94  1  0  0  0
 13 14  1  0  0  0
 13 31  1  0  0  0
 14 15  2  0  0  0
 14 95  1  0  0  0
 15 96  1  0  0  0
 16 17  2  0  0  0
 16 21  1  0  0  0
 16 31  1  0  0  0
 17 18  1  0  0  0
 17 97  1  0  0  0
 18 19  2  0  0  0
 18 98  1  0  0  0
 19 20  1  0  0  0
 19 24  1  0  0  0
 20 21  2  0  0  0
 20 99  1  0  0  0
 21 23  1  0  0  0
 22 28  1  0  0  0
 22 32  2  0  0  0
 26 27  1  0  0  0
 28100  1  0  0  0
 28101  1  0  0  0
 29102  1  0  0  0
 29103  1  0  0  0
 33 34  1  0  0  0
 33 66  1  0  0  0
 33 70  2  0  0  0
 34 36  1  0  0  0
 34 59  1  0  0  0
 34104  1  0  0  0
 35 44  2  0  0  0
 35 45  1  0  0  0
 35 68  1  0  0  0
 36 56  1  0  0  0
 36105  1  0  0  0
 37 39  1  0  0  0
 37 47  1  0  0  0
 37 66  1  0  0  0
 37106  1  0  0  0
 38 43  2  0  0  0
 38 46  1  0  0  0
 38 47  1  0  0  0
 39 64  1  0  0  0
 39 67  2  0  0  0
 40 52  1  0  0  0
 40 53  2  0  0  0
 40 58  1  0  0  0
 41107  1  0  0  0
 41108  1  0  0  0
 41109  1  0  0  0
 41 48  1  0  0  0
 42 43  1  0  0  0
 42 66  1  0  0  0
 42110  1  0  0  0
 42111  1  0  0  0
 43 44  1  0  0  0
 44112  1  0  0  0
 45 46  2  0  0  0
 45113  1  0  0  0
 46114  1  0  0  0
 47115  1  0  0  0
 47116  1  0  0  0
 48 56  1  0  0  0
 48 65  1  0  0  0
 48117  1  0  0  0
 49 50  1  0  0  0
 49 53  1  0  0  0
 49 64  1  0  0  0
 49118  1  0  0  0
 50 51  1  0  0  0
 50119  1  0  0  0
 50120  1  0  0  0
 51 52  1  0  0  0
 51121  1  0  0  0
 51122  1  0  0  0
 52123  1  0  0  0
 52124  1  0  0  0
 53 54  1  0  0  0
 54 55  2  0  0  0
 54125  1  0  0  0
 55 57  1  0  0  0
 55126  1  0  0  0
 56 69  2  0  0  0
 57 58  2  0  0  0
 57127  1  0  0  0
 58128  1  0  0  0
 59 60  1  0  0  0
 59 61  1  0  0  0
 59 62  1  0  0  0
 60129  1  0  0  0
 60130  1  0  0  0
 60131  1  0  0  0
 61132  1  0  0  0
 61133  1  0  0  0
 61134  1  0  0  0
 62135  1  0  0  0
 62136  1  0  0  0
 62137  1  0  0  0
 63 65  1  0  0  0
 63138  1  0  0  0
 63139  1  0  0  0
 63140  1  0  0  0
 64141  1  0  0  0
 65142  1  0  0  0
 68 81  1  0  0  0
 71 73  2  0  0  0
 71 75  1  0  0  0
 71143  1  0  0  0
 72 74  1  0  0  0
 72 75  2  0  0  0
 72144  1  0  0  0
 73 76  1  0  0  0
 73145  1  0  0  0
 74 76  2  0  0  0
 74146  1  0  0  0
 75 82  1  0  0  0
 76 83  1  0  0  0
 77147  1  0  0  0
 77148  1  0  0  0
 77149  1  0  0  0
 77 81  1  0  0  0
 78 82  1  0  0  0
 78150  1  0  0  0
 78151  1  0  0  0
 78152  1  0  0  0
 79 83  1  0  0  0
 79153  1  0  0  0
 79154  1  0  0  0
 79155  1  0  0  0
 80 81  1  0  0  0
 80 83  1  0  0  0
 80156  1  0  0  0
 80157  1  0  0  0
 81158  1  0  0  0
M  ISO  4   1 100  68 101  81 101  82 100
M  END
> <chiral flag>
0

> <version>
0

> <s_m_source_file>
/data/baiqing/PycharmProjects/Reinvent-master-3.2/result/LINK_invent/BTK/process_docking_weight1_custom_product_contain_oxygen_bond_distance_aromatic_linkinvent_7_9_3/rearranged_h_0013.sdf

> <i_m_source_file_index>
21

> <r_mmod_Potential_Energy-OPLS-2005>
640.011596679688

> <r_mmod_Stretch_Energy-OPLS-2005>
233.625122070312

> <r_mmod_Bend_Energy-OPLS-2005>
276.676147460938

> <r_mmod_Torsional_Energy-OPLS-2005>
300.590301513672

> <r_mmod_Improper_Torsional_Energy-OPLS-2005>
5.07608127593994

> <r_mmod_Van_der_Waal_Energy-OPLS-2005>
156.376678466797

> <r_mmod_Electrostatic_Energy-OPLS-2005>
-313.016265869141

> <r_mmod_Solvation_Energy-OPLS-2005>
-200.651519775391

> <b_mmod_Minimization_Converged-OPLS-2005>
0

> <r_mmod_RMS_Derivative-OPLS-2005>
4.67974662780762

$$$$
22
                    3D
 Structure written by MMmdl.
186196  0  0  1  0            999 V2000
  -29.2728  -13.9709   21.4740 C   0  0  0  0  0  0
  -30.4905  -12.5574   19.5230 C   0  0  0  0  0  0
  -29.7046  -12.4863   18.1482 C   0  0  0  0  0  0
  -28.2273  -12.0810   18.2511 C   0  0  0  0  0  0
  -27.8100  -12.7268   19.5165 C   0  0  2  0  0  0
  -28.5644  -11.9873   20.6148 C   0  0  0  0  0  0
  -25.7035  -13.7957   19.7855 C   0  0  0  0  0  0
  -24.7934  -13.5094   20.7366 C   0  0  0  0  0  0
  -24.7132  -11.9295   20.3016 C   0  0  0  0  0  0
  -23.8612  -10.6006   20.6888 C   0  0  0  0  0  0
  -24.4046   -9.5179   21.4939 C   0  0  0  0  0  0
  -23.7030   -8.3221   21.8357 C   0  0  0  0  0  0
  -22.4109   -8.0994   21.3183 C   0  0  0  0  0  0
  -21.8460   -9.0991   20.5407 C   0  0  0  0  0  0
  -22.5287  -10.2887   20.2176 C   0  0  0  0  0  0
  -21.7135   -6.0989   22.5042 C   0  0  0  0  0  0
  -21.4572   -6.5918   23.8023 C   0  0  0  0  0  0
  -21.4220   -5.7047   24.9062 C   0  0  0  0  0  0
  -21.6194   -4.3246   24.7055 C   0  0  0  0  0  0
  -21.8786   -3.8231   23.4127 C   0  0  0  0  0  0
  -21.9265   -4.7218   22.3229 C   0  0  0  0  0  0
  -23.5800  -14.5707   22.3368 C   0  0  0  0  0  0
  -22.1666   -4.2311   21.0860 F   0  0  0  0  0  0
  -21.5819   -3.4647   25.7596 F   0  0  0  0  0  0
  -29.6258  -12.8593   20.7610 N   0  0  0  0  0  0
  -26.4648  -12.7177   19.8035 N   0  0  0  0  0  0
  -25.9096  -11.5530   20.0376 N   0  0  0  0  0  0
  -22.7004  -13.9592   23.2242 N   0  0  0  0  0  0
  -26.1612  -14.8527   19.0457 N   0  0  0  0  0  0
  -30.1463  -14.8788   21.1770 O   0  0  0  0  0  0
  -21.6874   -6.9228   21.3913 O   0  0  0  0  0  0
  -22.6515  -15.3978   22.1807 O   0  0  0  0  0  0
  -24.6263  -31.8598   23.2097 C   0  0  0  0  0  0
  -25.9133  -32.4776   23.8394 C   0  0  1  0  0  0
  -27.2188  -27.4318   19.9493 C   0  0  0  0  0  0
  -25.5983  -33.8589   24.2326 N   0  0  0  0  0  0
  -23.4149  -30.4883   21.5552 C   0  0  2  0  0  0
  -24.8460  -28.9609   20.0864 C   0  0  0  0  0  0
  -22.7494  -29.4601   22.4975 C   0  0  0  0  0  0
  -18.0289  -28.1377   22.8487 C   0  0  0  0  0  0
  -24.1489  -36.7328   23.2626 C   0  0  0  0  0  0
  -25.9540  -30.7933   21.3816 C   0  0  0  0  0  0
  -26.0180  -29.4453   20.6838 C   0  0  0  0  0  0
  -27.2163  -28.6887   20.6066 C   0  0  0  0  0  0
  -26.0444  -26.9989   19.3069 C   0  0  0  0  0  0
  -24.8525  -27.7355   19.4014 C   0  0  0  0  0  0
  -23.6177  -29.8350   20.1661 C   0  0  0  0  0  0
  -25.4102  -36.3115   24.0342 C   0  0  1  0  0  0
  -20.5891  -28.3691   23.1275 C   0  0  2  0  0  0
  -20.6784  -26.9418   22.5391 C   0  0  0  0  0  0
  -19.5746  -26.6371   21.5209 C   0  0  0  0  0  0
  -18.1929  -26.7927   22.1619 C   0  0  0  0  0  0
  -19.1542  -28.8852   23.2868 C   0  0  0  0  0  0
  -18.9464  -30.1464   23.8870 C   0  0  0  0  0  0
  -17.6460  -30.6591   24.0541 C   0  0  0  0  0  0
  -25.9050  -34.9468   23.5126 C   0  0  0  0  0  0
  -16.5352  -29.9072   23.6334 C   0  0  0  0  0  0
  -16.7277  -28.6482   23.0375 C   0  0  0  0  0  0
  -26.4535  -31.6599   25.0774 C   0  0  0  0  0  0
  -25.3787  -31.3739   26.1526 C   0  0  0  0  0  0
  -27.0378  -30.3027   24.6228 C   0  0  0  0  0  0
  -27.6123  -32.4311   25.7553 C   0  0  0  0  0  0
  -27.5616  -37.1776   24.8423 C   0  0  0  0  0  0
  -21.4214  -29.3059   22.3721 N   0  0  0  0  0  0
  -26.4273  -37.3825   23.9452 N   0  0  0  0  0  0
  -24.6837  -31.0612   22.1052 N   0  0  0  0  0  0
  -23.4221  -28.8095   23.3016 O   0  0  0  0  0  0
  -28.3097  -26.5868   19.9390 O   0  0  0  0  0  0
  -26.5590  -34.8922   22.4674 O   0  0  0  0  0  0
  -23.5445  -32.1407   23.7439 O   0  0  0  0  0  0
  -23.2861  -18.6604   19.6893 C   0  0  0  0  0  0
  -22.4731  -17.4565   19.6631 C   0  0  0  0  0  0
  -24.7200  -17.7703   18.0430 C   0  0  0  0  0  0
  -24.5356  -18.8292   19.0090 C   0  0  0  0  0  0
  -22.9047  -16.2125   19.0335 C   0  0  0  0  0  0
  -23.8851  -16.5601   17.9939 C   0  0  0  0  0  0
  -28.1776  -21.2573   17.2021 C   0  0  0  0  0  0
  -28.5898  -22.0625   18.4340 C   0  0  0  0  0  0
  -24.5643  -12.4389   22.6735 C   0  0  0  0  0  0
  -25.8938  -15.5672   21.7187 C   0  0  0  0  0  0
  -22.6232  -13.1808   20.7477 C   0  0  0  0  0  0
  -24.4777  -16.0259   20.5722 C   0  0  0  0  0  0
  -26.8631  -20.5532   17.5494 C   0  0  0  0  0  0
  -26.2163  -13.9712   22.6274 C   0  0  0  0  0  0
  -27.5816  -21.7590   19.5817 C   0  0  1  0  0  0
  -28.1974  -12.9627   23.5843 C   0  0  0  0  0  0
  -26.8873  -22.7457   21.7202 C   0  0  0  0  0  0
  -25.5853  -19.9161   19.6321 C   0  0  0  0  0  0
  -28.5141  -24.0292   20.6424 C   0  0  0  0  0  0
  -28.2211  -25.5663   20.9616 C   0  0  0  0  0  0
  -23.1578  -14.9680   19.8648 N   0  0  0  0  0  0
  -27.9756  -13.7824   22.3763 N   0  0  0  0  0  0
  -27.3495  -23.0768   20.3620 N   0  0  0  0  0  0
  -26.4081  -20.9857   18.9078 N   0  3  2  0  0  0
  -24.2892  -15.5534   17.1468 F   0  0  0  0  0  0
  -31.3346  -13.2032   19.4408 H   0  0  0  0  0  0
  -30.9098  -11.5652   19.6098 H   0  0  0  0  0  0
  -30.1900  -11.8541   17.4019 H   0  0  0  0  0  0
  -29.7357  -13.4526   17.6772 H   0  0  0  0  0  0
  -28.0767  -10.9955   18.2088 H   0  0  0  0  0  0
  -27.6353  -12.4425   17.4095 H   0  0  0  0  0  0
  -28.1291  -13.7634   19.2737 H   0  0  0  0  0  0
  -28.0207  -11.6608   21.4920 H   0  0  0  0  0  0
  -28.8650  -10.9706   20.3047 H   0  0  0  0  0  0
  -25.4516   -9.5709   21.7220 H   0  0  0  0  0  0
  -24.2204   -7.5318   22.3532 H   0  0  0  0  0  0
  -20.8220   -8.9625   20.2224 H   0  0  0  0  0  0
  -21.8875  -10.8445   19.5367 H   0  0  0  0  0  0
  -21.2933   -7.6414   23.9531 H   0  0  0  0  0  0
  -21.2522   -6.0990   25.9024 H   0  0  0  0  0  0
  -22.0264   -2.7626   23.2577 H   0  0  0  0  0  0
  -23.1723  -13.5665   24.0235 H   0  0  0  0  0  0
  -22.0349  -14.7026   23.5745 H   0  0  0  0  0  0
  -25.7788  -15.7524   18.8247 H   0  0  0  0  0  0
  -27.0002  -14.6182   18.4831 H   0  0  0  0  0  0
  -26.7185  -32.5382   23.1119 H   0  0  0  0  0  0
  -25.0231  -33.9731   25.0542 H   0  0  0  0  0  0
  -22.7094  -31.3117   21.4230 H   0  0  0  0  0  0
  -23.3789  -35.9614   23.3174 H   0  0  0  0  0  0
  -24.3637  -36.9061   22.2070 H   0  0  0  0  0  0
  -23.7156  -37.6469   23.6699 H   0  0  0  0  0  0
  -26.1130  -31.5813   20.6446 H   0  0  0  0  0  0
  -26.8228  -30.7956   22.0285 H   0  0  0  0  0  0
  -28.1354  -29.0726   21.0214 H   0  0  0  0  0  0
  -26.0578  -26.1194   18.6775 H   0  0  0  0  0  0
  -23.9608  -27.3806   18.8990 H   0  0  0  0  0  0
  -23.7588  -30.6182   19.4249 H   0  0  0  0  0  0
  -22.7272  -29.2904   19.8485 H   0  0  0  0  0  0
  -25.1239  -36.1997   25.0830 H   0  0  0  0  0  0
  -20.9957  -28.3249   24.1403 H   0  0  0  0  0  0
  -20.5709  -26.2305   23.3596 H   0  0  0  0  0  0
  -21.6649  -26.7455   22.1167 H   0  0  0  0  0  0
  -19.6910  -25.6270   21.1264 H   0  0  0  0  0  0
  -19.6687  -27.3158   20.6719 H   0  0  0  0  0  0
  -17.4214  -26.6699   21.4010 H   0  0  0  0  0  0
  -18.0310  -26.0062   22.8999 H   0  0  0  0  0  0
  -19.7937  -30.7297   24.2226 H   0  0  0  0  0  0
  -17.5009  -31.6282   24.5122 H   0  0  0  0  0  0
  -15.5351  -30.2961   23.7665 H   0  0  0  0  0  0
  -15.8683  -28.0774   22.7127 H   0  0  0  0  0  0
  -24.5891  -30.7181   25.7845 H   0  0  0  0  0  0
  -24.9075  -32.2916   26.5060 H   0  0  0  0  0  0
  -25.8107  -30.8811   27.0250 H   0  0  0  0  0  0
  -26.2919  -29.6762   24.1328 H   0  0  0  0  0  0
  -27.4174  -29.7305   25.4704 H   0  0  0  0  0  0
  -27.8767  -30.4337   23.9391 H   0  0  0  0  0  0
  -27.2766  -33.3582   26.2219 H   0  0  0  0  0  0
  -28.3922  -32.6920   25.0381 H   0  0  0  0  0  0
  -28.0837  -31.8393   26.5419 H   0  0  0  0  0  0
  -28.2487  -38.0222   24.7716 H   0  0  0  0  0  0
  -28.1261  -36.2780   24.5920 H   0  0  0  0  0  0
  -27.2388  -37.1027   25.8822 H   0  0  0  0  0  0
  -20.9420  -29.8880   21.7001 H   0  0  0  0  0  0
  -26.0166  -38.2876   24.1586 H   0  0  0  0  0  0
  -23.1113  -19.3555   20.4841 H   0  0  0  0  0  0
  -21.9117  -17.4238   20.5990 H   0  0  0  0  0  0
  -25.6861  -17.7596   17.5354 H   0  0  0  0  0  0
  -28.9426  -20.5368   16.8963 H   0  0  0  0  0  0
  -28.0481  -21.9021   16.3303 H   0  0  0  0  0  0
  -28.6206  -23.1101   18.1305 H   0  0  0  0  0  0
  -29.6200  -21.8316   18.7215 H   0  0  0  0  0  0
  -25.2337  -11.6365   22.4203 H   0  0  0  0  0  0
  -24.4141  -12.0025   23.6593 H   0  0  0  0  0  0
  -25.9249  -16.4473   22.3285 H   0  0  0  0  0  0
  -26.8487  -15.7986   21.2153 H   0  0  0  0  0  0
  -22.5462  -12.5849   19.8279 H   0  0  0  0  0  0
  -21.5704  -13.0407   21.1364 H   0  0  0  0  0  0
  -25.0376  -16.7095   19.9874 H   0  0  0  0  0  0
  -24.0130  -16.8320   21.2263 H   0  0  0  0  0  0
  -27.0245  -19.4809   17.4464 H   0  0  0  0  0  0
  -26.0892  -20.8216   16.8344 H   0  0  0  0  0  0
  -26.1083  -14.4216   23.6311 H   0  0  0  0  0  0
  -28.1220  -21.0704   20.2401 H   0  0  0  0  0  0
  -29.1324  -12.4003   23.4925 H   0  0  0  0  0  0
  -27.3759  -12.2497   23.6844 H   0  0  0  0  0  0
  -28.2422  -13.5658   24.5014 H   0  0  0  0  0  0
  -25.8897  -22.3037   21.7195 H   0  0  0  0  0  0
  -26.8739  -23.6037   22.4113 H   0  0  0  0  0  0
  -27.5684  -22.0311   22.1970 H   0  0  0  0  0  0
  -26.1985  -19.4131   20.3720 H   0  0  0  0  0  0
  -24.9956  -20.5785   20.2610 H   0  0  0  0  0  0
  -28.9656  -23.7327   21.5982 H   0  0  0  0  0  0
  -29.3681  -23.9366   19.9722 H   0  0  0  0  0  0
  -28.9897  -25.9254   21.6532 H   0  0  0  0  0  0
  -27.3020  -25.6584   21.5383 H   0  0  0  0  0  0
  -25.7106  -21.6899   18.7178 H   0  0  0  0  0  0
  1 25  1  0  0  0
  1 30  2  0  0  0
  1 92  1  0  0  0
  2  3  1  0  0  0
  2 25  1  0  0  0
  2 96  1  0  0  0
  2 97  1  0  0  0
  3  4  1  0  0  0
  3 98  1  0  0  0
  3 99  1  0  0  0
  4  5  1  0  0  0
  4100  1  0  0  0
  4101  1  0  0  0
  5  6  1  0  0  0
  5 26  1  0  0  0
  5102  1  0  0  0
  6 25  1  0  0  0
  6103  1  0  0  0
  6104  1  0  0  0
  7  8  2  0  0  0
  7 26  1  0  0  0
  7 29  1  0  0  0
  8  9  1  0  0  0
  8 22  1  0  0  0
  9 10  1  0  0  0
  9 27  2  0  0  0
 10 11  2  0  0  0
 10 15  1  0  0  0
 11 12  1  0  0  0
 11105  1  0  0  0
 12 13  2  0  0  0
 12106  1  0  0  0
 13 14  1  0  0  0
 13 31  1  0  0  0
 14 15  2  0  0  0
 14107  1  0  0  0
 15108  1  0  0  0
 16 17  2  0  0  0
 16 21  1  0  0  0
 16 31  1  0  0  0
 17 18  1  0  0  0
 17109  1  0  0  0
 18 19  2  0  0  0
 18110  1  0  0  0
 19 20  1  0  0  0
 19 24  1  0  0  0
 20 21  2  0  0  0
 20111  1  0  0  0
 21 23  1  0  0  0
 22 28  1  0  0  0
 22 32  2  0  0  0
 26 27  1  0  0  0
 28112  1  0  0  0
 28113  1  0  0  0
 29114  1  0  0  0
 29115  1  0  0  0
 33 34  1  0  0  0
 33 66  1  0  0  0
 33 70  2  0  0  0
 34 36  1  0  0  0
 34 59  1  0  0  0
 34116  1  0  0  0
 35 44  2  0  0  0
 35 45  1  0  0  0
 35 68  1  0  0  0
 36 56  1  0  0  0
 36117  1  0  0  0
 37 39  1  0  0  0
 37 47  1  0  0  0
 37 66  1  0  0  0
 37118  1  0  0  0
 38 43  2  0  0  0
 38 46  1  0  0  0
 38 47  1  0  0  0
 39 64  1  0  0  0
 39 67  2  0  0  0
 40 52  1  0  0  0
 40 53  2  0  0  0
 40 58  1  0  0  0
 41119  1  0  0  0
 41120  1  0  0  0
 41121  1  0  0  0
 41 48  1  0  0  0
 42 43  1  0  0  0
 42 66  1  0  0  0
 42122  1  0  0  0
 42123  1  0  0  0
 43 44  1  0  0  0
 44124  1  0  0  0
 45 46  2  0  0  0
 45125  1  0  0  0
 46126  1  0  0  0
 47127  1  0  0  0
 47128  1  0  0  0
 48 56  1  0  0  0
 48 65  1  0  0  0
 48129  1  0  0  0
 49 50  1  0  0  0
 49 53  1  0  0  0
 49 64  1  0  0  0
 49130  1  0  0  0
 50 51  1  0  0  0
 50131  1  0  0  0
 50132  1  0  0  0
 51 52  1  0  0  0
 51133  1  0  0  0
 51134  1  0  0  0
 52135  1  0  0  0
 52136  1  0  0  0
 53 54  1  0  0  0
 54 55  2  0  0  0
 54137  1  0  0  0
 55 57  1  0  0  0
 55138  1  0  0  0
 56 69  2  0  0  0
 57 58  2  0  0  0
 57139  1  0  0  0
 58140  1  0  0  0
 59 60  1  0  0  0
 59 61  1  0  0  0
 59 62  1  0  0  0
 60141  1  0  0  0
 60142  1  0  0  0
 60143  1  0  0  0
 61144  1  0  0  0
 61145  1  0  0  0
 61146  1  0  0  0
 62147  1  0  0  0
 62148  1  0  0  0
 62149  1  0  0  0
 63 65  1  0  0  0
 63150  1  0  0  0
 63151  1  0  0  0
 63152  1  0  0  0
 64153  1  0  0  0
 65154  1  0  0  0
 68 90  1  0  0  0
 71 72  2  0  0  0
 71 74  1  0  0  0
 71155  1  0  0  0
 72 75  1  0  0  0
 72156  1  0  0  0
 73 74  2  0  0  0
 73 76  1  0  0  0
 73157  1  0  0  0
 74 88  1  0  0  0
 75 76  2  0  0  0
 75 91  1  0  0  0
 76 95  1  0  0  0
 77 78  1  0  0  0
 77 83  1  0  0  0
 77158  1  0  0  0
 77159  1  0  0  0
 78 85  1  0  0  0
 78160  1  0  0  0
 78161  1  0  0  0
 79 81  1  0  0  0
 79 84  1  0  0  0
 79162  1  0  0  0
 79163  1  0  0  0
 80 82  1  0  0  0
 80 84  1  0  0  0
 80164  1  0  0  0
 80165  1  0  0  0
 81 91  1  0  0  0
 81166  1  0  0  0
 81167  1  0  0  0
 82 91  1  0  0  0
 82168  1  0  0  0
 82169  1  0  0  0
 83 94  1  0  0  0
 83170  1  0  0  0
 83171  1  0  0  0
 84 92  1  0  0  0
 84172  1  0  0  0
 85 93  1  0  0  0
 85 94  1  0  0  0
 85173  1  0  0  0
 86 92  1  0  0  0
 86174  1  0  0  0
 86175  1  0  0  0
 86176  1  0  0  0
 87 93  1  0  0  0
 87177  1  0  0  0
 87178  1  0  0  0
 87179  1  0  0  0
 88180  1  0  0  0
 88181  1  0  0  0
 88 94  1  0  0  0
 89 90  1  0  0  0
 89 93  1  0  0  0
 89182  1  0  0  0
 89183  1  0  0  0
 90184  1  0  0  0
 90185  1  0  0  0
 94186  1  0  0  0
M  CHG  1  94   1
M  ISO  4   1 100  68 101  90 101  92 100
M  END
> <chiral flag>
0

> <version>
0

> <s_m_source_file>
/data/baiqing/PycharmProjects/Reinvent-master-3.2/result/LINK_invent/BTK/process_docking_weight1_custom_product_contain_oxygen_bond_distance_aromatic_linkinvent_7_9_3/rearranged_h_0013.sdf

> <i_m_source_file_index>
22

> <r_mmod_Potential_Energy-OPLS-2005>
11994.5615234375

> <r_mmod_Stretch_Energy-OPLS-2005>
5322.45263671875

> <r_mmod_Bend_Energy-OPLS-2005>
1219.98266601562

> <r_mmod_Torsional_Energy-OPLS-2005>
830.320495605469

> <r_mmod_Improper_Torsional_Energy-OPLS-2005>
93.3162536621094

> <r_mmod_Van_der_Waal_Energy-OPLS-2005>
2663.18432617188

> <r_mmod_Electrostatic_Energy-OPLS-2005>
-147.853744506836

> <r_mmod_Solvation_Energy-OPLS-2005>
-443.9189453125

> <b_mmod_Minimization_Converged-OPLS-2005>
0

> <r_mmod_RMS_Derivative-OPLS-2005>
64.9315795898438

$$$$
23
                    3D
 Structure written by MMmdl.
153162  0  0  1  0            999 V2000
  -30.5041  -14.9487   20.4277 C   0  0  0  0  0  0
  -30.4546  -12.5902   19.4880 C   0  0  0  0  0  0
  -29.5250  -12.5287   18.2517 C   0  0  0  0  0  0
  -28.0582  -12.3085   18.6739 C   0  0  0  0  0  0
  -27.6339  -13.2393   19.8399 C   0  0  2  0  0  0
  -28.6783  -13.2464   20.9767 C   0  0  0  0  0  0
  -25.2496  -13.8204   20.5718 C   0  0  0  0  0  0
  -24.1801  -13.0435   20.9234 C   0  0  0  0  0  0
  -24.6400  -11.6915   20.8762 C   0  0  0  0  0  0
  -23.9078  -10.4289   21.0417 C   0  0  0  0  0  0
  -24.3627   -9.4204   21.9189 C   0  0  0  0  0  0
  -23.6299   -8.2241   22.0758 C   0  0  0  0  0  0
  -22.4280   -8.0284   21.3547 C   0  0  0  0  0  0
  -21.9918   -9.0258   20.4646 C   0  0  0  0  0  0
  -22.7253  -10.2133   20.3058 C   0  0  0  0  0  0
  -21.6852   -6.0742   22.5281 C   0  0  0  0  0  0
  -21.4013   -6.5643   23.8215 C   0  0  0  0  0  0
  -21.3659   -5.6793   24.9174 C   0  0  0  0  0  0
  -21.6043   -4.3057   24.7221 C   0  0  0  0  0  0
  -21.8819   -3.8149   23.4342 C   0  0  0  0  0  0
  -21.9192   -4.6969   22.3402 C   0  0  0  0  0  0
  -22.7816  -13.5211   21.1889 C   0  0  0  0  0  0
  -22.1658   -4.2157   21.0981 F   0  0  0  0  0  0
  -21.5629   -3.4539   25.7733 F   0  0  0  0  0  0
  -29.9540  -13.6702   20.3818 N   0  0  0  0  0  0
  -26.2908  -12.9410   20.3238 N   0  0  0  0  0  0
  -25.9330  -11.6549   20.5738 N   0  0  0  0  0  0
  -22.0458  -12.8197   22.0434 N   0  0  0  0  0  0
  -25.4149  -15.1943   20.4162 N   0  0  0  0  0  0
  -31.7096  -15.0666   20.1789 O   0  0  0  0  0  0
  -21.6640   -6.8886   21.4242 O   0  0  0  0  0  0
  -22.3499  -14.5522   20.6739 O   0  0  0  0  0  0
  -24.6432  -31.8427   23.1850 C   0  0  0  0  0  0
  -25.9197  -32.4697   23.8249 C   0  0  1  0  0  0
  -27.2259  -27.1367   20.1660 C   0  0  0  0  0  0
  -25.5945  -33.8500   24.2180 N   0  0  0  0  0  0
  -23.4479  -30.4591   21.5304 C   0  0  2  0  0  0
  -24.8984  -28.8748   20.1182 C   0  0  0  0  0  0
  -22.7566  -29.4542   22.4858 C   0  0  0  0  0  0
  -18.0300  -28.1404   22.8483 C   0  0  0  0  0  0
  -24.1480  -36.7244   23.2642 C   0  0  0  0  0  0
  -26.0014  -30.7197   21.3784 C   0  0  0  0  0  0
  -26.0754  -29.3263   20.7290 C   0  0  0  0  0  0
  -27.2427  -28.4757   20.7276 C   0  0  0  0  0  0
  -26.0215  -26.7733   19.5305 C   0  0  0  0  0  0
  -24.8829  -27.6117   19.5033 C   0  0  0  0  0  0
  -23.6752  -29.7783   20.1534 C   0  0  0  0  0  0
  -25.4111  -36.3028   24.0319 C   0  0  1  0  0  0
  -20.5915  -28.3722   23.1240 C   0  0  2  0  0  0
  -20.6783  -26.9425   22.5405 C   0  0  0  0  0  0
  -19.5754  -26.6387   21.5216 C   0  0  0  0  0  0
  -18.1935  -26.7946   22.1625 C   0  0  0  0  0  0
  -19.1558  -28.8879   23.2857 C   0  0  0  0  0  0
  -18.9481  -30.1477   23.8882 C   0  0  0  0  0  0
  -17.6479  -30.6603   24.0566 C   0  0  0  0  0  0
  -25.9068  -34.9410   23.5059 C   0  0  0  0  0  0
  -16.5367  -29.9101   23.6342 C   0  0  0  0  0  0
  -16.7285  -28.6518   23.0363 C   0  0  0  0  0  0
  -26.4524  -31.6563   25.0689 C   0  0  0  0  0  0
  -25.3722  -31.3760   26.1398 C   0  0  0  0  0  0
  -27.0376  -30.2964   24.6237 C   0  0  0  0  0  0
  -27.6060  -32.4319   25.7476 C   0  0  0  0  0  0
  -27.5572  -37.1764   24.8460 C   0  0  0  0  0  0
  -21.4258  -29.3055   22.3613 N   0  0  0  0  0  0
  -26.4267  -37.3751   23.9432 N   0  0  0  0  0  0
  -24.7178  -31.0284   22.0876 N   0  0  0  0  0  0
  -23.4207  -28.8095   23.3016 O   0  0  0  0  0  0
  -28.3080  -26.1877   20.1615 O   0  0  0  0  0  0
  -26.5656  -34.8913   22.4638 O   0  0  0  0  0  0
  -23.5550  -32.1284   23.7075 O   0  0  0  0  0  0
  -30.2724  -19.9540   21.1842 C   0  0  0  0  0  0
  -30.4759  -18.5089   21.1566 C   0  0  0  0  0  0
  -28.4171  -19.7578   19.7614 C   0  0  0  0  0  0
  -29.2301  -20.6841   20.4977 C   0  0  0  0  0  0
  -29.6301  -17.5898   20.4517 C   0  0  0  0  0  0
  -28.5875  -18.3078   19.7625 C   0  0  0  0  0  0
  -29.2036  -24.3813   21.6978 C   0  0  0  0  0  0
  -29.2786  -22.8317   21.9033 C   0  0  0  0  0  0
  -28.4313  -23.2906   19.7547 C   0  0  0  0  0  0
  -28.1731  -24.6957   20.5955 C   0  0  2  0  0  0
  -29.0260  -22.1660   20.6225 N   0  0  0  0  0  0
  -29.6201  -16.0545   20.5264 N   0  0  0  0  0  0
  -27.6779  -17.5666   19.0837 F   0  0  0  0  0  0
  -31.4824  -12.7750   19.1718 H   0  0  0  0  0  0
  -30.4699  -11.6337   20.0126 H   0  0  0  0  0  0
  -29.8448  -11.7327   17.5778 H   0  0  0  0  0  0
  -29.6054  -13.4584   17.6865 H   0  0  0  0  0  0
  -27.9592  -11.2672   18.9830 H   0  0  0  0  0  0
  -27.3916  -12.4364   17.8201 H   0  0  0  0  0  0
  -27.6001  -14.2432   19.4162 H   0  0  0  0  0  0
  -28.7685  -12.2610   21.4366 H   0  0  0  0  0  0
  -28.3779  -13.9302   21.7728 H   0  0  0  0  0  0
  -25.2775   -9.5681   22.4761 H   0  0  0  0  0  0
  -24.0007   -7.4633   22.7479 H   0  0  0  0  0  0
  -21.0850   -8.8780   19.8949 H   0  0  0  0  0  0
  -22.3720  -10.9673   19.6164 H   0  0  0  0  0  0
  -21.2003   -7.6151   23.9722 H   0  0  0  0  0  0
  -21.1480   -6.0521   25.9079 H   0  0  0  0  0  0
  -22.0599   -2.7611   23.2838 H   0  0  0  0  0  0
  -22.4066  -11.9845   22.4809 H   0  0  0  0  0  0
  -21.1074  -13.1221   22.2641 H   0  0  0  0  0  0
  -24.6406  -15.8370   20.5432 H   0  0  0  0  0  0
  -26.2372  -15.6466   20.0374 H   0  0  0  0  0  0
  -26.7264  -32.5309   23.0978 H   0  0  0  0  0  0
  -25.0088  -33.9609   25.0330 H   0  0  0  0  0  0
  -22.7514  -31.2845   21.3702 H   0  0  0  0  0  0
  -23.3760  -35.9558   23.3274 H   0  0  0  0  0  0
  -24.3570  -36.8896   22.2061 H   0  0  0  0  0  0
  -23.7203  -37.6424   23.6686 H   0  0  0  0  0  0
  -26.1457  -31.4684   20.5980 H   0  0  0  0  0  0
  -26.8771  -30.7813   22.0130 H   0  0  0  0  0  0
  -28.1477  -28.8247   21.2046 H   0  0  0  0  0  0
  -25.9524  -25.8025   19.0594 H   0  0  0  0  0  0
  -23.9827  -27.2592   19.0189 H   0  0  0  0  0  0
  -23.8138  -30.5472   19.3925 H   0  0  0  0  0  0
  -22.7910  -29.2178   19.8442 H   0  0  0  0  0  0
  -25.1292  -36.1846   25.0810 H   0  0  0  0  0  0
  -21.0006  -28.3305   24.1361 H   0  0  0  0  0  0
  -20.5671  -26.2338   23.3626 H   0  0  0  0  0  0
  -21.6647  -26.7426   22.1200 H   0  0  0  0  0  0
  -19.6915  -25.6295   21.1250 H   0  0  0  0  0  0
  -19.6694  -27.3197   20.6747 H   0  0  0  0  0  0
  -17.4205  -26.6696   21.4028 H   0  0  0  0  0  0
  -18.0329  -26.0097   22.9026 H   0  0  0  0  0  0
  -19.7960  -30.7299   24.2240 H   0  0  0  0  0  0
  -17.5038  -31.6284   24.5167 H   0  0  0  0  0  0
  -15.5369  -30.3004   23.7684 H   0  0  0  0  0  0
  -15.8680  -28.0836   22.7093 H   0  0  0  0  0  0
  -24.5904  -30.7097   25.7730 H   0  0  0  0  0  0
  -24.8917  -32.2953   26.4757 H   0  0  0  0  0  0
  -25.8021  -30.8982   27.0210 H   0  0  0  0  0  0
  -26.2974  -29.6698   24.1247 H   0  0  0  0  0  0
  -27.4017  -29.7241   25.4780 H   0  0  0  0  0  0
  -27.8868  -30.4213   23.9515 H   0  0  0  0  0  0
  -27.2669  -33.3665   26.1953 H   0  0  0  0  0  0
  -28.3934  -32.6790   25.0344 H   0  0  0  0  0  0
  -28.0651  -31.8498   26.5475 H   0  0  0  0  0  0
  -28.2545  -38.0106   24.7564 H   0  0  0  0  0  0
  -28.1109  -36.2635   24.6205 H   0  0  0  0  0  0
  -27.2306  -37.1310   25.8866 H   0  0  0  0  0  0
  -20.9464  -29.8775   21.6799 H   0  0  0  0  0  0
  -26.0126  -38.2803   24.1496 H   0  0  0  0  0  0
  -30.9723  -20.5185   21.7831 H   0  0  0  0  0  0
  -31.2846  -18.1031   21.7470 H   0  0  0  0  0  0
  -27.5822  -20.1552   19.2042 H   0  0  0  0  0  0
  -30.1810  -24.7370   21.3703 H   0  0  0  0  0  0
  -28.9774  -24.9026   22.6282 H   0  0  0  0  0  0
  -28.5104  -22.5178   22.6114 H   0  0  0  0  0  0
  -30.2415  -22.5510   22.3301 H   0  0  0  0  0  0
  -29.1354  -23.4884   18.9457 H   0  0  0  0  0  0
  -27.5066  -22.9572   19.2810 H   0  0  0  0  0  0
  -27.1868  -24.6017   21.0531 H   0  0  0  0  0  0
  -28.6743  -15.7065   20.5422 H   0  0  0  0  0  0
  1 25  1  0  0  0
  1 30  2  0  0  0
  1 82  1  0  0  0
  2  3  1  0  0  0
  2 25  1  0  0  0
  2 84  1  0  0  0
  2 85  1  0  0  0
  3  4  1  0  0  0
  3 86  1  0  0  0
  3 87  1  0  0  0
  4  5  1  0  0  0
  4 88  1  0  0  0
  4 89  1  0  0  0
  5  6  1  0  0  0
  5 26  1  0  0  0
  5 90  1  0  0  0
  6 25  1  0  0  0
  6 91  1  0  0  0
  6 92  1  0  0  0
  7  8  2  0  0  0
  7 26  1  0  0  0
  7 29  1  0  0  0
  8  9  1  0  0  0
  8 22  1  0  0  0
  9 10  1  0  0  0
  9 27  2  0  0  0
 10 11  2  0  0  0
 10 15  1  0  0  0
 11 12  1  0  0  0
 11 93  1  0  0  0
 12 13  2  0  0  0
 12 94  1  0  0  0
 13 14  1  0  0  0
 13 31  1  0  0  0
 14 15  2  0  0  0
 14 95  1  0  0  0
 15 96  1  0  0  0
 16 17  2  0  0  0
 16 21  1  0  0  0
 16 31  1  0  0  0
 17 18  1  0  0  0
 17 97  1  0  0  0
 18 19  2  0  0  0
 18 98  1  0  0  0
 19 20  1  0  0  0
 19 24  1  0  0  0
 20 21  2  0  0  0
 20 99  1  0  0  0
 21 23  1  0  0  0
 22 28  1  0  0  0
 22 32  2  0  0  0
 26 27  1  0  0  0
 28100  1  0  0  0
 28101  1  0  0  0
 29102  1  0  0  0
 29103  1  0  0  0
 33 34  1  0  0  0
 33 66  1  0  0  0
 33 70  2  0  0  0
 34 36  1  0  0  0
 34 59  1  0  0  0
 34104  1  0  0  0
 35 44  2  0  0  0
 35 45  1  0  0  0
 35 68  1  0  0  0
 36 56  1  0  0  0
 36105  1  0  0  0
 37 39  1  0  0  0
 37 47  1  0  0  0
 37 66  1  0  0  0
 37106  1  0  0  0
 38 43  2  0  0  0
 38 46  1  0  0  0
 38 47  1  0  0  0
 39 64  1  0  0  0
 39 67  2  0  0  0
 40 52  1  0  0  0
 40 53  2  0  0  0
 40 58  1  0  0  0
 41107  1  0  0  0
 41108  1  0  0  0
 41109  1  0  0  0
 41 48  1  0  0  0
 42 43  1  0  0  0
 42 66  1  0  0  0
 42110  1  0  0  0
 42111  1  0  0  0
 43 44  1  0  0  0
 44112  1  0  0  0
 45 46  2  0  0  0
 45113  1  0  0  0
 46114  1  0  0  0
 47115  1  0  0  0
 47116  1  0  0  0
 48 56  1  0  0  0
 48 65  1  0  0  0
 48117  1  0  0  0
 49 50  1  0  0  0
 49 53  1  0  0  0
 49 64  1  0  0  0
 49118  1  0  0  0
 50 51  1  0  0  0
 50119  1  0  0  0
 50120  1  0  0  0
 51 52  1  0  0  0
 51121  1  0  0  0
 51122  1  0  0  0
 52123  1  0  0  0
 52124  1  0  0  0
 53 54  1  0  0  0
 54 55  2  0  0  0
 54125  1  0  0  0
 55 57  1  0  0  0
 55126  1  0  0  0
 56 69  2  0  0  0
 57 58  2  0  0  0
 57127  1  0  0  0
 58128  1  0  0  0
 59 60  1  0  0  0
 59 61  1  0  0  0
 59 62  1  0  0  0
 60129  1  0  0  0
 60130  1  0  0  0
 60131  1  0  0  0
 61132  1  0  0  0
 61133  1  0  0  0
 61134  1  0  0  0
 62135  1  0  0  0
 62136  1  0  0  0
 62137  1  0  0  0
 63 65  1  0  0  0
 63138  1  0  0  0
 63139  1  0  0  0
 63140  1  0  0  0
 64141  1  0  0  0
 65142  1  0  0  0
 68 80  1  0  0  0
 71 72  2  0  0  0
 71 74  1  0  0  0
 71143  1  0  0  0
 72 75  1  0  0  0
 72144  1  0  0  0
 73 74  2  0  0  0
 73 76  1  0  0  0
 73145  1  0  0  0
 74 81  1  0  0  0
 75 76  2  0  0  0
 75 82  1  0  0  0
 76 83  1  0  0  0
 77 78  1  0  0  0
 77 80  1  0  0  0
 77146  1  0  0  0
 77147  1  0  0  0
 78 81  1  0  0  0
 78148  1  0  0  0
 78149  1  0  0  0
 79 80  1  0  0  0
 79 81  1  0  0  0
 79150  1  0  0  0
 79151  1  0  0  0
 80152  1  0  0  0
 82153  1  0  0  0
M  ISO  4   1 100  68 101  80 101  82 100
M  END
> <chiral flag>
0

> <version>
0

> <s_m_source_file>
/data/baiqing/PycharmProjects/Reinvent-master-3.2/result/LINK_invent/BTK/process_docking_weight1_custom_product_contain_oxygen_bond_distance_aromatic_linkinvent_7_9_3/rearranged_h_0013.sdf

> <i_m_source_file_index>
23

> <r_mmod_Potential_Energy-OPLS-2005>
511.134216308594

> <r_mmod_Stretch_Energy-OPLS-2005>
215.138229370117

> <r_mmod_Bend_Energy-OPLS-2005>
311.854766845703

> <r_mmod_Torsional_Energy-OPLS-2005>
297.146484375

> <r_mmod_Improper_Torsional_Energy-OPLS-2005>
6.74517917633057

> <r_mmod_Van_der_Waal_Energy-OPLS-2005>
122.15104675293

> <r_mmod_Electrostatic_Energy-OPLS-2005>
-410.138092041016

> <r_mmod_Solvation_Energy-OPLS-2005>
-221.11376953125

> <b_mmod_Minimization_Converged-OPLS-2005>
0

> <r_mmod_RMS_Derivative-OPLS-2005>
0.983909428119659

$$$$
24
                    3D
 Structure written by MMmdl.
151159  0  0  1  0            999 V2000
  -30.5629  -14.9226   20.4887 C   0  0  0  0  0  0
  -30.4318  -12.5805   19.5101 C   0  0  0  0  0  0
  -29.5187  -12.5274   18.2645 C   0  0  0  0  0  0
  -28.0560  -12.2992   18.6790 C   0  0  0  0  0  0
  -27.6258  -13.2418   19.8308 C   0  0  2  0  0  0
  -28.6526  -13.2593   20.9798 C   0  0  0  0  0  0
  -25.2440  -13.8226   20.5662 C   0  0  0  0  0  0
  -24.1757  -13.0448   20.9204 C   0  0  0  0  0  0
  -24.6370  -11.6933   20.8721 C   0  0  0  0  0  0
  -23.9070  -10.4293   21.0386 C   0  0  0  0  0  0
  -24.3619   -9.4218   21.9170 C   0  0  0  0  0  0
  -23.6301   -8.2245   22.0751 C   0  0  0  0  0  0
  -22.4284   -8.0267   21.3539 C   0  0  0  0  0  0
  -21.9912   -9.0243   20.4643 C   0  0  0  0  0  0
  -22.7239  -10.2127   20.3046 C   0  0  0  0  0  0
  -21.6851   -6.0735   22.5287 C   0  0  0  0  0  0
  -21.4015   -6.5639   23.8224 C   0  0  0  0  0  0
  -21.3663   -5.6789   24.9189 C   0  0  0  0  0  0
  -21.6038   -4.3050   24.7231 C   0  0  0  0  0  0
  -21.8824   -3.8146   23.4352 C   0  0  0  0  0  0
  -21.9200   -4.6966   22.3413 C   0  0  0  0  0  0
  -22.7788  -13.5233   21.1889 C   0  0  0  0  0  0
  -22.1663   -4.2155   21.0988 F   0  0  0  0  0  0
  -21.5627   -3.4531   25.7739 F   0  0  0  0  0  0
  -29.9497  -13.6676   20.4135 N   0  0  0  0  0  0
  -26.2828  -12.9430   20.3129 N   0  0  0  0  0  0
  -25.9283  -11.6573   20.5670 N   0  0  0  0  0  0
  -22.0441  -12.8187   22.0422 N   0  0  0  0  0  0
  -25.4083  -15.1955   20.4149 N   0  0  0  0  0  0
  -31.7043  -15.0167   20.0186 O   0  0  0  0  0  0
  -21.6636   -6.8872   21.4248 O   0  0  0  0  0  0
  -22.3468  -14.5542   20.6761 O   0  0  0  0  0  0
  -24.6426  -31.8460   23.1909 C   0  0  0  0  0  0
  -25.9199  -32.4711   23.8300 C   0  0  1  0  0  0
  -27.2017  -27.1283   20.1259 C   0  0  0  0  0  0
  -25.5954  -33.8512   24.2223 N   0  0  0  0  0  0
  -23.4469  -30.4682   21.5386 C   0  0  2  0  0  0
  -24.8912  -28.9006   20.1029 C   0  0  0  0  0  0
  -22.7572  -29.4553   22.4858 C   0  0  0  0  0  0
  -18.0321  -28.1385   22.8493 C   0  0  0  0  0  0
  -24.1471  -36.7254   23.2639 C   0  0  0  0  0  0
  -26.0040  -30.7091   21.3950 C   0  0  0  0  0  0
  -26.0684  -29.3216   20.7326 C   0  0  0  0  0  0
  -27.2226  -28.4489   20.7334 C   0  0  0  0  0  0
  -26.0026  -26.8199   19.4470 C   0  0  0  0  0  0
  -24.8716  -27.6636   19.4461 C   0  0  0  0  0  0
  -23.6699  -29.8077   20.1535 C   0  0  0  0  0  0
  -25.4102  -36.3036   24.0317 C   0  0  1  0  0  0
  -20.5937  -28.3706   23.1232 C   0  0  2  0  0  0
  -20.6805  -26.9411   22.5401 C   0  0  0  0  0  0
  -19.5754  -26.6375   21.5226 C   0  0  0  0  0  0
  -18.1940  -26.7936   22.1633 C   0  0  0  0  0  0
  -19.1582  -28.8861   23.2856 C   0  0  0  0  0  0
  -18.9499  -30.1471   23.8852 C   0  0  0  0  0  0
  -17.6490  -30.6581   24.0558 C   0  0  0  0  0  0
  -25.9065  -34.9409   23.5079 C   0  0  0  0  0  0
  -16.5377  -29.9081   23.6339 C   0  0  0  0  0  0
  -16.7311  -28.6507   23.0351 C   0  0  0  0  0  0
  -26.4528  -31.6562   25.0736 C   0  0  0  0  0  0
  -25.3710  -31.3735   26.1432 C   0  0  0  0  0  0
  -27.0408  -30.2955   24.6310 C   0  0  0  0  0  0
  -27.6059  -32.4351   25.7485 C   0  0  0  0  0  0
  -27.5581  -37.1754   24.8458 C   0  0  0  0  0  0
  -21.4267  -29.3039   22.3599 N   0  0  0  0  0  0
  -26.4264  -37.3747   23.9432 N   0  0  0  0  0  0
  -24.7184  -31.0286   22.0966 N   0  0  0  0  0  0
  -23.4219  -28.8086   23.2999 O   0  0  0  0  0  0
  -28.2396  -26.1249   20.1949 O   0  0  0  0  0  0
  -26.5647  -34.8916   22.4658 O   0  0  0  0  0  0
  -23.5548  -32.1365   23.7117 O   0  0  0  0  0  0
  -29.9175  -18.6294   21.6204 C   0  0  0  0  0  0
  -29.6026  -20.0258   21.3456 C   0  0  0  0  0  0
  -28.8403  -19.3718   19.2208 C   0  0  0  0  0  0
  -29.7256  -17.5086   20.7209 C   0  0  0  0  0  0
  -29.0219  -20.4875   20.1199 C   0  0  0  0  0  0
  -29.1705  -17.9744   19.4840 C   0  0  0  0  0  0
  -30.0518  -15.8625   22.5949 C   0  0  0  0  0  0
  -27.9577  -24.6142   19.9107 C   0  0  0  0  0  0
  -28.8429  -23.2389   20.3466 C   0  0  0  0  0  0
  -29.9532  -16.0355   21.1364 N   0  0  0  0  0  0
  -28.5721  -21.8391   19.7523 O   0  0  0  0  0  0
  -28.8915  -17.0534   18.5282 F   0  0  0  0  0  0
  -31.4653  -12.7317   19.1975 H   0  0  0  0  0  0
  -30.4233  -11.6237   20.0332 H   0  0  0  0  0  0
  -29.8448  -11.7330   17.5937 H   0  0  0  0  0  0
  -29.5991  -13.4588   17.7019 H   0  0  0  0  0  0
  -27.9704  -11.2619   19.0054 H   0  0  0  0  0  0
  -27.3921  -12.4019   17.8205 H   0  0  0  0  0  0
  -27.5969  -14.2448   19.4031 H   0  0  0  0  0  0
  -28.7196  -12.2851   21.4645 H   0  0  0  0  0  0
  -28.3075  -13.9540   21.7431 H   0  0  0  0  0  0
  -25.2771   -9.5708   22.4739 H   0  0  0  0  0  0
  -24.0022   -7.4650   22.7479 H   0  0  0  0  0  0
  -21.0842   -8.8769   19.8953 H   0  0  0  0  0  0
  -22.3694  -10.9662   19.6148 H   0  0  0  0  0  0
  -21.1996   -7.6145   23.9734 H   0  0  0  0  0  0
  -21.1475   -6.0509   25.9089 H   0  0  0  0  0  0
  -22.0593   -2.7604   23.2850 H   0  0  0  0  0  0
  -22.4073  -11.9854   22.4798 H   0  0  0  0  0  0
  -21.1042  -13.1165   22.2612 H   0  0  0  0  0  0
  -24.6418  -15.8436   20.5596 H   0  0  0  0  0  0
  -26.2579  -15.6482   20.1004 H   0  0  0  0  0  0
  -26.7247  -32.5283   23.1016 H   0  0  0  0  0  0
  -25.0060  -33.9639   25.0340 H   0  0  0  0  0  0
  -22.7492  -31.2945   21.3915 H   0  0  0  0  0  0
  -23.3763  -35.9555   23.3260 H   0  0  0  0  0  0
  -24.3565  -36.8948   22.2067 H   0  0  0  0  0  0
  -23.7221  -37.6429   23.6720 H   0  0  0  0  0  0
  -26.1615  -31.4623   20.6233 H   0  0  0  0  0  0
  -26.8731  -30.7581   22.0388 H   0  0  0  0  0  0
  -28.1159  -28.7589   21.2565 H   0  0  0  0  0  0
  -25.9027  -25.8851   18.9154 H   0  0  0  0  0  0
  -23.9767  -27.3454   18.9288 H   0  0  0  0  0  0
  -23.8105  -30.5921   19.4081 H   0  0  0  0  0  0
  -22.7804  -29.2590   19.8384 H   0  0  0  0  0  0
  -25.1284  -36.1855   25.0810 H   0  0  0  0  0  0
  -21.0039  -28.3309   24.1353 H   0  0  0  0  0  0
  -20.5740  -26.2314   23.3619 H   0  0  0  0  0  0
  -21.6661  -26.7433   22.1159 H   0  0  0  0  0  0
  -19.6907  -25.6296   21.1244 H   0  0  0  0  0  0
  -19.6683  -27.3190   20.6755 H   0  0  0  0  0  0
  -17.4219  -26.6713   21.4019 H   0  0  0  0  0  0
  -18.0304  -26.0062   22.9008 H   0  0  0  0  0  0
  -19.7978  -30.7309   24.2180 H   0  0  0  0  0  0
  -17.5053  -31.6261   24.5183 H   0  0  0  0  0  0
  -15.5390  -30.2956   23.7699 H   0  0  0  0  0  0
  -15.8713  -28.0834   22.7029 H   0  0  0  0  0  0
  -24.5896  -30.7085   25.7758 H   0  0  0  0  0  0
  -24.8879  -32.2897   26.4810 H   0  0  0  0  0  0
  -25.7987  -30.8945   27.0245 H   0  0  0  0  0  0
  -26.3033  -29.6634   24.1359 H   0  0  0  0  0  0
  -27.4089  -29.7289   25.4872 H   0  0  0  0  0  0
  -27.8907  -30.4208   23.9603 H   0  0  0  0  0  0
  -27.2679  -33.3703   26.1947 H   0  0  0  0  0  0
  -28.3891  -32.6829   25.0317 H   0  0  0  0  0  0
  -28.0694  -31.8560   26.5479 H   0  0  0  0  0  0
  -28.2528  -38.0114   24.7604 H   0  0  0  0  0  0
  -28.1159  -36.2659   24.6167 H   0  0  0  0  0  0
  -27.2319  -37.1262   25.8860 H   0  0  0  0  0  0
  -20.9466  -29.8800   21.6821 H   0  0  0  0  0  0
  -26.0133  -38.2800   24.1527 H   0  0  0  0  0  0
  -30.3106  -18.4252   22.6051 H   0  0  0  0  0  0
  -29.7880  -20.7497   22.1274 H   0  0  0  0  0  0
  -28.3949  -19.5887   18.2612 H   0  0  0  0  0  0
  -29.2589  -16.4073   23.1090 H   0  0  0  0  0  0
  -31.0133  -16.2393   22.9485 H   0  0  0  0  0  0
  -29.9836  -14.8265   22.9321 H   0  0  0  0  0  0
  -26.9541  -24.4188   20.2873 H   0  0  0  0  0  0
  -27.8553  -24.5616   18.8261 H   0  0  0  0  0  0
  -28.8174  -23.1458   21.4329 H   0  0  0  0  0  0
  -29.8815  -23.4579   20.0970 H   0  0  0  0  0  0
  1 25  1  0  0  0
  1 30  2  0  0  0
  1 80  1  0  0  0
  2  3  1  0  0  0
  2 25  1  0  0  0
  2 83  1  0  0  0
  2 84  1  0  0  0
  3  4  1  0  0  0
  3 85  1  0  0  0
  3 86  1  0  0  0
  4  5  1  0  0  0
  4 87  1  0  0  0
  4 88  1  0  0  0
  5  6  1  0  0  0
  5 26  1  0  0  0
  5 89  1  0  0  0
  6 25  1  0  0  0
  6 90  1  0  0  0
  6 91  1  0  0  0
  7  8  2  0  0  0
  7 26  1  0  0  0
  7 29  1  0  0  0
  8  9  1  0  0  0
  8 22  1  0  0  0
  9 10  1  0  0  0
  9 27  2  0  0  0
 10 11  2  0  0  0
 10 15  1  0  0  0
 11 12  1  0  0  0
 11 92  1  0  0  0
 12 13  2  0  0  0
 12 93  1  0  0  0
 13 14  1  0  0  0
 13 31  1  0  0  0
 14 15  2  0  0  0
 14 94  1  0  0  0
 15 95  1  0  0  0
 16 17  2  0  0  0
 16 21  1  0  0  0
 16 31  1  0  0  0
 17 18  1  0  0  0
 17 96  1  0  0  0
 18 19  2  0  0  0
 18 97  1  0  0  0
 19 20  1  0  0  0
 19 24  1  0  0  0
 20 21  2  0  0  0
 20 98  1  0  0  0
 21 23  1  0  0  0
 22 28  1  0  0  0
 22 32  2  0  0  0
 26 27  1  0  0  0
 28 99  1  0  0  0
 28100  1  0  0  0
 29101  1  0  0  0
 29102  1  0  0  0
 33 34  1  0  0  0
 33 66  1  0  0  0
 33 70  2  0  0  0
 34 36  1  0  0  0
 34 59  1  0  0  0
 34103  1  0  0  0
 35 44  2  0  0  0
 35 45  1  0  0  0
 35 68  1  0  0  0
 36 56  1  0  0  0
 36104  1  0  0  0
 37 39  1  0  0  0
 37 47  1  0  0  0
 37 66  1  0  0  0
 37105  1  0  0  0
 38 43  2  0  0  0
 38 46  1  0  0  0
 38 47  1  0  0  0
 39 64  1  0  0  0
 39 67  2  0  0  0
 40 52  1  0  0  0
 40 53  2  0  0  0
 40 58  1  0  0  0
 41106  1  0  0  0
 41107  1  0  0  0
 41108  1  0  0  0
 41 48  1  0  0  0
 42 43  1  0  0  0
 42 66  1  0  0  0
 42109  1  0  0  0
 42110  1  0  0  0
 43 44  1  0  0  0
 44111  1  0  0  0
 45 46  2  0  0  0
 45112  1  0  0  0
 46113  1  0  0  0
 47114  1  0  0  0
 47115  1  0  0  0
 48 56  1  0  0  0
 48 65  1  0  0  0
 48116  1  0  0  0
 49 50  1  0  0  0
 49 53  1  0  0  0
 49 64  1  0  0  0
 49117  1  0  0  0
 50 51  1  0  0  0
 50118  1  0  0  0
 50119  1  0  0  0
 51 52  1  0  0  0
 51120  1  0  0  0
 51121  1  0  0  0
 52122  1  0  0  0
 52123  1  0  0  0
 53 54  1  0  0  0
 54 55  2  0  0  0
 54124  1  0  0  0
 55 57  1  0  0  0
 55125  1  0  0  0
 56 69  2  0  0  0
 57 58  2  0  0  0
 57126  1  0  0  0
 58127  1  0  0  0
 59 60  1  0  0  0
 59 61  1  0  0  0
 59 62  1  0  0  0
 60128  1  0  0  0
 60129  1  0  0  0
 60130  1  0  0  0
 61131  1  0  0  0
 61132  1  0  0  0
 61133  1  0  0  0
 62134  1  0  0  0
 62135  1  0  0  0
 62136  1  0  0  0
 63 65  1  0  0  0
 63137  1  0  0  0
 63138  1  0  0  0
 63139  1  0  0  0
 64140  1  0  0  0
 65141  1  0  0  0
 68 78  1  0  0  0
 71 72  2  0  0  0
 71 74  1  0  0  0
 71142  1  0  0  0
 72 75  1  0  0  0
 72143  1  0  0  0
 73 75  2  0  0  0
 73 76  1  0  0  0
 73144  1  0  0  0
 74 76  2  0  0  0
 74 80  1  0  0  0
 75 81  1  0  0  0
 76 82  1  0  0  0
 77 80  1  0  0  0
 77145  1  0  0  0
 77146  1  0  0  0
 77147  1  0  0  0
 78 79  1  0  0  0
 78148  1  0  0  0
 78149  1  0  0  0
 79 81  1  0  0  0
 79150  1  0  0  0
 79151  1  0  0  0
M  ISO  4   1 100  68 101  78 101  80 100
M  END
> <chiral flag>
0

> <version>
0

> <s_m_source_file>
/data/baiqing/PycharmProjects/Reinvent-master-3.2/result/LINK_invent/BTK/process_docking_weight1_custom_product_contain_oxygen_bond_distance_aromatic_linkinvent_7_9_3/rearranged_h_0013.sdf

> <i_m_source_file_index>
24

> <r_mmod_Potential_Energy-OPLS-2005>
628.907043457031

> <r_mmod_Stretch_Energy-OPLS-2005>
245.900985717773

> <r_mmod_Bend_Energy-OPLS-2005>
286.098541259766

> <r_mmod_Torsional_Energy-OPLS-2005>
279.547088623047

> <r_mmod_Improper_Torsional_Energy-OPLS-2005>
4.31507015228271

> <r_mmod_Van_der_Waal_Energy-OPLS-2005>
140.764587402344

> <r_mmod_Electrostatic_Energy-OPLS-2005>
-320.791687011719

> <r_mmod_Solvation_Energy-OPLS-2005>
-194.976348876953

> <b_mmod_Minimization_Converged-OPLS-2005>
0

> <r_mmod_RMS_Derivative-OPLS-2005>
3.69370436668396

$$$$
25
                    3D
 Structure written by MMmdl.
148156  0  0  1  0            999 V2000
  -30.5089  -14.9122   20.4351 C   0  0  0  0  0  0
  -30.4555  -12.5616   19.4901 C   0  0  0  0  0  0
  -29.5264  -12.5317   18.2520 C   0  0  0  0  0  0
  -28.0565  -12.3206   18.6662 C   0  0  0  0  0  0
  -27.6389  -13.2354   19.8464 C   0  0  2  0  0  0
  -28.6835  -13.2119   20.9840 C   0  0  0  0  0  0
  -25.2500  -13.8182   20.5681 C   0  0  0  0  0  0
  -24.1806  -13.0431   20.9230 C   0  0  0  0  0  0
  -24.6402  -11.6911   20.8760 C   0  0  0  0  0  0
  -23.9076  -10.4289   21.0416 C   0  0  0  0  0  0
  -24.3624   -9.4201   21.9190 C   0  0  0  0  0  0
  -23.6294   -8.2240   22.0758 C   0  0  0  0  0  0
  -22.4276   -8.0282   21.3547 C   0  0  0  0  0  0
  -21.9915   -9.0259   20.4652 C   0  0  0  0  0  0
  -22.7249  -10.2135   20.3063 C   0  0  0  0  0  0
  -21.6853   -6.0736   22.5279 C   0  0  0  0  0  0
  -21.4015   -6.5640   23.8212 C   0  0  0  0  0  0
  -21.3659   -5.6793   24.9175 C   0  0  0  0  0  0
  -21.6044   -4.3056   24.7225 C   0  0  0  0  0  0
  -21.8818   -3.8147   23.4347 C   0  0  0  0  0  0
  -21.9192   -4.6963   22.3402 C   0  0  0  0  0  0
  -22.7826  -13.5218   21.1880 C   0  0  0  0  0  0
  -22.1661   -4.2149   21.0979 F   0  0  0  0  0  0
  -21.5626   -3.4539   25.7738 F   0  0  0  0  0  0
  -29.9682  -13.6307   20.4025 N   0  0  0  0  0  0
  -26.2925  -12.9392   20.3247 N   0  0  0  0  0  0
  -25.9332  -11.6537   20.5742 N   0  0  0  0  0  0
  -22.0465  -12.8213   22.0434 N   0  0  0  0  0  0
  -25.4162  -15.1901   20.4026 N   0  0  0  0  0  0
  -31.6970  -15.0562   20.1234 O   0  0  0  0  0  0
  -21.6639   -6.8881   21.4242 O   0  0  0  0  0  0
  -22.3518  -14.5520   20.6717 O   0  0  0  0  0  0
  -24.6422  -31.8456   23.1895 C   0  0  0  0  0  0
  -25.9199  -32.4704   23.8282 C   0  0  1  0  0  0
  -27.2214  -27.1519   20.1469 C   0  0  0  0  0  0
  -25.5952  -33.8509   24.2201 N   0  0  0  0  0  0
  -23.4453  -30.4654   21.5351 C   0  0  2  0  0  0
  -24.8953  -28.8959   20.1105 C   0  0  0  0  0  0
  -22.7562  -29.4552   22.4864 C   0  0  0  0  0  0
  -18.0305  -28.1392   22.8480 C   0  0  0  0  0  0
  -24.1492  -36.7261   23.2642 C   0  0  0  0  0  0
  -26.0006  -30.7245   21.3860 C   0  0  0  0  0  0
  -26.0728  -29.3373   20.7273 C   0  0  0  0  0  0
  -27.2369  -28.4820   20.7280 C   0  0  0  0  0  0
  -26.0152  -26.8096   19.4937 C   0  0  0  0  0  0
  -24.8787  -27.6448   19.4786 C   0  0  0  0  0  0
  -23.6712  -29.7962   20.1539 C   0  0  0  0  0  0
  -25.4122  -36.3038   24.0318 C   0  0  1  0  0  0
  -20.5917  -28.3717   23.1239 C   0  0  2  0  0  0
  -20.6789  -26.9422   22.5403 C   0  0  0  0  0  0
  -19.5760  -26.6380   21.5213 C   0  0  0  0  0  0
  -18.1944  -26.7931   22.1628 C   0  0  0  0  0  0
  -19.1562  -28.8873   23.2853 C   0  0  0  0  0  0
  -18.9477  -30.1469   23.8878 C   0  0  0  0  0  0
  -17.6473  -30.6589   24.0558 C   0  0  0  0  0  0
  -25.9071  -34.9412   23.5068 C   0  0  0  0  0  0
  -16.5365  -29.9082   23.6333 C   0  0  0  0  0  0
  -16.7289  -28.6500   23.0357 C   0  0  0  0  0  0
  -26.4522  -31.6564   25.0716 C   0  0  0  0  0  0
  -25.3712  -31.3749   26.1414 C   0  0  0  0  0  0
  -27.0385  -30.2963   24.6283 C   0  0  0  0  0  0
  -27.6053  -32.4328   25.7502 C   0  0  0  0  0  0
  -27.5575  -37.1788   24.8465 C   0  0  0  0  0  0
  -21.4255  -29.3048   22.3615 N   0  0  0  0  0  0
  -26.4286  -37.3749   23.9408 N   0  0  0  0  0  0
  -24.7158  -31.0325   22.0923 N   0  0  0  0  0  0
  -23.4210  -28.8096   23.3008 O   0  0  0  0  0  0
  -28.2796  -26.1752   20.2158 O   0  0  0  0  0  0
  -26.5655  -34.8906   22.4645 O   0  0  0  0  0  0
  -23.5543  -32.1325   23.7122 O   0  0  0  0  0  0
  -30.4979  -18.5502   20.3681 C   0  0  0  0  0  0
  -30.1918  -19.9876   20.3030 C   0  0  0  0  0  0
  -28.2013  -18.0915   20.6159 C   0  0  0  0  0  0
  -29.5058  -17.5125   20.5303 C   0  0  0  0  0  0
  -28.8604  -20.5427   20.3787 C   0  0  0  0  0  0
  -27.8953  -19.4982   20.5370 C   0  0  0  0  0  0
  -27.9814  -24.6559   20.0800 C   0  0  0  0  0  0
  -28.9666  -23.3090   20.3181 C   0  0  0  0  0  0
  -29.6181  -15.9877   20.6567 N   0  0  0  0  0  0
  -28.3436  -21.9122   20.2867 O   0  0  0  0  0  0
  -26.5907  -19.8568   20.6201 F   0  0  0  0  0  0
  -31.4867  -12.7370   19.1791 H   0  0  0  0  0  0
  -30.4561  -11.5962   19.9987 H   0  0  0  0  0  0
  -29.8377  -11.7454   17.5632 H   0  0  0  0  0  0
  -29.6191  -13.4710   17.7045 H   0  0  0  0  0  0
  -27.9424  -11.2750   18.9545 H   0  0  0  0  0  0
  -27.3955  -12.4747   17.8124 H   0  0  0  0  0  0
  -27.6160  -14.2467   19.4405 H   0  0  0  0  0  0
  -28.7608  -12.2155   21.4218 H   0  0  0  0  0  0
  -28.3869  -13.8773   21.7964 H   0  0  0  0  0  0
  -25.2769   -9.5672   22.4767 H   0  0  0  0  0  0
  -24.0000   -7.4629   22.7477 H   0  0  0  0  0  0
  -21.0844   -8.8784   19.8957 H   0  0  0  0  0  0
  -22.3712  -10.9678   19.6174 H   0  0  0  0  0  0
  -21.2010   -7.6149   23.9716 H   0  0  0  0  0  0
  -21.1480   -6.0523   25.9077 H   0  0  0  0  0  0
  -22.0597   -2.7608   23.2848 H   0  0  0  0  0  0
  -22.4083  -11.9878   22.4830 H   0  0  0  0  0  0
  -21.1084  -13.1242   22.2641 H   0  0  0  0  0  0
  -24.6295  -15.8261   20.4770 H   0  0  0  0  0  0
  -26.2182  -15.6066   19.9499 H   0  0  0  0  0  0
  -26.7265  -32.5316   23.1014 H   0  0  0  0  0  0
  -25.0077  -33.9626   25.0333 H   0  0  0  0  0  0
  -22.7472  -31.2910   21.3818 H   0  0  0  0  0  0
  -23.3757  -35.9590   23.3292 H   0  0  0  0  0  0
  -24.3578  -36.8903   22.2059 H   0  0  0  0  0  0
  -23.7245  -37.6454   23.6684 H   0  0  0  0  0  0
  -26.1536  -31.4794   20.6136 H   0  0  0  0  0  0
  -26.8721  -30.7754   22.0269 H   0  0  0  0  0  0
  -28.1335  -28.8156   21.2313 H   0  0  0  0  0  0
  -25.9102  -25.8553   19.0018 H   0  0  0  0  0  0
  -23.9801  -27.3016   18.9846 H   0  0  0  0  0  0
  -23.8070  -30.5716   19.3992 H   0  0  0  0  0  0
  -22.7864  -29.2380   19.8427 H   0  0  0  0  0  0
  -25.1309  -36.1869   25.0810 H   0  0  0  0  0  0
  -21.0010  -28.3306   24.1360 H   0  0  0  0  0  0
  -20.5685  -26.2330   23.3621 H   0  0  0  0  0  0
  -21.6654  -26.7429   22.1199 H   0  0  0  0  0  0
  -19.6921  -25.6286   21.1255 H   0  0  0  0  0  0
  -19.6694  -27.3179   20.6734 H   0  0  0  0  0  0
  -17.4210  -26.6673   21.4035 H   0  0  0  0  0  0
  -18.0346  -26.0078   22.9030 H   0  0  0  0  0  0
  -19.7952  -30.7291   24.2241 H   0  0  0  0  0  0
  -17.5025  -31.6268   24.5163 H   0  0  0  0  0  0
  -15.5364  -30.2977   23.7663 H   0  0  0  0  0  0
  -15.8691  -28.0808   22.7085 H   0  0  0  0  0  0
  -24.5894  -30.7094   25.7734 H   0  0  0  0  0  0
  -24.8898  -32.2930   26.4792 H   0  0  0  0  0  0
  -25.7998  -30.8952   27.0222 H   0  0  0  0  0  0
  -26.2998  -29.6690   24.1281 H   0  0  0  0  0  0
  -27.3997  -29.7256   25.4848 H   0  0  0  0  0  0
  -27.8906  -30.4204   23.9597 H   0  0  0  0  0  0
  -27.2645  -33.3646   26.2028 H   0  0  0  0  0  0
  -28.3892  -32.6860   25.0352 H   0  0  0  0  0  0
  -28.0689  -31.8488   26.5463 H   0  0  0  0  0  0
  -28.2585  -38.0091   24.7510 H   0  0  0  0  0  0
  -28.1079  -36.2622   24.6295 H   0  0  0  0  0  0
  -27.2293  -37.1437   25.8868 H   0  0  0  0  0  0
  -20.9461  -29.8768   21.6802 H   0  0  0  0  0  0
  -26.0155  -38.2818   24.1409 H   0  0  0  0  0  0
  -31.5349  -18.2525   20.2974 H   0  0  0  0  0  0
  -31.0171  -20.6732   20.1773 H   0  0  0  0  0  0
  -27.3590  -17.4297   20.7477 H   0  0  0  0  0  0
  -27.1214  -24.4889   20.7294 H   0  0  0  0  0  0
  -27.6025  -24.5258   19.0670 H   0  0  0  0  0  0
  -29.4518  -23.4117   21.2888 H   0  0  0  0  0  0
  -29.7707  -23.3307   19.5826 H   0  0  0  0  0  0
  -28.7268  -15.5824   20.8973 H   0  0  0  0  0  0
  1 25  1  0  0  0
  1 30  2  0  0  0
  1 79  1  0  0  0
  2  3  1  0  0  0
  2 25  1  0  0  0
  2 82  1  0  0  0
  2 83  1  0  0  0
  3  4  1  0  0  0
  3 84  1  0  0  0
  3 85  1  0  0  0
  4  5  1  0  0  0
  4 86  1  0  0  0
  4 87  1  0  0  0
  5  6  1  0  0  0
  5 26  1  0  0  0
  5 88  1  0  0  0
  6 25  1  0  0  0
  6 89  1  0  0  0
  6 90  1  0  0  0
  7  8  2  0  0  0
  7 26  1  0  0  0
  7 29  1  0  0  0
  8  9  1  0  0  0
  8 22  1  0  0  0
  9 10  1  0  0  0
  9 27  2  0  0  0
 10 11  2  0  0  0
 10 15  1  0  0  0
 11 12  1  0  0  0
 11 91  1  0  0  0
 12 13  2  0  0  0
 12 92  1  0  0  0
 13 14  1  0  0  0
 13 31  1  0  0  0
 14 15  2  0  0  0
 14 93  1  0  0  0
 15 94  1  0  0  0
 16 17  2  0  0  0
 16 21  1  0  0  0
 16 31  1  0  0  0
 17 18  1  0  0  0
 17 95  1  0  0  0
 18 19  2  0  0  0
 18 96  1  0  0  0
 19 20  1  0  0  0
 19 24  1  0  0  0
 20 21  2  0  0  0
 20 97  1  0  0  0
 21 23  1  0  0  0
 22 28  1  0  0  0
 22 32  2  0  0  0
 26 27  1  0  0  0
 28 98  1  0  0  0
 28 99  1  0  0  0
 29100  1  0  0  0
 29101  1  0  0  0
 33 34  1  0  0  0
 33 66  1  0  0  0
 33 70  2  0  0  0
 34 36  1  0  0  0
 34 59  1  0  0  0
 34102  1  0  0  0
 35 44  2  0  0  0
 35 45  1  0  0  0
 35 68  1  0  0  0
 36 56  1  0  0  0
 36103  1  0  0  0
 37 39  1  0  0  0
 37 47  1  0  0  0
 37 66  1  0  0  0
 37104  1  0  0  0
 38 43  2  0  0  0
 38 46  1  0  0  0
 38 47  1  0  0  0
 39 64  1  0  0  0
 39 67  2  0  0  0
 40 52  1  0  0  0
 40 53  2  0  0  0
 40 58  1  0  0  0
 41105  1  0  0  0
 41106  1  0  0  0
 41107  1  0  0  0
 41 48  1  0  0  0
 42 43  1  0  0  0
 42 66  1  0  0  0
 42108  1  0  0  0
 42109  1  0  0  0
 43 44  1  0  0  0
 44110  1  0  0  0
 45 46  2  0  0  0
 45111  1  0  0  0
 46112  1  0  0  0
 47113  1  0  0  0
 47114  1  0  0  0
 48 56  1  0  0  0
 48 65  1  0  0  0
 48115  1  0  0  0
 49 50  1  0  0  0
 49 53  1  0  0  0
 49 64  1  0  0  0
 49116  1  0  0  0
 50 51  1  0  0  0
 50117  1  0  0  0
 50118  1  0  0  0
 51 52  1  0  0  0
 51119  1  0  0  0
 51120  1  0  0  0
 52121  1  0  0  0
 52122  1  0  0  0
 53 54  1  0  0  0
 54 55  2  0  0  0
 54123  1  0  0  0
 55 57  1  0  0  0
 55124  1  0  0  0
 56 69  2  0  0  0
 57 58  2  0  0  0
 57125  1  0  0  0
 58126  1  0  0  0
 59 60  1  0  0  0
 59 61  1  0  0  0
 59 62  1  0  0  0
 60127  1  0  0  0
 60128  1  0  0  0
 60129  1  0  0  0
 61130  1  0  0  0
 61131  1  0  0  0
 61132  1  0  0  0
 62133  1  0  0  0
 62134  1  0  0  0
 62135  1  0  0  0
 63 65  1  0  0  0
 63136  1  0  0  0
 63137  1  0  0  0
 63138  1  0  0  0
 64139  1  0  0  0
 65140  1  0  0  0
 68 77  1  0  0  0
 71 72  2  0  0  0
 71 74  1  0  0  0
 71141  1  0  0  0
 72 75  1  0  0  0
 72142  1  0  0  0
 73 74  2  0  0  0
 73 76  1  0  0  0
 73143  1  0  0  0
 74 79  1  0  0  0
 75 76  2  0  0  0
 75 80  1  0  0  0
 76 81  1  0  0  0
 77 78  1  0  0  0
 77144  1  0  0  0
 77145  1  0  0  0
 78 80  1  0  0  0
 78146  1  0  0  0
 78147  1  0  0  0
 79148  1  0  0  0
M  ISO  4   1 100  68 101  77 101  79 100
M  END
> <chiral flag>
0

> <version>
0

> <s_m_source_file>
/data/baiqing/PycharmProjects/Reinvent-master-3.2/result/LINK_invent/BTK/process_docking_weight1_custom_product_contain_oxygen_bond_distance_aromatic_linkinvent_7_9_3/rearranged_h_0013.sdf

> <i_m_source_file_index>
25

> <r_mmod_Potential_Energy-OPLS-2005>
491.091247558594

> <r_mmod_Stretch_Energy-OPLS-2005>
216.953765869141

> <r_mmod_Bend_Energy-OPLS-2005>
302.484619140625

> <r_mmod_Torsional_Energy-OPLS-2005>
212.021713256836

> <r_mmod_Improper_Torsional_Energy-OPLS-2005>
4.76716709136963

> <r_mmod_Van_der_Waal_Energy-OPLS-2005>
130.573699951172

> <r_mmod_Electrostatic_Energy-OPLS-2005>
-337.487060546875

> <r_mmod_Solvation_Energy-OPLS-2005>
-212.451721191406

> <b_mmod_Minimization_Converged-OPLS-2005>
0

> <r_mmod_RMS_Derivative-OPLS-2005>
0.366873770952225

$$$$
26
                    3D
 Structure written by MMmdl.
156164  0  0  1  0            999 V2000
  -30.6976  -14.4687   20.5762 C   0  0  0  0  0  0
  -30.4254  -12.3046   19.4219 C   0  0  0  0  0  0
  -29.4951  -12.5048   18.2066 C   0  0  0  0  0  0
  -28.0161  -12.3661   18.6184 C   0  0  0  0  0  0
  -27.6648  -13.2040   19.8769 C   0  0  2  0  0  0
  -28.7053  -12.9747   20.9973 C   0  0  0  0  0  0
  -25.2610  -13.8158   20.5674 C   0  0  0  0  0  0
  -24.1849  -13.0444   20.9161 C   0  0  0  0  0  0
  -24.6396  -11.6905   20.8729 C   0  0  0  0  0  0
  -23.9061  -10.4294   21.0406 C   0  0  0  0  0  0
  -24.3615   -9.4211   21.9187 C   0  0  0  0  0  0
  -23.6291   -8.2247   22.0760 C   0  0  0  0  0  0
  -22.4276   -8.0284   21.3547 C   0  0  0  0  0  0
  -21.9906   -9.0256   20.4651 C   0  0  0  0  0  0
  -22.7232  -10.2136   20.3057 C   0  0  0  0  0  0
  -21.6851   -6.0741   22.5281 C   0  0  0  0  0  0
  -21.4011   -6.5642   23.8214 C   0  0  0  0  0  0
  -21.3657   -5.6795   24.9175 C   0  0  0  0  0  0
  -21.6044   -4.3059   24.7223 C   0  0  0  0  0  0
  -21.8819   -3.8152   23.4343 C   0  0  0  0  0  0
  -21.9191   -4.6971   22.3402 C   0  0  0  0  0  0
  -22.7873  -13.5248   21.1831 C   0  0  0  0  0  0
  -22.1661   -4.2157   21.0982 F   0  0  0  0  0  0
  -21.5628   -3.4543   25.7735 F   0  0  0  0  0  0
  -30.0405  -13.2819   20.4528 N   0  0  0  0  0  0
  -26.3043  -12.9317   20.3373 N   0  0  0  0  0  0
  -25.9323  -11.6479   20.5766 N   0  0  0  0  0  0
  -22.0512  -12.8241   22.0390 N   0  0  0  0  0  0
  -25.4355  -15.1871   20.4080 N   0  0  0  0  0  0
  -31.8078  -14.6681   20.0745 O   0  0  0  0  0  0
  -21.6637   -6.8883   21.4243 O   0  0  0  0  0  0
  -22.3559  -14.5558   20.6692 O   0  0  0  0  0  0
  -24.6151  -31.8664   23.2092 C   0  0  0  0  0  0
  -25.9046  -32.4816   23.8385 C   0  0  1  0  0  0
  -27.2400  -27.4261   20.0826 C   0  0  0  0  0  0
  -25.5906  -33.8614   24.2319 N   0  0  0  0  0  0
  -23.4033  -30.4908   21.5499 C   0  0  2  0  0  0
  -24.8493  -28.9536   20.1146 C   0  0  0  0  0  0
  -22.7415  -29.4650   22.4986 C   0  0  0  0  0  0
  -18.0269  -28.1376   22.8480 C   0  0  0  0  0  0
  -24.1487  -36.7311   23.2640 C   0  0  0  0  0  0
  -25.9330  -30.8270   21.3644 C   0  0  0  0  0  0
  -26.0082  -29.4592   20.7142 C   0  0  0  0  0  0
  -27.2008  -28.6980   20.7038 C   0  0  0  0  0  0
  -26.0539  -26.9311   19.4911 C   0  0  0  0  0  0
  -24.8665  -27.6872   19.5050 C   0  0  0  0  0  0
  -23.6124  -29.8235   20.1631 C   0  0  0  0  0  0
  -25.4107  -36.3107   24.0341 C   0  0  1  0  0  0
  -20.5862  -28.3659   23.1325 C   0  0  2  0  0  0
  -20.6757  -26.9398   22.5420 C   0  0  0  0  0  0
  -19.5743  -26.6384   21.5209 C   0  0  0  0  0  0
  -18.1918  -26.7920   22.1617 C   0  0  0  0  0  0
  -19.1519  -28.8832   23.2892 C   0  0  0  0  0  0
  -18.9454  -30.1435   23.8907 C   0  0  0  0  0  0
  -17.6460  -30.6581   24.0565 C   0  0  0  0  0  0
  -25.9045  -34.9474   23.5132 C   0  0  0  0  0  0
  -16.5347  -29.9087   23.6332 C   0  0  0  0  0  0
  -16.7258  -28.6507   23.0340 C   0  0  0  0  0  0
  -26.4477  -31.6592   25.0713 C   0  0  0  0  0  0
  -25.3748  -31.3699   26.1466 C   0  0  0  0  0  0
  -27.0299  -30.3041   24.6068 C   0  0  0  0  0  0
  -27.6048  -32.4312   25.7475 C   0  0  0  0  0  0
  -27.5581  -37.1805   24.8471 C   0  0  0  0  0  0
  -21.4142  -29.3027   22.3731 N   0  0  0  0  0  0
  -26.4293  -37.3793   23.9419 N   0  0  0  0  0  0
  -24.6688  -31.0761   22.0995 N   0  0  0  0  0  0
  -23.4183  -28.8191   23.3031 O   0  0  0  0  0  0
  -28.4274  -26.7134   20.0893 O   0  0  0  0  0  0
  -26.5600  -34.8925   22.4688 O   0  0  0  0  0  0
  -23.5346  -32.1417   23.7486 O   0  0  0  0  0  0
  -30.8657  -18.9547   20.0684 C   0  0  0  0  0  0
  -30.8335  -17.5411   20.1028 C   0  0  0  0  0  0
  -29.4843  -19.0396   22.0620 C   0  0  0  0  0  0
  -30.2004  -19.7219   21.0523 C   0  0  0  0  0  0
  -30.1320  -16.8586   21.1288 C   0  0  0  0  0  0
  -29.4467  -17.6272   22.0948 C   0  0  0  0  0  0
  -30.3280  -21.2539   21.0742 C   0  0  0  0  0  0
  -28.2912  -24.2262   19.5931 C   0  0  0  0  0  0
  -29.4553  -23.4566   20.2789 C   0  0  0  0  0  0
  -28.6366  -25.6692   19.1229 C   0  0  0  0  0  0
  -30.0178  -15.4337   21.2231 N   0  0  0  0  0  0
  -29.2389  -21.9820   20.3752 N   0  3  0  0  0  0
  -28.7500  -16.9977   23.0727 F   0  0  0  0  0  0
  -31.4696  -12.4036   19.1203 H   0  0  0  0  0  0
  -30.3271  -11.2920   19.8154 H   0  0  0  0  0  0
  -29.7328  -11.7783   17.4281 H   0  0  0  0  0  0
  -29.6643  -13.4894   17.7670 H   0  0  0  0  0  0
  -27.8242  -11.3096   18.8115 H   0  0  0  0  0  0
  -27.3661  -12.6436   17.7879 H   0  0  0  0  0  0
  -27.7132  -14.2538   19.5855 H   0  0  0  0  0  0
  -28.6805  -11.9350   21.3266 H   0  0  0  0  0  0
  -28.4596  -13.5619   21.8834 H   0  0  0  0  0  0
  -25.2764   -9.5684   22.4757 H   0  0  0  0  0  0
  -24.0002   -7.4635   22.7478 H   0  0  0  0  0  0
  -21.0837   -8.8770   19.8954 H   0  0  0  0  0  0
  -22.3694  -10.9674   19.6162 H   0  0  0  0  0  0
  -21.2004   -7.6150   23.9716 H   0  0  0  0  0  0
  -21.1479   -6.0529   25.9078 H   0  0  0  0  0  0
  -22.0600   -2.7613   23.2842 H   0  0  0  0  0  0
  -22.4117  -11.9890   22.4762 H   0  0  0  0  0  0
  -21.1137  -13.1276   22.2612 H   0  0  0  0  0  0
  -24.6741  -15.8480   20.5183 H   0  0  0  0  0  0
  -26.2991  -15.6233   20.1109 H   0  0  0  0  0  0
  -26.7112  -32.5531   23.1142 H   0  0  0  0  0  0
  -25.0065  -33.9768   25.0466 H   0  0  0  0  0  0
  -22.6928  -31.3078   21.4098 H   0  0  0  0  0  0
  -23.3747  -35.9647   23.3314 H   0  0  0  0  0  0
  -24.3582  -36.8918   22.2053 H   0  0  0  0  0  0
  -23.7243  -37.6521   23.6644 H   0  0  0  0  0  0
  -26.0446  -31.5912   20.5936 H   0  0  0  0  0  0
  -26.8216  -30.8833   21.9809 H   0  0  0  0  0  0
  -28.0975  -29.0872   21.1657 H   0  0  0  0  0  0
  -26.0240  -25.9590   19.0210 H   0  0  0  0  0  0
  -23.9735  -27.2882   19.0436 H   0  0  0  0  0  0
  -23.7235  -30.5999   19.4056 H   0  0  0  0  0  0
  -22.7353  -29.2471   19.8643 H   0  0  0  0  0  0
  -25.1279  -36.1974   25.0833 H   0  0  0  0  0  0
  -20.9932  -28.3217   24.1455 H   0  0  0  0  0  0
  -20.5673  -26.2259   23.3598 H   0  0  0  0  0  0
  -21.6626  -26.7448   22.1206 H   0  0  0  0  0  0
  -19.6915  -25.6300   21.1226 H   0  0  0  0  0  0
  -19.6693  -27.3202   20.6745 H   0  0  0  0  0  0
  -17.4186  -26.6667   21.4019 H   0  0  0  0  0  0
  -18.0318  -26.0061   22.9015 H   0  0  0  0  0  0
  -19.7934  -30.7237   24.2286 H   0  0  0  0  0  0
  -17.5023  -31.6269   24.5150 H   0  0  0  0  0  0
  -15.5349  -30.2995   23.7654 H   0  0  0  0  0  0
  -15.8654  -28.0838   22.7044 H   0  0  0  0  0  0
  -24.5928  -30.7036   25.7821 H   0  0  0  0  0  0
  -24.8922  -32.2847   26.4914 H   0  0  0  0  0  0
  -25.8107  -30.8883   27.0226 H   0  0  0  0  0  0
  -26.2823  -29.6812   24.1146 H   0  0  0  0  0  0
  -27.4119  -29.7275   25.4503 H   0  0  0  0  0  0
  -27.8642  -30.4381   23.9176 H   0  0  0  0  0  0
  -27.2664  -33.3609   26.2063 H   0  0  0  0  0  0
  -28.3847  -32.6877   25.0296 H   0  0  0  0  0  0
  -28.0718  -31.8429   26.5384 H   0  0  0  0  0  0
  -28.2594  -38.0102   24.7506 H   0  0  0  0  0  0
  -28.1071  -36.2630   24.6295 H   0  0  0  0  0  0
  -27.2298  -37.1461   25.8873 H   0  0  0  0  0  0
  -20.9297  -29.8770   21.6975 H   0  0  0  0  0  0
  -26.0188  -38.2876   24.1415 H   0  0  0  0  0  0
  -31.4281  -19.4456   19.2856 H   0  0  0  0  0  0
  -31.3541  -16.9984   19.3260 H   0  0  0  0  0  0
  -28.9718  -19.5928   22.8352 H   0  0  0  0  0  0
  -31.2844  -21.5247   20.6250 H   0  0  0  0  0  0
  -30.3763  -21.5920   22.1102 H   0  0  0  0  0  0
  -27.4086  -24.2396   20.2323 H   0  0  0  0  0  0
  -28.0025  -23.6640   18.7040 H   0  0  0  0  0  0
  -29.6237  -23.8679   21.2747 H   0  0  0  0  0  0
  -30.3758  -23.6216   19.7169 H   0  0  0  0  0  0
  -28.1038  -25.8965   18.1985 H   0  0  0  0  0  0
  -29.6868  -25.7077   18.8327 H   0  0  0  0  0  0
  -29.2286  -15.1135   21.7634 H   0  0  0  0  0  0
  -28.3742  -21.7977   20.8567 H   0  0  0  0  0  0
  -29.1643  -21.6011   19.4466 H   0  0  0  0  0  0
  1 25  1  0  0  0
  1 30  2  0  0  0
  1 81  1  0  0  0
  2  3  1  0  0  0
  2 25  1  0  0  0
  2 84  1  0  0  0
  2 85  1  0  0  0
  3  4  1  0  0  0
  3 86  1  0  0  0
  3 87  1  0  0  0
  4  5  1  0  0  0
  4 88  1  0  0  0
  4 89  1  0  0  0
  5  6  1  0  0  0
  5 26  1  0  0  0
  5 90  1  0  0  0
  6 25  1  0  0  0
  6 91  1  0  0  0
  6 92  1  0  0  0
  7  8  2  0  0  0
  7 26  1  0  0  0
  7 29  1  0  0  0
  8  9  1  0  0  0
  8 22  1  0  0  0
  9 10  1  0  0  0
  9 27  2  0  0  0
 10 11  2  0  0  0
 10 15  1  0  0  0
 11 12  1  0  0  0
 11 93  1  0  0  0
 12 13  2  0  0  0
 12 94  1  0  0  0
 13 14  1  0  0  0
 13 31  1  0  0  0
 14 15  2  0  0  0
 14 95  1  0  0  0
 15 96  1  0  0  0
 16 17  2  0  0  0
 16 21  1  0  0  0
 16 31  1  0  0  0
 17 18  1  0  0  0
 17 97  1  0  0  0
 18 19  2  0  0  0
 18 98  1  0  0  0
 19 20  1  0  0  0
 19 24  1  0  0  0
 20 21  2  0  0  0
 20 99  1  0  0  0
 21 23  1  0  0  0
 22 28  1  0  0  0
 22 32  2  0  0  0
 26 27  1  0  0  0
 28100  1  0  0  0
 28101  1  0  0  0
 29102  1  0  0  0
 29103  1  0  0  0
 33 34  1  0  0  0
 33 66  1  0  0  0
 33 70  2  0  0  0
 34 36  1  0  0  0
 34 59  1  0  0  0
 34104  1  0  0  0
 35 44  2  0  0  0
 35 45  1  0  0  0
 35 68  1  0  0  0
 36 56  1  0  0  0
 36105  1  0  0  0
 37 39  1  0  0  0
 37 47  1  0  0  0
 37 66  1  0  0  0
 37106  1  0  0  0
 38 43  2  0  0  0
 38 46  1  0  0  0
 38 47  1  0  0  0
 39 64  1  0  0  0
 39 67  2  0  0  0
 40 52  1  0  0  0
 40 53  2  0  0  0
 40 58  1  0  0  0
 41107  1  0  0  0
 41108  1  0  0  0
 41109  1  0  0  0
 41 48  1  0  0  0
 42 43  1  0  0  0
 42 66  1  0  0  0
 42110  1  0  0  0
 42111  1  0  0  0
 43 44  1  0  0  0
 44112  1  0  0  0
 45 46  2  0  0  0
 45113  1  0  0  0
 46114  1  0  0  0
 47115  1  0  0  0
 47116  1  0  0  0
 48 56  1  0  0  0
 48 65  1  0  0  0
 48117  1  0  0  0
 49 50  1  0  0  0
 49 53  1  0  0  0
 49 64  1  0  0  0
 49118  1  0  0  0
 50 51  1  0  0  0
 50119  1  0  0  0
 50120  1  0  0  0
 51 52  1  0  0  0
 51121  1  0  0  0
 51122  1  0  0  0
 52123  1  0  0  0
 52124  1  0  0  0
 53 54  1  0  0  0
 54 55  2  0  0  0
 54125  1  0  0  0
 55 57  1  0  0  0
 55126  1  0  0  0
 56 69  2  0  0  0
 57 58  2  0  0  0
 57127  1  0  0  0
 58128  1  0  0  0
 59 60  1  0  0  0
 59 61  1  0  0  0
 59 62  1  0  0  0
 60129  1  0  0  0
 60130  1  0  0  0
 60131  1  0  0  0
 61132  1  0  0  0
 61133  1  0  0  0
 61134  1  0  0  0
 62135  1  0  0  0
 62136  1  0  0  0
 62137  1  0  0  0
 63 65  1  0  0  0
 63138  1  0  0  0
 63139  1  0  0  0
 63140  1  0  0  0
 64141  1  0  0  0
 65142  1  0  0  0
 68 80  1  0  0  0
 71 72  2  0  0  0
 71 74  1  0  0  0
 71143  1  0  0  0
 72 75  1  0  0  0
 72144  1  0  0  0
 73 74  2  0  0  0
 73 76  1  0  0  0
 73145  1  0  0  0
 74 77  1  0  0  0
 75 76  2  0  0  0
 75 81  1  0  0  0
 76 83  1  0  0  0
 77 82  1  0  0  0
 77146  1  0  0  0
 77147  1  0  0  0
 78 79  1  0  0  0
 78 80  1  0  0  0
 78148  1  0  0  0
 78149  1  0  0  0
 79 82  1  0  0  0
 79150  1  0  0  0
 79151  1  0  0  0
 80152  1  0  0  0
 80153  1  0  0  0
 81154  1  0  0  0
 82155  1  0  0  0
 82156  1  0  0  0
M  CHG  1  82   1
M  ISO  4   1 100  68 101  80 101  81 100
M  END
> <chiral flag>
0

> <version>
0

> <s_m_source_file>
/data/baiqing/PycharmProjects/Reinvent-master-3.2/result/LINK_invent/BTK/process_docking_weight1_custom_product_contain_oxygen_bond_distance_aromatic_linkinvent_7_9_3/rearranged_h_0013.sdf

> <i_m_source_file_index>
26

> <r_mmod_Potential_Energy-OPLS-2005>
-298.080963134766

> <r_mmod_Stretch_Energy-OPLS-2005>
39.4371528625488

> <r_mmod_Bend_Energy-OPLS-2005>
104.131439208984

> <r_mmod_Torsional_Energy-OPLS-2005>
204.315719604492

> <r_mmod_Improper_Torsional_Energy-OPLS-2005>
2.72925519943237

> <r_mmod_Van_der_Waal_Energy-OPLS-2005>
152.663070678711

> <r_mmod_Electrostatic_Energy-OPLS-2005>
-332.007598876953

> <r_mmod_Solvation_Energy-OPLS-2005>
-481.441467285156

> <b_mmod_Minimization_Converged-OPLS-2005>
0

> <r_mmod_RMS_Derivative-OPLS-2005>
1.26993775367737

$$$$
27
                    3D
 Structure written by MMmdl.
159167  0  0  1  0            999 V2000
  -30.6439  -14.6983   20.3215 C   0  0  0  0  0  0
  -30.4490  -12.3681   19.4976 C   0  0  0  0  0  0
  -29.5333  -12.3300   18.2560 C   0  0  0  0  0  0
  -28.0318  -12.3293   18.6387 C   0  0  0  0  0  0
  -27.6461  -13.2333   19.8469 C   0  0  2  0  0  0
  -28.7047  -13.1956   20.9684 C   0  0  0  0  0  0
  -25.2481  -13.8108   20.5669 C   0  0  0  0  0  0
  -24.1773  -13.0348   20.9154 C   0  0  0  0  0  0
  -24.6415  -11.6861   20.8753 C   0  0  0  0  0  0
  -23.9129  -10.4231   21.0437 C   0  0  0  0  0  0
  -24.3672   -9.4141   21.9209 C   0  0  0  0  0  0
  -23.6293   -8.2203   22.0766 C   0  0  0  0  0  0
  -22.4270   -8.0287   21.3544 C   0  0  0  0  0  0
  -21.9936   -9.0289   20.4655 C   0  0  0  0  0  0
  -22.7321  -10.2121   20.3067 C   0  0  0  0  0  0
  -21.6846   -6.0728   22.5266 C   0  0  0  0  0  0
  -21.4035   -6.5630   23.8207 C   0  0  0  0  0  0
  -21.3651   -5.6767   24.9150 C   0  0  0  0  0  0
  -21.6043   -4.3030   24.7193 C   0  0  0  0  0  0
  -21.8840   -3.8136   23.4316 C   0  0  0  0  0  0
  -21.9196   -4.6963   22.3382 C   0  0  0  0  0  0
  -22.7814  -13.5169   21.1814 C   0  0  0  0  0  0
  -22.1659   -4.2170   21.0962 F   0  0  0  0  0  0
  -21.5619   -3.4511   25.7708 F   0  0  0  0  0  0
  -30.0024  -13.4858   20.3460 N   0  0  0  0  0  0
  -26.2991  -12.9371   20.3339 N   0  0  0  0  0  0
  -25.9373  -11.6510   20.5832 N   0  0  0  0  0  0
  -22.0472  -12.8201   22.0418 N   0  0  0  0  0  0
  -25.4025  -15.1804   20.4138 N   0  0  0  0  0  0
  -31.8741  -14.7523   20.2765 O   0  0  0  0  0  0
  -21.6608   -6.8899   21.4248 O   0  0  0  0  0  0
  -22.3522  -14.5495   20.6696 O   0  0  0  0  0  0
  -24.6248  -31.8592   23.1999 C   0  0  0  0  0  0
  -25.9083  -32.4796   23.8332 C   0  0  1  0  0  0
  -27.2367  -27.3208   20.1289 C   0  0  0  0  0  0
  -25.5904  -33.8598   24.2280 N   0  0  0  0  0  0
  -23.4203  -30.4793   21.5421 C   0  0  2  0  0  0
  -24.8716  -28.9253   20.1187 C   0  0  0  0  0  0
  -22.7467  -29.4616   22.4930 C   0  0  0  0  0  0
  -18.0289  -28.1380   22.8489 C   0  0  0  0  0  0
  -24.1475  -36.7275   23.2644 C   0  0  0  0  0  0
  -25.9585  -30.7918   21.3669 C   0  0  0  0  0  0
  -26.0378  -29.4159   20.7163 C   0  0  0  0  0  0
  -27.2251  -28.6296   20.7045 C   0  0  0  0  0  0
  -26.0501  -26.8777   19.5064 C   0  0  0  0  0  0
  -24.8785  -27.6609   19.5070 C   0  0  0  0  0  0
  -23.6378  -29.8057   20.1598 C   0  0  0  0  0  0
  -25.4115  -36.3108   24.0343 C   0  0  1  0  0  0
  -20.5878  -28.3674   23.1287 C   0  0  2  0  0  0
  -20.6753  -26.9395   22.5411 C   0  0  0  0  0  0
  -19.5744  -26.6379   21.5198 C   0  0  0  0  0  0
  -18.1927  -26.7933   22.1615 C   0  0  0  0  0  0
  -19.1537  -28.8849   23.2880 C   0  0  0  0  0  0
  -18.9465  -30.1445   23.8901 C   0  0  0  0  0  0
  -17.6463  -30.6586   24.0564 C   0  0  0  0  0  0
  -25.9048  -34.9474   23.5125 C   0  0  0  0  0  0
  -16.5352  -29.9093   23.6335 C   0  0  0  0  0  0
  -16.7274  -28.6496   23.0367 C   0  0  0  0  0  0
  -26.4469  -31.6614   25.0706 C   0  0  0  0  0  0
  -25.3725  -31.3768   26.1456 C   0  0  0  0  0  0
  -27.0320  -30.3071   24.6126 C   0  0  0  0  0  0
  -27.6027  -32.4356   25.7483 C   0  0  0  0  0  0
  -27.5581  -37.1796   24.8479 C   0  0  0  0  0  0
  -21.4166  -29.3046   22.3681 N   0  0  0  0  0  0
  -26.4289  -37.3801   23.9427 N   0  0  0  0  0  0
  -24.6879  -31.0582   22.0954 N   0  0  0  0  0  0
  -23.4196  -28.8175   23.3023 O   0  0  0  0  0  0
  -28.3746  -26.5025   20.1278 O   0  0  0  0  0  0
  -26.5588  -34.8926   22.4678 O   0  0  0  0  0  0
  -23.5406  -32.1390   23.7310 O   0  0  0  0  0  0
  -30.4118  -19.5088   19.7729 C   0  0  0  0  0  0
  -30.7403  -18.1162   19.7850 C   0  0  0  0  0  0
  -28.1849  -18.9729   20.5007 C   0  0  0  0  0  0
  -29.1095  -19.9770   20.0988 C   0  0  0  0  0  0
  -29.7889  -17.1150   20.1290 C   0  0  0  0  0  0
  -28.5136  -17.5871   20.5233 C   0  0  0  0  0  0
  -29.8961  -15.6326   18.2391 C   0  0  0  0  0  0
  -29.7182  -22.5609   21.8471 C   0  0  0  0  0  0
  -28.6235  -21.4661   19.8801 C   0  0  0  0  0  0
  -29.1912  -24.0300   19.8240 C   0  0  0  0  0  0
  -28.2557  -25.0871   20.5646 C   0  0  0  0  0  0
  -29.9383  -15.7222   19.7102 N   0  0  0  0  0  0
  -29.4547  -22.6244   20.3916 N   0  3  1  0  0  0
  -27.5554  -16.6830   20.8201 F   0  0  0  0  0  0
  -31.4973  -12.4633   19.2049 H   0  0  0  0  0  0
  -30.3768  -11.4319   20.0524 H   0  0  0  0  0  0
  -29.7496  -11.4145   17.7018 H   0  0  0  0  0  0
  -29.7800  -13.1288   17.5648 H   0  0  0  0  0  0
  -27.7798  -11.2944   18.8710 H   0  0  0  0  0  0
  -27.4273  -12.5948   17.7706 H   0  0  0  0  0  0
  -27.6206  -14.2569   19.4793 H   0  0  0  0  0  0
  -28.7244  -12.2219   21.4607 H   0  0  0  0  0  0
  -28.4760  -13.9399   21.7344 H   0  0  0  0  0  0
  -25.2833   -9.5570   22.4779 H   0  0  0  0  0  0
  -23.9991   -7.4568   22.7475 H   0  0  0  0  0  0
  -21.0856   -8.8866   19.8953 H   0  0  0  0  0  0
  -22.3850  -10.9692   19.6178 H   0  0  0  0  0  0
  -21.2067   -7.6133   23.9748 H   0  0  0  0  0  0
  -21.1443   -6.0455   25.9064 H   0  0  0  0  0  0
  -22.0641   -2.7609   23.2787 H   0  0  0  0  0  0
  -22.4022  -11.9835   22.4795 H   0  0  0  0  0  0
  -21.1176  -13.1372   22.2741 H   0  0  0  0  0  0
  -24.6558  -15.8368   20.6097 H   0  0  0  0  0  0
  -26.3129  -15.6318   20.3602 H   0  0  0  0  0  0
  -26.7133  -32.5440   23.1044 H   0  0  0  0  0  0
  -25.0120  -33.9752   25.0476 H   0  0  0  0  0  0
  -22.7141  -31.3003   21.3950 H   0  0  0  0  0  0
  -23.3769  -35.9574   23.3344 H   0  0  0  0  0  0
  -24.3548  -36.8850   22.2046 H   0  0  0  0  0  0
  -23.7191  -37.6475   23.6635 H   0  0  0  0  0  0
  -26.0793  -31.5528   20.5952 H   0  0  0  0  0  0
  -26.8405  -30.8493   21.9920 H   0  0  0  0  0  0
  -28.1263  -29.0183   21.1561 H   0  0  0  0  0  0
  -26.0194  -25.9185   19.0099 H   0  0  0  0  0  0
  -23.9835  -27.2844   19.0324 H   0  0  0  0  0  0
  -23.7583  -30.5789   19.4014 H   0  0  0  0  0  0
  -22.7587  -29.2348   19.8567 H   0  0  0  0  0  0
  -25.1299  -36.1967   25.0836 H   0  0  0  0  0  0
  -20.9961  -28.3232   24.1415 H   0  0  0  0  0  0
  -20.5620  -26.2287   23.3606 H   0  0  0  0  0  0
  -21.6630  -26.7401   22.1238 H   0  0  0  0  0  0
  -19.6900  -25.6294   21.1238 H   0  0  0  0  0  0
  -19.6699  -27.3169   20.6716 H   0  0  0  0  0  0
  -17.4197  -26.6668   21.4019 H   0  0  0  0  0  0
  -18.0336  -26.0061   22.9001 H   0  0  0  0  0  0
  -19.7930  -30.7248   24.2264 H   0  0  0  0  0  0
  -17.5031  -31.6281   24.5156 H   0  0  0  0  0  0
  -15.5354  -30.3005   23.7659 H   0  0  0  0  0  0
  -15.8659  -28.0815   22.7100 H   0  0  0  0  0  0
  -24.5864  -30.7142   25.7803 H   0  0  0  0  0  0
  -24.8939  -32.2947   26.4894 H   0  0  0  0  0  0
  -25.8053  -30.8942   27.0231 H   0  0  0  0  0  0
  -26.2881  -29.6840   24.1144 H   0  0  0  0  0  0
  -27.4067  -29.7304   25.4587 H   0  0  0  0  0  0
  -27.8730  -30.4432   23.9325 H   0  0  0  0  0  0
  -27.2636  -33.3662   26.2053 H   0  0  0  0  0  0
  -28.3836  -32.6913   25.0311 H   0  0  0  0  0  0
  -28.0698  -31.8494   26.5400 H   0  0  0  0  0  0
  -28.2636  -38.0065   24.7518 H   0  0  0  0  0  0
  -28.1035  -36.2593   24.6326 H   0  0  0  0  0  0
  -27.2275  -37.1464   25.8875 H   0  0  0  0  0  0
  -20.9322  -29.8798   21.6908 H   0  0  0  0  0  0
  -26.0189  -38.2883   24.1426 H   0  0  0  0  0  0
  -31.1591  -20.2129   19.4340 H   0  0  0  0  0  0
  -31.7113  -17.8075   19.4208 H   0  0  0  0  0  0
  -27.1621  -19.2517   20.7151 H   0  0  0  0  0  0
  -29.7806  -16.6032   17.7509 H   0  0  0  0  0  0
  -29.0261  -15.0600   17.9331 H   0  0  0  0  0  0
  -30.7950  -15.1722   17.8154 H   0  0  0  0  0  0
  -30.3964  -23.3561   22.1610 H   0  0  0  0  0  0
  -30.1952  -21.6163   22.1139 H   0  0  0  0  0  0
  -28.7994  -22.6383   22.4245 H   0  0  0  0  0  0
  -27.6320  -21.5649   20.3266 H   0  0  0  0  0  0
  -28.4749  -21.5952   18.8060 H   0  0  0  0  0  0
  -30.1775  -24.4938   19.7717 H   0  0  0  0  0  0
  -28.8742  -23.9406   18.7856 H   0  0  0  0  0  0
  -28.5050  -25.0906   21.6269 H   0  0  0  0  0  0
  -27.2249  -24.7386   20.5178 H   0  0  0  0  0  0
  -30.3588  -22.4202   19.9925 H   0  0  0  0  0  0
  1 25  1  0  0  0
  1 30  2  0  0  0
  1 82  1  0  0  0
  2  3  1  0  0  0
  2 25  1  0  0  0
  2 85  1  0  0  0
  2 86  1  0  0  0
  3  4  1  0  0  0
  3 87  1  0  0  0
  3 88  1  0  0  0
  4  5  1  0  0  0
  4 89  1  0  0  0
  4 90  1  0  0  0
  5  6  1  0  0  0
  5 26  1  0  0  0
  5 91  1  0  0  0
  6 25  1  0  0  0
  6 92  1  0  0  0
  6 93  1  0  0  0
  7  8  2  0  0  0
  7 26  1  0  0  0
  7 29  1  0  0  0
  8  9  1  0  0  0
  8 22  1  0  0  0
  9 10  1  0  0  0
  9 27  2  0  0  0
 10 11  2  0  0  0
 10 15  1  0  0  0
 11 12  1  0  0  0
 11 94  1  0  0  0
 12 13  2  0  0  0
 12 95  1  0  0  0
 13 14  1  0  0  0
 13 31  1  0  0  0
 14 15  2  0  0  0
 14 96  1  0  0  0
 15 97  1  0  0  0
 16 17  2  0  0  0
 16 21  1  0  0  0
 16 31  1  0  0  0
 17 18  1  0  0  0
 17 98  1  0  0  0
 18 19  2  0  0  0
 18 99  1  0  0  0
 19 20  1  0  0  0
 19 24  1  0  0  0
 20 21  2  0  0  0
 20100  1  0  0  0
 21 23  1  0  0  0
 22 28  1  0  0  0
 22 32  2  0  0  0
 26 27  1  0  0  0
 28101  1  0  0  0
 28102  1  0  0  0
 29103  1  0  0  0
 29104  1  0  0  0
 33 34  1  0  0  0
 33 66  1  0  0  0
 33 70  2  0  0  0
 34 36  1  0  0  0
 34 59  1  0  0  0
 34105  1  0  0  0
 35 44  2  0  0  0
 35 45  1  0  0  0
 35 68  1  0  0  0
 36 56  1  0  0  0
 36106  1  0  0  0
 37 39  1  0  0  0
 37 47  1  0  0  0
 37 66  1  0  0  0
 37107  1  0  0  0
 38 43  2  0  0  0
 38 46  1  0  0  0
 38 47  1  0  0  0
 39 64  1  0  0  0
 39 67  2  0  0  0
 40 52  1  0  0  0
 40 53  2  0  0  0
 40 58  1  0  0  0
 41108  1  0  0  0
 41109  1  0  0  0
 41110  1  0  0  0
 41 48  1  0  0  0
 42 43  1  0  0  0
 42 66  1  0  0  0
 42111  1  0  0  0
 42112  1  0  0  0
 43 44  1  0  0  0
 44113  1  0  0  0
 45 46  2  0  0  0
 45114  1  0  0  0
 46115  1  0  0  0
 47116  1  0  0  0
 47117  1  0  0  0
 48 56  1  0  0  0
 48 65  1  0  0  0
 48118  1  0  0  0
 49 50  1  0  0  0
 49 53  1  0  0  0
 49 64  1  0  0  0
 49119  1  0  0  0
 50 51  1  0  0  0
 50120  1  0  0  0
 50121  1  0  0  0
 51 52  1  0  0  0
 51122  1  0  0  0
 51123  1  0  0  0
 52124  1  0  0  0
 52125  1  0  0  0
 53 54  1  0  0  0
 54 55  2  0  0  0
 54126  1  0  0  0
 55 57  1  0  0  0
 55127  1  0  0  0
 56 69  2  0  0  0
 57 58  2  0  0  0
 57128  1  0  0  0
 58129  1  0  0  0
 59 60  1  0  0  0
 59 61  1  0  0  0
 59 62  1  0  0  0
 60130  1  0  0  0
 60131  1  0  0  0
 60132  1  0  0  0
 61133  1  0  0  0
 61134  1  0  0  0
 61135  1  0  0  0
 62136  1  0  0  0
 62137  1  0  0  0
 62138  1  0  0  0
 63 65  1  0  0  0
 63139  1  0  0  0
 63140  1  0  0  0
 63141  1  0  0  0
 64142  1  0  0  0
 65143  1  0  0  0
 68 81  1  0  0  0
 71 72  2  0  0  0
 71 74  1  0  0  0
 71144  1  0  0  0
 72 75  1  0  0  0
 72145  1  0  0  0
 73 74  2  0  0  0
 73 76  1  0  0  0
 73146  1  0  0  0
 74 79  1  0  0  0
 75 76  2  0  0  0
 75 82  1  0  0  0
 76 84  1  0  0  0
 77 82  1  0  0  0
 77147  1  0  0  0
 77148  1  0  0  0
 77149  1  0  0  0
 78150  1  0  0  0
 78151  1  0  0  0
 78152  1  0  0  0
 78 83  1  0  0  0
 79 83  1  0  0  0
 79153  1  0  0  0
 79154  1  0  0  0
 80 81  1  0  0  0
 80 83  1  0  0  0
 80155  1  0  0  0
 80156  1  0  0  0
 81157  1  0  0  0
 81158  1  0  0  0
 83159  1  0  0  0
M  CHG  1  83   1
M  ISO  4   1 100  68 101  81 101  82 100
M  END
> <chiral flag>
0

> <version>
0

> <s_m_source_file>
/data/baiqing/PycharmProjects/Reinvent-master-3.2/result/LINK_invent/BTK/process_docking_weight1_custom_product_contain_oxygen_bond_distance_aromatic_linkinvent_7_9_3/rearranged_h_0013.sdf

> <i_m_source_file_index>
27

> <r_mmod_Potential_Energy-OPLS-2005>
230.53303527832

> <r_mmod_Stretch_Energy-OPLS-2005>
84.54736328125

> <r_mmod_Bend_Energy-OPLS-2005>
159.581939697266

> <r_mmod_Torsional_Energy-OPLS-2005>
366.066314697266

> <r_mmod_Improper_Torsional_Energy-OPLS-2005>
30.8203220367432

> <r_mmod_Van_der_Waal_Energy-OPLS-2005>
143.410415649414

> <r_mmod_Electrostatic_Energy-OPLS-2005>
-200.468154907227

> <r_mmod_Solvation_Energy-OPLS-2005>
-429.877899169922

> <b_mmod_Minimization_Converged-OPLS-2005>
0

> <r_mmod_RMS_Derivative-OPLS-2005>
5.1576886177063

$$$$
28
                    3D
 Structure written by MMmdl.
148156  0  0  1  0            999 V2000
  -30.5214  -14.9152   20.4322 C   0  0  0  0  0  0
  -30.4560  -12.5613   19.4932 C   0  0  0  0  0  0
  -29.5263  -12.5225   18.2560 C   0  0  0  0  0  0
  -28.0560  -12.3176   18.6734 C   0  0  0  0  0  0
  -27.6385  -13.2396   19.8491 C   0  0  2  0  0  0
  -28.6855  -13.2218   20.9846 C   0  0  0  0  0  0
  -25.2459  -13.8158   20.5697 C   0  0  0  0  0  0
  -24.1765  -13.0390   20.9179 C   0  0  0  0  0  0
  -24.6393  -11.6885   20.8728 C   0  0  0  0  0  0
  -23.9070  -10.4267   21.0393 C   0  0  0  0  0  0
  -24.3618   -9.4189   21.9177 C   0  0  0  0  0  0
  -23.6287   -8.2227   22.0750 C   0  0  0  0  0  0
  -22.4268   -8.0269   21.3541 C   0  0  0  0  0  0
  -21.9903   -9.0243   20.4647 C   0  0  0  0  0  0
  -22.7235  -10.2117   20.3050 C   0  0  0  0  0  0
  -21.6852   -6.0726   22.5279 C   0  0  0  0  0  0
  -21.4012   -6.5629   23.8210 C   0  0  0  0  0  0
  -21.3659   -5.6784   24.9173 C   0  0  0  0  0  0
  -21.6046   -4.3046   24.7225 C   0  0  0  0  0  0
  -21.8819   -3.8139   23.4345 C   0  0  0  0  0  0
  -21.9194   -4.6956   22.3402 C   0  0  0  0  0  0
  -22.7791  -13.5179   21.1863 C   0  0  0  0  0  0
  -22.1663   -4.2144   21.0979 F   0  0  0  0  0  0
  -21.5632   -3.4530   25.7737 F   0  0  0  0  0  0
  -29.9702  -13.6372   20.3996 N   0  0  0  0  0  0
  -26.2930  -12.9409   20.3303 N   0  0  0  0  0  0
  -25.9337  -11.6539   20.5759 N   0  0  0  0  0  0
  -22.0457  -12.8183   22.0447 N   0  0  0  0  0  0
  -25.4009  -15.1882   20.4184 N   0  0  0  0  0  0
  -31.7098  -15.0488   20.1197 O   0  0  0  0  0  0
  -21.6633   -6.8868   21.4238 O   0  0  0  0  0  0
  -22.3464  -14.5487   20.6720 O   0  0  0  0  0  0
  -24.6417  -31.8452   23.1899 C   0  0  0  0  0  0
  -25.9199  -32.4701   23.8276 C   0  0  1  0  0  0
  -27.2222  -27.1526   20.1448 C   0  0  0  0  0  0
  -25.5963  -33.8506   24.2202 N   0  0  0  0  0  0
  -23.4442  -30.4662   21.5348 C   0  0  2  0  0  0
  -24.8945  -28.8965   20.1100 C   0  0  0  0  0  0
  -22.7558  -29.4553   22.4857 C   0  0  0  0  0  0
  -18.0310  -28.1394   22.8468 C   0  0  0  0  0  0
  -24.1494  -36.7248   23.2642 C   0  0  0  0  0  0
  -25.9996  -30.7246   21.3863 C   0  0  0  0  0  0
  -26.0726  -29.3379   20.7264 C   0  0  0  0  0  0
  -27.2371  -28.4831   20.7255 C   0  0  0  0  0  0
  -26.0147  -26.8095   19.4943 C   0  0  0  0  0  0
  -24.8785  -27.6452   19.4787 C   0  0  0  0  0  0
  -23.6702  -29.7971   20.1536 C   0  0  0  0  0  0
  -25.4127  -36.3035   24.0318 C   0  0  1  0  0  0
  -20.5917  -28.3714   23.1234 C   0  0  2  0  0  0
  -20.6791  -26.9415   22.5409 C   0  0  0  0  0  0
  -19.5773  -26.6381   21.5204 C   0  0  0  0  0  0
  -18.1953  -26.7936   22.1610 C   0  0  0  0  0  0
  -19.1564  -28.8872   23.2845 C   0  0  0  0  0  0
  -18.9482  -30.1470   23.8868 C   0  0  0  0  0  0
  -17.6479  -30.6588   24.0559 C   0  0  0  0  0  0
  -25.9072  -34.9408   23.5067 C   0  0  0  0  0  0
  -16.5370  -29.9079   23.6341 C   0  0  0  0  0  0
  -16.7295  -28.6502   23.0351 C   0  0  0  0  0  0
  -26.4528  -31.6562   25.0707 C   0  0  0  0  0  0
  -25.3724  -31.3763   26.1419 C   0  0  0  0  0  0
  -27.0377  -30.2957   24.6274 C   0  0  0  0  0  0
  -27.6085  -32.4306   25.7471 C   0  0  0  0  0  0
  -27.5583  -37.1777   24.8465 C   0  0  0  0  0  0
  -21.4253  -29.3042   22.3607 N   0  0  0  0  0  0
  -26.4289  -37.3751   23.9413 N   0  0  0  0  0  0
  -24.7147  -31.0326   22.0924 N   0  0  0  0  0  0
  -23.4214  -28.8101   23.2998 O   0  0  0  0  0  0
  -28.2831  -26.1774   20.2081 O   0  0  0  0  0  0
  -26.5645  -34.8904   22.4637 O   0  0  0  0  0  0
  -23.5543  -32.1321   23.7134 O   0  0  0  0  0  0
  -30.5390  -18.5592   20.3119 C   0  0  0  0  0  0
  -30.2281  -19.9961   20.2516 C   0  0  0  0  0  0
  -27.9577  -19.5005   20.6233 C   0  0  0  0  0  0
  -29.5558  -17.5246   20.5374 C   0  0  0  0  0  0
  -28.9022  -20.5492   20.4006 C   0  0  0  0  0  0
  -28.2572  -18.0929   20.6946 C   0  0  0  0  0  0
  -27.9882  -24.6555   20.0887 C   0  0  0  0  0  0
  -28.9899  -23.3140   20.2894 C   0  0  0  0  0  0
  -29.6477  -16.0010   20.6557 N   0  0  0  0  0  0
  -28.3721  -21.9139   20.3335 O   0  0  0  0  0  0
  -27.2334  -17.2380   20.9233 F   0  0  0  0  0  0
  -31.4877  -12.7311   19.1805 H   0  0  0  0  0  0
  -30.4555  -11.5990   20.0081 H   0  0  0  0  0  0
  -29.8357  -11.7251   17.5785 H   0  0  0  0  0  0
  -29.6217  -13.4538   17.6962 H   0  0  0  0  0  0
  -27.9448  -11.2745   18.9718 H   0  0  0  0  0  0
  -27.3927  -12.4619   17.8198 H   0  0  0  0  0  0
  -27.6113  -14.2499   19.4400 H   0  0  0  0  0  0
  -28.7627  -12.2279   21.4282 H   0  0  0  0  0  0
  -28.3905  -13.8918   21.7938 H   0  0  0  0  0  0
  -25.2762   -9.5668   22.4749 H   0  0  0  0  0  0
  -23.9997   -7.4619   22.7465 H   0  0  0  0  0  0
  -21.0833   -8.8763   19.8957 H   0  0  0  0  0  0
  -22.3691  -10.9656   19.6162 H   0  0  0  0  0  0
  -21.2000   -7.6137   23.9710 H   0  0  0  0  0  0
  -21.1484   -6.0514   25.9077 H   0  0  0  0  0  0
  -22.0601   -2.7602   23.2845 H   0  0  0  0  0  0
  -22.4080  -11.9854   22.4844 H   0  0  0  0  0  0
  -21.1086  -13.1224   22.2682 H   0  0  0  0  0  0
  -24.6307  -15.8255   20.5832 H   0  0  0  0  0  0
  -26.2721  -15.6785   20.2515 H   0  0  0  0  0  0
  -26.7256  -32.5313   23.0995 H   0  0  0  0  0  0
  -25.0120  -33.9624   25.0359 H   0  0  0  0  0  0
  -22.7457  -31.2916   21.3825 H   0  0  0  0  0  0
  -23.3764  -35.9569   23.3295 H   0  0  0  0  0  0
  -24.3583  -36.8891   22.2059 H   0  0  0  0  0  0
  -23.7234  -37.6438   23.6676 H   0  0  0  0  0  0
  -26.1548  -31.4813   20.6161 H   0  0  0  0  0  0
  -26.8698  -30.7733   22.0286 H   0  0  0  0  0  0
  -28.1339  -28.8182   21.2272 H   0  0  0  0  0  0
  -25.9091  -25.8553   19.0022 H   0  0  0  0  0  0
  -23.9799  -27.3022   18.9846 H   0  0  0  0  0  0
  -23.8050  -30.5726   19.3985 H   0  0  0  0  0  0
  -22.7852  -29.2385   19.8435 H   0  0  0  0  0  0
  -25.1315  -36.1864   25.0809 H   0  0  0  0  0  0
  -21.0014  -28.3306   24.1352 H   0  0  0  0  0  0
  -20.5663  -26.2325   23.3628 H   0  0  0  0  0  0
  -21.6662  -26.7413   22.1223 H   0  0  0  0  0  0
  -19.6932  -25.6283   21.1254 H   0  0  0  0  0  0
  -19.6724  -27.3171   20.6718 H   0  0  0  0  0  0
  -17.4226  -26.6676   21.4011 H   0  0  0  0  0  0
  -18.0354  -26.0083   22.9012 H   0  0  0  0  0  0
  -19.7958  -30.7294   24.2221 H   0  0  0  0  0  0
  -17.5034  -31.6265   24.5168 H   0  0  0  0  0  0
  -15.5369  -30.2970   23.7682 H   0  0  0  0  0  0
  -15.8697  -28.0816   22.7070 H   0  0  0  0  0  0
  -24.5924  -30.7070   25.7768 H   0  0  0  0  0  0
  -24.8877  -32.2943   26.4751 H   0  0  0  0  0  0
  -25.8032  -30.9027   27.0250 H   0  0  0  0  0  0
  -26.2980  -29.6682   24.1288 H   0  0  0  0  0  0
  -27.4006  -29.7261   25.4840 H   0  0  0  0  0  0
  -27.8891  -30.4196   23.9575 H   0  0  0  0  0  0
  -27.2716  -33.3639   26.1992 H   0  0  0  0  0  0
  -28.3918  -32.6809   25.0300 H   0  0  0  0  0  0
  -28.0715  -31.8450   26.5425 H   0  0  0  0  0  0
  -28.2603  -38.0072   24.7516 H   0  0  0  0  0  0
  -28.1080  -36.2606   24.6286 H   0  0  0  0  0  0
  -27.2304  -37.1424   25.8870 H   0  0  0  0  0  0
  -20.9449  -29.8759   21.6797 H   0  0  0  0  0  0
  -26.0160  -38.2818   24.1433 H   0  0  0  0  0  0
  -31.5690  -18.2594   20.1836 H   0  0  0  0  0  0
  -31.0442  -20.6817   20.0723 H   0  0  0  0  0  0
  -26.9238  -19.7840   20.7511 H   0  0  0  0  0  0
  -27.1559  -24.4881   20.7736 H   0  0  0  0  0  0
  -27.5690  -24.5159   19.0932 H   0  0  0  0  0  0
  -29.5433  -23.4398   21.2200 H   0  0  0  0  0  0
  -29.7405  -23.3184   19.4988 H   0  0  0  0  0  0
  -28.7399  -15.6306   20.8942 H   0  0  0  0  0  0
  1 25  1  0  0  0
  1 30  2  0  0  0
  1 79  1  0  0  0
  2  3  1  0  0  0
  2 25  1  0  0  0
  2 82  1  0  0  0
  2 83  1  0  0  0
  3  4  1  0  0  0
  3 84  1  0  0  0
  3 85  1  0  0  0
  4  5  1  0  0  0
  4 86  1  0  0  0
  4 87  1  0  0  0
  5  6  1  0  0  0
  5 26  1  0  0  0
  5 88  1  0  0  0
  6 25  1  0  0  0
  6 89  1  0  0  0
  6 90  1  0  0  0
  7  8  2  0  0  0
  7 26  1  0  0  0
  7 29  1  0  0  0
  8  9  1  0  0  0
  8 22  1  0  0  0
  9 10  1  0  0  0
  9 27  2  0  0  0
 10 11  2  0  0  0
 10 15  1  0  0  0
 11 12  1  0  0  0
 11 91  1  0  0  0
 12 13  2  0  0  0
 12 92  1  0  0  0
 13 14  1  0  0  0
 13 31  1  0  0  0
 14 15  2  0  0  0
 14 93  1  0  0  0
 15 94  1  0  0  0
 16 17  2  0  0  0
 16 21  1  0  0  0
 16 31  1  0  0  0
 17 18  1  0  0  0
 17 95  1  0  0  0
 18 19  2  0  0  0
 18 96  1  0  0  0
 19 20  1  0  0  0
 19 24  1  0  0  0
 20 21  2  0  0  0
 20 97  1  0  0  0
 21 23  1  0  0  0
 22 28  1  0  0  0
 22 32  2  0  0  0
 26 27  1  0  0  0
 28 98  1  0  0  0
 28 99  1  0  0  0
 29100  1  0  0  0
 29101  1  0  0  0
 33 34  1  0  0  0
 33 66  1  0  0  0
 33 70  2  0  0  0
 34 36  1  0  0  0
 34 59  1  0  0  0
 34102  1  0  0  0
 35 44  2  0  0  0
 35 45  1  0  0  0
 35 68  1  0  0  0
 36 56  1  0  0  0
 36103  1  0  0  0
 37 39  1  0  0  0
 37 47  1  0  0  0
 37 66  1  0  0  0
 37104  1  0  0  0
 38 43  2  0  0  0
 38 46  1  0  0  0
 38 47  1  0  0  0
 39 64  1  0  0  0
 39 67  2  0  0  0
 40 52  1  0  0  0
 40 53  2  0  0  0
 40 58  1  0  0  0
 41105  1  0  0  0
 41106  1  0  0  0
 41107  1  0  0  0
 41 48  1  0  0  0
 42 43  1  0  0  0
 42 66  1  0  0  0
 42108  1  0  0  0
 42109  1  0  0  0
 43 44  1  0  0  0
 44110  1  0  0  0
 45 46  2  0  0  0
 45111  1  0  0  0
 46112  1  0  0  0
 47113  1  0  0  0
 47114  1  0  0  0
 48 56  1  0  0  0
 48 65  1  0  0  0
 48115  1  0  0  0
 49 50  1  0  0  0
 49 53  1  0  0  0
 49 64  1  0  0  0
 49116  1  0  0  0
 50 51  1  0  0  0
 50117  1  0  0  0
 50118  1  0  0  0
 51 52  1  0  0  0
 51119  1  0  0  0
 51120  1  0  0  0
 52121  1  0  0  0
 52122  1  0  0  0
 53 54  1  0  0  0
 54 55  2  0  0  0
 54123  1  0  0  0
 55 57  1  0  0  0
 55124  1  0  0  0
 56 69  2  0  0  0
 57 58  2  0  0  0
 57125  1  0  0  0
 58126  1  0  0  0
 59 60  1  0  0  0
 59 61  1  0  0  0
 59 62  1  0  0  0
 60127  1  0  0  0
 60128  1  0  0  0
 60129  1  0  0  0
 61130  1  0  0  0
 61131  1  0  0  0
 61132  1  0  0  0
 62133  1  0  0  0
 62134  1  0  0  0
 62135  1  0  0  0
 63 65  1  0  0  0
 63136  1  0  0  0
 63137  1  0  0  0
 63138  1  0  0  0
 64139  1  0  0  0
 65140  1  0  0  0
 68 77  1  0  0  0
 71 72  2  0  0  0
 71 74  1  0  0  0
 71141  1  0  0  0
 72 75  1  0  0  0
 72142  1  0  0  0
 73 75  2  0  0  0
 73 76  1  0  0  0
 73143  1  0  0  0
 74 76  2  0  0  0
 74 79  1  0  0  0
 75 80  1  0  0  0
 76 81  1  0  0  0
 77 78  1  0  0  0
 77144  1  0  0  0
 77145  1  0  0  0
 78 80  1  0  0  0
 78146  1  0  0  0
 78147  1  0  0  0
 79148  1  0  0  0
M  ISO  4   1 100  68 101  77 101  79 100
M  END
> <chiral flag>
0

> <version>
0

> <s_m_source_file>
/data/baiqing/PycharmProjects/Reinvent-master-3.2/result/LINK_invent/BTK/process_docking_weight1_custom_product_contain_oxygen_bond_distance_aromatic_linkinvent_7_9_3/rearranged_h_0013.sdf

> <i_m_source_file_index>
28

> <r_mmod_Potential_Energy-OPLS-2005>
429.317779541016

> <r_mmod_Stretch_Energy-OPLS-2005>
215.171890258789

> <r_mmod_Bend_Energy-OPLS-2005>
307.654571533203

> <r_mmod_Torsional_Energy-OPLS-2005>
210.088012695312

> <r_mmod_Improper_Torsional_Energy-OPLS-2005>
3.85878729820251

> <r_mmod_Van_der_Waal_Energy-OPLS-2005>
133.190078735352

> <r_mmod_Electrostatic_Energy-OPLS-2005>
-411.460144042969

> <r_mmod_Solvation_Energy-OPLS-2005>
-203.061370849609

> <b_mmod_Minimization_Converged-OPLS-2005>
0

> <r_mmod_RMS_Derivative-OPLS-2005>
0.840658664703369

$$$$
29
                    3D
 Structure written by MMmdl.
170179  0  0  1  0            999 V2000
  -30.6834  -14.4676   20.4825 C   0  0  0  0  0  0
  -30.4125  -12.2514   19.4356 C   0  0  0  0  0  0
  -29.4921  -12.4744   18.2147 C   0  0  0  0  0  0
  -28.0092  -12.3546   18.6182 C   0  0  0  0  0  0
  -27.6521  -13.2061   19.8647 C   0  0  2  0  0  0
  -28.6831  -13.0016   20.9942 C   0  0  0  0  0  0
  -25.2551  -13.8180   20.5678 C   0  0  0  0  0  0
  -24.1819  -13.0452   20.9182 C   0  0  0  0  0  0
  -24.6365  -11.6921   20.8755 C   0  0  0  0  0  0
  -23.9051  -10.4304   21.0437 C   0  0  0  0  0  0
  -24.3602   -9.4212   21.9211 C   0  0  0  0  0  0
  -23.6274   -8.2251   22.0770 C   0  0  0  0  0  0
  -22.4264   -8.0285   21.3551 C   0  0  0  0  0  0
  -21.9902   -9.0256   20.4650 C   0  0  0  0  0  0
  -22.7232  -10.2138   20.3076 C   0  0  0  0  0  0
  -21.6849   -6.0745   22.5294 C   0  0  0  0  0  0
  -21.4030   -6.5647   23.8229 C   0  0  0  0  0  0
  -21.3661   -5.6814   24.9191 C   0  0  0  0  0  0
  -21.6025   -4.3070   24.7243 C   0  0  0  0  0  0
  -21.8818   -3.8159   23.4367 C   0  0  0  0  0  0
  -21.9189   -4.6972   22.3425 C   0  0  0  0  0  0
  -22.7839  -13.5242   21.1842 C   0  0  0  0  0  0
  -22.1657   -4.2165   21.0998 F   0  0  0  0  0  0
  -21.5607   -3.4551   25.7753 F   0  0  0  0  0  0
  -30.0294  -13.2315   20.4542 N   0  0  0  0  0  0
  -26.2965  -12.9339   20.3306 N   0  0  0  0  0  0
  -25.9282  -11.6500   20.5767 N   0  0  0  0  0  0
  -22.0485  -12.8235   22.0406 N   0  0  0  0  0  0
  -25.4290  -15.1902   20.4116 N   0  0  0  0  0  0
  -31.8652  -14.6572   20.1882 O   0  0  0  0  0  0
  -21.6615   -6.8887   21.4257 O   0  0  0  0  0  0
  -22.3533  -14.5558   20.6693 O   0  0  0  0  0  0
  -24.6150  -31.8697   23.2104 C   0  0  0  0  0  0
  -25.9046  -32.4837   23.8401 C   0  0  1  0  0  0
  -27.2407  -27.4392   20.0929 C   0  0  0  0  0  0
  -25.5905  -33.8633   24.2345 N   0  0  0  0  0  0
  -23.4018  -30.4941   21.5513 C   0  0  2  0  0  0
  -24.8473  -28.9570   20.1181 C   0  0  0  0  0  0
  -22.7407  -29.4688   22.4997 C   0  0  0  0  0  0
  -18.0272  -28.1375   22.8507 C   0  0  0  0  0  0
  -24.1496  -36.7329   23.2637 C   0  0  0  0  0  0
  -25.9313  -30.8342   21.3637 C   0  0  0  0  0  0
  -26.0066  -29.4689   20.7119 C   0  0  0  0  0  0
  -27.2029  -28.7167   20.6974 C   0  0  0  0  0  0
  -26.0538  -26.9356   19.5064 C   0  0  0  0  0  0
  -24.8647  -27.6881   19.5162 C   0  0  0  0  0  0
  -23.6089  -29.8231   20.1672 C   0  0  0  0  0  0
  -25.4119  -36.3130   24.0345 C   0  0  1  0  0  0
  -20.5864  -28.3678   23.1313 C   0  0  2  0  0  0
  -20.6769  -26.9411   22.5415 C   0  0  0  0  0  0
  -19.5743  -26.6381   21.5218 C   0  0  0  0  0  0
  -18.1918  -26.7930   22.1626 C   0  0  0  0  0  0
  -19.1523  -28.8844   23.2906 C   0  0  0  0  0  0
  -18.9452  -30.1457   23.8906 C   0  0  0  0  0  0
  -17.6452  -30.6598   24.0559 C   0  0  0  0  0  0
  -25.9040  -34.9492   23.5142 C   0  0  0  0  0  0
  -16.5347  -29.9092   23.6322 C   0  0  0  0  0  0
  -16.7265  -28.6501   23.0369 C   0  0  0  0  0  0
  -26.4461  -31.6609   25.0732 C   0  0  0  0  0  0
  -25.3719  -31.3690   26.1463 C   0  0  0  0  0  0
  -27.0329  -30.3074   24.6112 C   0  0  0  0  0  0
  -27.6029  -32.4329   25.7501 C   0  0  0  0  0  0
  -27.5599  -37.1820   24.8464 C   0  0  0  0  0  0
  -21.4131  -29.3058   22.3729 N   0  0  0  0  0  0
  -26.4316  -37.3800   23.9401 N   0  0  0  0  0  0
  -24.6677  -31.0807   22.0998 N   0  0  0  0  0  0
  -23.4178  -28.8222   23.3028 O   0  0  0  0  0  0
  -28.4327  -26.7387   20.1044 O   0  0  0  0  0  0
  -26.5597  -34.8940   22.4703 O   0  0  0  0  0  0
  -23.5343  -32.1444   23.7509 O   0  0  0  0  0  0
  -30.1787  -19.7990   23.0894 C   0  0  0  0  0  0
  -29.2161  -17.8105   20.3459 C   0  0  0  0  0  0
  -31.3268  -22.3533   22.9257 C   0  0  0  0  0  0
  -30.4273  -17.9004   17.8276 C   0  0  0  0  0  0
  -29.5849  -20.7786   22.2663 C   0  0  0  0  0  0
  -29.1740  -19.0275   19.6092 C   0  0  0  0  0  0
  -31.9181  -21.3684   23.7428 C   0  0  0  0  0  0
  -30.1672  -22.0708   22.1573 C   0  0  0  0  0  0
  -29.8297  -16.6362   19.8370 C   0  0  0  0  0  0
  -29.8270  -19.0551   18.3461 C   0  0  0  0  0  0
  -30.4055  -16.6944   18.5371 C   0  0  0  0  0  0
  -31.3446  -20.0826   23.8168 C   0  0  0  0  0  0
  -28.0352  -21.2168   19.1878 C   0  0  0  0  0  0
  -28.3044  -20.4139   21.5335 C   0  0  0  0  0  0
  -29.8421  -24.7806   19.6412 C   0  0  0  0  0  0
  -28.4348  -25.3977   19.6066 C   0  0  0  0  0  0
  -30.2997  -24.1943   20.9900 C   0  0  0  0  0  0
  -33.0696  -21.6662   24.4744 N   0  0  0  0  0  0
  -28.4688  -20.1607   20.1020 N   0  0  0  0  0  0
  -29.7700  -15.4800   20.6072 O   0  0  0  0  0  0
  -29.5795  -22.9977   21.3092 O   0  0  0  0  0  0
  -29.8914  -20.1816   17.5927 F   0  0  0  0  0  0
  -30.9125  -15.6020   17.9180 F   0  0  0  0  0  0
  -32.0518  -18.8491   24.8012 Cl  0  0  0  0  0  0
  -31.4610  -12.3467   19.1470 H   0  0  0  0  0  0
  -30.2877  -11.2412   19.8281 H   0  0  0  0  0  0
  -29.7223  -11.7498   17.4316 H   0  0  0  0  0  0
  -29.6712  -13.4600   17.7839 H   0  0  0  0  0  0
  -27.8093  -11.3019   18.8178 H   0  0  0  0  0  0
  -27.3666  -12.6295   17.7817 H   0  0  0  0  0  0
  -27.6891  -14.2497   19.5535 H   0  0  0  0  0  0
  -28.6195  -11.9857   21.3876 H   0  0  0  0  0  0
  -28.4698  -13.6628   21.8357 H   0  0  0  0  0  0
  -25.2744   -9.5688   22.4791 H   0  0  0  0  0  0
  -23.9970   -7.4654   22.7505 H   0  0  0  0  0  0
  -21.0841   -8.8793   19.8942 H   0  0  0  0  0  0
  -22.3701  -10.9683   19.6198 H   0  0  0  0  0  0
  -21.2049   -7.6162   23.9732 H   0  0  0  0  0  0
  -21.1472   -6.0547   25.9088 H   0  0  0  0  0  0
  -22.0589   -2.7624   23.2877 H   0  0  0  0  0  0
  -22.4075  -11.9863   22.4736 H   0  0  0  0  0  0
  -21.1121  -13.1299   22.2646 H   0  0  0  0  0  0
  -24.6694  -15.8511   20.5219 H   0  0  0  0  0  0
  -26.2932  -15.6254   20.1160 H   0  0  0  0  0  0
  -26.7113  -32.5566   23.1164 H   0  0  0  0  0  0
  -25.0071  -33.9776   25.0505 H   0  0  0  0  0  0
  -22.6919  -31.3127   21.4109 H   0  0  0  0  0  0
  -23.3773  -35.9649   23.3294 H   0  0  0  0  0  0
  -24.3574  -36.8951   22.2053 H   0  0  0  0  0  0
  -23.7238  -37.6534   23.6650 H   0  0  0  0  0  0
  -26.0467  -31.5990   20.5951 H   0  0  0  0  0  0
  -26.8195  -30.8864   21.9817 H   0  0  0  0  0  0
  -28.0997  -29.1114   21.1553 H   0  0  0  0  0  0
  -26.0183  -25.9638   19.0380 H   0  0  0  0  0  0
  -23.9710  -27.2822   19.0630 H   0  0  0  0  0  0
  -23.7150  -30.5959   19.4048 H   0  0  0  0  0  0
  -22.7335  -29.2411   19.8742 H   0  0  0  0  0  0
  -25.1288  -36.2004   25.0840 H   0  0  0  0  0  0
  -20.9970  -28.3248   24.1433 H   0  0  0  0  0  0
  -20.5694  -26.2280   23.3597 H   0  0  0  0  0  0
  -21.6638  -26.7462   22.1202 H   0  0  0  0  0  0
  -19.6905  -25.6295   21.1242 H   0  0  0  0  0  0
  -19.6682  -27.3190   20.6750 H   0  0  0  0  0  0
  -17.4201  -26.6716   21.4011 H   0  0  0  0  0  0
  -18.0290  -26.0054   22.8994 H   0  0  0  0  0  0
  -19.7929  -30.7266   24.2272 H   0  0  0  0  0  0
  -17.5016  -31.6283   24.5156 H   0  0  0  0  0  0
  -15.5344  -30.3005   23.7627 H   0  0  0  0  0  0
  -15.8665  -28.0811   22.7090 H   0  0  0  0  0  0
  -24.5894  -30.7042   25.7778 H   0  0  0  0  0  0
  -24.8904  -32.2841   26.4932 H   0  0  0  0  0  0
  -25.8069  -30.8833   27.0211 H   0  0  0  0  0  0
  -26.2901  -29.6815   24.1157 H   0  0  0  0  0  0
  -27.4115  -29.7315   25.4569 H   0  0  0  0  0  0
  -27.8710  -30.4432   23.9271 H   0  0  0  0  0  0
  -27.2653  -33.3618   26.2115 H   0  0  0  0  0  0
  -28.3820  -32.6911   25.0317 H   0  0  0  0  0  0
  -28.0723  -31.8436   26.5392 H   0  0  0  0  0  0
  -28.2602  -38.0133   24.7548 H   0  0  0  0  0  0
  -28.1116  -36.2667   24.6260 H   0  0  0  0  0  0
  -27.2305  -37.1440   25.8861 H   0  0  0  0  0  0
  -20.9284  -29.8795   21.6970 H   0  0  0  0  0  0
  -26.0225  -38.2894   24.1388 H   0  0  0  0  0  0
  -29.7365  -18.8181   23.1718 H   0  0  0  0  0  0
  -28.7333  -17.7371   21.3071 H   0  0  0  0  0  0
  -31.7776  -23.3337   22.9100 H   0  0  0  0  0  0
  -30.8879  -17.9320   16.8526 H   0  0  0  0  0  0
  -27.5984  -20.8035   18.2778 H   0  0  0  0  0  0
  -28.8724  -21.8561   18.9079 H   0  0  0  0  0  0
  -27.2833  -21.8585   19.6455 H   0  0  0  0  0  0
  -27.6002  -21.2336   21.6870 H   0  0  0  0  0  0
  -27.8276  -19.5590   22.0138 H   0  0  0  0  0  0
  -30.5600  -25.5328   19.3133 H   0  0  0  0  0  0
  -29.8943  -23.9843   18.8997 H   0  0  0  0  0  0
  -27.7370  -24.7722   20.1654 H   0  0  0  0  0  0
  -28.1097  -25.4098   18.5643 H   0  0  0  0  0  0
  -30.2006  -24.9268   21.7922 H   0  0  0  0  0  0
  -31.3627  -23.9770   20.8731 H   0  0  0  0  0  0
  -33.6801  -22.3997   24.1287 H   0  0  0  0  0  0
  -33.5862  -20.8665   24.8293 H   0  0  0  0  0  0
  1 25  1  0  0  0
  1 30  2  0  0  0
  1 90  1  0  0  0
  2  3  1  0  0  0
  2 25  1  0  0  0
  2 95  1  0  0  0
  2 96  1  0  0  0
  3  4  1  0  0  0
  3 97  1  0  0  0
  3 98  1  0  0  0
  4  5  1  0  0  0
  4 99  1  0  0  0
  4100  1  0  0  0
  5  6  1  0  0  0
  5 26  1  0  0  0
  5101  1  0  0  0
  6 25  1  0  0  0
  6102  1  0  0  0
  6103  1  0  0  0
  7  8  2  0  0  0
  7 26  1  0  0  0
  7 29  1  0  0  0
  8  9  1  0  0  0
  8 22  1  0  0  0
  9 10  1  0  0  0
  9 27  2  0  0  0
 10 11  2  0  0  0
 10 15  1  0  0  0
 11 12  1  0  0  0
 11104  1  0  0  0
 12 13  2  0  0  0
 12105  1  0  0  0
 13 14  1  0  0  0
 13 31  1  0  0  0
 14 15  2  0  0  0
 14106  1  0  0  0
 15107  1  0  0  0
 16 17  2  0  0  0
 16 21  1  0  0  0
 16 31  1  0  0  0
 17 18  1  0  0  0
 17108  1  0  0  0
 18 19  2  0  0  0
 18109  1  0  0  0
 19 20  1  0  0  0
 19 24  1  0  0  0
 20 21  2  0  0  0
 20110  1  0  0  0
 21 23  1  0  0  0
 22 28  1  0  0  0
 22 32  2  0  0  0
 26 27  1  0  0  0
 28111  1  0  0  0
 28112  1  0  0  0
 29113  1  0  0  0
 29114  1  0  0  0
 33 34  1  0  0  0
 33 66  1  0  0  0
 33 70  2  0  0  0
 34 36  1  0  0  0
 34 59  1  0  0  0
 34115  1  0  0  0
 35 44  2  0  0  0
 35 45  1  0  0  0
 35 68  1  0  0  0
 36 56  1  0  0  0
 36116  1  0  0  0
 37 39  1  0  0  0
 37 47  1  0  0  0
 37 66  1  0  0  0
 37117  1  0  0  0
 38 43  2  0  0  0
 38 46  1  0  0  0
 38 47  1  0  0  0
 39 64  1  0  0  0
 39 67  2  0  0  0
 40 52  1  0  0  0
 40 53  2  0  0  0
 40 58  1  0  0  0
 41118  1  0  0  0
 41119  1  0  0  0
 41120  1  0  0  0
 41 48  1  0  0  0
 42 43  1  0  0  0
 42 66  1  0  0  0
 42121  1  0  0  0
 42122  1  0  0  0
 43 44  1  0  0  0
 44123  1  0  0  0
 45 46  2  0  0  0
 45124  1  0  0  0
 46125  1  0  0  0
 47126  1  0  0  0
 47127  1  0  0  0
 48 56  1  0  0  0
 48 65  1  0  0  0
 48128  1  0  0  0
 49 50  1  0  0  0
 49 53  1  0  0  0
 49 64  1  0  0  0
 49129  1  0  0  0
 50 51  1  0  0  0
 50130  1  0  0  0
 50131  1  0  0  0
 51 52  1  0  0  0
 51132  1  0  0  0
 51133  1  0  0  0
 52134  1  0  0  0
 52135  1  0  0  0
 53 54  1  0  0  0
 54 55  2  0  0  0
 54136  1  0  0  0
 55 57  1  0  0  0
 55137  1  0  0  0
 56 69  2  0  0  0
 57 58  2  0  0  0
 57138  1  0  0  0
 58139  1  0  0  0
 59 60  1  0  0  0
 59 61  1  0  0  0
 59 62  1  0  0  0
 60140  1  0  0  0
 60141  1  0  0  0
 60142  1  0  0  0
 61143  1  0  0  0
 61144  1  0  0  0
 61145  1  0  0  0
 62146  1  0  0  0
 62147  1  0  0  0
 62148  1  0  0  0
 63 65  1  0  0  0
 63149  1  0  0  0
 63150  1  0  0  0
 63151  1  0  0  0
 64152  1  0  0  0
 65153  1  0  0  0
 68 86  1  0  0  0
 71 75  2  0  0  0
 71 82  1  0  0  0
 71154  1  0  0  0
 72 76  2  0  0  0
 72 79  1  0  0  0
 72155  1  0  0  0
 73 77  1  0  0  0
 73 78  2  0  0  0
 73156  1  0  0  0
 74 80  2  0  0  0
 74 81  1  0  0  0
 74157  1  0  0  0
 75 78  1  0  0  0
 75 84  1  0  0  0
 76 80  1  0  0  0
 76 89  1  0  0  0
 77 82  2  0  0  0
 77 88  1  0  0  0
 78 91  1  0  0  0
 79 81  2  0  0  0
 79 90  1  0  0  0
 80 92  1  0  0  0
 81 93  1  0  0  0
 82 94  1  0  0  0
 83 89  1  0  0  0
 83158  1  0  0  0
 83159  1  0  0  0
 83160  1  0  0  0
 84 89  1  0  0  0
 84161  1  0  0  0
 84162  1  0  0  0
 85 86  1  0  0  0
 85 87  1  0  0  0
 85163  1  0  0  0
 85164  1  0  0  0
 86165  1  0  0  0
 86166  1  0  0  0
 87 91  1  0  0  0
 87167  1  0  0  0
 87168  1  0  0  0
 88169  1  0  0  0
 88170  1  0  0  0
M  ISO  4   1 100  68 101  86 101  90 100
M  END
> <chiral flag>
0

> <version>
0

> <s_m_source_file>
/data/baiqing/PycharmProjects/Reinvent-master-3.2/result/LINK_invent/BTK/process_docking_weight1_custom_product_contain_oxygen_bond_distance_aromatic_linkinvent_7_9_3/rearranged_h_0013.sdf

> <i_m_source_file_index>
29

> <r_mmod_Potential_Energy-OPLS-2005>
23.8769798278809

> <r_mmod_Stretch_Energy-OPLS-2005>
42.5550231933594

> <r_mmod_Bend_Energy-OPLS-2005>
122.344841003418

> <r_mmod_Torsional_Energy-OPLS-2005>
189.656448364258

> <r_mmod_Improper_Torsional_Energy-OPLS-2005>
10.86949634552

> <r_mmod_Van_der_Waal_Energy-OPLS-2005>
188.35905456543

> <r_mmod_Electrostatic_Energy-OPLS-2005>
-325.543182373047

> <r_mmod_Solvation_Energy-OPLS-2005>
-220.69172668457

> <b_mmod_Minimization_Converged-OPLS-2005>
0

> <r_mmod_RMS_Derivative-OPLS-2005>
2.54453372955322

$$$$
30
                    3D
 Structure written by MMmdl.
155163  0  0  1  0            999 V2000
  -30.6283  -14.6324   20.4788 C   0  0  0  0  0  0
  -30.4311  -12.3864   19.4384 C   0  0  0  0  0  0
  -29.5057  -12.5312   18.2119 C   0  0  0  0  0  0
  -28.0266  -12.3677   18.6169 C   0  0  0  0  0  0
  -27.6535  -13.2198   19.8587 C   0  0  2  0  0  0
  -28.6995  -13.0701   20.9860 C   0  0  0  0  0  0
  -25.2586  -13.8186   20.5640 C   0  0  0  0  0  0
  -24.1850  -13.0445   20.9154 C   0  0  0  0  0  0
  -24.6415  -11.6910   20.8695 C   0  0  0  0  0  0
  -23.9079  -10.4290   21.0370 C   0  0  0  0  0  0
  -24.3649   -9.4202   21.9150 C   0  0  0  0  0  0
  -23.6320   -8.2243   22.0743 C   0  0  0  0  0  0
  -22.4299   -8.0269   21.3538 C   0  0  0  0  0  0
  -21.9915   -9.0248   20.4635 C   0  0  0  0  0  0
  -22.7254  -10.2116   20.3025 C   0  0  0  0  0  0
  -21.6857   -6.0720   22.5274 C   0  0  0  0  0  0
  -21.4019   -6.5624   23.8210 C   0  0  0  0  0  0
  -21.3665   -5.6786   24.9171 C   0  0  0  0  0  0
  -21.6055   -4.3052   24.7231 C   0  0  0  0  0  0
  -21.8819   -3.8133   23.4352 C   0  0  0  0  0  0
  -21.9205   -4.6942   22.3400 C   0  0  0  0  0  0
  -22.7875  -13.5212   21.1808 C   0  0  0  0  0  0
  -22.1659   -4.2123   21.0978 F   0  0  0  0  0  0
  -21.5638   -3.4539   25.7741 F   0  0  0  0  0  0
  -30.0176  -13.4073   20.4241 N   0  0  0  0  0  0
  -26.3009  -12.9362   20.3286 N   0  0  0  0  0  0
  -25.9351  -11.6511   20.5726 N   0  0  0  0  0  0
  -22.0528  -12.8215   22.0384 N   0  0  0  0  0  0
  -25.4322  -15.1913   20.4048 N   0  0  0  0  0  0
  -31.7964  -14.7729   20.1125 O   0  0  0  0  0  0
  -21.6658   -6.8867   21.4242 O   0  0  0  0  0  0
  -22.3530  -14.5502   20.6637 O   0  0  0  0  0  0
  -24.6239  -31.8629   23.2037 C   0  0  0  0  0  0
  -25.9096  -32.4789   23.8370 C   0  0  1  0  0  0
  -27.2308  -27.3375   20.1139 C   0  0  0  0  0  0
  -25.5910  -33.8583   24.2291 N   0  0  0  0  0  0
  -23.4179  -30.4849   21.5488 C   0  0  2  0  0  0
  -24.8655  -28.9488   20.1082 C   0  0  0  0  0  0
  -22.7470  -29.4634   22.4983 C   0  0  0  0  0  0
  -18.0279  -28.1390   22.8476 C   0  0  0  0  0  0
  -24.1486  -36.7308   23.2639 C   0  0  0  0  0  0
  -25.9586  -30.7995   21.3748 C   0  0  0  0  0  0
  -26.0345  -29.4308   20.7117 C   0  0  0  0  0  0
  -27.2210  -28.6395   20.7010 C   0  0  0  0  0  0
  -26.0374  -26.9098   19.4847 C   0  0  0  0  0  0
  -24.8710  -27.6946   19.4804 C   0  0  0  0  0  0
  -23.6282  -29.8214   20.1635 C   0  0  0  0  0  0
  -25.4113  -36.3100   24.0335 C   0  0  1  0  0  0
  -20.5868  -28.3679   23.1299 C   0  0  2  0  0  0
  -20.6770  -26.9410   22.5416 C   0  0  0  0  0  0
  -19.5758  -26.6385   21.5209 C   0  0  0  0  0  0
  -18.1931  -26.7933   22.1613 C   0  0  0  0  0  0
  -19.1524  -28.8861   23.2873 C   0  0  0  0  0  0
  -18.9451  -30.1468   23.8887 C   0  0  0  0  0  0
  -17.6448  -30.6590   24.0563 C   0  0  0  0  0  0
  -25.9047  -34.9460   23.5113 C   0  0  0  0  0  0
  -16.5336  -29.9080   23.6330 C   0  0  0  0  0  0
  -16.7268  -28.6498   23.0342 C   0  0  0  0  0  0
  -26.4472  -31.6593   25.0746 C   0  0  0  0  0  0
  -25.3684  -31.3723   26.1455 C   0  0  0  0  0  0
  -27.0326  -30.3020   24.6220 C   0  0  0  0  0  0
  -27.6046  -32.4319   25.7502 C   0  0  0  0  0  0
  -27.5584  -37.1801   24.8454 C   0  0  0  0  0  0
  -21.4186  -29.3029   22.3702 N   0  0  0  0  0  0
  -26.4297  -37.3787   23.9399 N   0  0  0  0  0  0
  -24.6851  -31.0645   22.0991 N   0  0  0  0  0  0
  -23.4193  -28.8181   23.3074 O   0  0  0  0  0  0
  -28.3496  -26.4908   20.1695 O   0  0  0  0  0  0
  -26.5627  -34.8925   22.4688 O   0  0  0  0  0  0
  -23.5405  -32.1434   23.7364 O   0  0  0  0  0  0
  -28.9939  -19.4130   21.1185 C   0  0  0  0  0  0
  -29.0631  -18.0022   21.3497 C   0  0  0  0  0  0
  -30.6136  -19.1702   19.3730 C   0  0  0  0  0  0
  -29.7557  -20.0460   20.1015 C   0  0  0  0  0  0
  -29.9002  -17.1310   20.5953 C   0  0  0  0  0  0
  -30.6810  -17.7627   19.5890 C   0  0  0  0  0  0
  -29.8426  -21.7343   18.3447 C   0  0  0  0  0  0
  -29.2595  -23.9933   20.3837 C   0  0  0  0  0  0
  -28.8260  -22.4566   20.4922 C   0  0  0  0  0  0
  -28.1003  -25.0356   20.0974 C   0  0  0  0  0  0
  -29.8299  -15.6859   20.8410 N   0  0  0  0  0  0
  -29.6733  -21.4547   19.7748 N   0  0  0  0  0  0
  -31.4852  -17.0374   18.7770 F   0  0  0  0  0  0
  -31.4729  -12.5023   19.1357 H   0  0  0  0  0  0
  -30.3482  -11.3842   19.8603 H   0  0  0  0  0  0
  -29.7716  -11.8079   17.4416 H   0  0  0  0  0  0
  -29.6538  -13.5167   17.7654 H   0  0  0  0  0  0
  -27.8511  -11.3115   18.8201 H   0  0  0  0  0  0
  -27.3790  -12.6295   17.7789 H   0  0  0  0  0  0
  -27.6691  -14.2575   19.5296 H   0  0  0  0  0  0
  -28.7081  -12.0477   21.3662 H   0  0  0  0  0  0
  -28.4488  -13.7074   21.8354 H   0  0  0  0  0  0
  -25.2794   -9.5683   22.4727 H   0  0  0  0  0  0
  -24.0021   -7.4632   22.7460 H   0  0  0  0  0  0
  -21.0836   -8.8774   19.8950 H   0  0  0  0  0  0
  -22.3712  -10.9661   19.6128 H   0  0  0  0  0  0
  -21.2012   -7.6131   23.9706 H   0  0  0  0  0  0
  -21.1487   -6.0510   25.9076 H   0  0  0  0  0  0
  -22.0606   -2.7589   23.2870 H   0  0  0  0  0  0
  -22.4160  -11.9903   22.4817 H   0  0  0  0  0  0
  -21.1137  -13.1216   22.2540 H   0  0  0  0  0  0
  -24.6710  -15.8558   20.5049 H   0  0  0  0  0  0
  -26.2887  -15.6263   20.0868 H   0  0  0  0  0  0
  -26.7177  -32.5472   23.1129 H   0  0  0  0  0  0
  -25.0009  -33.9713   25.0399 H   0  0  0  0  0  0
  -22.7103  -31.3052   21.4100 H   0  0  0  0  0  0
  -23.3758  -35.9630   23.3292 H   0  0  0  0  0  0
  -24.3591  -36.8939   22.2061 H   0  0  0  0  0  0
  -23.7221  -37.6496   23.6669 H   0  0  0  0  0  0
  -26.0940  -31.5715   20.6156 H   0  0  0  0  0  0
  -26.8355  -30.8398   22.0088 H   0  0  0  0  0  0
  -28.1178  -29.0094   21.1768 H   0  0  0  0  0  0
  -25.9747  -25.9546   18.9872 H   0  0  0  0  0  0
  -23.9830  -27.3185   18.9914 H   0  0  0  0  0  0
  -23.7307  -30.6003   19.4077 H   0  0  0  0  0  0
  -22.7499  -29.2421   19.8692 H   0  0  0  0  0  0
  -25.1287  -36.1965   25.0830 H   0  0  0  0  0  0
  -20.9955  -28.3260   24.1420 H   0  0  0  0  0  0
  -20.5680  -26.2287   23.3612 H   0  0  0  0  0  0
  -21.6637  -26.7460   22.1197 H   0  0  0  0  0  0
  -19.6915  -25.6297   21.1242 H   0  0  0  0  0  0
  -19.6706  -27.3187   20.6742 H   0  0  0  0  0  0
  -17.4203  -26.6682   21.4014 H   0  0  0  0  0  0
  -18.0333  -26.0080   22.9016 H   0  0  0  0  0  0
  -19.7926  -30.7285   24.2245 H   0  0  0  0  0  0
  -17.4998  -31.6265   24.5166 H   0  0  0  0  0  0
  -15.5334  -30.2968   23.7674 H   0  0  0  0  0  0
  -15.8668  -28.0819   22.7056 H   0  0  0  0  0  0
  -24.5858  -30.7092   25.7746 H   0  0  0  0  0  0
  -24.8870  -32.2881   26.4902 H   0  0  0  0  0  0
  -25.7976  -30.8859   27.0225 H   0  0  0  0  0  0
  -26.2924  -29.6767   24.1225 H   0  0  0  0  0  0
  -27.3988  -29.7288   25.4746 H   0  0  0  0  0  0
  -27.8800  -30.4306   23.9485 H   0  0  0  0  0  0
  -27.2686  -33.3620   26.2104 H   0  0  0  0  0  0
  -28.3838  -32.6881   25.0302 H   0  0  0  0  0  0
  -28.0752  -31.8432   26.5389 H   0  0  0  0  0  0
  -28.2583  -38.0116   24.7530 H   0  0  0  0  0  0
  -28.1102  -36.2649   24.6244 H   0  0  0  0  0  0
  -27.2312  -37.1403   25.8858 H   0  0  0  0  0  0
  -20.9376  -29.8733   21.6883 H   0  0  0  0  0  0
  -26.0194  -38.2867   24.1397 H   0  0  0  0  0  0
  -28.3158  -19.9939   21.7297 H   0  0  0  0  0  0
  -28.4383  -17.5846   22.1269 H   0  0  0  0  0  0
  -31.2446  -19.5680   18.5932 H   0  0  0  0  0  0
  -30.8873  -21.9463   18.1094 H   0  0  0  0  0  0
  -29.2546  -22.6007   18.0340 H   0  0  0  0  0  0
  -29.5070  -20.9083   17.7132 H   0  0  0  0  0  0
  -30.0298  -24.1201   19.6229 H   0  0  0  0  0  0
  -29.7540  -24.2719   21.3160 H   0  0  0  0  0  0
  -27.8059  -22.3549   20.1191 H   0  0  0  0  0  0
  -28.7717  -22.1925   21.5480 H   0  0  0  0  0  0
  -27.2768  -24.7976   20.7746 H   0  0  0  0  0  0
  -27.7518  -24.8033   19.0903 H   0  0  0  0  0  0
  -28.9630  -15.3833   21.2575 H   0  0  0  0  0  0
  1 25  1  0  0  0
  1 30  2  0  0  0
  1 81  1  0  0  0
  2  3  1  0  0  0
  2 25  1  0  0  0
  2 84  1  0  0  0
  2 85  1  0  0  0
  3  4  1  0  0  0
  3 86  1  0  0  0
  3 87  1  0  0  0
  4  5  1  0  0  0
  4 88  1  0  0  0
  4 89  1  0  0  0
  5  6  1  0  0  0
  5 26  1  0  0  0
  5 90  1  0  0  0
  6 25  1  0  0  0
  6 91  1  0  0  0
  6 92  1  0  0  0
  7  8  2  0  0  0
  7 26  1  0  0  0
  7 29  1  0  0  0
  8  9  1  0  0  0
  8 22  1  0  0  0
  9 10  1  0  0  0
  9 27  2  0  0  0
 10 11  2  0  0  0
 10 15  1  0  0  0
 11 12  1  0  0  0
 11 93  1  0  0  0
 12 13  2  0  0  0
 12 94  1  0  0  0
 13 14  1  0  0  0
 13 31  1  0  0  0
 14 15  2  0  0  0
 14 95  1  0  0  0
 15 96  1  0  0  0
 16 17  2  0  0  0
 16 21  1  0  0  0
 16 31  1  0  0  0
 17 18  1  0  0  0
 17 97  1  0  0  0
 18 19  2  0  0  0
 18 98  1  0  0  0
 19 20  1  0  0  0
 19 24  1  0  0  0
 20 21  2  0  0  0
 20 99  1  0  0  0
 21 23  1  0  0  0
 22 28  1  0  0  0
 22 32  2  0  0  0
 26 27  1  0  0  0
 28100  1  0  0  0
 28101  1  0  0  0
 29102  1  0  0  0
 29103  1  0  0  0
 33 34  1  0  0  0
 33 66  1  0  0  0
 33 70  2  0  0  0
 34 36  1  0  0  0
 34 59  1  0  0  0
 34104  1  0  0  0
 35 44  2  0  0  0
 35 45  1  0  0  0
 35 68  1  0  0  0
 36 56  1  0  0  0
 36105  1  0  0  0
 37 39  1  0  0  0
 37 47  1  0  0  0
 37 66  1  0  0  0
 37106  1  0  0  0
 38 43  2  0  0  0
 38 46  1  0  0  0
 38 47  1  0  0  0
 39 64  1  0  0  0
 39 67  2  0  0  0
 40 52  1  0  0  0
 40 53  2  0  0  0
 40 58  1  0  0  0
 41107  1  0  0  0
 41108  1  0  0  0
 41109  1  0  0  0
 41 48  1  0  0  0
 42 43  1  0  0  0
 42 66  1  0  0  0
 42110  1  0  0  0
 42111  1  0  0  0
 43 44  1  0  0  0
 44112  1  0  0  0
 45 46  2  0  0  0
 45113  1  0  0  0
 46114  1  0  0  0
 47115  1  0  0  0
 47116  1  0  0  0
 48 56  1  0  0  0
 48 65  1  0  0  0
 48117  1  0  0  0
 49 50  1  0  0  0
 49 53  1  0  0  0
 49 64  1  0  0  0
 49118  1  0  0  0
 50 51  1  0  0  0
 50119  1  0  0  0
 50120  1  0  0  0
 51 52  1  0  0  0
 51121  1  0  0  0
 51122  1  0  0  0
 52123  1  0  0  0
 52124  1  0  0  0
 53 54  1  0  0  0
 54 55  2  0  0  0
 54125  1  0  0  0
 55 57  1  0  0  0
 55126  1  0  0  0
 56 69  2  0  0  0
 57 58  2  0  0  0
 57127  1  0  0  0
 58128  1  0  0  0
 59 60  1  0  0  0
 59 61  1  0  0  0
 59 62  1  0  0  0
 60129  1  0  0  0
 60130  1  0  0  0
 60131  1  0  0  0
 61132  1  0  0  0
 61133  1  0  0  0
 61134  1  0  0  0
 62135  1  0  0  0
 62136  1  0  0  0
 62137  1  0  0  0
 63 65  1  0  0  0
 63138  1  0  0  0
 63139  1  0  0  0
 63140  1  0  0  0
 64141  1  0  0  0
 65142  1  0  0  0
 68 80  1  0  0  0
 71 72  2  0  0  0
 71 74  1  0  0  0
 71143  1  0  0  0
 72 75  1  0  0  0
 72144  1  0  0  0
 73 74  2  0  0  0
 73 76  1  0  0  0
 73145  1  0  0  0
 74 82  1  0  0  0
 75 76  2  0  0  0
 75 81  1  0  0  0
 76 83  1  0  0  0
 77 82  1  0  0  0
 77146  1  0  0  0
 77147  1  0  0  0
 77148  1  0  0  0
 78 79  1  0  0  0
 78 80  1  0  0  0
 78149  1  0  0  0
 78150  1  0  0  0
 79 82  1  0  0  0
 79151  1  0  0  0
 79152  1  0  0  0
 80153  1  0  0  0
 80154  1  0  0  0
 81155  1  0  0  0
M  ISO  4   1 100  68 101  80 101  81 100
M  END
> <chiral flag>
0

> <version>
0

> <s_m_source_file>
/data/baiqing/PycharmProjects/Reinvent-master-3.2/result/LINK_invent/BTK/process_docking_weight1_custom_product_contain_oxygen_bond_distance_aromatic_linkinvent_7_9_3/rearranged_h_0013.sdf

> <i_m_source_file_index>
30

> <r_mmod_Potential_Energy-OPLS-2005>
32.3138389587402

> <r_mmod_Stretch_Energy-OPLS-2005>
79.0290222167969

> <r_mmod_Bend_Energy-OPLS-2005>
145.368286132812

> <r_mmod_Torsional_Energy-OPLS-2005>
223.43359375

> <r_mmod_Improper_Torsional_Energy-OPLS-2005>
5.92296504974365

> <r_mmod_Van_der_Waal_Energy-OPLS-2005>
158.602645874023

> <r_mmod_Electrostatic_Energy-OPLS-2005>
-388.854034423828

> <r_mmod_Solvation_Energy-OPLS-2005>
-235.412231445312

> <b_mmod_Minimization_Converged-OPLS-2005>
0

> <r_mmod_RMS_Derivative-OPLS-2005>
3.11085104942322

$$$$
31
                    3D
 Structure written by MMmdl.
157166  0  0  1  0            999 V2000
  -30.6513  -14.5636   20.5313 C   0  0  0  0  0  0
  -30.4355  -12.3502   19.4437 C   0  0  0  0  0  0
  -29.5046  -12.5016   18.2206 C   0  0  0  0  0  0
  -28.0265  -12.3503   18.6322 C   0  0  0  0  0  0
  -27.6593  -13.2094   19.8718 C   0  0  2  0  0  0
  -28.7009  -13.0245   20.9989 C   0  0  0  0  0  0
  -25.2565  -13.8149   20.5637 C   0  0  0  0  0  0
  -24.1831  -13.0428   20.9163 C   0  0  0  0  0  0
  -24.6395  -11.6899   20.8735 C   0  0  0  0  0  0
  -23.9059  -10.4288   21.0405 C   0  0  0  0  0  0
  -24.3610   -9.4206   21.9186 C   0  0  0  0  0  0
  -23.6287   -8.2238   22.0754 C   0  0  0  0  0  0
  -22.4270   -8.0275   21.3543 C   0  0  0  0  0  0
  -21.9904   -9.0247   20.4644 C   0  0  0  0  0  0
  -22.7231  -10.2130   20.3055 C   0  0  0  0  0  0
  -21.6853   -6.0730   22.5278 C   0  0  0  0  0  0
  -21.4010   -6.5635   23.8211 C   0  0  0  0  0  0
  -21.3658   -5.6787   24.9174 C   0  0  0  0  0  0
  -21.6045   -4.3050   24.7227 C   0  0  0  0  0  0
  -21.8820   -3.8142   23.4346 C   0  0  0  0  0  0
  -21.9194   -4.6957   22.3400 C   0  0  0  0  0  0
  -22.7860  -13.5231   21.1837 C   0  0  0  0  0  0
  -22.1665   -4.2144   21.0976 F   0  0  0  0  0  0
  -21.5631   -3.4533   25.7739 F   0  0  0  0  0  0
  -30.0279  -13.3505   20.4473 N   0  0  0  0  0  0
  -26.3014  -12.9327   20.3348 N   0  0  0  0  0  0
  -25.9327  -11.6488   20.5777 N   0  0  0  0  0  0
  -22.0496  -12.8231   22.0397 N   0  0  0  0  0  0
  -25.4259  -15.1848   20.3979 N   0  0  0  0  0  0
  -31.7887  -14.7449   20.0877 O   0  0  0  0  0  0
  -21.6636   -6.8873   21.4238 O   0  0  0  0  0  0
  -22.3542  -14.5539   20.6693 O   0  0  0  0  0  0
  -24.6182  -31.8646   23.2068 C   0  0  0  0  0  0
  -25.9052  -32.4812   23.8385 C   0  0  1  0  0  0
  -27.2349  -27.3942   20.1055 C   0  0  0  0  0  0
  -25.5888  -33.8611   24.2315 N   0  0  0  0  0  0
  -23.4111  -30.4859   21.5465 C   0  0  2  0  0  0
  -24.8623  -28.9460   20.1153 C   0  0  0  0  0  0
  -22.7432  -29.4635   22.4951 C   0  0  0  0  0  0
  -18.0278  -28.1392   22.8497 C   0  0  0  0  0  0
  -24.1485  -36.7305   23.2634 C   0  0  0  0  0  0
  -25.9437  -30.8170   21.3685 C   0  0  0  0  0  0
  -26.0232  -29.4452   20.7213 C   0  0  0  0  0  0
  -27.2157  -28.6738   20.7205 C   0  0  0  0  0  0
  -26.0624  -26.9241   19.4859 C   0  0  0  0  0  0
  -24.8768  -27.6849   19.4948 C   0  0  0  0  0  0
  -23.6251  -29.8168   20.1623 C   0  0  0  0  0  0
  -25.4110  -36.3108   24.0340 C   0  0  1  0  0  0
  -20.5872  -28.3681   23.1310 C   0  0  2  0  0  0
  -20.6777  -26.9411   22.5419 C   0  0  0  0  0  0
  -19.5759  -26.6394   21.5218 C   0  0  0  0  0  0
  -18.1934  -26.7944   22.1621 C   0  0  0  0  0  0
  -19.1528  -28.8851   23.2906 C   0  0  0  0  0  0
  -18.9456  -30.1458   23.8917 C   0  0  0  0  0  0
  -17.6460  -30.6598   24.0575 C   0  0  0  0  0  0
  -25.9036  -34.9471   23.5130 C   0  0  0  0  0  0
  -16.5348  -29.9109   23.6329 C   0  0  0  0  0  0
  -16.7267  -28.6523   23.0350 C   0  0  0  0  0  0
  -26.4470  -31.6591   25.0717 C   0  0  0  0  0  0
  -25.3718  -31.3713   26.1452 C   0  0  0  0  0  0
  -27.0296  -30.3032   24.6097 C   0  0  0  0  0  0
  -27.6053  -32.4298   25.7484 C   0  0  0  0  0  0
  -27.5589  -37.1811   24.8467 C   0  0  0  0  0  0
  -21.4153  -29.3043   22.3710 N   0  0  0  0  0  0
  -26.4298  -37.3796   23.9412 N   0  0  0  0  0  0
  -24.6759  -31.0705   22.0989 N   0  0  0  0  0  0
  -23.4183  -28.8161   23.2996 O   0  0  0  0  0  0
  -28.3465  -26.5671   20.0808 O   0  0  0  0  0  0
  -26.5607  -34.8930   22.4698 O   0  0  0  0  0  0
  -23.5364  -32.1402   23.7439 O   0  0  0  0  0  0
  -30.6244  -19.0668   19.6452 C   0  0  0  0  0  0
  -30.7892  -17.6846   19.9357 C   0  0  0  0  0  0
  -28.6435  -19.1362   21.0222 C   0  0  0  0  0  0
  -29.5375  -19.8199   20.1623 C   0  0  0  0  0  0
  -29.8676  -16.9931   20.7643 C   0  0  0  0  0  0
  -28.8083  -17.7574   21.3216 C   0  0  0  0  0  0
  -28.0662  -23.1967   20.8758 C   0  0  0  0  0  0
  -29.9769  -23.6474   20.3656 C   0  0  0  0  0  0
  -28.9859  -24.3520   21.3114 C   0  0  1  0  0  0
  -29.2705  -21.2794   19.6786 C   0  0  0  0  0  0
  -28.6139  -25.8753   21.3177 C   0  0  0  0  0  0
  -29.8950  -15.5700   21.0401 N   0  0  0  0  0  0
  -29.2890  -22.3781   20.7024 N   0  3  2  0  0  0
  -27.6611  -16.9935   22.3658 Cl  0  0  0  0  0  0
  -31.4778  -12.4673   19.1415 H   0  0  0  0  0  0
  -30.3600  -11.3464   19.8632 H   0  0  0  0  0  0
  -29.7576  -11.7592   17.4628 H   0  0  0  0  0  0
  -29.6592  -13.4764   17.7556 H   0  0  0  0  0  0
  -27.8534  -11.2962   18.8519 H   0  0  0  0  0  0
  -27.3731  -12.5945   17.7939 H   0  0  0  0  0  0
  -27.6916  -14.2511   19.5520 H   0  0  0  0  0  0
  -28.6933  -11.9949   21.3586 H   0  0  0  0  0  0
  -28.4475  -13.6358   21.8658 H   0  0  0  0  0  0
  -25.2753   -9.5683   22.4759 H   0  0  0  0  0  0
  -23.9996   -7.4630   22.7473 H   0  0  0  0  0  0
  -21.0834   -8.8762   19.8947 H   0  0  0  0  0  0
  -22.3686  -10.9666   19.6158 H   0  0  0  0  0  0
  -21.1996   -7.6144   23.9713 H   0  0  0  0  0  0
  -21.1481   -6.0517   25.9078 H   0  0  0  0  0  0
  -22.0600   -2.7604   23.2845 H   0  0  0  0  0  0
  -22.4107  -11.9888   22.4785 H   0  0  0  0  0  0
  -21.1114  -13.1263   22.2598 H   0  0  0  0  0  0
  -24.6667  -15.8431   20.5305 H   0  0  0  0  0  0
  -26.2919  -15.6293   20.1241 H   0  0  0  0  0  0
  -26.7116  -32.5515   23.1143 H   0  0  0  0  0  0
  -25.0059  -33.9772   25.0477 H   0  0  0  0  0  0
  -22.7018  -31.3038   21.4037 H   0  0  0  0  0  0
  -23.3756  -35.9628   23.3309 H   0  0  0  0  0  0
  -24.3575  -36.8907   22.2043 H   0  0  0  0  0  0
  -23.7232  -37.6517   23.6632 H   0  0  0  0  0  0
  -26.0584  -31.5778   20.5952 H   0  0  0  0  0  0
  -26.8313  -30.8757   21.9865 H   0  0  0  0  0  0
  -28.1111  -29.0527   21.1934 H   0  0  0  0  0  0
  -26.0648  -25.9544   19.0079 H   0  0  0  0  0  0
  -23.9857  -27.2960   19.0213 H   0  0  0  0  0  0
  -23.7386  -30.5916   19.4033 H   0  0  0  0  0  0
  -22.7492  -29.2382   19.8621 H   0  0  0  0  0  0
  -25.1288  -36.1974   25.0835 H   0  0  0  0  0  0
  -20.9965  -28.3241   24.1430 H   0  0  0  0  0  0
  -20.5690  -26.2276   23.3602 H   0  0  0  0  0  0
  -21.6648  -26.7468   22.1200 H   0  0  0  0  0  0
  -19.6922  -25.6308   21.1244 H   0  0  0  0  0  0
  -19.6708  -27.3214   20.6757 H   0  0  0  0  0  0
  -17.4207  -26.6693   21.4019 H   0  0  0  0  0  0
  -18.0337  -26.0088   22.9015 H   0  0  0  0  0  0
  -19.7926  -30.7279   24.2285 H   0  0  0  0  0  0
  -17.5013  -31.6276   24.5184 H   0  0  0  0  0  0
  -15.5351  -30.3023   23.7649 H   0  0  0  0  0  0
  -15.8663  -28.0859   22.7046 H   0  0  0  0  0  0
  -24.5908  -30.7042   25.7797 H   0  0  0  0  0  0
  -24.8887  -32.2872   26.4864 H   0  0  0  0  0  0
  -25.8058  -30.8913   27.0233 H   0  0  0  0  0  0
  -26.2850  -29.6806   24.1129 H   0  0  0  0  0  0
  -27.4052  -29.7248   25.4549 H   0  0  0  0  0  0
  -27.8683  -30.4365   23.9264 H   0  0  0  0  0  0
  -27.2693  -33.3609   26.2068 H   0  0  0  0  0  0
  -28.3864  -32.6839   25.0302 H   0  0  0  0  0  0
  -28.0709  -31.8403   26.5394 H   0  0  0  0  0  0
  -28.2609  -38.0106   24.7527 H   0  0  0  0  0  0
  -28.1084  -36.2646   24.6276 H   0  0  0  0  0  0
  -27.2308  -37.1437   25.8870 H   0  0  0  0  0  0
  -20.9316  -29.8756   21.6929 H   0  0  0  0  0  0
  -26.0188  -38.2875   24.1420 H   0  0  0  0  0  0
  -31.3268  -19.5357   18.9693 H   0  0  0  0  0  0
  -31.6187  -17.1639   19.4795 H   0  0  0  0  0  0
  -27.7912  -19.6563   21.4356 H   0  0  0  0  0  0
  -27.5322  -23.3989   19.9439 H   0  0  0  0  0  0
  -27.3930  -22.8291   21.6505 H   0  0  0  0  0  0
  -31.0188  -23.6828   20.6849 H   0  0  0  0  0  0
  -29.8673  -23.9454   19.3200 H   0  0  0  0  0  0
  -29.3004  -24.1276   22.3354 H   0  0  0  0  0  0
  -28.3128  -21.2888   19.1570 H   0  0  0  0  0  0
  -30.0107  -21.5179   18.9138 H   0  0  0  0  0  0
  -29.4291  -26.4254   21.7889 H   0  0  0  0  0  0
  -27.7706  -26.0064   21.9989 H   0  0  0  0  0  0
  -29.0675  -15.2432   21.5167 H   0  0  0  0  0  0
  -29.6200  -22.0321   21.5892 H   0  0  0  0  0  0
  1 25  1  0  0  0
  1 30  2  0  0  0
  1 82  1  0  0  0
  2  3  1  0  0  0
  2 25  1  0  0  0
  2 85  1  0  0  0
  2 86  1  0  0  0
  3  4  1  0  0  0
  3 87  1  0  0  0
  3 88  1  0  0  0
  4  5  1  0  0  0
  4 89  1  0  0  0
  4 90  1  0  0  0
  5  6  1  0  0  0
  5 26  1  0  0  0
  5 91  1  0  0  0
  6 25  1  0  0  0
  6 92  1  0  0  0
  6 93  1  0  0  0
  7  8  2  0  0  0
  7 26  1  0  0  0
  7 29  1  0  0  0
  8  9  1  0  0  0
  8 22  1  0  0  0
  9 10  1  0  0  0
  9 27  2  0  0  0
 10 11  2  0  0  0
 10 15  1  0  0  0
 11 12  1  0  0  0
 11 94  1  0  0  0
 12 13  2  0  0  0
 12 95  1  0  0  0
 13 14  1  0  0  0
 13 31  1  0  0  0
 14 15  2  0  0  0
 14 96  1  0  0  0
 15 97  1  0  0  0
 16 17  2  0  0  0
 16 21  1  0  0  0
 16 31  1  0  0  0
 17 18  1  0  0  0
 17 98  1  0  0  0
 18 19  2  0  0  0
 18 99  1  0  0  0
 19 20  1  0  0  0
 19 24  1  0  0  0
 20 21  2  0  0  0
 20100  1  0  0  0
 21 23  1  0  0  0
 22 28  1  0  0  0
 22 32  2  0  0  0
 26 27  1  0  0  0
 28101  1  0  0  0
 28102  1  0  0  0
 29103  1  0  0  0
 29104  1  0  0  0
 33 34  1  0  0  0
 33 66  1  0  0  0
 33 70  2  0  0  0
 34 36  1  0  0  0
 34 59  1  0  0  0
 34105  1  0  0  0
 35 44  2  0  0  0
 35 45  1  0  0  0
 35 68  1  0  0  0
 36 56  1  0  0  0
 36106  1  0  0  0
 37 39  1  0  0  0
 37 47  1  0  0  0
 37 66  1  0  0  0
 37107  1  0  0  0
 38 43  2  0  0  0
 38 46  1  0  0  0
 38 47  1  0  0  0
 39 64  1  0  0  0
 39 67  2  0  0  0
 40 52  1  0  0  0
 40 53  2  0  0  0
 40 58  1  0  0  0
 41108  1  0  0  0
 41109  1  0  0  0
 41110  1  0  0  0
 41 48  1  0  0  0
 42 43  1  0  0  0
 42 66  1  0  0  0
 42111  1  0  0  0
 42112  1  0  0  0
 43 44  1  0  0  0
 44113  1  0  0  0
 45 46  2  0  0  0
 45114  1  0  0  0
 46115  1  0  0  0
 47116  1  0  0  0
 47117  1  0  0  0
 48 56  1  0  0  0
 48 65  1  0  0  0
 48118  1  0  0  0
 49 50  1  0  0  0
 49 53  1  0  0  0
 49 64  1  0  0  0
 49119  1  0  0  0
 50 51  1  0  0  0
 50120  1  0  0  0
 50121  1  0  0  0
 51 52  1  0  0  0
 51122  1  0  0  0
 51123  1  0  0  0
 52124  1  0  0  0
 52125  1  0  0  0
 53 54  1  0  0  0
 54 55  2  0  0  0
 54126  1  0  0  0
 55 57  1  0  0  0
 55127  1  0  0  0
 56 69  2  0  0  0
 57 58  2  0  0  0
 57128  1  0  0  0
 58129  1  0  0  0
 59 60  1  0  0  0
 59 61  1  0  0  0
 59 62  1  0  0  0
 60130  1  0  0  0
 60131  1  0  0  0
 60132  1  0  0  0
 61133  1  0  0  0
 61134  1  0  0  0
 61135  1  0  0  0
 62136  1  0  0  0
 62137  1  0  0  0
 62138  1  0  0  0
 63 65  1  0  0  0
 63139  1  0  0  0
 63140  1  0  0  0
 63141  1  0  0  0
 64142  1  0  0  0
 65143  1  0  0  0
 68 81  1  0  0  0
 71 72  2  0  0  0
 71 74  1  0  0  0
 71144  1  0  0  0
 72 75  1  0  0  0
 72145  1  0  0  0
 73 74  2  0  0  0
 73 76  1  0  0  0
 73146  1  0  0  0
 74 80  1  0  0  0
 75 76  2  0  0  0
 75 82  1  0  0  0
 76 84  1  0  0  0
 77 79  1  0  0  0
 77 83  1  0  0  0
 77147  1  0  0  0
 77148  1  0  0  0
 78 79  1  0  0  0
 78 83  1  0  0  0
 78149  1  0  0  0
 78150  1  0  0  0
 79 81  1  0  0  0
 79151  1  0  0  0
 80152  1  0  0  0
 80153  1  0  0  0
 80 83  1  0  0  0
 81154  1  0  0  0
 81155  1  0  0  0
 82156  1  0  0  0
 83157  1  0  0  0
M  CHG  1  83   1
M  ISO  4   1 100  68 101  81 101  82 100
M  END
> <chiral flag>
0

> <version>
0

> <s_m_source_file>
/data/baiqing/PycharmProjects/Reinvent-master-3.2/result/LINK_invent/BTK/process_docking_weight1_custom_product_contain_oxygen_bond_distance_aromatic_linkinvent_7_9_3/rearranged_h_0013.sdf

> <i_m_source_file_index>
31

> <r_mmod_Potential_Energy-OPLS-2005>
-152.818222045898

> <r_mmod_Stretch_Energy-OPLS-2005>
53.2939186096191

> <r_mmod_Bend_Energy-OPLS-2005>
148.794952392578

> <r_mmod_Torsional_Energy-OPLS-2005>
259.320617675781

> <r_mmod_Improper_Torsional_Energy-OPLS-2005>
3.90220999717712

> <r_mmod_Van_der_Waal_Energy-OPLS-2005>
141.777481079102

> <r_mmod_Electrostatic_Energy-OPLS-2005>
-317.259582519531

> <r_mmod_Solvation_Energy-OPLS-2005>
-467.701171875

> <b_mmod_Minimization_Converged-OPLS-2005>
0

> <r_mmod_RMS_Derivative-OPLS-2005>
1.31523633003235

$$$$
32
                    3D
 Structure written by MMmdl.
148156  0  0  1  0            999 V2000
  -30.5214  -14.9152   20.4322 C   0  0  0  0  0  0
  -30.4560  -12.5613   19.4932 C   0  0  0  0  0  0
  -29.5263  -12.5225   18.2560 C   0  0  0  0  0  0
  -28.0560  -12.3176   18.6734 C   0  0  0  0  0  0
  -27.6385  -13.2396   19.8491 C   0  0  2  0  0  0
  -28.6855  -13.2218   20.9846 C   0  0  0  0  0  0
  -25.2459  -13.8158   20.5697 C   0  0  0  0  0  0
  -24.1765  -13.0390   20.9179 C   0  0  0  0  0  0
  -24.6393  -11.6885   20.8728 C   0  0  0  0  0  0
  -23.9070  -10.4267   21.0393 C   0  0  0  0  0  0
  -24.3618   -9.4189   21.9177 C   0  0  0  0  0  0
  -23.6287   -8.2227   22.0750 C   0  0  0  0  0  0
  -22.4268   -8.0269   21.3541 C   0  0  0  0  0  0
  -21.9903   -9.0243   20.4647 C   0  0  0  0  0  0
  -22.7235  -10.2117   20.3050 C   0  0  0  0  0  0
  -21.6852   -6.0726   22.5279 C   0  0  0  0  0  0
  -21.4012   -6.5629   23.8210 C   0  0  0  0  0  0
  -21.3659   -5.6784   24.9173 C   0  0  0  0  0  0
  -21.6046   -4.3046   24.7225 C   0  0  0  0  0  0
  -21.8819   -3.8139   23.4345 C   0  0  0  0  0  0
  -21.9194   -4.6956   22.3402 C   0  0  0  0  0  0
  -22.7791  -13.5179   21.1863 C   0  0  0  0  0  0
  -22.1663   -4.2144   21.0979 F   0  0  0  0  0  0
  -21.5632   -3.4530   25.7737 F   0  0  0  0  0  0
  -29.9702  -13.6372   20.3996 N   0  0  0  0  0  0
  -26.2930  -12.9409   20.3303 N   0  0  0  0  0  0
  -25.9337  -11.6539   20.5759 N   0  0  0  0  0  0
  -22.0457  -12.8183   22.0447 N   0  0  0  0  0  0
  -25.4009  -15.1882   20.4184 N   0  0  0  0  0  0
  -31.7098  -15.0488   20.1197 O   0  0  0  0  0  0
  -21.6633   -6.8868   21.4238 O   0  0  0  0  0  0
  -22.3464  -14.5487   20.6720 O   0  0  0  0  0  0
  -24.6417  -31.8452   23.1899 C   0  0  0  0  0  0
  -25.9199  -32.4701   23.8276 C   0  0  1  0  0  0
  -27.2222  -27.1526   20.1448 C   0  0  0  0  0  0
  -25.5963  -33.8506   24.2202 N   0  0  0  0  0  0
  -23.4442  -30.4662   21.5348 C   0  0  2  0  0  0
  -24.8945  -28.8965   20.1100 C   0  0  0  0  0  0
  -22.7558  -29.4553   22.4857 C   0  0  0  0  0  0
  -18.0310  -28.1394   22.8468 C   0  0  0  0  0  0
  -24.1494  -36.7248   23.2642 C   0  0  0  0  0  0
  -25.9996  -30.7246   21.3863 C   0  0  0  0  0  0
  -26.0726  -29.3379   20.7264 C   0  0  0  0  0  0
  -27.2371  -28.4831   20.7255 C   0  0  0  0  0  0
  -26.0147  -26.8095   19.4943 C   0  0  0  0  0  0
  -24.8785  -27.6452   19.4787 C   0  0  0  0  0  0
  -23.6702  -29.7971   20.1536 C   0  0  0  0  0  0
  -25.4127  -36.3035   24.0318 C   0  0  1  0  0  0
  -20.5917  -28.3714   23.1234 C   0  0  2  0  0  0
  -20.6791  -26.9415   22.5409 C   0  0  0  0  0  0
  -19.5773  -26.6381   21.5204 C   0  0  0  0  0  0
  -18.1953  -26.7936   22.1610 C   0  0  0  0  0  0
  -19.1564  -28.8872   23.2845 C   0  0  0  0  0  0
  -18.9482  -30.1470   23.8868 C   0  0  0  0  0  0
  -17.6479  -30.6588   24.0559 C   0  0  0  0  0  0
  -25.9072  -34.9408   23.5067 C   0  0  0  0  0  0
  -16.5370  -29.9079   23.6341 C   0  0  0  0  0  0
  -16.7295  -28.6502   23.0351 C   0  0  0  0  0  0
  -26.4528  -31.6562   25.0707 C   0  0  0  0  0  0
  -25.3724  -31.3763   26.1419 C   0  0  0  0  0  0
  -27.0377  -30.2957   24.6274 C   0  0  0  0  0  0
  -27.6085  -32.4306   25.7471 C   0  0  0  0  0  0
  -27.5583  -37.1777   24.8465 C   0  0  0  0  0  0
  -21.4253  -29.3042   22.3607 N   0  0  0  0  0  0
  -26.4289  -37.3751   23.9413 N   0  0  0  0  0  0
  -24.7147  -31.0326   22.0924 N   0  0  0  0  0  0
  -23.4214  -28.8101   23.2998 O   0  0  0  0  0  0
  -28.2831  -26.1774   20.2081 O   0  0  0  0  0  0
  -26.5645  -34.8904   22.4637 O   0  0  0  0  0  0
  -23.5543  -32.1321   23.7134 O   0  0  0  0  0  0
  -30.5390  -18.5592   20.3119 C   0  0  0  0  0  0
  -30.2281  -19.9961   20.2516 C   0  0  0  0  0  0
  -27.9577  -19.5005   20.6233 C   0  0  0  0  0  0
  -29.5558  -17.5246   20.5374 C   0  0  0  0  0  0
  -28.9022  -20.5492   20.4006 C   0  0  0  0  0  0
  -28.2572  -18.0929   20.6946 C   0  0  0  0  0  0
  -27.9882  -24.6555   20.0887 C   0  0  0  0  0  0
  -28.9899  -23.3140   20.2894 C   0  0  0  0  0  0
  -29.6477  -16.0010   20.6557 N   0  0  0  0  0  0
  -28.3721  -21.9139   20.3335 O   0  0  0  0  0  0
  -27.2334  -17.2380   20.9233 F   0  0  0  0  0  0
  -31.4877  -12.7311   19.1805 H   0  0  0  0  0  0
  -30.4555  -11.5990   20.0081 H   0  0  0  0  0  0
  -29.8357  -11.7251   17.5785 H   0  0  0  0  0  0
  -29.6217  -13.4538   17.6962 H   0  0  0  0  0  0
  -27.9448  -11.2745   18.9718 H   0  0  0  0  0  0
  -27.3927  -12.4619   17.8198 H   0  0  0  0  0  0
  -27.6113  -14.2499   19.4400 H   0  0  0  0  0  0
  -28.7627  -12.2279   21.4282 H   0  0  0  0  0  0
  -28.3905  -13.8918   21.7938 H   0  0  0  0  0  0
  -25.2762   -9.5668   22.4749 H   0  0  0  0  0  0
  -23.9997   -7.4619   22.7465 H   0  0  0  0  0  0
  -21.0833   -8.8763   19.8957 H   0  0  0  0  0  0
  -22.3691  -10.9656   19.6162 H   0  0  0  0  0  0
  -21.2000   -7.6137   23.9710 H   0  0  0  0  0  0
  -21.1484   -6.0514   25.9077 H   0  0  0  0  0  0
  -22.0601   -2.7602   23.2845 H   0  0  0  0  0  0
  -22.4080  -11.9854   22.4844 H   0  0  0  0  0  0
  -21.1086  -13.1224   22.2682 H   0  0  0  0  0  0
  -24.6307  -15.8255   20.5832 H   0  0  0  0  0  0
  -26.2721  -15.6785   20.2515 H   0  0  0  0  0  0
  -26.7256  -32.5313   23.0995 H   0  0  0  0  0  0
  -25.0120  -33.9624   25.0359 H   0  0  0  0  0  0
  -22.7457  -31.2916   21.3825 H   0  0  0  0  0  0
  -23.3764  -35.9569   23.3295 H   0  0  0  0  0  0
  -24.3583  -36.8891   22.2059 H   0  0  0  0  0  0
  -23.7234  -37.6438   23.6676 H   0  0  0  0  0  0
  -26.1548  -31.4813   20.6161 H   0  0  0  0  0  0
  -26.8698  -30.7733   22.0286 H   0  0  0  0  0  0
  -28.1339  -28.8182   21.2272 H   0  0  0  0  0  0
  -25.9091  -25.8553   19.0022 H   0  0  0  0  0  0
  -23.9799  -27.3022   18.9846 H   0  0  0  0  0  0
  -23.8050  -30.5726   19.3985 H   0  0  0  0  0  0
  -22.7852  -29.2385   19.8435 H   0  0  0  0  0  0
  -25.1315  -36.1864   25.0809 H   0  0  0  0  0  0
  -21.0014  -28.3306   24.1352 H   0  0  0  0  0  0
  -20.5663  -26.2325   23.3628 H   0  0  0  0  0  0
  -21.6662  -26.7413   22.1223 H   0  0  0  0  0  0
  -19.6932  -25.6283   21.1254 H   0  0  0  0  0  0
  -19.6724  -27.3171   20.6718 H   0  0  0  0  0  0
  -17.4226  -26.6676   21.4011 H   0  0  0  0  0  0
  -18.0354  -26.0083   22.9012 H   0  0  0  0  0  0
  -19.7958  -30.7294   24.2221 H   0  0  0  0  0  0
  -17.5034  -31.6265   24.5168 H   0  0  0  0  0  0
  -15.5369  -30.2970   23.7682 H   0  0  0  0  0  0
  -15.8697  -28.0816   22.7070 H   0  0  0  0  0  0
  -24.5924  -30.7070   25.7768 H   0  0  0  0  0  0
  -24.8877  -32.2943   26.4751 H   0  0  0  0  0  0
  -25.8032  -30.9027   27.0250 H   0  0  0  0  0  0
  -26.2980  -29.6682   24.1288 H   0  0  0  0  0  0
  -27.4006  -29.7261   25.4840 H   0  0  0  0  0  0
  -27.8891  -30.4196   23.9575 H   0  0  0  0  0  0
  -27.2716  -33.3639   26.1992 H   0  0  0  0  0  0
  -28.3918  -32.6809   25.0300 H   0  0  0  0  0  0
  -28.0715  -31.8450   26.5425 H   0  0  0  0  0  0
  -28.2603  -38.0072   24.7516 H   0  0  0  0  0  0
  -28.1080  -36.2606   24.6286 H   0  0  0  0  0  0
  -27.2304  -37.1424   25.8870 H   0  0  0  0  0  0
  -20.9449  -29.8759   21.6797 H   0  0  0  0  0  0
  -26.0160  -38.2818   24.1433 H   0  0  0  0  0  0
  -31.5690  -18.2594   20.1836 H   0  0  0  0  0  0
  -31.0442  -20.6817   20.0723 H   0  0  0  0  0  0
  -26.9238  -19.7840   20.7511 H   0  0  0  0  0  0
  -27.1559  -24.4881   20.7736 H   0  0  0  0  0  0
  -27.5690  -24.5159   19.0932 H   0  0  0  0  0  0
  -29.5433  -23.4398   21.2200 H   0  0  0  0  0  0
  -29.7405  -23.3184   19.4988 H   0  0  0  0  0  0
  -28.7399  -15.6306   20.8942 H   0  0  0  0  0  0
  1 25  1  0  0  0
  1 30  2  0  0  0
  1 79  1  0  0  0
  2  3  1  0  0  0
  2 25  1  0  0  0
  2 82  1  0  0  0
  2 83  1  0  0  0
  3  4  1  0  0  0
  3 84  1  0  0  0
  3 85  1  0  0  0
  4  5  1  0  0  0
  4 86  1  0  0  0
  4 87  1  0  0  0
  5  6  1  0  0  0
  5 26  1  0  0  0
  5 88  1  0  0  0
  6 25  1  0  0  0
  6 89  1  0  0  0
  6 90  1  0  0  0
  7  8  2  0  0  0
  7 26  1  0  0  0
  7 29  1  0  0  0
  8  9  1  0  0  0
  8 22  1  0  0  0
  9 10  1  0  0  0
  9 27  2  0  0  0
 10 11  2  0  0  0
 10 15  1  0  0  0
 11 12  1  0  0  0
 11 91  1  0  0  0
 12 13  2  0  0  0
 12 92  1  0  0  0
 13 14  1  0  0  0
 13 31  1  0  0  0
 14 15  2  0  0  0
 14 93  1  0  0  0
 15 94  1  0  0  0
 16 17  2  0  0  0
 16 21  1  0  0  0
 16 31  1  0  0  0
 17 18  1  0  0  0
 17 95  1  0  0  0
 18 19  2  0  0  0
 18 96  1  0  0  0
 19 20  1  0  0  0
 19 24  1  0  0  0
 20 21  2  0  0  0
 20 97  1  0  0  0
 21 23  1  0  0  0
 22 28  1  0  0  0
 22 32  2  0  0  0
 26 27  1  0  0  0
 28 98  1  0  0  0
 28 99  1  0  0  0
 29100  1  0  0  0
 29101  1  0  0  0
 33 34  1  0  0  0
 33 66  1  0  0  0
 33 70  2  0  0  0
 34 36  1  0  0  0
 34 59  1  0  0  0
 34102  1  0  0  0
 35 44  2  0  0  0
 35 45  1  0  0  0
 35 68  1  0  0  0
 36 56  1  0  0  0
 36103  1  0  0  0
 37 39  1  0  0  0
 37 47  1  0  0  0
 37 66  1  0  0  0
 37104  1  0  0  0
 38 43  2  0  0  0
 38 46  1  0  0  0
 38 47  1  0  0  0
 39 64  1  0  0  0
 39 67  2  0  0  0
 40 52  1  0  0  0
 40 53  2  0  0  0
 40 58  1  0  0  0
 41105  1  0  0  0
 41106  1  0  0  0
 41107  1  0  0  0
 41 48  1  0  0  0
 42 43  1  0  0  0
 42 66  1  0  0  0
 42108  1  0  0  0
 42109  1  0  0  0
 43 44  1  0  0  0
 44110  1  0  0  0
 45 46  2  0  0  0
 45111  1  0  0  0
 46112  1  0  0  0
 47113  1  0  0  0
 47114  1  0  0  0
 48 56  1  0  0  0
 48 65  1  0  0  0
 48115  1  0  0  0
 49 50  1  0  0  0
 49 53  1  0  0  0
 49 64  1  0  0  0
 49116  1  0  0  0
 50 51  1  0  0  0
 50117  1  0  0  0
 50118  1  0  0  0
 51 52  1  0  0  0
 51119  1  0  0  0
 51120  1  0  0  0
 52121  1  0  0  0
 52122  1  0  0  0
 53 54  1  0  0  0
 54 55  2  0  0  0
 54123  1  0  0  0
 55 57  1  0  0  0
 55124  1  0  0  0
 56 69  2  0  0  0
 57 58  2  0  0  0
 57125  1  0  0  0
 58126  1  0  0  0
 59 60  1  0  0  0
 59 61  1  0  0  0
 59 62  1  0  0  0
 60127  1  0  0  0
 60128  1  0  0  0
 60129  1  0  0  0
 61130  1  0  0  0
 61131  1  0  0  0
 61132  1  0  0  0
 62133  1  0  0  0
 62134  1  0  0  0
 62135  1  0  0  0
 63 65  1  0  0  0
 63136  1  0  0  0
 63137  1  0  0  0
 63138  1  0  0  0
 64139  1  0  0  0
 65140  1  0  0  0
 68 77  1  0  0  0
 71 72  2  0  0  0
 71 74  1  0  0  0
 71141  1  0  0  0
 72 75  1  0  0  0
 72142  1  0  0  0
 73 75  2  0  0  0
 73 76  1  0  0  0
 73143  1  0  0  0
 74 76  2  0  0  0
 74 79  1  0  0  0
 75 80  1  0  0  0
 76 81  1  0  0  0
 77 78  1  0  0  0
 77144  1  0  0  0
 77145  1  0  0  0
 78 80  1  0  0  0
 78146  1  0  0  0
 78147  1  0  0  0
 79148  1  0  0  0
M  ISO  4   1 100  68 101  77 101  79 100
M  END
> <chiral flag>
0

> <version>
0

> <s_m_source_file>
/data/baiqing/PycharmProjects/Reinvent-master-3.2/result/LINK_invent/BTK/process_docking_weight1_custom_product_contain_oxygen_bond_distance_aromatic_linkinvent_7_9_3/rearranged_h_0013.sdf

> <i_m_source_file_index>
32

> <r_mmod_Potential_Energy-OPLS-2005>
429.317779541016

> <r_mmod_Stretch_Energy-OPLS-2005>
215.171890258789

> <r_mmod_Bend_Energy-OPLS-2005>
307.654571533203

> <r_mmod_Torsional_Energy-OPLS-2005>
210.088012695312

> <r_mmod_Improper_Torsional_Energy-OPLS-2005>
3.85878729820251

> <r_mmod_Van_der_Waal_Energy-OPLS-2005>
133.190078735352

> <r_mmod_Electrostatic_Energy-OPLS-2005>
-411.460144042969

> <r_mmod_Solvation_Energy-OPLS-2005>
-203.061370849609

> <b_mmod_Minimization_Converged-OPLS-2005>
0

> <r_mmod_RMS_Derivative-OPLS-2005>
0.840658664703369

$$$$
33
                    3D
 Structure written by MMmdl.
152161  0  0  1  0            999 V2000
  -30.5181  -14.9331   20.4108 C   0  0  0  0  0  0
  -30.4507  -12.5698   19.4892 C   0  0  0  0  0  0
  -29.5235  -12.5347   18.2505 C   0  0  0  0  0  0
  -28.0564  -12.3221   18.6682 C   0  0  0  0  0  0
  -27.6389  -13.2412   19.8447 C   0  0  2  0  0  0
  -28.6865  -13.2366   20.9805 C   0  0  0  0  0  0
  -25.2514  -13.8217   20.5708 C   0  0  0  0  0  0
  -24.1816  -13.0453   20.9220 C   0  0  0  0  0  0
  -24.6413  -11.6931   20.8754 C   0  0  0  0  0  0
  -23.9080  -10.4303   21.0404 C   0  0  0  0  0  0
  -24.3625   -9.4214   21.9179 C   0  0  0  0  0  0
  -23.6293   -8.2253   22.0752 C   0  0  0  0  0  0
  -22.4275   -8.0293   21.3533 C   0  0  0  0  0  0
  -21.9908   -9.0274   20.4645 C   0  0  0  0  0  0
  -22.7249  -10.2150   20.3059 C   0  0  0  0  0  0
  -21.6858   -6.0729   22.5272 C   0  0  0  0  0  0
  -21.4016   -6.5630   23.8203 C   0  0  0  0  0  0
  -21.3660   -5.6783   24.9165 C   0  0  0  0  0  0
  -21.6052   -4.3046   24.7218 C   0  0  0  0  0  0
  -21.8819   -3.8133   23.4341 C   0  0  0  0  0  0
  -21.9194   -4.6955   22.3395 C   0  0  0  0  0  0
  -22.7836  -13.5233   21.1883 C   0  0  0  0  0  0
  -22.1663   -4.2138   21.0969 F   0  0  0  0  0  0
  -21.5625   -3.4534   25.7737 F   0  0  0  0  0  0
  -29.9692  -13.6520   20.3917 N   0  0  0  0  0  0
  -26.2939  -12.9431   20.3269 N   0  0  0  0  0  0
  -25.9355  -11.6570   20.5741 N   0  0  0  0  0  0
  -22.0465  -12.8233   22.0432 N   0  0  0  0  0  0
  -25.4192  -15.1943   20.4112 N   0  0  0  0  0  0
  -31.7052  -15.0595   20.0915 O   0  0  0  0  0  0
  -21.6643   -6.8885   21.4237 O   0  0  0  0  0  0
  -22.3531  -14.5538   20.6730 O   0  0  0  0  0  0
  -24.6452  -31.8439   23.1890 C   0  0  0  0  0  0
  -25.9219  -32.4697   23.8285 C   0  0  1  0  0  0
  -27.2252  -27.1285   20.1386 C   0  0  0  0  0  0
  -25.5963  -33.8503   24.2207 N   0  0  0  0  0  0
  -23.4508  -30.4627   21.5344 C   0  0  2  0  0  0
  -24.9032  -28.8919   20.1094 C   0  0  0  0  0  0
  -22.7586  -29.4533   22.4847 C   0  0  0  0  0  0
  -18.0311  -28.1394   22.8478 C   0  0  0  0  0  0
  -24.1485  -36.7240   23.2640 C   0  0  0  0  0  0
  -26.0103  -30.7114   21.3947 C   0  0  0  0  0  0
  -26.0813  -29.3231   20.7320 C   0  0  0  0  0  0
  -27.2409  -28.4562   20.7336 C   0  0  0  0  0  0
  -26.0231  -26.8136   19.4641 C   0  0  0  0  0  0
  -24.8868  -27.6499   19.4614 C   0  0  0  0  0  0
  -23.6807  -29.7955   20.1533 C   0  0  0  0  0  0
  -25.4117  -36.3032   24.0319 C   0  0  1  0  0  0
  -20.5927  -28.3717   23.1231 C   0  0  2  0  0  0
  -20.6791  -26.9414   22.5407 C   0  0  0  0  0  0
  -19.5759  -26.6370   21.5216 C   0  0  0  0  0  0
  -18.1942  -26.7934   22.1631 C   0  0  0  0  0  0
  -19.1571  -28.8875   23.2852 C   0  0  0  0  0  0
  -18.9482  -30.1470   23.8881 C   0  0  0  0  0  0
  -17.6476  -30.6588   24.0556 C   0  0  0  0  0  0
  -25.9075  -34.9402   23.5069 C   0  0  0  0  0  0
  -16.5366  -29.9076   23.6331 C   0  0  0  0  0  0
  -16.7297  -28.6493   23.0356 C   0  0  0  0  0  0
  -26.4518  -31.6572   25.0744 C   0  0  0  0  0  0
  -25.3706  -31.3784   26.1451 C   0  0  0  0  0  0
  -27.0370  -30.2952   24.6353 C   0  0  0  0  0  0
  -27.6067  -32.4320   25.7510 C   0  0  0  0  0  0
  -27.5573  -37.1775   24.8461 C   0  0  0  0  0  0
  -21.4273  -29.3039   22.3600 N   0  0  0  0  0  0
  -26.4280  -37.3749   23.9411 N   0  0  0  0  0  0
  -24.7217  -31.0273   22.0941 N   0  0  0  0  0  0
  -23.4223  -28.8081   23.3010 O   0  0  0  0  0  0
  -28.2682  -26.1257   20.2153 O   0  0  0  0  0  0
  -26.5649  -34.8898   22.4646 O   0  0  0  0  0  0
  -23.5561  -32.1318   23.7096 O   0  0  0  0  0  0
  -28.1163  -19.6175   21.0036 C   0  0  0  0  0  0
  -28.3973  -18.2027   21.0578 C   0  0  0  0  0  0
  -30.4449  -18.5572   19.9681 C   0  0  0  0  0  0
  -28.9623  -20.6306   20.4291 C   0  0  0  0  0  0
  -29.5677  -17.5629   20.5448 C   0  0  0  0  0  0
  -30.1633  -20.0023   19.9098 C   0  0  0  0  0  0
  -29.0477  -23.3786   20.0705 C   0  0  0  0  0  0
  -26.9105  -23.9747   20.8529 C   0  0  0  0  0  0
  -27.1046  -22.4338   20.7501 C   0  0  0  0  0  0
  -27.9716  -24.6092   19.9557 C   0  0  1  0  0  0
  -28.4982  -22.1163   20.3888 N   0  0  0  0  0  0
  -29.6488  -16.0285   20.6441 N   0  0  0  0  0  0
  -30.2500  -23.5748   19.8695 O   0  0  0  0  0  0
  -31.0845  -20.7884   19.3028 F   0  0  0  0  0  0
  -31.4840  -12.7314   19.1785 H   0  0  0  0  0  0
  -30.4419  -11.6083   20.0059 H   0  0  0  0  0  0
  -29.8324  -11.7440   17.5659 H   0  0  0  0  0  0
  -29.6158  -13.4715   17.6976 H   0  0  0  0  0  0
  -27.9491  -11.2769   18.9620 H   0  0  0  0  0  0
  -27.3930  -12.4705   17.8152 H   0  0  0  0  0  0
  -27.6090  -14.2485   19.4305 H   0  0  0  0  0  0
  -28.7686  -12.2489   21.4359 H   0  0  0  0  0  0
  -28.3896  -13.9164   21.7809 H   0  0  0  0  0  0
  -25.2768   -9.5685   22.4757 H   0  0  0  0  0  0
  -23.9989   -7.4648   22.7484 H   0  0  0  0  0  0
  -21.0821   -8.8820   19.8960 H   0  0  0  0  0  0
  -22.3709  -10.9701   19.6175 H   0  0  0  0  0  0
  -21.2004   -7.6139   23.9709 H   0  0  0  0  0  0
  -21.1478   -6.0504   25.9065 H   0  0  0  0  0  0
  -22.0592   -2.7595   23.2852 H   0  0  0  0  0  0
  -22.4060  -11.9897   22.4838 H   0  0  0  0  0  0
  -21.1093  -13.1289   22.2637 H   0  0  0  0  0  0
  -24.6419  -15.8401   20.5034 H   0  0  0  0  0  0
  -26.2478  -15.6305   20.0285 H   0  0  0  0  0  0
  -26.7297  -32.5300   23.1023 H   0  0  0  0  0  0
  -25.0084  -33.9603   25.0334 H   0  0  0  0  0  0
  -22.7529  -31.2889   21.3798 H   0  0  0  0  0  0
  -23.3757  -35.9563   23.3305 H   0  0  0  0  0  0
  -24.3565  -36.8859   22.2051 H   0  0  0  0  0  0
  -23.7225  -37.6431   23.6673 H   0  0  0  0  0  0
  -26.1745  -31.4693   20.6277 H   0  0  0  0  0  0
  -26.8770  -30.7571   22.0426 H   0  0  0  0  0  0
  -28.1351  -28.7792   21.2478 H   0  0  0  0  0  0
  -25.9189  -25.8761   18.9430 H   0  0  0  0  0  0
  -23.9914  -27.3171   18.9540 H   0  0  0  0  0  0
  -23.8212  -30.5731   19.4015 H   0  0  0  0  0  0
  -22.7952  -29.2414   19.8373 H   0  0  0  0  0  0
  -25.1297  -36.1860   25.0808 H   0  0  0  0  0  0
  -21.0020  -28.3315   24.1355 H   0  0  0  0  0  0
  -20.5667  -26.2325   23.3624 H   0  0  0  0  0  0
  -21.6662  -26.7398   22.1214 H   0  0  0  0  0  0
  -19.6905  -25.6278   21.1249 H   0  0  0  0  0  0
  -19.6690  -27.3175   20.6741 H   0  0  0  0  0  0
  -17.4205  -26.6686   21.4044 H   0  0  0  0  0  0
  -18.0333  -26.0082   22.9028 H   0  0  0  0  0  0
  -19.7956  -30.7295   24.2246 H   0  0  0  0  0  0
  -17.5024  -31.6264   24.5155 H   0  0  0  0  0  0
  -15.5363  -30.2965   23.7669 H   0  0  0  0  0  0
  -15.8702  -28.0796   22.7087 H   0  0  0  0  0  0
  -24.5848  -30.7170   25.7787 H   0  0  0  0  0  0
  -24.8948  -32.2979   26.4865 H   0  0  0  0  0  0
  -25.7981  -30.8948   27.0243 H   0  0  0  0  0  0
  -26.2990  -29.6677   24.1343 H   0  0  0  0  0  0
  -27.3934  -29.7253   25.4945 H   0  0  0  0  0  0
  -27.8930  -30.4160   23.9713 H   0  0  0  0  0  0
  -27.2681  -33.3630   26.2058 H   0  0  0  0  0  0
  -28.3893  -32.6847   25.0352 H   0  0  0  0  0  0
  -28.0725  -31.8467   26.5445 H   0  0  0  0  0  0
  -28.2595  -38.0071   24.7516 H   0  0  0  0  0  0
  -28.1064  -36.2603   24.6274 H   0  0  0  0  0  0
  -27.2293  -37.1409   25.8865 H   0  0  0  0  0  0
  -20.9487  -29.8742   21.6767 H   0  0  0  0  0  0
  -26.0144  -38.2810   24.1433 H   0  0  0  0  0  0
  -27.1710  -19.9036   21.4353 H   0  0  0  0  0  0
  -27.6444  -17.5783   21.5189 H   0  0  0  0  0  0
  -31.3702  -18.2138   19.5283 H   0  0  0  0  0  0
  -27.0665  -24.3020   21.8815 H   0  0  0  0  0  0
  -25.8960  -24.2578   20.5770 H   0  0  0  0  0  0
  -26.4559  -22.0234   19.9739 H   0  0  0  0  0  0
  -26.8180  -21.9806   21.6979 H   0  0  0  0  0  0
  -27.6433  -24.5415   18.9183 H   0  0  0  0  0  0
  -28.7681  -15.6451   20.9494 H   0  0  0  0  0  0
  1 25  1  0  0  0
  1 30  2  0  0  0
  1 82  1  0  0  0
  2  3  1  0  0  0
  2 25  1  0  0  0
  2 85  1  0  0  0
  2 86  1  0  0  0
  3  4  1  0  0  0
  3 87  1  0  0  0
  3 88  1  0  0  0
  4  5  1  0  0  0
  4 89  1  0  0  0
  4 90  1  0  0  0
  5  6  1  0  0  0
  5 26  1  0  0  0
  5 91  1  0  0  0
  6 25  1  0  0  0
  6 92  1  0  0  0
  6 93  1  0  0  0
  7  8  2  0  0  0
  7 26  1  0  0  0
  7 29  1  0  0  0
  8  9  1  0  0  0
  8 22  1  0  0  0
  9 10  1  0  0  0
  9 27  2  0  0  0
 10 11  2  0  0  0
 10 15  1  0  0  0
 11 12  1  0  0  0
 11 94  1  0  0  0
 12 13  2  0  0  0
 12 95  1  0  0  0
 13 14  1  0  0  0
 13 31  1  0  0  0
 14 15  2  0  0  0
 14 96  1  0  0  0
 15 97  1  0  0  0
 16 17  2  0  0  0
 16 21  1  0  0  0
 16 31  1  0  0  0
 17 18  1  0  0  0
 17 98  1  0  0  0
 18 19  2  0  0  0
 18 99  1  0  0  0
 19 20  1  0  0  0
 19 24  1  0  0  0
 20 21  2  0  0  0
 20100  1  0  0  0
 21 23  1  0  0  0
 22 28  1  0  0  0
 22 32  2  0  0  0
 26 27  1  0  0  0
 28101  1  0  0  0
 28102  1  0  0  0
 29103  1  0  0  0
 29104  1  0  0  0
 33 34  1  0  0  0
 33 66  1  0  0  0
 33 70  2  0  0  0
 34 36  1  0  0  0
 34 59  1  0  0  0
 34105  1  0  0  0
 35 44  2  0  0  0
 35 45  1  0  0  0
 35 68  1  0  0  0
 36 56  1  0  0  0
 36106  1  0  0  0
 37 39  1  0  0  0
 37 47  1  0  0  0
 37 66  1  0  0  0
 37107  1  0  0  0
 38 43  2  0  0  0
 38 46  1  0  0  0
 38 47  1  0  0  0
 39 64  1  0  0  0
 39 67  2  0  0  0
 40 52  1  0  0  0
 40 53  2  0  0  0
 40 58  1  0  0  0
 41108  1  0  0  0
 41109  1  0  0  0
 41110  1  0  0  0
 41 48  1  0  0  0
 42 43  1  0  0  0
 42 66  1  0  0  0
 42111  1  0  0  0
 42112  1  0  0  0
 43 44  1  0  0  0
 44113  1  0  0  0
 45 46  2  0  0  0
 45114  1  0  0  0
 46115  1  0  0  0
 47116  1  0  0  0
 47117  1  0  0  0
 48 56  1  0  0  0
 48 65  1  0  0  0
 48118  1  0  0  0
 49 50  1  0  0  0
 49 53  1  0  0  0
 49 64  1  0  0  0
 49119  1  0  0  0
 50 51  1  0  0  0
 50120  1  0  0  0
 50121  1  0  0  0
 51 52  1  0  0  0
 51122  1  0  0  0
 51123  1  0  0  0
 52124  1  0  0  0
 52125  1  0  0  0
 53 54  1  0  0  0
 54 55  2  0  0  0
 54126  1  0  0  0
 55 57  1  0  0  0
 55127  1  0  0  0
 56 69  2  0  0  0
 57 58  2  0  0  0
 57128  1  0  0  0
 58129  1  0  0  0
 59 60  1  0  0  0
 59 61  1  0  0  0
 59 62  1  0  0  0
 60130  1  0  0  0
 60131  1  0  0  0
 60132  1  0  0  0
 61133  1  0  0  0
 61134  1  0  0  0
 61135  1  0  0  0
 62136  1  0  0  0
 62137  1  0  0  0
 62138  1  0  0  0
 63 65  1  0  0  0
 63139  1  0  0  0
 63140  1  0  0  0
 63141  1  0  0  0
 64142  1  0  0  0
 65143  1  0  0  0
 68 80  1  0  0  0
 71 72  2  0  0  0
 71 74  1  0  0  0
 71144  1  0  0  0
 72 75  1  0  0  0
 72145  1  0  0  0
 73 75  2  0  0  0
 73 76  1  0  0  0
 73146  1  0  0  0
 74 76  2  0  0  0
 74 81  1  0  0  0
 75 82  1  0  0  0
 76 84  1  0  0  0
 77 80  1  0  0  0
 77 81  1  0  0  0
 77 83  2  0  0  0
 78 79  1  0  0  0
 78 80  1  0  0  0
 78147  1  0  0  0
 78148  1  0  0  0
 79 81  1  0  0  0
 79149  1  0  0  0
 79150  1  0  0  0
 80151  1  0  0  0
 82152  1  0  0  0
M  ISO  4   1 100  68 101  80 101  82 100
M  END
> <chiral flag>
0

> <version>
0

> <s_m_source_file>
/data/baiqing/PycharmProjects/Reinvent-master-3.2/result/LINK_invent/BTK/process_docking_weight1_custom_product_contain_oxygen_bond_distance_aromatic_linkinvent_7_9_3/rearranged_h_0013.sdf

> <i_m_source_file_index>
33

> <r_mmod_Potential_Energy-OPLS-2005>
576.011047363281

> <r_mmod_Stretch_Energy-OPLS-2005>
235.424194335938

> <r_mmod_Bend_Energy-OPLS-2005>
321.309112548828

> <r_mmod_Torsional_Energy-OPLS-2005>
247.855773925781

> <r_mmod_Improper_Torsional_Energy-OPLS-2005>
3.8863697052002

> <r_mmod_Van_der_Waal_Energy-OPLS-2005>
130.414840698242

> <r_mmod_Electrostatic_Energy-OPLS-2005>
-315.418395996094

> <r_mmod_Solvation_Energy-OPLS-2005>
-239.855758666992

> <b_mmod_Minimization_Converged-OPLS-2005>
0

> <r_mmod_RMS_Derivative-OPLS-2005>
2.11993479728699

$$$$
34
                    3D
 Structure written by MMmdl.
155163  0  0  1  0            999 V2000
  -30.6283  -14.6282   20.4888 C   0  0  0  0  0  0
  -30.4393  -12.3858   19.4433 C   0  0  0  0  0  0
  -29.5093  -12.5225   18.2170 C   0  0  0  0  0  0
  -28.0301  -12.3632   18.6243 C   0  0  0  0  0  0
  -27.6567  -13.2212   19.8622 C   0  0  2  0  0  0
  -28.7028  -13.0596   20.9895 C   0  0  0  0  0  0
  -25.2571  -13.8173   20.5659 C   0  0  0  0  0  0
  -24.1836  -13.0432   20.9143 C   0  0  0  0  0  0
  -24.6406  -11.6901   20.8705 C   0  0  0  0  0  0
  -23.9071  -10.4282   21.0387 C   0  0  0  0  0  0
  -24.3623   -9.4192   21.9160 C   0  0  0  0  0  0
  -23.6288   -8.2236   22.0746 C   0  0  0  0  0  0
  -22.4269   -8.0271   21.3546 C   0  0  0  0  0  0
  -21.9909   -9.0245   20.4651 C   0  0  0  0  0  0
  -22.7246  -10.2111   20.3039 C   0  0  0  0  0  0
  -21.6848   -6.0722   22.5267 C   0  0  0  0  0  0
  -21.4023   -6.5627   23.8199 C   0  0  0  0  0  0
  -21.3663   -5.6776   24.9161 C   0  0  0  0  0  0
  -21.6044   -4.3039   24.7216 C   0  0  0  0  0  0
  -21.8824   -3.8131   23.4339 C   0  0  0  0  0  0
  -21.9192   -4.6952   22.3394 C   0  0  0  0  0  0
  -22.7847  -13.5225   21.1797 C   0  0  0  0  0  0
  -22.1657   -4.2136   21.0972 F   0  0  0  0  0  0
  -21.5636   -3.4522   25.7732 F   0  0  0  0  0  0
  -30.0200  -13.4019   20.4297 N   0  0  0  0  0  0
  -26.3011  -12.9363   20.3293 N   0  0  0  0  0  0
  -25.9337  -11.6513   20.5711 N   0  0  0  0  0  0
  -22.0502  -12.8234   22.0385 N   0  0  0  0  0  0
  -25.4296  -15.1891   20.4102 N   0  0  0  0  0  0
  -31.7894  -14.7889   20.1038 O   0  0  0  0  0  0
  -21.6638   -6.8865   21.4228 O   0  0  0  0  0  0
  -22.3521  -14.5513   20.6617 O   0  0  0  0  0  0
  -24.6261  -31.8595   23.2031 C   0  0  0  0  0  0
  -25.9115  -32.4766   23.8355 C   0  0  1  0  0  0
  -27.2279  -27.3266   20.1112 C   0  0  0  0  0  0
  -25.5932  -33.8570   24.2278 N   0  0  0  0  0  0
  -23.4189  -30.4853   21.5448 C   0  0  2  0  0  0
  -24.8667  -28.9449   20.1063 C   0  0  0  0  0  0
  -22.7475  -29.4624   22.4920 C   0  0  0  0  0  0
  -18.0284  -28.1385   22.8470 C   0  0  0  0  0  0
  -24.1492  -36.7300   23.2639 C   0  0  0  0  0  0
  -25.9607  -30.7923   21.3754 C   0  0  0  0  0  0
  -26.0354  -29.4227   20.7130 C   0  0  0  0  0  0
  -27.2185  -28.6263   20.7044 C   0  0  0  0  0  0
  -26.0346  -26.9044   19.4761 C   0  0  0  0  0  0
  -24.8700  -27.6927   19.4758 C   0  0  0  0  0  0
  -23.6324  -29.8223   20.1586 C   0  0  0  0  0  0
  -25.4112  -36.3075   24.0324 C   0  0  1  0  0  0
  -20.5889  -28.3690   23.1269 C   0  0  2  0  0  0
  -20.6777  -26.9413   22.5399 C   0  0  0  0  0  0
  -19.5759  -26.6382   21.5199 C   0  0  0  0  0  0
  -18.1936  -26.7930   22.1609 C   0  0  0  0  0  0
  -19.1537  -28.8852   23.2867 C   0  0  0  0  0  0
  -18.9460  -30.1455   23.8885 C   0  0  0  0  0  0
  -17.6457  -30.6582   24.0559 C   0  0  0  0  0  0
  -25.9048  -34.9442   23.5099 C   0  0  0  0  0  0
  -16.5349  -29.9080   23.6327 C   0  0  0  0  0  0
  -16.7272  -28.6503   23.0340 C   0  0  0  0  0  0
  -26.4505  -31.6577   25.0726 C   0  0  0  0  0  0
  -25.3735  -31.3728   26.1450 C   0  0  0  0  0  0
  -27.0356  -30.2991   24.6212 C   0  0  0  0  0  0
  -27.6056  -32.4322   25.7505 C   0  0  0  0  0  0
  -27.5581  -37.1799   24.8457 C   0  0  0  0  0  0
  -21.4187  -29.3049   22.3664 N   0  0  0  0  0  0
  -26.4290  -37.3764   23.9404 N   0  0  0  0  0  0
  -24.6872  -31.0618   22.0975 N   0  0  0  0  0  0
  -23.4206  -28.8158   23.2988 O   0  0  0  0  0  0
  -28.3460  -26.4771   20.1685 O   0  0  0  0  0  0
  -26.5608  -34.8909   22.4661 O   0  0  0  0  0  0
  -23.5426  -32.1398   23.7355 O   0  0  0  0  0  0
  -29.5074  -19.4717   21.2978 C   0  0  0  0  0  0
  -29.6024  -18.0699   21.5651 C   0  0  0  0  0  0
  -30.0156  -19.0406   19.0033 C   0  0  0  0  0  0
  -29.6979  -20.0166   19.9974 C   0  0  0  0  0  0
  -29.9032  -17.1092   20.5592 C   0  0  0  0  0  0
  -30.0986  -17.6394   19.2528 C   0  0  0  0  0  0
  -29.7126  -21.7722   18.2643 C   0  0  0  0  0  0
  -29.2310  -23.9693   20.4183 C   0  0  0  0  0  0
  -28.7995  -22.4254   20.4820 C   0  0  0  0  0  0
  -28.1056  -25.0219   20.0372 C   0  0  0  0  0  0
  -29.8395  -15.6789   20.8738 N   0  0  0  0  0  0
  -29.5941  -21.4340   19.6872 N   0  0  0  0  0  0
  -30.3455  -16.6086   17.8849 Cl  0  0  0  0  0  0
  -31.4824  -12.5049   19.1424 H   0  0  0  0  0  0
  -30.3671  -11.3869   19.8735 H   0  0  0  0  0  0
  -29.7719  -11.7844   17.4580 H   0  0  0  0  0  0
  -29.6540  -13.5006   17.7549 H   0  0  0  0  0  0
  -27.8543  -11.3075   18.8372 H   0  0  0  0  0  0
  -27.3810  -12.6130   17.7830 H   0  0  0  0  0  0
  -27.6801  -14.2613   19.5314 H   0  0  0  0  0  0
  -28.7106  -12.0331   21.3574 H   0  0  0  0  0  0
  -28.4537  -13.6808   21.8504 H   0  0  0  0  0  0
  -25.2780   -9.5654   22.4714 H   0  0  0  0  0  0
  -23.9997   -7.4628   22.7464 H   0  0  0  0  0  0
  -21.0838   -8.8760   19.8968 H   0  0  0  0  0  0
  -22.3714  -10.9633   19.6134 H   0  0  0  0  0  0
  -21.2022   -7.6133   23.9701 H   0  0  0  0  0  0
  -21.1485   -6.0506   25.9061 H   0  0  0  0  0  0
  -22.0609   -2.7597   23.2832 H   0  0  0  0  0  0
  -22.4143  -11.9932   22.4823 H   0  0  0  0  0  0
  -21.1104  -13.1245   22.2550 H   0  0  0  0  0  0
  -24.6674  -15.8477   20.5277 H   0  0  0  0  0  0
  -26.2847  -15.6280   20.0924 H   0  0  0  0  0  0
  -26.7175  -32.5425   23.1097 H   0  0  0  0  0  0
  -25.0076  -33.9725   25.0420 H   0  0  0  0  0  0
  -22.7106  -31.3045   21.4028 H   0  0  0  0  0  0
  -23.3739  -35.9648   23.3295 H   0  0  0  0  0  0
  -24.3586  -36.8932   22.2055 H   0  0  0  0  0  0
  -23.7266  -37.6510   23.6666 H   0  0  0  0  0  0
  -26.0983  -31.5593   20.6119 H   0  0  0  0  0  0
  -26.8397  -30.8338   22.0081 H   0  0  0  0  0  0
  -28.1155  -28.9904   21.1856 H   0  0  0  0  0  0
  -25.9694  -25.9505   18.9755 H   0  0  0  0  0  0
  -23.9776  -27.3263   18.9864 H   0  0  0  0  0  0
  -23.7449  -30.6005   19.4022 H   0  0  0  0  0  0
  -22.7532  -29.2501   19.8584 H   0  0  0  0  0  0
  -25.1287  -36.1924   25.0816 H   0  0  0  0  0  0
  -20.9977  -28.3275   24.1392 H   0  0  0  0  0  0
  -20.5671  -26.2306   23.3602 H   0  0  0  0  0  0
  -21.6649  -26.7439   22.1201 H   0  0  0  0  0  0
  -19.6927  -25.6290   21.1240 H   0  0  0  0  0  0
  -19.6705  -27.3185   20.6721 H   0  0  0  0  0  0
  -17.4203  -26.6659   21.4013 H   0  0  0  0  0  0
  -18.0345  -26.0078   22.9014 H   0  0  0  0  0  0
  -19.7937  -30.7271   24.2259 H   0  0  0  0  0  0
  -17.5013  -31.6261   24.5166 H   0  0  0  0  0  0
  -15.5352  -30.2976   23.7665 H   0  0  0  0  0  0
  -15.8673  -28.0824   22.7057 H   0  0  0  0  0  0
  -24.5893  -30.7102   25.7776 H   0  0  0  0  0  0
  -24.8949  -32.2904   26.4879 H   0  0  0  0  0  0
  -25.8050  -30.8890   27.0220 H   0  0  0  0  0  0
  -26.2944  -29.6726   24.1235 H   0  0  0  0  0  0
  -27.4034  -29.7266   25.4739 H   0  0  0  0  0  0
  -27.8821  -30.4260   23.9460 H   0  0  0  0  0  0
  -27.2650  -33.3610   26.2097 H   0  0  0  0  0  0
  -28.3864  -32.6908   25.0338 H   0  0  0  0  0  0
  -28.0734  -31.8442   26.5416 H   0  0  0  0  0  0
  -28.2578  -38.0112   24.7490 H   0  0  0  0  0  0
  -28.1090  -36.2634   24.6281 H   0  0  0  0  0  0
  -27.2295  -37.1450   25.8859 H   0  0  0  0  0  0
  -20.9362  -29.8784   21.6885 H   0  0  0  0  0  0
  -26.0168  -38.2840   24.1389 H   0  0  0  0  0  0
  -29.2836  -20.1204   22.1306 H   0  0  0  0  0  0
  -29.4238  -17.7320   22.5762 H   0  0  0  0  0  0
  -30.1789  -19.3347   17.9786 H   0  0  0  0  0  0
  -30.7294  -21.6083   17.9043 H   0  0  0  0  0  0
  -29.4676  -22.8145   18.0609 H   0  0  0  0  0  0
  -29.0253  -21.1829   17.6556 H   0  0  0  0  0  0
  -30.0887  -24.1069   19.7604 H   0  0  0  0  0  0
  -29.6027  -24.2380   21.4078 H   0  0  0  0  0  0
  -27.7617  -22.3445   20.1530 H   0  0  0  0  0  0
  -28.7842  -22.1259   21.5306 H   0  0  0  0  0  0
  -27.2305  -24.7720   20.6382 H   0  0  0  0  0  0
  -27.8379  -24.8196   19.0002 H   0  0  0  0  0  0
  -28.9976  -15.3931   21.3492 H   0  0  0  0  0  0
  1 25  1  0  0  0
  1 30  2  0  0  0
  1 81  1  0  0  0
  2  3  1  0  0  0
  2 25  1  0  0  0
  2 84  1  0  0  0
  2 85  1  0  0  0
  3  4  1  0  0  0
  3 86  1  0  0  0
  3 87  1  0  0  0
  4  5  1  0  0  0
  4 88  1  0  0  0
  4 89  1  0  0  0
  5  6  1  0  0  0
  5 26  1  0  0  0
  5 90  1  0  0  0
  6 25  1  0  0  0
  6 91  1  0  0  0
  6 92  1  0  0  0
  7  8  2  0  0  0
  7 26  1  0  0  0
  7 29  1  0  0  0
  8  9  1  0  0  0
  8 22  1  0  0  0
  9 10  1  0  0  0
  9 27  2  0  0  0
 10 11  2  0  0  0
 10 15  1  0  0  0
 11 12  1  0  0  0
 11 93  1  0  0  0
 12 13  2  0  0  0
 12 94  1  0  0  0
 13 14  1  0  0  0
 13 31  1  0  0  0
 14 15  2  0  0  0
 14 95  1  0  0  0
 15 96  1  0  0  0
 16 17  2  0  0  0
 16 21  1  0  0  0
 16 31  1  0  0  0
 17 18  1  0  0  0
 17 97  1  0  0  0
 18 19  2  0  0  0
 18 98  1  0  0  0
 19 20  1  0  0  0
 19 24  1  0  0  0
 20 21  2  0  0  0
 20 99  1  0  0  0
 21 23  1  0  0  0
 22 28  1  0  0  0
 22 32  2  0  0  0
 26 27  1  0  0  0
 28100  1  0  0  0
 28101  1  0  0  0
 29102  1  0  0  0
 29103  1  0  0  0
 33 34  1  0  0  0
 33 66  1  0  0  0
 33 70  2  0  0  0
 34 36  1  0  0  0
 34 59  1  0  0  0
 34104  1  0  0  0
 35 44  2  0  0  0
 35 45  1  0  0  0
 35 68  1  0  0  0
 36 56  1  0  0  0
 36105  1  0  0  0
 37 39  1  0  0  0
 37 47  1  0  0  0
 37 66  1  0  0  0
 37106  1  0  0  0
 38 43  2  0  0  0
 38 46  1  0  0  0
 38 47  1  0  0  0
 39 64  1  0  0  0
 39 67  2  0  0  0
 40 52  1  0  0  0
 40 53  2  0  0  0
 40 58  1  0  0  0
 41107  1  0  0  0
 41108  1  0  0  0
 41109  1  0  0  0
 41 48  1  0  0  0
 42 43  1  0  0  0
 42 66  1  0  0  0
 42110  1  0  0  0
 42111  1  0  0  0
 43 44  1  0  0  0
 44112  1  0  0  0
 45 46  2  0  0  0
 45113  1  0  0  0
 46114  1  0  0  0
 47115  1  0  0  0
 47116  1  0  0  0
 48 56  1  0  0  0
 48 65  1  0  0  0
 48117  1  0  0  0
 49 50  1  0  0  0
 49 53  1  0  0  0
 49 64  1  0  0  0
 49118  1  0  0  0
 50 51  1  0  0  0
 50119  1  0  0  0
 50120  1  0  0  0
 51 52  1  0  0  0
 51121  1  0  0  0
 51122  1  0  0  0
 52123  1  0  0  0
 52124  1  0  0  0
 53 54  1  0  0  0
 54 55  2  0  0  0
 54125  1  0  0  0
 55 57  1  0  0  0
 55126  1  0  0  0
 56 69  2  0  0  0
 57 58  2  0  0  0
 57127  1  0  0  0
 58128  1  0  0  0
 59 60  1  0  0  0
 59 61  1  0  0  0
 59 62  1  0  0  0
 60129  1  0  0  0
 60130  1  0  0  0
 60131  1  0  0  0
 61132  1  0  0  0
 61133  1  0  0  0
 61134  1  0  0  0
 62135  1  0  0  0
 62136  1  0  0  0
 62137  1  0  0  0
 63 65  1  0  0  0
 63138  1  0  0  0
 63139  1  0  0  0
 63140  1  0  0  0
 64141  1  0  0  0
 65142  1  0  0  0
 68 80  1  0  0  0
 71 72  2  0  0  0
 71 74  1  0  0  0
 71143  1  0  0  0
 72 75  1  0  0  0
 72144  1  0  0  0
 73 74  2  0  0  0
 73 76  1  0  0  0
 73145  1  0  0  0
 74 82  1  0  0  0
 75 76  2  0  0  0
 75 81  1  0  0  0
 76 83  1  0  0  0
 77 82  1  0  0  0
 77146  1  0  0  0
 77147  1  0  0  0
 77148  1  0  0  0
 78 79  1  0  0  0
 78 80  1  0  0  0
 78149  1  0  0  0
 78150  1  0  0  0
 79 82  1  0  0  0
 79151  1  0  0  0
 79152  1  0  0  0
 80153  1  0  0  0
 80154  1  0  0  0
 81155  1  0  0  0
M  ISO  4   1 100  68 101  80 101  81 100
M  END
> <chiral flag>
0

> <version>
0

> <s_m_source_file>
/data/baiqing/PycharmProjects/Reinvent-master-3.2/result/LINK_invent/BTK/process_docking_weight1_custom_product_contain_oxygen_bond_distance_aromatic_linkinvent_7_9_3/rearranged_h_0013.sdf

> <i_m_source_file_index>
34

> <r_mmod_Potential_Energy-OPLS-2005>
44.0900611877441

> <r_mmod_Stretch_Energy-OPLS-2005>
82.7996139526367

> <r_mmod_Bend_Energy-OPLS-2005>
145.290771484375

> <r_mmod_Torsional_Energy-OPLS-2005>
236.018112182617

> <r_mmod_Improper_Torsional_Energy-OPLS-2005>
6.10772180557251

> <r_mmod_Van_der_Waal_Energy-OPLS-2005>
155.818542480469

> <r_mmod_Electrostatic_Energy-OPLS-2005>
-393.837005615234

> <r_mmod_Solvation_Energy-OPLS-2005>
-233.638702392578

> <b_mmod_Minimization_Converged-OPLS-2005>
0

> <r_mmod_RMS_Derivative-OPLS-2005>
2.0536572933197

$$$$
35
                    3D
 Structure written by MMmdl.
160169  0  0  1  0            999 V2000
  -30.6149  -14.6374   20.5045 C   0  0  0  0  0  0
  -30.4394  -12.3896   19.4543 C   0  0  0  0  0  0
  -29.5083  -12.5106   18.2259 C   0  0  0  0  0  0
  -28.0311  -12.3481   18.6378 C   0  0  0  0  0  0
  -27.6543  -13.2162   19.8682 C   0  0  2  0  0  0
  -28.6980  -13.0608   20.9981 C   0  0  0  0  0  0
  -25.2543  -13.8160   20.5690 C   0  0  0  0  0  0
  -24.1805  -13.0420   20.9164 C   0  0  0  0  0  0
  -24.6386  -11.6899   20.8734 C   0  0  0  0  0  0
  -23.9064  -10.4282   21.0403 C   0  0  0  0  0  0
  -24.3611   -9.4201   21.9187 C   0  0  0  0  0  0
  -23.6282   -8.2242   22.0765 C   0  0  0  0  0  0
  -22.4263   -8.0279   21.3552 C   0  0  0  0  0  0
  -21.9897   -9.0256   20.4655 C   0  0  0  0  0  0
  -22.7235  -10.2126   20.3057 C   0  0  0  0  0  0
  -21.6849   -6.0729   22.5281 C   0  0  0  0  0  0
  -21.4021   -6.5637   23.8213 C   0  0  0  0  0  0
  -21.3661   -5.6790   24.9178 C   0  0  0  0  0  0
  -21.6040   -4.3053   24.7225 C   0  0  0  0  0  0
  -21.8818   -3.8143   23.4349 C   0  0  0  0  0  0
  -21.9193   -4.6960   22.3404 C   0  0  0  0  0  0
  -22.7827  -13.5221   21.1831 C   0  0  0  0  0  0
  -22.1657   -4.2148   21.0981 F   0  0  0  0  0  0
  -21.5626   -3.4538   25.7740 F   0  0  0  0  0  0
  -30.0170  -13.4051   20.4399 N   0  0  0  0  0  0
  -26.2987  -12.9354   20.3342 N   0  0  0  0  0  0
  -25.9317  -11.6507   20.5756 N   0  0  0  0  0  0
  -22.0470  -12.8226   22.0400 N   0  0  0  0  0  0
  -25.4230  -15.1880   20.4155 N   0  0  0  0  0  0
  -31.7664  -14.8163   20.0971 O   0  0  0  0  0  0
  -21.6632   -6.8873   21.4243 O   0  0  0  0  0  0
  -22.3518  -14.5539   20.6700 O   0  0  0  0  0  0
  -24.6251  -31.8607   23.2028 C   0  0  0  0  0  0
  -25.9103  -32.4784   23.8356 C   0  0  1  0  0  0
  -27.2266  -27.3292   20.1197 C   0  0  0  0  0  0
  -25.5922  -33.8584   24.2286 N   0  0  0  0  0  0
  -23.4182  -30.4836   21.5458 C   0  0  2  0  0  0
  -24.8649  -28.9363   20.1151 C   0  0  0  0  0  0
  -22.7467  -29.4626   22.4949 C   0  0  0  0  0  0
  -18.0285  -28.1381   22.8489 C   0  0  0  0  0  0
  -24.1488  -36.7299   23.2639 C   0  0  0  0  0  0
  -25.9577  -30.7943   21.3713 C   0  0  0  0  0  0
  -26.0332  -29.4206   20.7174 C   0  0  0  0  0  0
  -27.2188  -28.6304   20.7076 C   0  0  0  0  0  0
  -26.0394  -26.8958   19.4885 C   0  0  0  0  0  0
  -24.8692  -27.6784   19.4923 C   0  0  0  0  0  0
  -23.6329  -29.8165   20.1619 C   0  0  0  0  0  0
  -25.4111  -36.3088   24.0332 C   0  0  1  0  0  0
  -20.5882  -28.3683   23.1290 C   0  0  2  0  0  0
  -20.6774  -26.9410   22.5410 C   0  0  0  0  0  0
  -19.5752  -26.6385   21.5210 C   0  0  0  0  0  0
  -18.1932  -26.7924   22.1623 C   0  0  0  0  0  0
  -19.1536  -28.8850   23.2887 C   0  0  0  0  0  0
  -18.9459  -30.1451   23.8907 C   0  0  0  0  0  0
  -17.6460  -30.6586   24.0561 C   0  0  0  0  0  0
  -25.9051  -34.9456   23.5111 C   0  0  0  0  0  0
  -16.5352  -29.9086   23.6324 C   0  0  0  0  0  0
  -16.7272  -28.6499   23.0353 C   0  0  0  0  0  0
  -26.4490  -31.6590   25.0724 C   0  0  0  0  0  0
  -25.3725  -31.3723   26.1455 C   0  0  0  0  0  0
  -27.0322  -30.3015   24.6160 C   0  0  0  0  0  0
  -27.6055  -32.4320   25.7492 C   0  0  0  0  0  0
  -27.5579  -37.1805   24.8466 C   0  0  0  0  0  0
  -21.4182  -29.3041   22.3690 N   0  0  0  0  0  0
  -26.4290  -37.3780   23.9411 N   0  0  0  0  0  0
  -24.6858  -31.0629   22.0969 N   0  0  0  0  0  0
  -23.4198  -28.8163   23.3023 O   0  0  0  0  0  0
  -28.3543  -26.5003   20.1241 O   0  0  0  0  0  0
  -26.5619  -34.8920   22.4677 O   0  0  0  0  0  0
  -23.5421  -32.1400   23.7369 O   0  0  0  0  0  0
  -30.6648  -19.2836   19.8620 C   0  0  0  0  0  0
  -30.8324  -17.8838   20.1054 C   0  0  0  0  0  0
  -28.4468  -19.2016   20.7873 C   0  0  0  0  0  0
  -29.4621  -19.9815   20.1758 C   0  0  0  0  0  0
  -29.7923  -17.1030   20.6774 C   0  0  0  0  0  0
  -28.6102  -17.8063   21.0274 C   0  0  0  0  0  0
  -31.5182  -23.4435   20.8479 C   0  0  0  0  0  0
  -30.6983  -24.6114   20.3097 C   0  0  0  0  0  0
  -30.4674  -22.5800   21.5396 C   0  0  0  0  0  0
  -29.2868  -24.0439   20.0372 C   0  0  2  0  0  0
  -29.2113  -21.4686   19.7011 C   0  0  0  0  0  0
  -28.1852  -25.0845   20.5308 C   0  0  0  0  0  0
  -29.8080  -15.6610   20.9191 N   0  0  0  0  0  0
  -29.2717  -22.6414   20.6687 N   0  3  1  0  0  0
  -27.5862  -17.1101   21.5770 F   0  0  0  0  0  0
  -31.4807  -12.5181   19.1542 H   0  0  0  0  0  0
  -30.3758  -11.3905   19.8891 H   0  0  0  0  0  0
  -29.7717  -11.7626   17.4762 H   0  0  0  0  0  0
  -29.6502  -13.4811   17.7477 H   0  0  0  0  0  0
  -27.8712  -11.2950   18.8712 H   0  0  0  0  0  0
  -27.3749  -12.5777   17.7973 H   0  0  0  0  0  0
  -27.6745  -14.2527   19.5309 H   0  0  0  0  0  0
  -28.7050  -12.0363   21.3732 H   0  0  0  0  0  0
  -28.4403  -13.6851   21.8551 H   0  0  0  0  0  0
  -25.2755   -9.5677   22.4764 H   0  0  0  0  0  0
  -23.9995   -7.4630   22.7479 H   0  0  0  0  0  0
  -21.0832   -8.8774   19.8955 H   0  0  0  0  0  0
  -22.3702  -10.9667   19.6165 H   0  0  0  0  0  0
  -21.2023   -7.6145   23.9721 H   0  0  0  0  0  0
  -21.1481   -6.0518   25.9081 H   0  0  0  0  0  0
  -22.0597   -2.7608   23.2845 H   0  0  0  0  0  0
  -22.4081  -11.9886   22.4788 H   0  0  0  0  0  0
  -21.1102  -13.1283   22.2628 H   0  0  0  0  0  0
  -24.6667  -15.8429   20.5771 H   0  0  0  0  0  0
  -26.3019  -15.6475   20.2152 H   0  0  0  0  0  0
  -26.7171  -32.5456   23.1107 H   0  0  0  0  0  0
  -25.0059  -33.9722   25.0425 H   0  0  0  0  0  0
  -22.7120  -31.3039   21.4023 H   0  0  0  0  0  0
  -23.3749  -35.9633   23.3299 H   0  0  0  0  0  0
  -24.3584  -36.8920   22.2054 H   0  0  0  0  0  0
  -23.7244  -37.6501   23.6662 H   0  0  0  0  0  0
  -26.0874  -31.5561   20.6011 H   0  0  0  0  0  0
  -26.8391  -30.8453   21.9988 H   0  0  0  0  0  0
  -28.1185  -29.0039   21.1771 H   0  0  0  0  0  0
  -26.0032  -25.9450   18.9770 H   0  0  0  0  0  0
  -23.9764  -27.3051   19.0100 H   0  0  0  0  0  0
  -23.7536  -30.5919   19.4046 H   0  0  0  0  0  0
  -22.7529  -29.2464   19.8594 H   0  0  0  0  0  0
  -25.1289  -36.1939   25.0824 H   0  0  0  0  0  0
  -20.9973  -28.3255   24.1413 H   0  0  0  0  0  0
  -20.5676  -26.2295   23.3606 H   0  0  0  0  0  0
  -21.6645  -26.7446   22.1206 H   0  0  0  0  0  0
  -19.6915  -25.6298   21.1241 H   0  0  0  0  0  0
  -19.6686  -27.3194   20.6738 H   0  0  0  0  0  0
  -17.4200  -26.6672   21.4024 H   0  0  0  0  0  0
  -18.0332  -26.0064   22.9017 H   0  0  0  0  0  0
  -19.7934  -30.7258   24.2291 H   0  0  0  0  0  0
  -17.5015  -31.6267   24.5157 H   0  0  0  0  0  0
  -15.5353  -30.2991   23.7640 H   0  0  0  0  0  0
  -15.8670  -28.0815   22.7074 H   0  0  0  0  0  0
  -24.5902  -30.7068   25.7787 H   0  0  0  0  0  0
  -24.8913  -32.2886   26.4885 H   0  0  0  0  0  0
  -25.8053  -30.8901   27.0227 H   0  0  0  0  0  0
  -26.2880  -29.6777   24.1192 H   0  0  0  0  0  0
  -27.4035  -29.7262   25.4652 H   0  0  0  0  0  0
  -27.8750  -30.4312   23.9364 H   0  0  0  0  0  0
  -27.2669  -33.3622   26.2068 H   0  0  0  0  0  0
  -28.3862  -32.6875   25.0315 H   0  0  0  0  0  0
  -28.0722  -31.8444   26.5407 H   0  0  0  0  0  0
  -28.2600  -38.0099   24.7510 H   0  0  0  0  0  0
  -28.1072  -36.2634   24.6290 H   0  0  0  0  0  0
  -27.2303  -37.1452   25.8870 H   0  0  0  0  0  0
  -20.9362  -29.8769   21.6902 H   0  0  0  0  0  0
  -26.0174  -38.2858   24.1401 H   0  0  0  0  0  0
  -31.4707  -19.8170   19.3761 H   0  0  0  0  0  0
  -31.7624  -17.4132   19.8192 H   0  0  0  0  0  0
  -27.4999  -19.6578   21.0372 H   0  0  0  0  0  0
  -32.3141  -23.7598   21.5233 H   0  0  0  0  0  0
  -31.9777  -22.8928   20.0260 H   0  0  0  0  0  0
  -31.1456  -25.0598   19.4213 H   0  0  0  0  0  0
  -30.6561  -25.3920   21.0712 H   0  0  0  0  0  0
  -30.2117  -23.0252   22.5022 H   0  0  0  0  0  0
  -30.8254  -21.5719   21.7484 H   0  0  0  0  0  0
  -29.1661  -23.9344   18.9581 H   0  0  0  0  0  0
  -28.2355  -21.4969   19.2149 H   0  0  0  0  0  0
  -29.9272  -21.6659   18.9023 H   0  0  0  0  0  0
  -28.1772  -25.0856   21.6219 H   0  0  0  0  0  0
  -27.2120  -24.6915   20.2422 H   0  0  0  0  0  0
  -28.9379  -15.3299   21.3073 H   0  0  0  0  0  0
  -28.4596  -22.5486   21.2622 H   0  0  0  0  0  0
  1 25  1  0  0  0
  1 30  2  0  0  0
  1 83  1  0  0  0
  2  3  1  0  0  0
  2 25  1  0  0  0
  2 86  1  0  0  0
  2 87  1  0  0  0
  3  4  1  0  0  0
  3 88  1  0  0  0
  3 89  1  0  0  0
  4  5  1  0  0  0
  4 90  1  0  0  0
  4 91  1  0  0  0
  5  6  1  0  0  0
  5 26  1  0  0  0
  5 92  1  0  0  0
  6 25  1  0  0  0
  6 93  1  0  0  0
  6 94  1  0  0  0
  7  8  2  0  0  0
  7 26  1  0  0  0
  7 29  1  0  0  0
  8  9  1  0  0  0
  8 22  1  0  0  0
  9 10  1  0  0  0
  9 27  2  0  0  0
 10 11  2  0  0  0
 10 15  1  0  0  0
 11 12  1  0  0  0
 11 95  1  0  0  0
 12 13  2  0  0  0
 12 96  1  0  0  0
 13 14  1  0  0  0
 13 31  1  0  0  0
 14 15  2  0  0  0
 14 97  1  0  0  0
 15 98  1  0  0  0
 16 17  2  0  0  0
 16 21  1  0  0  0
 16 31  1  0  0  0
 17 18  1  0  0  0
 17 99  1  0  0  0
 18 19  2  0  0  0
 18100  1  0  0  0
 19 20  1  0  0  0
 19 24  1  0  0  0
 20 21  2  0  0  0
 20101  1  0  0  0
 21 23  1  0  0  0
 22 28  1  0  0  0
 22 32  2  0  0  0
 26 27  1  0  0  0
 28102  1  0  0  0
 28103  1  0  0  0
 29104  1  0  0  0
 29105  1  0  0  0
 33 34  1  0  0  0
 33 66  1  0  0  0
 33 70  2  0  0  0
 34 36  1  0  0  0
 34 59  1  0  0  0
 34106  1  0  0  0
 35 44  2  0  0  0
 35 45  1  0  0  0
 35 68  1  0  0  0
 36 56  1  0  0  0
 36107  1  0  0  0
 37 39  1  0  0  0
 37 47  1  0  0  0
 37 66  1  0  0  0
 37108  1  0  0  0
 38 43  2  0  0  0
 38 46  1  0  0  0
 38 47  1  0  0  0
 39 64  1  0  0  0
 39 67  2  0  0  0
 40 52  1  0  0  0
 40 53  2  0  0  0
 40 58  1  0  0  0
 41109  1  0  0  0
 41110  1  0  0  0
 41111  1  0  0  0
 41 48  1  0  0  0
 42 43  1  0  0  0
 42 66  1  0  0  0
 42112  1  0  0  0
 42113  1  0  0  0
 43 44  1  0  0  0
 44114  1  0  0  0
 45 46  2  0  0  0
 45115  1  0  0  0
 46116  1  0  0  0
 47117  1  0  0  0
 47118  1  0  0  0
 48 56  1  0  0  0
 48 65  1  0  0  0
 48119  1  0  0  0
 49 50  1  0  0  0
 49 53  1  0  0  0
 49 64  1  0  0  0
 49120  1  0  0  0
 50 51  1  0  0  0
 50121  1  0  0  0
 50122  1  0  0  0
 51 52  1  0  0  0
 51123  1  0  0  0
 51124  1  0  0  0
 52125  1  0  0  0
 52126  1  0  0  0
 53 54  1  0  0  0
 54 55  2  0  0  0
 54127  1  0  0  0
 55 57  1  0  0  0
 55128  1  0  0  0
 56 69  2  0  0  0
 57 58  2  0  0  0
 57129  1  0  0  0
 58130  1  0  0  0
 59 60  1  0  0  0
 59 61  1  0  0  0
 59 62  1  0  0  0
 60131  1  0  0  0
 60132  1  0  0  0
 60133  1  0  0  0
 61134  1  0  0  0
 61135  1  0  0  0
 61136  1  0  0  0
 62137  1  0  0  0
 62138  1  0  0  0
 62139  1  0  0  0
 63 65  1  0  0  0
 63140  1  0  0  0
 63141  1  0  0  0
 63142  1  0  0  0
 64143  1  0  0  0
 65144  1  0  0  0
 68 82  1  0  0  0
 71 72  2  0  0  0
 71 74  1  0  0  0
 71145  1  0  0  0
 72 75  1  0  0  0
 72146  1  0  0  0
 73 74  2  0  0  0
 73 76  1  0  0  0
 73147  1  0  0  0
 74 81  1  0  0  0
 75 76  2  0  0  0
 75 83  1  0  0  0
 76 85  1  0  0  0
 77 78  1  0  0  0
 77 79  1  0  0  0
 77148  1  0  0  0
 77149  1  0  0  0
 78 80  1  0  0  0
 78150  1  0  0  0
 78151  1  0  0  0
 79 84  1  0  0  0
 79152  1  0  0  0
 79153  1  0  0  0
 80 82  1  0  0  0
 80 84  1  0  0  0
 80154  1  0  0  0
 81155  1  0  0  0
 81156  1  0  0  0
 81 84  1  0  0  0
 82157  1  0  0  0
 82158  1  0  0  0
 83159  1  0  0  0
 84160  1  0  0  0
M  CHG  1  84   1
M  ISO  4   1 100  68 101  82 101  83 100
M  END
> <chiral flag>
0

> <version>
0

> <s_m_source_file>
/data/baiqing/PycharmProjects/Reinvent-master-3.2/result/LINK_invent/BTK/process_docking_weight1_custom_product_contain_oxygen_bond_distance_aromatic_linkinvent_7_9_3/rearranged_h_0013.sdf

> <i_m_source_file_index>
35

> <r_mmod_Potential_Energy-OPLS-2005>
22.1129570007324

> <r_mmod_Stretch_Energy-OPLS-2005>
80.3119430541992

> <r_mmod_Bend_Energy-OPLS-2005>
163.003128051758

> <r_mmod_Torsional_Energy-OPLS-2005>
288.649932861328

> <r_mmod_Improper_Torsional_Energy-OPLS-2005>
4.53385353088379

> <r_mmod_Van_der_Waal_Energy-OPLS-2005>
137.763717651367

> <r_mmod_Electrostatic_Energy-OPLS-2005>
-263.133239746094

> <r_mmod_Solvation_Energy-OPLS-2005>
-433.199249267578

> <b_mmod_Minimization_Converged-OPLS-2005>
0

> <r_mmod_RMS_Derivative-OPLS-2005>
1.13686311244965

$$$$
36
                    3D
 Structure written by MMmdl.
162170  0  0  1  0            999 V2000
  -30.7508  -14.4313   20.6768 C   0  0  0  0  0  0
  -30.4185  -12.3183   19.4233 C   0  0  0  0  0  0
  -29.4921  -12.5176   18.2074 C   0  0  0  0  0  0
  -28.0163  -12.3576   18.6176 C   0  0  0  0  0  0
  -27.6584  -13.2047   19.8652 C   0  0  2  0  0  0
  -28.6899  -12.9882   20.9912 C   0  0  0  0  0  0
  -25.2586  -13.8154   20.5653 C   0  0  0  0  0  0
  -24.1834  -13.0446   20.9157 C   0  0  0  0  0  0
  -24.6373  -11.6911   20.8705 C   0  0  0  0  0  0
  -23.9033  -10.4306   21.0404 C   0  0  0  0  0  0
  -24.3594   -9.4224   21.9185 C   0  0  0  0  0  0
  -23.6274   -8.2254   22.0756 C   0  0  0  0  0  0
  -22.4256   -8.0281   21.3547 C   0  0  0  0  0  0
  -21.9879   -9.0253   20.4652 C   0  0  0  0  0  0
  -22.7201  -10.2137   20.3060 C   0  0  0  0  0  0
  -21.6848   -6.0725   22.5280 C   0  0  0  0  0  0
  -21.4013   -6.5635   23.8212 C   0  0  0  0  0  0
  -21.3664   -5.6788   24.9180 C   0  0  0  0  0  0
  -21.6044   -4.3049   24.7228 C   0  0  0  0  0  0
  -21.8820   -3.8138   23.4350 C   0  0  0  0  0  0
  -21.9193   -4.6953   22.3404 C   0  0  0  0  0  0
  -22.7868  -13.5267   21.1834 C   0  0  0  0  0  0
  -22.1669   -4.2140   21.0979 F   0  0  0  0  0  0
  -21.5624   -3.4533   25.7745 F   0  0  0  0  0  0
  -30.0349  -13.2873   20.4646 N   0  0  0  0  0  0
  -26.2996  -12.9314   20.3271 N   0  0  0  0  0  0
  -25.9285  -11.6479   20.5691 N   0  0  0  0  0  0
  -22.0504  -12.8277   22.0401 N   0  0  0  0  0  0
  -25.4331  -15.1870   20.4081 N   0  0  0  0  0  0
  -31.7800  -14.6886   20.0424 O   0  0  0  0  0  0
  -21.6630   -6.8870   21.4244 O   0  0  0  0  0  0
  -22.3570  -14.5589   20.6699 O   0  0  0  0  0  0
  -24.6174  -31.8680   23.2096 C   0  0  0  0  0  0
  -25.9066  -32.4820   23.8391 C   0  0  1  0  0  0
  -27.2314  -27.4183   20.0857 C   0  0  0  0  0  0
  -25.5914  -33.8616   24.2325 N   0  0  0  0  0  0
  -23.4048  -30.4937   21.5509 C   0  0  2  0  0  0
  -24.8483  -28.9592   20.1157 C   0  0  0  0  0  0
  -22.7424  -29.4673   22.4984 C   0  0  0  0  0  0
  -18.0276  -28.1381   22.8493 C   0  0  0  0  0  0
  -24.1488  -36.7306   23.2641 C   0  0  0  0  0  0
  -25.9372  -30.8276   21.3660 C   0  0  0  0  0  0
  -26.0119  -29.4623   20.7097 C   0  0  0  0  0  0
  -27.2056  -28.7003   20.6897 C   0  0  0  0  0  0
  -26.0390  -26.9331   19.4958 C   0  0  0  0  0  0
  -24.8575  -27.6944   19.5081 C   0  0  0  0  0  0
  -23.6131  -29.8297   20.1647 C   0  0  0  0  0  0
  -25.4112  -36.3108   24.0339 C   0  0  1  0  0  0
  -20.5870  -28.3675   23.1310 C   0  0  2  0  0  0
  -20.6769  -26.9410   22.5415 C   0  0  0  0  0  0
  -19.5745  -26.6392   21.5213 C   0  0  0  0  0  0
  -18.1924  -26.7927   22.1626 C   0  0  0  0  0  0
  -19.1530  -28.8844   23.2898 C   0  0  0  0  0  0
  -18.9455  -30.1446   23.8913 C   0  0  0  0  0  0
  -17.6459  -30.6589   24.0567 C   0  0  0  0  0  0
  -25.9036  -34.9475   23.5131 C   0  0  0  0  0  0
  -16.5348  -29.9091   23.6322 C   0  0  0  0  0  0
  -16.7269  -28.6507   23.0349 C   0  0  0  0  0  0
  -26.4481  -31.6600   25.0725 C   0  0  0  0  0  0
  -25.3743  -31.3716   26.1473 C   0  0  0  0  0  0
  -27.0313  -30.3040   24.6113 C   0  0  0  0  0  0
  -27.6059  -32.4322   25.7481 C   0  0  0  0  0  0
  -27.5578  -37.1816   24.8474 C   0  0  0  0  0  0
  -21.4153  -29.3045   22.3721 N   0  0  0  0  0  0
  -26.4299  -37.3790   23.9403 N   0  0  0  0  0  0
  -24.6714  -31.0774   22.1002 N   0  0  0  0  0  0
  -23.4195  -28.8212   23.3026 O   0  0  0  0  0  0
  -28.4075  -26.6838   20.0890 O   0  0  0  0  0  0
  -26.5597  -34.8929   22.4690 O   0  0  0  0  0  0
  -23.5362  -32.1439   23.7484 O   0  0  0  0  0  0
  -28.7898  -18.7302   21.4420 C   0  0  0  0  0  0
  -28.9039  -17.3193   21.4503 C   0  0  0  0  0  0
  -31.3227  -17.5163   21.3350 C   0  0  0  0  0  0
  -29.9430  -19.5508   21.4160 C   0  0  0  0  0  0
  -30.1736  -16.6963   21.4162 C   0  0  0  0  0  0
  -31.2092  -18.9246   21.3386 C   0  0  0  0  0  0
  -30.3486  -14.8720   23.0343 C   0  0  0  0  0  0
  -30.7433  -21.6531   19.4068 C   0  0  0  0  0  0
  -29.8396  -21.0727   21.6480 C   0  0  0  0  0  0
  -29.7077  -24.5688   19.8680 C   0  0  0  0  0  0
  -29.8374  -23.4244   20.9280 C   0  0  0  0  0  0
  -28.3344  -25.2807   19.7619 C   0  0  0  0  0  0
  -30.2838  -15.2836   21.6280 N   0  0  0  0  0  0
  -29.7577  -21.9930   20.4655 N   0  3  1  0  0  0
  -32.3342  -19.6785   21.3167 F   0  0  0  0  0  0
  -31.4646  -12.4127   19.1247 H   0  0  0  0  0  0
  -30.3197  -11.3059   19.8168 H   0  0  0  0  0  0
  -29.7383  -11.7994   17.4243 H   0  0  0  0  0  0
  -29.6511  -13.5071   17.7772 H   0  0  0  0  0  0
  -27.8435  -11.3003   18.8278 H   0  0  0  0  0  0
  -27.3602  -12.6153   17.7855 H   0  0  0  0  0  0
  -27.7060  -14.2510   19.5640 H   0  0  0  0  0  0
  -28.6603  -11.9570   21.3470 H   0  0  0  0  0  0
  -28.4074  -13.5974   21.8472 H   0  0  0  0  0  0
  -25.2744   -9.5700   22.4745 H   0  0  0  0  0  0
  -23.9990   -7.4648   22.7471 H   0  0  0  0  0  0
  -21.0803   -8.8763   19.8966 H   0  0  0  0  0  0
  -22.3651  -10.9669   19.6163 H   0  0  0  0  0  0
  -21.2011   -7.6144   23.9715 H   0  0  0  0  0  0
  -21.1481   -6.0518   25.9080 H   0  0  0  0  0  0
  -22.0590   -2.7597   23.2849 H   0  0  0  0  0  0
  -22.4102  -11.9929   22.4789 H   0  0  0  0  0  0
  -21.1141  -13.1337   22.2635 H   0  0  0  0  0  0
  -24.6657  -15.8415   20.5082 H   0  0  0  0  0  0
  -26.2811  -15.6186   20.0629 H   0  0  0  0  0  0
  -26.7140  -32.5523   23.1150 H   0  0  0  0  0  0
  -25.0080  -33.9773   25.0484 H   0  0  0  0  0  0
  -22.6940  -31.3114   21.4128 H   0  0  0  0  0  0
  -23.3741  -35.9652   23.3339 H   0  0  0  0  0  0
  -24.3576  -36.8881   22.2048 H   0  0  0  0  0  0
  -23.7257  -37.6531   23.6625 H   0  0  0  0  0  0
  -26.0564  -31.5967   20.6013 H   0  0  0  0  0  0
  -26.8223  -30.8756   21.9884 H   0  0  0  0  0  0
  -28.1048  -29.0886   21.1474 H   0  0  0  0  0  0
  -25.9910  -25.9681   19.0143 H   0  0  0  0  0  0
  -23.9616  -27.3004   19.0484 H   0  0  0  0  0  0
  -23.7269  -30.6057   19.4064 H   0  0  0  0  0  0
  -22.7347  -29.2538   19.8660 H   0  0  0  0  0  0
  -25.1292  -36.1976   25.0832 H   0  0  0  0  0  0
  -20.9957  -28.3244   24.1433 H   0  0  0  0  0  0
  -20.5678  -26.2287   23.3607 H   0  0  0  0  0  0
  -21.6640  -26.7460   22.1205 H   0  0  0  0  0  0
  -19.6905  -25.6307   21.1236 H   0  0  0  0  0  0
  -19.6672  -27.3211   20.6750 H   0  0  0  0  0  0
  -17.4192  -26.6682   21.4026 H   0  0  0  0  0  0
  -18.0317  -26.0068   22.9021 H   0  0  0  0  0  0
  -19.7932  -30.7255   24.2294 H   0  0  0  0  0  0
  -17.5016  -31.6269   24.5167 H   0  0  0  0  0  0
  -15.5351  -30.3000   23.7634 H   0  0  0  0  0  0
  -15.8668  -28.0830   22.7054 H   0  0  0  0  0  0
  -24.5909  -30.7069   25.7808 H   0  0  0  0  0  0
  -24.8943  -32.2878   26.4921 H   0  0  0  0  0  0
  -25.8096  -30.8881   27.0228 H   0  0  0  0  0  0
  -26.2863  -29.6798   24.1165 H   0  0  0  0  0  0
  -27.4077  -29.7277   25.4574 H   0  0  0  0  0  0
  -27.8698  -30.4350   23.9271 H   0  0  0  0  0  0
  -27.2677  -33.3608   26.2088 H   0  0  0  0  0  0
  -28.3844  -32.6907   25.0292 H   0  0  0  0  0  0
  -28.0753  -31.8433   26.5369 H   0  0  0  0  0  0
  -28.2633  -38.0076   24.7478 H   0  0  0  0  0  0
  -28.1036  -36.2610   24.6353 H   0  0  0  0  0  0
  -27.2291  -37.1536   25.8878 H   0  0  0  0  0  0
  -20.9319  -29.8767   21.6940 H   0  0  0  0  0  0
  -26.0192  -38.2878   24.1368 H   0  0  0  0  0  0
  -27.8089  -19.1764   21.5257 H   0  0  0  0  0  0
  -28.0122  -16.7145   21.5412 H   0  0  0  0  0  0
  -32.3064  -17.0707   21.3292 H   0  0  0  0  0  0
  -29.4658  -15.2229   23.5693 H   0  0  0  0  0  0
  -31.2268  -15.3027   23.5175 H   0  0  0  0  0  0
  -30.4011  -13.7891   23.1636 H   0  0  0  0  0  0
  -30.6524  -20.6133   19.0950 H   0  0  0  0  0  0
  -31.7646  -21.8154   19.7525 H   0  0  0  0  0  0
  -30.5941  -22.2372   18.5018 H   0  0  0  0  0  0
  -30.7044  -21.3579   22.2493 H   0  0  0  0  0  0
  -28.9763  -21.2564   22.2889 H   0  0  0  0  0  0
  -30.0267  -24.2546   18.8772 H   0  0  0  0  0  0
  -30.4376  -25.3333   20.1384 H   0  0  0  0  0  0
  -29.1082  -23.5913   21.7220 H   0  0  0  0  0  0
  -30.8088  -23.5460   21.4107 H   0  0  0  0  0  0
  -27.5977  -24.7883   20.3998 H   0  0  0  0  0  0
  -27.9903  -25.1713   18.7323 H   0  0  0  0  0  0
  -28.8424  -21.8507   20.0641 H   0  0  0  0  0  0
  1 25  1  0  0  0
  1 30  2  0  0  0
  1 83  1  0  0  0
  2  3  1  0  0  0
  2 25  1  0  0  0
  2 86  1  0  0  0
  2 87  1  0  0  0
  3  4  1  0  0  0
  3 88  1  0  0  0
  3 89  1  0  0  0
  4  5  1  0  0  0
  4 90  1  0  0  0
  4 91  1  0  0  0
  5  6  1  0  0  0
  5 26  1  0  0  0
  5 92  1  0  0  0
  6 25  1  0  0  0
  6 93  1  0  0  0
  6 94  1  0  0  0
  7  8  2  0  0  0
  7 26  1  0  0  0
  7 29  1  0  0  0
  8  9  1  0  0  0
  8 22  1  0  0  0
  9 10  1  0  0  0
  9 27  2  0  0  0
 10 11  2  0  0  0
 10 15  1  0  0  0
 11 12  1  0  0  0
 11 95  1  0  0  0
 12 13  2  0  0  0
 12 96  1  0  0  0
 13 14  1  0  0  0
 13 31  1  0  0  0
 14 15  2  0  0  0
 14 97  1  0  0  0
 15 98  1  0  0  0
 16 17  2  0  0  0
 16 21  1  0  0  0
 16 31  1  0  0  0
 17 18  1  0  0  0
 17 99  1  0  0  0
 18 19  2  0  0  0
 18100  1  0  0  0
 19 20  1  0  0  0
 19 24  1  0  0  0
 20 21  2  0  0  0
 20101  1  0  0  0
 21 23  1  0  0  0
 22 28  1  0  0  0
 22 32  2  0  0  0
 26 27  1  0  0  0
 28102  1  0  0  0
 28103  1  0  0  0
 29104  1  0  0  0
 29105  1  0  0  0
 33 34  1  0  0  0
 33 66  1  0  0  0
 33 70  2  0  0  0
 34 36  1  0  0  0
 34 59  1  0  0  0
 34106  1  0  0  0
 35 44  2  0  0  0
 35 45  1  0  0  0
 35 68  1  0  0  0
 36 56  1  0  0  0
 36107  1  0  0  0
 37 39  1  0  0  0
 37 47  1  0  0  0
 37 66  1  0  0  0
 37108  1  0  0  0
 38 43  2  0  0  0
 38 46  1  0  0  0
 38 47  1  0  0  0
 39 64  1  0  0  0
 39 67  2  0  0  0
 40 52  1  0  0  0
 40 53  2  0  0  0
 40 58  1  0  0  0
 41109  1  0  0  0
 41110  1  0  0  0
 41111  1  0  0  0
 41 48  1  0  0  0
 42 43  1  0  0  0
 42 66  1  0  0  0
 42112  1  0  0  0
 42113  1  0  0  0
 43 44  1  0  0  0
 44114  1  0  0  0
 45 46  2  0  0  0
 45115  1  0  0  0
 46116  1  0  0  0
 47117  1  0  0  0
 47118  1  0  0  0
 48 56  1  0  0  0
 48 65  1  0  0  0
 48119  1  0  0  0
 49 50  1  0  0  0
 49 53  1  0  0  0
 49 64  1  0  0  0
 49120  1  0  0  0
 50 51  1  0  0  0
 50121  1  0  0  0
 50122  1  0  0  0
 51 52  1  0  0  0
 51123  1  0  0  0
 51124  1  0  0  0
 52125  1  0  0  0
 52126  1  0  0  0
 53 54  1  0  0  0
 54 55  2  0  0  0
 54127  1  0  0  0
 55 57  1  0  0  0
 55128  1  0  0  0
 56 69  2  0  0  0
 57 58  2  0  0  0
 57129  1  0  0  0
 58130  1  0  0  0
 59 60  1  0  0  0
 59 61  1  0  0  0
 59 62  1  0  0  0
 60131  1  0  0  0
 60132  1  0  0  0
 60133  1  0  0  0
 61134  1  0  0  0
 61135  1  0  0  0
 61136  1  0  0  0
 62137  1  0  0  0
 62138  1  0  0  0
 62139  1  0  0  0
 63 65  1  0  0  0
 63140  1  0  0  0
 63141  1  0  0  0
 63142  1  0  0  0
 64143  1  0  0  0
 65144  1  0  0  0
 68 82  1  0  0  0
 71 72  2  0  0  0
 71 74  1  0  0  0
 71145  1  0  0  0
 72 75  1  0  0  0
 72146  1  0  0  0
 73 75  2  0  0  0
 73 76  1  0  0  0
 73147  1  0  0  0
 74 76  2  0  0  0
 74 79  1  0  0  0
 75 83  1  0  0  0
 76 85  1  0  0  0
 77 83  1  0  0  0
 77148  1  0  0  0
 77149  1  0  0  0
 77150  1  0  0  0
 78151  1  0  0  0
 78152  1  0  0  0
 78153  1  0  0  0
 78 84  1  0  0  0
 79 84  1  0  0  0
 79154  1  0  0  0
 79155  1  0  0  0
 80 81  1  0  0  0
 80 82  1  0  0  0
 80156  1  0  0  0
 80157  1  0  0  0
 81 84  1  0  0  0
 81158  1  0  0  0
 81159  1  0  0  0
 82160  1  0  0  0
 82161  1  0  0  0
 84162  1  0  0  0
M  CHG  1  84   1
M  ISO  4   1 100  68 101  82 101  83 100
M  END
> <chiral flag>
0

> <version>
0

> <s_m_source_file>
/data/baiqing/PycharmProjects/Reinvent-master-3.2/result/LINK_invent/BTK/process_docking_weight1_custom_product_contain_oxygen_bond_distance_aromatic_linkinvent_7_9_3/rearranged_h_0013.sdf

> <i_m_source_file_index>
36

> <r_mmod_Potential_Energy-OPLS-2005>
16.9234485626221

> <r_mmod_Stretch_Energy-OPLS-2005>
45.3173217773438

> <r_mmod_Bend_Energy-OPLS-2005>
113.375282287598

> <r_mmod_Torsional_Energy-OPLS-2005>
323.834411621094

> <r_mmod_Improper_Torsional_Energy-OPLS-2005>
4.42397308349609

> <r_mmod_Van_der_Waal_Energy-OPLS-2005>
159.398162841797

> <r_mmod_Electrostatic_Energy-OPLS-2005>
-212.675888061523

> <r_mmod_Solvation_Energy-OPLS-2005>
-428.038116455078

> <b_mmod_Minimization_Converged-OPLS-2005>
0

> <r_mmod_RMS_Derivative-OPLS-2005>
1.67622554302216

$$$$
37
                    3D
 Structure written by MMmdl.
159168  0  0  1  0            999 V2000
  -30.5583  -14.7796   20.4553 C   0  0  0  0  0  0
  -30.4475  -12.4761   19.4701 C   0  0  0  0  0  0
  -29.5157  -12.5187   18.2365 C   0  0  0  0  0  0
  -28.0415  -12.3322   18.6495 C   0  0  0  0  0  0
  -27.6444  -13.2247   19.8547 C   0  0  2  0  0  0
  -28.6911  -13.1420   20.9879 C   0  0  0  0  0  0
  -25.2521  -13.8166   20.5706 C   0  0  0  0  0  0
  -24.1803  -13.0421   20.9204 C   0  0  0  0  0  0
  -24.6390  -11.6899   20.8741 C   0  0  0  0  0  0
  -23.9064  -10.4284   21.0403 C   0  0  0  0  0  0
  -24.3616   -9.4202   21.9182 C   0  0  0  0  0  0
  -23.6289   -8.2239   22.0753 C   0  0  0  0  0  0
  -22.4272   -8.0279   21.3544 C   0  0  0  0  0  0
  -21.9909   -9.0252   20.4646 C   0  0  0  0  0  0
  -22.7237  -10.2129   20.3052 C   0  0  0  0  0  0
  -21.6849   -6.0735   22.5278 C   0  0  0  0  0  0
  -21.4012   -6.5638   23.8212 C   0  0  0  0  0  0
  -21.3660   -5.6791   24.9175 C   0  0  0  0  0  0
  -21.6046   -4.3055   24.7225 C   0  0  0  0  0  0
  -21.8819   -3.8148   23.4346 C   0  0  0  0  0  0
  -21.9191   -4.6964   22.3402 C   0  0  0  0  0  0
  -22.7827  -13.5217   21.1867 C   0  0  0  0  0  0
  -22.1660   -4.2153   21.0979 F   0  0  0  0  0  0
  -21.5630   -3.4538   25.7737 F   0  0  0  0  0  0
  -29.9898  -13.5227   20.4126 N   0  0  0  0  0  0
  -26.2947  -12.9362   20.3291 N   0  0  0  0  0  0
  -25.9319  -11.6511   20.5745 N   0  0  0  0  0  0
  -22.0474  -12.8212   22.0426 N   0  0  0  0  0  0
  -25.4195  -15.1892   20.4163 N   0  0  0  0  0  0
  -31.7401  -14.9329   20.1293 O   0  0  0  0  0  0
  -21.6635   -6.8877   21.4240 O   0  0  0  0  0  0
  -22.3511  -14.5525   20.6715 O   0  0  0  0  0  0
  -24.6334  -31.8522   23.1949 C   0  0  0  0  0  0
  -25.9149  -32.4739   23.8310 C   0  0  1  0  0  0
  -27.2257  -27.2424   20.1380 C   0  0  0  0  0  0
  -25.5934  -33.8543   24.2233 N   0  0  0  0  0  0
  -23.4315  -30.4721   21.5386 C   0  0  2  0  0  0
  -24.8796  -28.9101   20.1121 C   0  0  0  0  0  0
  -22.7513  -29.4589   22.4909 C   0  0  0  0  0  0
  -18.0293  -28.1393   22.8485 C   0  0  0  0  0  0
  -24.1488  -36.7275   23.2642 C   0  0  0  0  0  0
  -25.9775  -30.7607   21.3749 C   0  0  0  0  0  0
  -26.0516  -29.3802   20.7180 C   0  0  0  0  0  0
  -27.2282  -28.5616   20.7116 C   0  0  0  0  0  0
  -26.0292  -26.8376   19.5093 C   0  0  0  0  0  0
  -24.8747  -27.6484   19.4947 C   0  0  0  0  0  0
  -23.6507  -29.7995   20.1568 C   0  0  0  0  0  0
  -25.4118  -36.3061   24.0324 C   0  0  1  0  0  0
  -20.5897  -28.3704   23.1267 C   0  0  2  0  0  0
  -20.6779  -26.9418   22.5412 C   0  0  0  0  0  0
  -19.5755  -26.6385   21.5215 C   0  0  0  0  0  0
  -18.1934  -26.7935   22.1623 C   0  0  0  0  0  0
  -19.1546  -28.8867   23.2869 C   0  0  0  0  0  0
  -18.9467  -30.1466   23.8889 C   0  0  0  0  0  0
  -17.6464  -30.6592   24.0564 C   0  0  0  0  0  0
  -25.9061  -34.9433   23.5083 C   0  0  0  0  0  0
  -16.5355  -29.9086   23.6334 C   0  0  0  0  0  0
  -16.7279  -28.6504   23.0357 C   0  0  0  0  0  0
  -26.4508  -31.6582   25.0717 C   0  0  0  0  0  0
  -25.3722  -31.3735   26.1430 C   0  0  0  0  0  0
  -27.0366  -30.2999   24.6226 C   0  0  0  0  0  0
  -27.6057  -32.4333   25.7488 C   0  0  0  0  0  0
  -27.5577  -37.1791   24.8465 C   0  0  0  0  0  0
  -21.4217  -29.3042   22.3654 N   0  0  0  0  0  0
  -26.4287  -37.3766   23.9411 N   0  0  0  0  0  0
  -24.7001  -31.0473   22.0925 N   0  0  0  0  0  0
  -23.4201  -28.8139   23.3026 O   0  0  0  0  0  0
  -28.3336  -26.3589   20.1782 O   0  0  0  0  0  0
  -26.5639  -34.8913   22.4656 O   0  0  0  0  0  0
  -23.5481  -32.1349   23.7239 O   0  0  0  0  0  0
  -30.0956  -19.6711   21.3332 C   0  0  0  0  0  0
  -30.2932  -18.2443   21.4113 C   0  0  0  0  0  0
  -28.7700  -19.3879   19.3881 C   0  0  0  0  0  0
  -28.9540  -17.9576   19.4592 C   0  0  0  0  0  0
  -29.3115  -20.3228   20.3265 C   0  0  0  0  0  0
  -29.7267  -17.3216   20.4832 C   0  0  0  0  0  0
  -28.3176  -23.9684   19.0406 C   0  0  0  0  0  0
  -29.1984  -24.1819   21.2826 C   0  0  0  0  0  0
  -28.1948  -22.3901   19.2437 C   0  0  0  0  0  0
  -29.0827  -22.6077   21.4902 C   0  0  0  0  0  0
  -28.1601  -24.8572   20.3223 C   0  0  0  0  0  0
  -28.2674  -17.0996   18.4098 C   0  0  0  0  0  0
  -29.0983  -21.7796   20.2567 N   0  0  0  0  0  0
  -29.6950  -15.8431   20.6990 N   0  0  0  0  0  0
  -31.4839  -12.6292   19.1643 H   0  0  0  0  0  0
  -30.4174  -11.4949   19.9463 H   0  0  0  0  0  0
  -29.8036  -11.7493   17.5189 H   0  0  0  0  0  0
  -29.6325  -13.4739   17.7221 H   0  0  0  0  0  0
  -27.9030  -11.2819   18.9083 H   0  0  0  0  0  0
  -27.3833  -12.5255   17.8017 H   0  0  0  0  0  0
  -27.6390  -14.2476   19.4794 H   0  0  0  0  0  0
  -28.7368  -12.1329   21.4004 H   0  0  0  0  0  0
  -28.4191  -13.7947   21.8189 H   0  0  0  0  0  0
  -25.2762   -9.5677   22.4755 H   0  0  0  0  0  0
  -23.9997   -7.4631   22.7472 H   0  0  0  0  0  0
  -21.0838   -8.8770   19.8955 H   0  0  0  0  0  0
  -22.3697  -10.9668   19.6160 H   0  0  0  0  0  0
  -21.2004   -7.6145   23.9717 H   0  0  0  0  0  0
  -21.1482   -6.0522   25.9078 H   0  0  0  0  0  0
  -22.0598   -2.7611   23.2845 H   0  0  0  0  0  0
  -22.4084  -11.9867   22.4806 H   0  0  0  0  0  0
  -21.1095  -13.1248   22.2633 H   0  0  0  0  0  0
  -24.6485  -15.8374   20.5349 H   0  0  0  0  0  0
  -26.2659  -15.6390   20.0967 H   0  0  0  0  0  0
  -26.7217  -32.5382   23.1053 H   0  0  0  0  0  0
  -25.0077  -33.9675   25.0376 H   0  0  0  0  0  0
  -22.7292  -31.2946   21.3884 H   0  0  0  0  0  0
  -23.3755  -35.9604   23.3301 H   0  0  0  0  0  0
  -24.3575  -36.8907   22.2057 H   0  0  0  0  0  0
  -23.7235  -37.6469   23.6676 H   0  0  0  0  0  0
  -26.1173  -31.5202   20.6045 H   0  0  0  0  0  0
  -26.8542  -30.8111   22.0092 H   0  0  0  0  0  0
  -28.1283  -28.9202   21.1914 H   0  0  0  0  0  0
  -25.9707  -25.8688   19.0354 H   0  0  0  0  0  0
  -23.9772  -27.2821   19.0152 H   0  0  0  0  0  0
  -23.7763  -30.5726   19.3977 H   0  0  0  0  0  0
  -22.7688  -29.2322   19.8535 H   0  0  0  0  0  0
  -25.1304  -36.1904   25.0817 H   0  0  0  0  0  0
  -20.9986  -28.3284   24.1388 H   0  0  0  0  0  0
  -20.5676  -26.2314   23.3621 H   0  0  0  0  0  0
  -21.6646  -26.7439   22.1205 H   0  0  0  0  0  0
  -19.6913  -25.6292   21.1252 H   0  0  0  0  0  0
  -19.6694  -27.3191   20.6741 H   0  0  0  0  0  0
  -17.4205  -26.6691   21.4025 H   0  0  0  0  0  0
  -18.0326  -26.0079   22.9020 H   0  0  0  0  0  0
  -19.7941  -30.7288   24.2252 H   0  0  0  0  0  0
  -17.5014  -31.6268   24.5169 H   0  0  0  0  0  0
  -15.5354  -30.2983   23.7661 H   0  0  0  0  0  0
  -15.8681  -28.0816   22.7079 H   0  0  0  0  0  0
  -24.5911  -30.7071   25.7751 H   0  0  0  0  0  0
  -24.8894  -32.2901   26.4830 H   0  0  0  0  0  0
  -25.8030  -30.8930   27.0223 H   0  0  0  0  0  0
  -26.2960  -29.6730   24.1246 H   0  0  0  0  0  0
  -27.4035  -29.7286   25.4764 H   0  0  0  0  0  0
  -27.8841  -30.4275   23.9488 H   0  0  0  0  0  0
  -27.2667  -33.3646   26.2039 H   0  0  0  0  0  0
  -28.3874  -32.6872   25.0316 H   0  0  0  0  0  0
  -28.0719  -31.8475   26.5421 H   0  0  0  0  0  0
  -28.2592  -38.0091   24.7513 H   0  0  0  0  0  0
  -28.1074  -36.2619   24.6291 H   0  0  0  0  0  0
  -27.2293  -37.1440   25.8867 H   0  0  0  0  0  0
  -20.9414  -29.8749   21.6839 H   0  0  0  0  0  0
  -26.0163  -38.2838   24.1415 H   0  0  0  0  0  0
  -30.5695  -20.2668   22.0982 H   0  0  0  0  0  0
  -30.8636  -17.8563   22.2431 H   0  0  0  0  0  0
  -28.1587  -19.7636   18.5814 H   0  0  0  0  0  0
  -27.5799  -24.2797   18.3013 H   0  0  0  0  0  0
  -29.2857  -24.1832   18.5869 H   0  0  0  0  0  0
  -30.2027  -24.4093   20.9231 H   0  0  0  0  0  0
  -29.1283  -24.6628   22.2588 H   0  0  0  0  0  0
  -28.3746  -21.9189   18.2770 H   0  0  0  0  0  0
  -27.1663  -22.1451   19.5140 H   0  0  0  0  0  0
  -28.1608  -22.3883   22.0312 H   0  0  0  0  0  0
  -29.8949  -22.3015   22.1488 H   0  0  0  0  0  0
  -27.1714  -24.6739   20.7452 H   0  0  0  0  0  0
  -28.0559  -17.6725   17.5067 H   0  0  0  0  0  0
  -27.3226  -16.7158   18.7914 H   0  0  0  0  0  0
  -28.8917  -16.2542   18.1191 H   0  0  0  0  0  0
  -28.7717  -15.4993   20.9120 H   0  0  0  0  0  0
  1 25  1  0  0  0
  1 30  2  0  0  0
  1 84  1  0  0  0
  2  3  1  0  0  0
  2 25  1  0  0  0
  2 85  1  0  0  0
  2 86  1  0  0  0
  3  4  1  0  0  0
  3 87  1  0  0  0
  3 88  1  0  0  0
  4  5  1  0  0  0
  4 89  1  0  0  0
  4 90  1  0  0  0
  5  6  1  0  0  0
  5 26  1  0  0  0
  5 91  1  0  0  0
  6 25  1  0  0  0
  6 92  1  0  0  0
  6 93  1  0  0  0
  7  8  2  0  0  0
  7 26  1  0  0  0
  7 29  1  0  0  0
  8  9  1  0  0  0
  8 22  1  0  0  0
  9 10  1  0  0  0
  9 27  2  0  0  0
 10 11  2  0  0  0
 10 15  1  0  0  0
 11 12  1  0  0  0
 11 94  1  0  0  0
 12 13  2  0  0  0
 12 95  1  0  0  0
 13 14  1  0  0  0
 13 31  1  0  0  0
 14 15  2  0  0  0
 14 96  1  0  0  0
 15 97  1  0  0  0
 16 17  2  0  0  0
 16 21  1  0  0  0
 16 31  1  0  0  0
 17 18  1  0  0  0
 17 98  1  0  0  0
 18 19  2  0  0  0
 18 99  1  0  0  0
 19 20  1  0  0  0
 19 24  1  0  0  0
 20 21  2  0  0  0
 20100  1  0  0  0
 21 23  1  0  0  0
 22 28  1  0  0  0
 22 32  2  0  0  0
 26 27  1  0  0  0
 28101  1  0  0  0
 28102  1  0  0  0
 29103  1  0  0  0
 29104  1  0  0  0
 33 34  1  0  0  0
 33 66  1  0  0  0
 33 70  2  0  0  0
 34 36  1  0  0  0
 34 59  1  0  0  0
 34105  1  0  0  0
 35 44  2  0  0  0
 35 45  1  0  0  0
 35 68  1  0  0  0
 36 56  1  0  0  0
 36106  1  0  0  0
 37 39  1  0  0  0
 37 47  1  0  0  0
 37 66  1  0  0  0
 37107  1  0  0  0
 38 43  2  0  0  0
 38 46  1  0  0  0
 38 47  1  0  0  0
 39 64  1  0  0  0
 39 67  2  0  0  0
 40 52  1  0  0  0
 40 53  2  0  0  0
 40 58  1  0  0  0
 41108  1  0  0  0
 41109  1  0  0  0
 41110  1  0  0  0
 41 48  1  0  0  0
 42 43  1  0  0  0
 42 66  1  0  0  0
 42111  1  0  0  0
 42112  1  0  0  0
 43 44  1  0  0  0
 44113  1  0  0  0
 45 46  2  0  0  0
 45114  1  0  0  0
 46115  1  0  0  0
 47116  1  0  0  0
 47117  1  0  0  0
 48 56  1  0  0  0
 48 65  1  0  0  0
 48118  1  0  0  0
 49 50  1  0  0  0
 49 53  1  0  0  0
 49 64  1  0  0  0
 49119  1  0  0  0
 50 51  1  0  0  0
 50120  1  0  0  0
 50121  1  0  0  0
 51 52  1  0  0  0
 51122  1  0  0  0
 51123  1  0  0  0
 52124  1  0  0  0
 52125  1  0  0  0
 53 54  1  0  0  0
 54 55  2  0  0  0
 54126  1  0  0  0
 55 57  1  0  0  0
 55127  1  0  0  0
 56 69  2  0  0  0
 57 58  2  0  0  0
 57128  1  0  0  0
 58129  1  0  0  0
 59 60  1  0  0  0
 59 61  1  0  0  0
 59 62  1  0  0  0
 60130  1  0  0  0
 60131  1  0  0  0
 60132  1  0  0  0
 61133  1  0  0  0
 61134  1  0  0  0
 61135  1  0  0  0
 62136  1  0  0  0
 62137  1  0  0  0
 62138  1  0  0  0
 63 65  1  0  0  0
 63139  1  0  0  0
 63140  1  0  0  0
 63141  1  0  0  0
 64142  1  0  0  0
 65143  1  0  0  0
 68 81  1  0  0  0
 71 72  2  0  0  0
 71 75  1  0  0  0
 71144  1  0  0  0
 72 76  1  0  0  0
 72145  1  0  0  0
 73 74  1  0  0  0
 73 75  2  0  0  0
 73146  1  0  0  0
 74 76  2  0  0  0
 74 82  1  0  0  0
 75 83  1  0  0  0
 76 84  1  0  0  0
 77 79  1  0  0  0
 77 81  1  0  0  0
 77147  1  0  0  0
 77148  1  0  0  0
 78 80  1  0  0  0
 78 81  1  0  0  0
 78149  1  0  0  0
 78150  1  0  0  0
 79 83  1  0  0  0
 79151  1  0  0  0
 79152  1  0  0  0
 80 83  1  0  0  0
 80153  1  0  0  0
 80154  1  0  0  0
 81155  1  0  0  0
 82156  1  0  0  0
 82157  1  0  0  0
 82158  1  0  0  0
 84159  1  0  0  0
M  ISO  4   1 100  68 101  81 101  84 100
M  END
> <chiral flag>
0

> <version>
0

> <s_m_source_file>
/data/baiqing/PycharmProjects/Reinvent-master-3.2/result/LINK_invent/BTK/process_docking_weight1_custom_product_contain_oxygen_bond_distance_aromatic_linkinvent_7_9_3/rearranged_h_0013.sdf

> <i_m_source_file_index>
37

> <r_mmod_Potential_Energy-OPLS-2005>
181.845397949219

> <r_mmod_Stretch_Energy-OPLS-2005>
125.156593322754

> <r_mmod_Bend_Energy-OPLS-2005>
185.648544311523

> <r_mmod_Torsional_Energy-OPLS-2005>
267.340209960938

> <r_mmod_Improper_Torsional_Energy-OPLS-2005>
8.83898067474365

> <r_mmod_Van_der_Waal_Energy-OPLS-2005>
135.801773071289

> <r_mmod_Electrostatic_Energy-OPLS-2005>
-407.896362304688

> <r_mmod_Solvation_Energy-OPLS-2005>
-230.421096801758

> <b_mmod_Minimization_Converged-OPLS-2005>
0

> <r_mmod_RMS_Derivative-OPLS-2005>
0.529028058052063

$$$$
38
                    3D
 Structure written by MMmdl.
153162  0  0  1  0            999 V2000
  -30.5011  -14.9501   20.4203 C   0  0  0  0  0  0
  -30.4530  -12.5884   19.4893 C   0  0  0  0  0  0
  -29.5251  -12.5277   18.2517 C   0  0  0  0  0  0
  -28.0575  -12.3110   18.6714 C   0  0  0  0  0  0
  -27.6331  -13.2385   19.8397 C   0  0  2  0  0  0
  -28.6776  -13.2460   20.9761 C   0  0  0  0  0  0
  -25.2477  -13.8187   20.5677 C   0  0  0  0  0  0
  -24.1791  -13.0427   20.9230 C   0  0  0  0  0  0
  -24.6398  -11.6911   20.8769 C   0  0  0  0  0  0
  -23.9076  -10.4287   21.0422 C   0  0  0  0  0  0
  -24.3628   -9.4201   21.9197 C   0  0  0  0  0  0
  -23.6300   -8.2239   22.0761 C   0  0  0  0  0  0
  -22.4281   -8.0283   21.3548 C   0  0  0  0  0  0
  -21.9920   -9.0255   20.4648 C   0  0  0  0  0  0
  -22.7253  -10.2132   20.3065 C   0  0  0  0  0  0
  -21.6850   -6.0743   22.5281 C   0  0  0  0  0  0
  -21.4010   -6.5646   23.8215 C   0  0  0  0  0  0
  -21.3659   -5.6795   24.9173 C   0  0  0  0  0  0
  -21.6042   -4.3058   24.7219 C   0  0  0  0  0  0
  -21.8820   -3.8151   23.4342 C   0  0  0  0  0  0
  -21.9191   -4.6971   22.3401 C   0  0  0  0  0  0
  -22.7810  -13.5208   21.1884 C   0  0  0  0  0  0
  -22.1661   -4.2158   21.0980 F   0  0  0  0  0  0
  -21.5629   -3.4540   25.7732 F   0  0  0  0  0  0
  -29.9521  -13.6702   20.3811 N   0  0  0  0  0  0
  -26.2901  -12.9402   20.3235 N   0  0  0  0  0  0
  -25.9327  -11.6542   20.5746 N   0  0  0  0  0  0
  -22.0455  -12.8198   22.0431 N   0  0  0  0  0  0
  -25.4114  -15.1914   20.4036 N   0  0  0  0  0  0
  -31.7072  -15.0665   20.1732 O   0  0  0  0  0  0
  -21.6642   -6.8885   21.4244 O   0  0  0  0  0  0
  -22.3504  -14.5521   20.6734 O   0  0  0  0  0  0
  -24.6432  -31.8435   23.1855 C   0  0  0  0  0  0
  -25.9197  -32.4696   23.8254 C   0  0  1  0  0  0
  -27.2229  -27.1404   20.1613 C   0  0  0  0  0  0
  -25.5949  -33.8501   24.2183 N   0  0  0  0  0  0
  -23.4469  -30.4603   21.5316 C   0  0  2  0  0  0
  -24.8964  -28.8774   20.1176 C   0  0  0  0  0  0
  -22.7559  -29.4548   22.4862 C   0  0  0  0  0  0
  -18.0299  -28.1400   22.8484 C   0  0  0  0  0  0
  -24.1489  -36.7251   23.2640 C   0  0  0  0  0  0
  -26.0008  -30.7199   21.3795 C   0  0  0  0  0  0
  -26.0737  -29.3282   20.7284 C   0  0  0  0  0  0
  -27.2411  -28.4780   20.7251 C   0  0  0  0  0  0
  -26.0180  -26.7780   19.5255 C   0  0  0  0  0  0
  -24.8797  -27.6154   19.5013 C   0  0  0  0  0  0
  -23.6729  -29.7806   20.1544 C   0  0  0  0  0  0
  -25.4120  -36.3033   24.0317 C   0  0  1  0  0  0
  -20.5916  -28.3722   23.1243 C   0  0  2  0  0  0
  -20.6787  -26.9423   22.5409 C   0  0  0  0  0  0
  -19.5760  -26.6387   21.5218 C   0  0  0  0  0  0
  -18.1940  -26.7944   22.1626 C   0  0  0  0  0  0
  -19.1557  -28.8878   23.2861 C   0  0  0  0  0  0
  -18.9477  -30.1476   23.8884 C   0  0  0  0  0  0
  -17.6474  -30.6600   24.0565 C   0  0  0  0  0  0
  -25.9068  -34.9408   23.5059 C   0  0  0  0  0  0
  -16.5361  -29.9097   23.6339 C   0  0  0  0  0  0
  -16.7283  -28.6512   23.0362 C   0  0  0  0  0  0
  -26.4508  -31.6559   25.0697 C   0  0  0  0  0  0
  -25.3698  -31.3813   26.1415 C   0  0  0  0  0  0
  -27.0303  -30.2927   24.6268 C   0  0  0  0  0  0
  -27.6084  -32.4275   25.7463 C   0  0  0  0  0  0
  -27.5576  -37.1780   24.8465 C   0  0  0  0  0  0
  -21.4251  -29.3050   22.3614 N   0  0  0  0  0  0
  -26.4283  -37.3748   23.9414 N   0  0  0  0  0  0
  -24.7170  -31.0295   22.0881 N   0  0  0  0  0  0
  -23.4200  -28.8098   23.3017 O   0  0  0  0  0  0
  -28.3026  -26.1907   20.1578 O   0  0  0  0  0  0
  -26.5654  -34.8910   22.4638 O   0  0  0  0  0  0
  -23.5549  -32.1295   23.7082 O   0  0  0  0  0  0
  -30.1427  -19.9397   21.3229 C   0  0  0  0  0  0
  -28.5452  -19.7942   19.6124 C   0  0  0  0  0  0
  -30.3499  -18.4954   21.2873 C   0  0  0  0  0  0
  -28.7245  -18.3453   19.5989 C   0  0  0  0  0  0
  -29.2234  -20.6946   20.5007 C   0  0  0  0  0  0
  -29.6367  -17.5955   20.4284 C   0  0  0  0  0  0
  -29.1146  -24.3827   21.7327 C   0  0  0  0  0  0
  -29.1946  -22.8331   21.9267 C   0  0  0  0  0  0
  -28.4721  -23.3054   19.7362 C   0  0  0  0  0  0
  -28.1508  -24.6972   20.5732 C   0  0  2  0  0  0
  -29.0037  -22.1726   20.6318 N   0  0  0  0  0  0
  -29.6152  -16.0593   20.5055 N   0  0  0  0  0  0
  -31.4814  -12.7721   19.1743 H   0  0  0  0  0  0
  -30.4663  -11.6321   20.0142 H   0  0  0  0  0  0
  -29.8446  -11.7305   17.5790 H   0  0  0  0  0  0
  -29.6087  -13.4565   17.6854 H   0  0  0  0  0  0
  -27.9547  -11.2689   18.9764 H   0  0  0  0  0  0
  -27.3923  -12.4445   17.8173 H   0  0  0  0  0  0
  -27.6001  -14.2428   19.4174 H   0  0  0  0  0  0
  -28.7672  -12.2606   21.4366 H   0  0  0  0  0  0
  -28.3766  -13.9301   21.7718 H   0  0  0  0  0  0
  -25.2772   -9.5677   22.4773 H   0  0  0  0  0  0
  -24.0006   -7.4627   22.7478 H   0  0  0  0  0  0
  -21.0852   -8.8776   19.8948 H   0  0  0  0  0  0
  -22.3718  -10.9675   19.6173 H   0  0  0  0  0  0
  -21.2002   -7.6155   23.9720 H   0  0  0  0  0  0
  -21.1479   -6.0525   25.9076 H   0  0  0  0  0  0
  -22.0600   -2.7613   23.2835 H   0  0  0  0  0  0
  -22.4068  -11.9851   22.4808 H   0  0  0  0  0  0
  -21.1071  -13.1225   22.2634 H   0  0  0  0  0  0
  -24.6289  -15.8305   20.4959 H   0  0  0  0  0  0
  -26.2282  -15.6289   19.9990 H   0  0  0  0  0  0
  -26.7269  -32.5304   23.0989 H   0  0  0  0  0  0
  -25.0087  -33.9612   25.0328 H   0  0  0  0  0  0
  -22.7506  -31.2867   21.3731 H   0  0  0  0  0  0
  -23.3773  -35.9559   23.3256 H   0  0  0  0  0  0
  -24.3585  -36.8916   22.2062 H   0  0  0  0  0  0
  -23.7205  -37.6422   23.6692 H   0  0  0  0  0  0
  -26.1490  -31.4697   20.6011 H   0  0  0  0  0  0
  -26.8747  -30.7783   22.0165 H   0  0  0  0  0  0
  -28.1466  -28.8255   21.2021 H   0  0  0  0  0  0
  -25.9483  -25.8090   19.0513 H   0  0  0  0  0  0
  -23.9782  -27.2644   19.0178 H   0  0  0  0  0  0
  -23.8097  -30.5496   19.3934 H   0  0  0  0  0  0
  -22.7882  -29.2198   19.8469 H   0  0  0  0  0  0
  -25.1305  -36.1857   25.0808 H   0  0  0  0  0  0
  -21.0011  -28.3307   24.1363 H   0  0  0  0  0  0
  -20.5673  -26.2333   23.3628 H   0  0  0  0  0  0
  -21.6650  -26.7427   22.1208 H   0  0  0  0  0  0
  -19.6922  -25.6294   21.1251 H   0  0  0  0  0  0
  -19.6703  -27.3199   20.6751 H   0  0  0  0  0  0
  -17.4208  -26.6684   21.4030 H   0  0  0  0  0  0
  -18.0342  -26.0094   22.9031 H   0  0  0  0  0  0
  -19.7951  -30.7300   24.2239 H   0  0  0  0  0  0
  -17.5028  -31.6280   24.5170 H   0  0  0  0  0  0
  -15.5363  -30.3000   23.7677 H   0  0  0  0  0  0
  -15.8678  -28.0830   22.7090 H   0  0  0  0  0  0
  -24.5830  -30.7208   25.7754 H   0  0  0  0  0  0
  -24.8957  -32.3036   26.4786 H   0  0  0  0  0  0
  -25.7969  -30.9002   27.0224 H   0  0  0  0  0  0
  -26.2874  -29.6698   24.1275 H   0  0  0  0  0  0
  -27.3884  -29.7193   25.4828 H   0  0  0  0  0  0
  -27.8816  -30.4116   23.9566 H   0  0  0  0  0  0
  -27.2774  -33.3700   26.1836 H   0  0  0  0  0  0
  -28.4015  -32.6591   25.0342 H   0  0  0  0  0  0
  -28.0583  -31.8481   26.5534 H   0  0  0  0  0  0
  -28.2586  -38.0084   24.7515 H   0  0  0  0  0  0
  -28.1075  -36.2612   24.6280 H   0  0  0  0  0  0
  -27.2300  -37.1416   25.8869 H   0  0  0  0  0  0
  -20.9453  -29.8756   21.6792 H   0  0  0  0  0  0
  -26.0148  -38.2812   24.1433 H   0  0  0  0  0  0
  -30.7354  -20.4797   22.0459 H   0  0  0  0  0  0
  -27.8115  -20.2111   18.9372 H   0  0  0  0  0  0
  -31.0500  -18.0717   21.9936 H   0  0  0  0  0  0
  -28.0961  -17.7890   18.9180 H   0  0  0  0  0  0
  -30.1064  -24.7516   21.4683 H   0  0  0  0  0  0
  -28.8263  -24.8931   22.6526 H   0  0  0  0  0  0
  -28.4038  -22.5049   22.6032 H   0  0  0  0  0  0
  -30.1454  -22.5639   22.3871 H   0  0  0  0  0  0
  -29.2327  -23.5138   18.9827 H   0  0  0  0  0  0
  -27.5843  -22.9767   19.1936 H   0  0  0  0  0  0
  -27.1394  -24.5886   20.9679 H   0  0  0  0  0  0
  -28.6724  -15.7064   20.5518 H   0  0  0  0  0  0
  1 25  1  0  0  0
  1 30  2  0  0  0
  1 82  1  0  0  0
  2  3  1  0  0  0
  2 25  1  0  0  0
  2 83  1  0  0  0
  2 84  1  0  0  0
  3  4  1  0  0  0
  3 85  1  0  0  0
  3 86  1  0  0  0
  4  5  1  0  0  0
  4 87  1  0  0  0
  4 88  1  0  0  0
  5  6  1  0  0  0
  5 26  1  0  0  0
  5 89  1  0  0  0
  6 25  1  0  0  0
  6 90  1  0  0  0
  6 91  1  0  0  0
  7  8  2  0  0  0
  7 26  1  0  0  0
  7 29  1  0  0  0
  8  9  1  0  0  0
  8 22  1  0  0  0
  9 10  1  0  0  0
  9 27  2  0  0  0
 10 11  2  0  0  0
 10 15  1  0  0  0
 11 12  1  0  0  0
 11 92  1  0  0  0
 12 13  2  0  0  0
 12 93  1  0  0  0
 13 14  1  0  0  0
 13 31  1  0  0  0
 14 15  2  0  0  0
 14 94  1  0  0  0
 15 95  1  0  0  0
 16 17  2  0  0  0
 16 21  1  0  0  0
 16 31  1  0  0  0
 17 18  1  0  0  0
 17 96  1  0  0  0
 18 19  2  0  0  0
 18 97  1  0  0  0
 19 20  1  0  0  0
 19 24  1  0  0  0
 20 21  2  0  0  0
 20 98  1  0  0  0
 21 23  1  0  0  0
 22 28  1  0  0  0
 22 32  2  0  0  0
 26 27  1  0  0  0
 28 99  1  0  0  0
 28100  1  0  0  0
 29101  1  0  0  0
 29102  1  0  0  0
 33 34  1  0  0  0
 33 66  1  0  0  0
 33 70  2  0  0  0
 34 36  1  0  0  0
 34 59  1  0  0  0
 34103  1  0  0  0
 35 44  2  0  0  0
 35 45  1  0  0  0
 35 68  1  0  0  0
 36 56  1  0  0  0
 36104  1  0  0  0
 37 39  1  0  0  0
 37 47  1  0  0  0
 37 66  1  0  0  0
 37105  1  0  0  0
 38 43  2  0  0  0
 38 46  1  0  0  0
 38 47  1  0  0  0
 39 64  1  0  0  0
 39 67  2  0  0  0
 40 52  1  0  0  0
 40 53  2  0  0  0
 40 58  1  0  0  0
 41106  1  0  0  0
 41107  1  0  0  0
 41108  1  0  0  0
 41 48  1  0  0  0
 42 43  1  0  0  0
 42 66  1  0  0  0
 42109  1  0  0  0
 42110  1  0  0  0
 43 44  1  0  0  0
 44111  1  0  0  0
 45 46  2  0  0  0
 45112  1  0  0  0
 46113  1  0  0  0
 47114  1  0  0  0
 47115  1  0  0  0
 48 56  1  0  0  0
 48 65  1  0  0  0
 48116  1  0  0  0
 49 50  1  0  0  0
 49 53  1  0  0  0
 49 64  1  0  0  0
 49117  1  0  0  0
 50 51  1  0  0  0
 50118  1  0  0  0
 50119  1  0  0  0
 51 52  1  0  0  0
 51120  1  0  0  0
 51121  1  0  0  0
 52122  1  0  0  0
 52123  1  0  0  0
 53 54  1  0  0  0
 54 55  2  0  0  0
 54124  1  0  0  0
 55 57  1  0  0  0
 55125  1  0  0  0
 56 69  2  0  0  0
 57 58  2  0  0  0
 57126  1  0  0  0
 58127  1  0  0  0
 59 60  1  0  0  0
 59 61  1  0  0  0
 59 62  1  0  0  0
 60128  1  0  0  0
 60129  1  0  0  0
 60130  1  0  0  0
 61131  1  0  0  0
 61132  1  0  0  0
 61133  1  0  0  0
 62134  1  0  0  0
 62135  1  0  0  0
 62136  1  0  0  0
 63 65  1  0  0  0
 63137  1  0  0  0
 63138  1  0  0  0
 63139  1  0  0  0
 64140  1  0  0  0
 65141  1  0  0  0
 68 80  1  0  0  0
 71 73  2  0  0  0
 71 75  1  0  0  0
 71142  1  0  0  0
 72 74  1  0  0  0
 72 75  2  0  0  0
 72143  1  0  0  0
 73 76  1  0  0  0
 73144  1  0  0  0
 74 76  2  0  0  0
 74145  1  0  0  0
 75 81  1  0  0  0
 76 82  1  0  0  0
 77 78  1  0  0  0
 77 80  1  0  0  0
 77146  1  0  0  0
 77147  1  0  0  0
 78 81  1  0  0  0
 78148  1  0  0  0
 78149  1  0  0  0
 79 80  1  0  0  0
 79 81  1  0  0  0
 79150  1  0  0  0
 79151  1  0  0  0
 80152  1  0  0  0
 82153  1  0  0  0
M  ISO  4   1 100  68 101  80 101  82 100
M  END
> <chiral flag>
0

> <version>
0

> <s_m_source_file>
/data/baiqing/PycharmProjects/Reinvent-master-3.2/result/LINK_invent/BTK/process_docking_weight1_custom_product_contain_oxygen_bond_distance_aromatic_linkinvent_7_9_3/rearranged_h_0013.sdf

> <i_m_source_file_index>
38

> <r_mmod_Potential_Energy-OPLS-2005>
525.946105957031

> <r_mmod_Stretch_Energy-OPLS-2005>
213.858779907227

> <r_mmod_Bend_Energy-OPLS-2005>
307.925323486328

> <r_mmod_Torsional_Energy-OPLS-2005>
299.310577392578

> <r_mmod_Improper_Torsional_Energy-OPLS-2005>
7.30253410339355

> <r_mmod_Van_der_Waal_Energy-OPLS-2005>
124.300971984863

> <r_mmod_Electrostatic_Energy-OPLS-2005>
-383.096618652344

> <r_mmod_Solvation_Energy-OPLS-2005>
-232.282287597656

> <b_mmod_Minimization_Converged-OPLS-2005>
0

> <r_mmod_RMS_Derivative-OPLS-2005>
0.949168264865875

$$$$
39
                    3D
 Structure written by MMmdl.
151159  0  0  1  0            999 V2000
  -30.5957  -14.6517   20.5206 C   0  0  0  0  0  0
  -30.4468  -12.4001   19.4548 C   0  0  0  0  0  0
  -29.5175  -12.4896   18.2211 C   0  0  0  0  0  0
  -28.0388  -12.3182   18.6343 C   0  0  0  0  0  0
  -27.6471  -13.2047   19.8473 C   0  0  2  0  0  0
  -28.6842  -13.0682   20.9833 C   0  0  0  0  0  0
  -25.2580  -13.8137   20.5633 C   0  0  0  0  0  0
  -24.1827  -13.0428   20.9227 C   0  0  0  0  0  0
  -24.6354  -11.6893   20.8710 C   0  0  0  0  0  0
  -23.9015  -10.4278   21.0397 C   0  0  0  0  0  0
  -24.3569   -9.4216   21.9199 C   0  0  0  0  0  0
  -23.6261   -8.2230   22.0757 C   0  0  0  0  0  0
  -22.4270   -8.0265   21.3523 C   0  0  0  0  0  0
  -21.9875   -9.0242   20.4647 C   0  0  0  0  0  0
  -22.7164  -10.2144   20.3067 C   0  0  0  0  0  0
  -21.6862   -6.0724   22.5264 C   0  0  0  0  0  0
  -21.4002   -6.5624   23.8206 C   0  0  0  0  0  0
  -21.3665   -5.6794   24.9166 C   0  0  0  0  0  0
  -21.6040   -4.3047   24.7232 C   0  0  0  0  0  0
  -21.8817   -3.8136   23.4349 C   0  0  0  0  0  0
  -21.9190   -4.6941   22.3404 C   0  0  0  0  0  0
  -22.7864  -13.5255   21.1900 C   0  0  0  0  0  0
  -22.1666   -4.2120   21.0980 F   0  0  0  0  0  0
  -21.5633   -3.4549   25.7751 F   0  0  0  0  0  0
  -30.0017  -13.4181   20.4278 N   0  0  0  0  0  0
  -26.2941  -12.9266   20.3180 N   0  0  0  0  0  0
  -25.9267  -11.6439   20.5665 N   0  0  0  0  0  0
  -22.0453  -12.8288   22.0448 N   0  0  0  0  0  0
  -25.4305  -15.1849   20.4002 N   0  0  0  0  0  0
  -31.7706  -14.8318   20.1791 O   0  0  0  0  0  0
  -21.6631   -6.8860   21.4232 O   0  0  0  0  0  0
  -22.3553  -14.5545   20.6716 O   0  0  0  0  0  0
  -24.6241  -31.8606   23.2091 C   0  0  0  0  0  0
  -25.9097  -32.4810   23.8384 C   0  0  1  0  0  0
  -27.2068  -27.3064   20.1361 C   0  0  0  0  0  0
  -25.5893  -33.8600   24.2308 N   0  0  0  0  0  0
  -23.4184  -30.4879   21.5526 C   0  0  2  0  0  0
  -24.8622  -28.9471   20.1150 C   0  0  0  0  0  0
  -22.7449  -29.4623   22.4959 C   0  0  0  0  0  0
  -18.0267  -28.1411   22.8515 C   0  0  0  0  0  0
  -24.1470  -36.7275   23.2641 C   0  0  0  0  0  0
  -25.9587  -30.7950   21.3782 C   0  0  0  0  0  0
  -26.0307  -29.4178   20.7274 C   0  0  0  0  0  0
  -27.2054  -28.6054   20.7331 C   0  0  0  0  0  0
  -26.0186  -26.9041   19.4792 C   0  0  0  0  0  0
  -24.8589  -27.6972   19.4808 C   0  0  0  0  0  0
  -23.6325  -29.8279   20.1663 C   0  0  0  0  0  0
  -25.4121  -36.3133   24.0333 C   0  0  1  0  0  0
  -20.5866  -28.3711   23.1334 C   0  0  2  0  0  0
  -20.6754  -26.9443   22.5445 C   0  0  0  0  0  0
  -19.5735  -26.6417   21.5236 C   0  0  0  0  0  0
  -18.1904  -26.7958   22.1635 C   0  0  0  0  0  0
  -19.1516  -28.8872   23.2919 C   0  0  0  0  0  0
  -18.9427  -30.1463   23.8950 C   0  0  0  0  0  0
  -17.6432  -30.6617   24.0589 C   0  0  0  0  0  0
  -25.9044  -34.9474   23.5145 C   0  0  0  0  0  0
  -16.5323  -29.9116   23.6350 C   0  0  0  0  0  0
  -16.7252  -28.6525   23.0394 C   0  0  0  0  0  0
  -26.4541  -31.6603   25.0708 C   0  0  0  0  0  0
  -25.3754  -31.3671   26.1388 C   0  0  0  0  0  0
  -27.0390  -30.3045   24.6132 C   0  0  0  0  0  0
  -27.6172  -32.4267   25.7434 C   0  0  0  0  0  0
  -27.5590  -37.1816   24.8511 C   0  0  0  0  0  0
  -21.4166  -29.3044   22.3690 N   0  0  0  0  0  0
  -26.4334  -37.3806   23.9410 N   0  0  0  0  0  0
  -24.6863  -31.0629   22.1044 N   0  0  0  0  0  0
  -23.4142  -28.8130   23.3034 O   0  0  0  0  0  0
  -28.3051  -26.4329   20.2156 O   0  0  0  0  0  0
  -26.5613  -34.8941   22.4719 O   0  0  0  0  0  0
  -23.5408  -32.1377   23.7429 O   0  0  0  0  0  0
  -28.6038  -17.8877   20.8354 C   0  0  0  0  0  0
  -28.5756  -19.3133   20.8367 C   0  0  0  0  0  0
  -31.0125  -17.8992   20.8130 C   0  0  0  0  0  0
  -29.8153  -17.1382   20.8075 C   0  0  0  0  0  0
  -29.7739  -20.0754   20.8318 C   0  0  0  0  0  0
  -30.9902  -19.3267   20.8292 C   0  0  0  0  0  0
  -29.0710  -23.9165   20.6529 C   0  0  0  0  0  0
  -28.0426  -24.9781   20.0660 C   0  0  0  0  0  0
  -28.7044  -22.3638   20.6054 C   0  0  0  0  0  0
  -29.7301  -15.6757   20.8082 N   0  0  0  0  0  0
  -29.8455  -21.4832   20.8581 O   0  0  0  0  0  0
  -32.4981  -20.1751   20.8495 Cl  0  0  0  0  0  0
  -31.4837  -12.5484   19.1533 H   0  0  0  0  0  0
  -30.3994  -11.4050   19.8997 H   0  0  0  0  0  0
  -29.7900  -11.7216   17.4959 H   0  0  0  0  0  0
  -29.6569  -13.4464   17.7181 H   0  0  0  0  0  0
  -27.9001  -11.2690   18.8961 H   0  0  0  0  0  0
  -27.3836  -12.5121   17.7843 H   0  0  0  0  0  0
  -27.6634  -14.2333   19.4904 H   0  0  0  0  0  0
  -28.6964  -12.0460   21.3662 H   0  0  0  0  0  0
  -28.4174  -13.7041   21.8288 H   0  0  0  0  0  0
  -25.2709   -9.5716   22.4787 H   0  0  0  0  0  0
  -23.9990   -7.4619   22.7486 H   0  0  0  0  0  0
  -21.0797   -8.8722   19.8962 H   0  0  0  0  0  0
  -22.3578  -10.9681   19.6183 H   0  0  0  0  0  0
  -21.1982   -7.6137   23.9694 H   0  0  0  0  0  0
  -21.1504   -6.0527   25.9073 H   0  0  0  0  0  0
  -22.0595   -2.7595   23.2859 H   0  0  0  0  0  0
  -22.4024  -11.9946   22.4863 H   0  0  0  0  0  0
  -21.1058  -13.1335   22.2591 H   0  0  0  0  0  0
  -24.6544  -15.8326   20.4870 H   0  0  0  0  0  0
  -26.2488  -15.6020   19.9740 H   0  0  0  0  0  0
  -26.7114  -32.5552   23.1101 H   0  0  0  0  0  0
  -25.0075  -33.9761   25.0469 H   0  0  0  0  0  0
  -22.7155  -31.3108   21.4176 H   0  0  0  0  0  0
  -23.3767  -35.9585   23.3386 H   0  0  0  0  0  0
  -24.3548  -36.8784   22.2039 H   0  0  0  0  0  0
  -23.7140  -37.6473   23.6588 H   0  0  0  0  0  0
  -26.0789  -31.5508   20.6012 H   0  0  0  0  0  0
  -26.8409  -30.8619   22.0022 H   0  0  0  0  0  0
  -28.1004  -28.9483   21.2313 H   0  0  0  0  0  0
  -25.9464  -25.9579   18.9634 H   0  0  0  0  0  0
  -23.9596  -27.3465   18.9899 H   0  0  0  0  0  0
  -23.7498  -30.6040   19.4108 H   0  0  0  0  0  0
  -22.7500  -29.2594   19.8728 H   0  0  0  0  0  0
  -25.1302  -36.2034   25.0819 H   0  0  0  0  0  0
  -21.0002  -28.3289   24.1447 H   0  0  0  0  0  0
  -20.5706  -26.2300   23.3638 H   0  0  0  0  0  0
  -21.6607  -26.7512   22.1198 H   0  0  0  0  0  0
  -19.6914  -25.6339   21.1225 H   0  0  0  0  0  0
  -19.6653  -27.3266   20.6793 H   0  0  0  0  0  0
  -17.4176  -26.6733   21.4028 H   0  0  0  0  0  0
  -18.0300  -26.0098   22.9017 H   0  0  0  0  0  0
  -19.7886  -30.7266   24.2357 H   0  0  0  0  0  0
  -17.4979  -31.6331   24.5141 H   0  0  0  0  0  0
  -15.5322  -30.3043   23.7676 H   0  0  0  0  0  0
  -15.8629  -28.0857   22.7151 H   0  0  0  0  0  0
  -24.6016  -30.6972   25.7625 H   0  0  0  0  0  0
  -24.8839  -32.2787   26.4784 H   0  0  0  0  0  0
  -25.8009  -30.8824   27.0168 H   0  0  0  0  0  0
  -26.2948  -29.6744   24.1248 H   0  0  0  0  0  0
  -27.4223  -29.7362   25.4613 H   0  0  0  0  0  0
  -27.8748  -30.4376   23.9261 H   0  0  0  0  0  0
  -27.2936  -33.3602   26.2042 H   0  0  0  0  0  0
  -28.3950  -32.6717   25.0187 H   0  0  0  0  0  0
  -28.0886  -31.8317   26.5280 H   0  0  0  0  0  0
  -28.2713  -38.0020   24.7521 H   0  0  0  0  0  0
  -28.0966  -36.2562   24.6412 H   0  0  0  0  0  0
  -27.2300  -37.1544   25.8914 H   0  0  0  0  0  0
  -20.9343  -29.8683   21.6829 H   0  0  0  0  0  0
  -26.0245  -38.2892   24.1403 H   0  0  0  0  0  0
  -27.6518  -17.3742   20.8497 H   0  0  0  0  0  0
  -27.6123  -19.8083   20.8552 H   0  0  0  0  0  0
  -31.9732  -17.4040   20.8253 H   0  0  0  0  0  0
  -29.2673  -24.1704   21.6963 H   0  0  0  0  0  0
  -30.0170  -24.0480   20.1306 H   0  0  0  0  0  0
  -27.0787  -24.7403   20.5160 H   0  0  0  0  0  0
  -27.9339  -24.7756   18.9967 H   0  0  0  0  0  0
  -28.2820  -22.1226   19.6289 H   0  0  0  0  0  0
  -27.9324  -22.1616   21.3509 H   0  0  0  0  0  0
  -28.7959  -15.3218   20.9411 H   0  0  0  0  0  0
  1 25  1  0  0  0
  1 30  2  0  0  0
  1 80  1  0  0  0
  2  3  1  0  0  0
  2 25  1  0  0  0
  2 83  1  0  0  0
  2 84  1  0  0  0
  3  4  1  0  0  0
  3 85  1  0  0  0
  3 86  1  0  0  0
  4  5  1  0  0  0
  4 87  1  0  0  0
  4 88  1  0  0  0
  5  6  1  0  0  0
  5 26  1  0  0  0
  5 89  1  0  0  0
  6 25  1  0  0  0
  6 90  1  0  0  0
  6 91  1  0  0  0
  7  8  2  0  0  0
  7 26  1  0  0  0
  7 29  1  0  0  0
  8  9  1  0  0  0
  8 22  1  0  0  0
  9 10  1  0  0  0
  9 27  2  0  0  0
 10 11  2  0  0  0
 10 15  1  0  0  0
 11 12  1  0  0  0
 11 92  1  0  0  0
 12 13  2  0  0  0
 12 93  1  0  0  0
 13 14  1  0  0  0
 13 31  1  0  0  0
 14 15  2  0  0  0
 14 94  1  0  0  0
 15 95  1  0  0  0
 16 17  2  0  0  0
 16 21  1  0  0  0
 16 31  1  0  0  0
 17 18  1  0  0  0
 17 96  1  0  0  0
 18 19  2  0  0  0
 18 97  1  0  0  0
 19 20  1  0  0  0
 19 24  1  0  0  0
 20 21  2  0  0  0
 20 98  1  0  0  0
 21 23  1  0  0  0
 22 28  1  0  0  0
 22 32  2  0  0  0
 26 27  1  0  0  0
 28 99  1  0  0  0
 28100  1  0  0  0
 29101  1  0  0  0
 29102  1  0  0  0
 33 34  1  0  0  0
 33 66  1  0  0  0
 33 70  2  0  0  0
 34 36  1  0  0  0
 34 59  1  0  0  0
 34103  1  0  0  0
 35 44  2  0  0  0
 35 45  1  0  0  0
 35 68  1  0  0  0
 36 56  1  0  0  0
 36104  1  0  0  0
 37 39  1  0  0  0
 37 47  1  0  0  0
 37 66  1  0  0  0
 37105  1  0  0  0
 38 43  2  0  0  0
 38 46  1  0  0  0
 38 47  1  0  0  0
 39 64  1  0  0  0
 39 67  2  0  0  0
 40 52  1  0  0  0
 40 53  2  0  0  0
 40 58  1  0  0  0
 41106  1  0  0  0
 41107  1  0  0  0
 41108  1  0  0  0
 41 48  1  0  0  0
 42 43  1  0  0  0
 42 66  1  0  0  0
 42109  1  0  0  0
 42110  1  0  0  0
 43 44  1  0  0  0
 44111  1  0  0  0
 45 46  2  0  0  0
 45112  1  0  0  0
 46113  1  0  0  0
 47114  1  0  0  0
 47115  1  0  0  0
 48 56  1  0  0  0
 48 65  1  0  0  0
 48116  1  0  0  0
 49 50  1  0  0  0
 49 53  1  0  0  0
 49 64  1  0  0  0
 49117  1  0  0  0
 50 51  1  0  0  0
 50118  1  0  0  0
 50119  1  0  0  0
 51 52  1  0  0  0
 51120  1  0  0  0
 51121  1  0  0  0
 52122  1  0  0  0
 52123  1  0  0  0
 53 54  1  0  0  0
 54 55  2  0  0  0
 54124  1  0  0  0
 55 57  1  0  0  0
 55125  1  0  0  0
 56 69  2  0  0  0
 57 58  2  0  0  0
 57126  1  0  0  0
 58127  1  0  0  0
 59 60  1  0  0  0
 59 61  1  0  0  0
 59 62  1  0  0  0
 60128  1  0  0  0
 60129  1  0  0  0
 60130  1  0  0  0
 61131  1  0  0  0
 61132  1  0  0  0
 61133  1  0  0  0
 62134  1  0  0  0
 62135  1  0  0  0
 62136  1  0  0  0
 63 65  1  0  0  0
 63137  1  0  0  0
 63138  1  0  0  0
 63139  1  0  0  0
 64140  1  0  0  0
 65141  1  0  0  0
 68 78  1  0  0  0
 71 72  2  0  0  0
 71 74  1  0  0  0
 71142  1  0  0  0
 72 75  1  0  0  0
 72143  1  0  0  0
 73 74  2  0  0  0
 73 76  1  0  0  0
 73144  1  0  0  0
 74 80  1  0  0  0
 75 76  2  0  0  0
 75 81  1  0  0  0
 76 82  1  0  0  0
 77 78  1  0  0  0
 77 79  1  0  0  0
 77145  1  0  0  0
 77146  1  0  0  0
 78147  1  0  0  0
 78148  1  0  0  0
 79 81  1  0  0  0
 79149  1  0  0  0
 79150  1  0  0  0
 80151  1  0  0  0
M  ISO  4   1 100  68 101  78 101  80 100
M  END
> <chiral flag>
0

> <version>
0

> <s_m_source_file>
/data/baiqing/PycharmProjects/Reinvent-master-3.2/result/LINK_invent/BTK/process_docking_weight1_custom_product_contain_oxygen_bond_distance_aromatic_linkinvent_7_9_3/rearranged_h_0013.sdf

> <i_m_source_file_index>
39

> <r_mmod_Potential_Energy-OPLS-2005>
75.7188110351562

> <r_mmod_Stretch_Energy-OPLS-2005>
78.2957916259766

> <r_mmod_Bend_Energy-OPLS-2005>
144.195495605469

> <r_mmod_Torsional_Energy-OPLS-2005>
211.836456298828

> <r_mmod_Improper_Torsional_Energy-OPLS-2005>
5.42349863052368

> <r_mmod_Van_der_Waal_Energy-OPLS-2005>
143.755264282227

> <r_mmod_Electrostatic_Energy-OPLS-2005>
-350.020111083984

> <r_mmod_Solvation_Energy-OPLS-2005>
-215.935211181641

> <b_mmod_Minimization_Converged-OPLS-2005>
0

> <r_mmod_RMS_Derivative-OPLS-2005>
5.47856521606445

$$$$
40
                    3D
 Structure written by MMmdl.
155164  0  0  1  0            999 V2000
  -30.5906  -14.7312   20.3546 C   0  0  0  0  0  0
  -30.4386  -12.4042   19.4893 C   0  0  0  0  0  0
  -29.5191  -12.3905   18.2496 C   0  0  0  0  0  0
  -28.0244  -12.3248   18.6385 C   0  0  0  0  0  0
  -27.6369  -13.2195   19.8492 C   0  0  2  0  0  0
  -28.6895  -13.1712   20.9744 C   0  0  0  0  0  0
  -25.2554  -13.8165   20.5769 C   0  0  0  0  0  0
  -24.1799  -13.0440   20.9217 C   0  0  0  0  0  0
  -24.6392  -11.6915   20.8759 C   0  0  0  0  0  0
  -23.9091  -10.4275   21.0398 C   0  0  0  0  0  0
  -24.3661   -9.4166   21.9173 C   0  0  0  0  0  0
  -23.6315   -8.2216   22.0742 C   0  0  0  0  0  0
  -22.4289   -8.0295   21.3559 C   0  0  0  0  0  0
  -21.9924   -9.0274   20.4650 C   0  0  0  0  0  0
  -22.7264  -10.2143   20.3045 C   0  0  0  0  0  0
  -21.6842   -6.0762   22.5282 C   0  0  0  0  0  0
  -21.4003   -6.5640   23.8237 C   0  0  0  0  0  0
  -21.3649   -5.6774   24.9188 C   0  0  0  0  0  0
  -21.6022   -4.3045   24.7218 C   0  0  0  0  0  0
  -21.8809   -3.8156   23.4331 C   0  0  0  0  0  0
  -21.9166   -4.6984   22.3393 C   0  0  0  0  0  0
  -22.7808  -13.5232   21.1858 C   0  0  0  0  0  0
  -22.1635   -4.2184   21.0959 F   0  0  0  0  0  0
  -21.5635   -3.4519   25.7726 F   0  0  0  0  0  0
  -29.9813  -13.4992   20.3633 N   0  0  0  0  0  0
  -26.2945  -12.9334   20.3351 N   0  0  0  0  0  0
  -25.9310  -11.6510   20.5798 N   0  0  0  0  0  0
  -22.0430  -12.8263   22.0423 N   0  0  0  0  0  0
  -25.4311  -15.1901   20.4296 N   0  0  0  0  0  0
  -31.8139  -14.8070   20.1932 O   0  0  0  0  0  0
  -21.6621   -6.8917   21.4254 O   0  0  0  0  0  0
  -22.3495  -14.5509   20.6662 O   0  0  0  0  0  0
  -24.6244  -31.8589   23.2046 C   0  0  0  0  0  0
  -25.9090  -32.4773   23.8355 C   0  0  1  0  0  0
  -27.2299  -27.3067   20.1390 C   0  0  0  0  0  0
  -25.5891  -33.8571   24.2295 N   0  0  0  0  0  0
  -23.4198  -30.4819   21.5424 C   0  0  2  0  0  0
  -24.8717  -28.9308   20.1149 C   0  0  0  0  0  0
  -22.7454  -29.4612   22.4897 C   0  0  0  0  0  0
  -18.0279  -28.1400   22.8459 C   0  0  0  0  0  0
  -24.1464  -36.7294   23.2635 C   0  0  0  0  0  0
  -25.9604  -30.7922   21.3699 C   0  0  0  0  0  0
  -26.0385  -29.4140   20.7192 C   0  0  0  0  0  0
  -27.2189  -28.6143   20.7182 C   0  0  0  0  0  0
  -26.0429  -26.8837   19.4959 C   0  0  0  0  0  0
  -24.8751  -27.6711   19.4973 C   0  0  0  0  0  0
  -23.6413  -29.8127   20.1583 C   0  0  0  0  0  0
  -25.4080  -36.3067   24.0337 C   0  0  1  0  0  0
  -20.5890  -28.3705   23.1260 C   0  0  2  0  0  0
  -20.6769  -26.9409   22.5415 C   0  0  0  0  0  0
  -19.5752  -26.6378   21.5192 C   0  0  0  0  0  0
  -18.1937  -26.7928   22.1618 C   0  0  0  0  0  0
  -19.1539  -28.8858   23.2868 C   0  0  0  0  0  0
  -18.9461  -30.1465   23.8878 C   0  0  0  0  0  0
  -17.6466  -30.6612   24.0541 C   0  0  0  0  0  0
  -25.9034  -34.9435   23.5118 C   0  0  0  0  0  0
  -16.5354  -29.9125   23.6304 C   0  0  0  0  0  0
  -16.7269  -28.6548   23.0310 C   0  0  0  0  0  0
  -26.4487  -31.6572   25.0719 C   0  0  0  0  0  0
  -25.3718  -31.3724   26.1459 C   0  0  0  0  0  0
  -27.0350  -30.2998   24.6170 C   0  0  0  0  0  0
  -27.6048  -32.4305   25.7496 C   0  0  0  0  0  0
  -27.5554  -37.1790   24.8452 C   0  0  0  0  0  0
  -21.4169  -29.3063   22.3650 N   0  0  0  0  0  0
  -26.4248  -37.3773   23.9420 N   0  0  0  0  0  0
  -24.6869  -31.0630   22.0953 N   0  0  0  0  0  0
  -23.4190  -28.8099   23.2931 O   0  0  0  0  0  0
  -28.3493  -26.4577   20.2273 O   0  0  0  0  0  0
  -26.5615  -34.8895   22.4690 O   0  0  0  0  0  0
  -23.5420  -32.1350   23.7402 O   0  0  0  0  0  0
  -29.6704  -19.0544   22.1617 C   0  0  0  0  0  0
  -29.7697  -17.6458   21.9033 C   0  0  0  0  0  0
  -29.7134  -19.5628   19.7962 C   0  0  0  0  0  0
  -29.6257  -20.0525   21.1284 C   0  0  0  0  0  0
  -29.7968  -18.1569   19.5558 C   0  0  0  0  0  0
  -29.8309  -17.1812   20.5637 C   0  0  0  0  0  0
  -29.5940  -21.5632   21.4825 C   0  0  0  0  0  0
  -29.8409  -17.4954   18.2110 C   0  0  0  0  0  0
  -29.5165  -16.0237   18.5561 C   0  0  0  0  0  0
  -29.2084  -24.0229   20.8316 C   0  0  0  0  0  0
  -28.1720  -24.9848   20.0923 C   0  0  0  0  0  0
  -29.7990  -15.8232   20.0103 N   0  0  0  0  0  0
  -29.0984  -22.5191   20.6317 N   0  0  0  0  0  0
  -30.0126  -21.8974   22.5932 O   0  0  0  0  0  0
  -31.4790  -12.5233   19.1857 H   0  0  0  0  0  0
  -30.3881  -11.4567   20.0283 H   0  0  0  0  0  0
  -29.7705  -11.5254   17.6351 H   0  0  0  0  0  0
  -29.7119  -13.2498   17.6114 H   0  0  0  0  0  0
  -27.8056  -11.2833   18.8707 H   0  0  0  0  0  0
  -27.4061  -12.5743   17.7767 H   0  0  0  0  0  0
  -27.6129  -14.2367   19.4804 H   0  0  0  0  0  0
  -28.7141  -12.1871   21.4546 H   0  0  0  0  0  0
  -28.4502  -13.8922   21.7616 H   0  0  0  0  0  0
  -25.2795   -9.5610   22.4772 H   0  0  0  0  0  0
  -23.9988   -7.4565   22.7456 H   0  0  0  0  0  0
  -21.0833   -8.8824   19.8966 H   0  0  0  0  0  0
  -22.3723  -10.9722   19.6169 H   0  0  0  0  0  0
  -21.2025   -7.6159   23.9761 H   0  0  0  0  0  0
  -21.1472   -6.0499   25.9098 H   0  0  0  0  0  0
  -22.0602   -2.7622   23.2793 H   0  0  0  0  0  0
  -22.4029  -11.9966   22.4856 H   0  0  0  0  0  0
  -21.1082  -13.1352   22.2664 H   0  0  0  0  0  0
  -24.6861  -15.8621   20.5807 H   0  0  0  0  0  0
  -26.3129  -15.6268   20.1831 H   0  0  0  0  0  0
  -26.7126  -32.5434   23.1074 H   0  0  0  0  0  0
  -24.9880  -33.9677   25.0335 H   0  0  0  0  0  0
  -22.7113  -31.3008   21.3912 H   0  0  0  0  0  0
  -23.3716  -35.9639   23.3300 H   0  0  0  0  0  0
  -24.3539  -36.8934   22.2048 H   0  0  0  0  0  0
  -23.7258  -37.6501   23.6680 H   0  0  0  0  0  0
  -26.0817  -31.5478   20.5929 H   0  0  0  0  0  0
  -26.8441  -30.8559   21.9935 H   0  0  0  0  0  0
  -28.1148  -28.9797   21.1969 H   0  0  0  0  0  0
  -25.9942  -25.9247   19.0003 H   0  0  0  0  0  0
  -23.9752  -27.2978   19.0274 H   0  0  0  0  0  0
  -23.7674  -30.5837   19.3973 H   0  0  0  0  0  0
  -22.7626  -29.2442   19.8498 H   0  0  0  0  0  0
  -25.1266  -36.1878   25.0836 H   0  0  0  0  0  0
  -21.0004  -28.3303   24.1374 H   0  0  0  0  0  0
  -20.5629  -26.2303   23.3631 H   0  0  0  0  0  0
  -21.6639  -26.7396   22.1231 H   0  0  0  0  0  0
  -19.6906  -25.6278   21.1248 H   0  0  0  0  0  0
  -19.6709  -27.3153   20.6696 H   0  0  0  0  0  0
  -17.4189  -26.6618   21.4059 H   0  0  0  0  0  0
  -18.0371  -26.0111   22.9059 H   0  0  0  0  0  0
  -19.7947  -30.7257   24.2273 H   0  0  0  0  0  0
  -17.5036  -31.6280   24.5169 H   0  0  0  0  0  0
  -15.5361  -30.3019   23.7660 H   0  0  0  0  0  0
  -15.8667  -28.0876   22.7018 H   0  0  0  0  0  0
  -24.5848  -30.7133   25.7785 H   0  0  0  0  0  0
  -24.8945  -32.2902   26.4905 H   0  0  0  0  0  0
  -25.8029  -30.8850   27.0215 H   0  0  0  0  0  0
  -26.2943  -29.6744   24.1177 H   0  0  0  0  0  0
  -27.4043  -29.7267   25.4687 H   0  0  0  0  0  0
  -27.8801  -30.4311   23.9412 H   0  0  0  0  0  0
  -27.2655  -33.3590   26.2102 H   0  0  0  0  0  0
  -28.3849  -32.6899   25.0328 H   0  0  0  0  0  0
  -28.0712  -31.8392   26.5388 H   0  0  0  0  0  0
  -28.2561  -38.0091   24.7489 H   0  0  0  0  0  0
  -28.1064  -36.2631   24.6277 H   0  0  0  0  0  0
  -27.2269  -37.1426   25.8849 H   0  0  0  0  0  0
  -20.9351  -29.8785   21.6849 H   0  0  0  0  0  0
  -26.0121  -38.2832   24.1473 H   0  0  0  0  0  0
  -29.6222  -19.3755   23.1954 H   0  0  0  0  0  0
  -29.7665  -16.9552   22.7347 H   0  0  0  0  0  0
  -29.7203  -20.2607   18.9663 H   0  0  0  0  0  0
  -30.8486  -17.5717   17.7991 H   0  0  0  0  0  0
  -29.1435  -17.9416   17.5017 H   0  0  0  0  0  0
  -30.0491  -15.3591   17.8768 H   0  0  0  0  0  0
  -28.4482  -15.8750   18.3799 H   0  0  0  0  0  0
  -29.1682  -24.2456   21.8998 H   0  0  0  0  0  0
  -30.2114  -24.3115   20.5172 H   0  0  0  0  0  0
  -27.1809  -24.6991   20.4467 H   0  0  0  0  0  0
  -28.1931  -24.7535   19.0264 H   0  0  0  0  0  0
  -28.7125  -22.1922   19.7567 H   0  0  0  0  0  0
  1 25  1  0  0  0
  1 30  2  0  0  0
  1 82  1  0  0  0
  2  3  1  0  0  0
  2 25  1  0  0  0
  2 85  1  0  0  0
  2 86  1  0  0  0
  3  4  1  0  0  0
  3 87  1  0  0  0
  3 88  1  0  0  0
  4  5  1  0  0  0
  4 89  1  0  0  0
  4 90  1  0  0  0
  5  6  1  0  0  0
  5 26  1  0  0  0
  5 91  1  0  0  0
  6 25  1  0  0  0
  6 92  1  0  0  0
  6 93  1  0  0  0
  7  8  2  0  0  0
  7 26  1  0  0  0
  7 29  1  0  0  0
  8  9  1  0  0  0
  8 22  1  0  0  0
  9 10  1  0  0  0
  9 27  2  0  0  0
 10 11  2  0  0  0
 10 15  1  0  0  0
 11 12  1  0  0  0
 11 94  1  0  0  0
 12 13  2  0  0  0
 12 95  1  0  0  0
 13 14  1  0  0  0
 13 31  1  0  0  0
 14 15  2  0  0  0
 14 96  1  0  0  0
 15 97  1  0  0  0
 16 17  2  0  0  0
 16 21  1  0  0  0
 16 31  1  0  0  0
 17 18  1  0  0  0
 17 98  1  0  0  0
 18 19  2  0  0  0
 18 99  1  0  0  0
 19 20  1  0  0  0
 19 24  1  0  0  0
 20 21  2  0  0  0
 20100  1  0  0  0
 21 23  1  0  0  0
 22 28  1  0  0  0
 22 32  2  0  0  0
 26 27  1  0  0  0
 28101  1  0  0  0
 28102  1  0  0  0
 29103  1  0  0  0
 29104  1  0  0  0
 33 34  1  0  0  0
 33 66  1  0  0  0
 33 70  2  0  0  0
 34 36  1  0  0  0
 34 59  1  0  0  0
 34105  1  0  0  0
 35 44  2  0  0  0
 35 45  1  0  0  0
 35 68  1  0  0  0
 36 56  1  0  0  0
 36106  1  0  0  0
 37 39  1  0  0  0
 37 47  1  0  0  0
 37 66  1  0  0  0
 37107  1  0  0  0
 38 43  2  0  0  0
 38 46  1  0  0  0
 38 47  1  0  0  0
 39 64  1  0  0  0
 39 67  2  0  0  0
 40 52  1  0  0  0
 40 53  2  0  0  0
 40 58  1  0  0  0
 41108  1  0  0  0
 41109  1  0  0  0
 41110  1  0  0  0
 41 48  1  0  0  0
 42 43  1  0  0  0
 42 66  1  0  0  0
 42111  1  0  0  0
 42112  1  0  0  0
 43 44  1  0  0  0
 44113  1  0  0  0
 45 46  2  0  0  0
 45114  1  0  0  0
 46115  1  0  0  0
 47116  1  0  0  0
 47117  1  0  0  0
 48 56  1  0  0  0
 48 65  1  0  0  0
 48118  1  0  0  0
 49 50  1  0  0  0
 49 53  1  0  0  0
 49 64  1  0  0  0
 49119  1  0  0  0
 50 51  1  0  0  0
 50120  1  0  0  0
 50121  1  0  0  0
 51 52  1  0  0  0
 51122  1  0  0  0
 51123  1  0  0  0
 52124  1  0  0  0
 52125  1  0  0  0
 53 54  1  0  0  0
 54 55  2  0  0  0
 54126  1  0  0  0
 55 57  1  0  0  0
 55127  1  0  0  0
 56 69  2  0  0  0
 57 58  2  0  0  0
 57128  1  0  0  0
 58129  1  0  0  0
 59 60  1  0  0  0
 59 61  1  0  0  0
 59 62  1  0  0  0
 60130  1  0  0  0
 60131  1  0  0  0
 60132  1  0  0  0
 61133  1  0  0  0
 61134  1  0  0  0
 61135  1  0  0  0
 62136  1  0  0  0
 62137  1  0  0  0
 62138  1  0  0  0
 63 65  1  0  0  0
 63139  1  0  0  0
 63140  1  0  0  0
 63141  1  0  0  0
 64142  1  0  0  0
 65143  1  0  0  0
 68 81  1  0  0  0
 71 72  2  0  0  0
 71 74  1  0  0  0
 71144  1  0  0  0
 72 76  1  0  0  0
 72145  1  0  0  0
 73 74  2  0  0  0
 73 75  1  0  0  0
 73146  1  0  0  0
 74 77  1  0  0  0
 75 76  2  0  0  0
 75 78  1  0  0  0
 76 82  1  0  0  0
 77 83  1  0  0  0
 77 84  2  0  0  0
 78 79  1  0  0  0
 78147  1  0  0  0
 78148  1  0  0  0
 79 82  1  0  0  0
 79149  1  0  0  0
 79150  1  0  0  0
 80 81  1  0  0  0
 80 83  1  0  0  0
 80151  1  0  0  0
 80152  1  0  0  0
 81153  1  0  0  0
 81154  1  0  0  0
 83155  1  0  0  0
M  ISO  4   1 100  68 101  81 101  82 100
M  END
> <chiral flag>
0

> <version>
0

> <s_m_source_file>
/data/baiqing/PycharmProjects/Reinvent-master-3.2/result/LINK_invent/BTK/process_docking_weight1_custom_product_contain_oxygen_bond_distance_aromatic_linkinvent_7_9_3/rearranged_h_0013.sdf

> <i_m_source_file_index>
40

> <r_mmod_Potential_Energy-OPLS-2005>
259.413208007812

> <r_mmod_Stretch_Energy-OPLS-2005>
93.9350128173828

> <r_mmod_Bend_Energy-OPLS-2005>
197.188919067383

> <r_mmod_Torsional_Energy-OPLS-2005>
312.456268310547

> <r_mmod_Improper_Torsional_Energy-OPLS-2005>
20.7542152404785

> <r_mmod_Van_der_Waal_Energy-OPLS-2005>
136.330383300781

> <r_mmod_Electrostatic_Energy-OPLS-2005>
-353.602844238281

> <r_mmod_Solvation_Energy-OPLS-2005>
-228.040588378906

> <b_mmod_Minimization_Converged-OPLS-2005>
0

> <r_mmod_RMS_Derivative-OPLS-2005>
6.67385292053223

$$$$
41
                    3D
 Structure written by MMmdl.
151159  0  0  1  0            999 V2000
  -30.5760  -14.9053   20.4932 C   0  0  0  0  0  0
  -30.4449  -12.5820   19.4699 C   0  0  0  0  0  0
  -29.5069  -12.5321   18.2401 C   0  0  0  0  0  0
  -28.0402  -12.3320   18.6622 C   0  0  0  0  0  0
  -27.6375  -13.2435   19.8478 C   0  0  2  0  0  0
  -28.6860  -13.1980   20.9758 C   0  0  0  0  0  0
  -25.2495  -13.8209   20.5734 C   0  0  0  0  0  0
  -24.1794  -13.0455   20.9220 C   0  0  0  0  0  0
  -24.6402  -11.6933   20.8770 C   0  0  0  0  0  0
  -23.9079  -10.4310   21.0423 C   0  0  0  0  0  0
  -24.3626   -9.4212   21.9188 C   0  0  0  0  0  0
  -23.6306   -8.2247   22.0745 C   0  0  0  0  0  0
  -22.4287   -8.0290   21.3538 C   0  0  0  0  0  0
  -21.9925   -9.0270   20.4643 C   0  0  0  0  0  0
  -22.7256  -10.2148   20.3068 C   0  0  0  0  0  0
  -21.6855   -6.0735   22.5267 C   0  0  0  0  0  0
  -21.4010   -6.5634   23.8198 C   0  0  0  0  0  0
  -21.3662   -5.6789   24.9163 C   0  0  0  0  0  0
  -21.6050   -4.3051   24.7216 C   0  0  0  0  0  0
  -21.8826   -3.8146   23.4337 C   0  0  0  0  0  0
  -21.9194   -4.6963   22.3398 C   0  0  0  0  0  0
  -22.7807  -13.5221   21.1884 C   0  0  0  0  0  0
  -22.1668   -4.2150   21.0977 F   0  0  0  0  0  0
  -21.5631   -3.4538   25.7730 F   0  0  0  0  0  0
  -29.9694  -13.6459   20.4043 N   0  0  0  0  0  0
  -26.2931  -12.9439   20.3312 N   0  0  0  0  0  0
  -25.9337  -11.6570   20.5771 N   0  0  0  0  0  0
  -22.0462  -12.8210   22.0436 N   0  0  0  0  0  0
  -25.4191  -15.1947   20.4176 N   0  0  0  0  0  0
  -31.7092  -15.0169   20.0109 O   0  0  0  0  0  0
  -21.6645   -6.8892   21.4235 O   0  0  0  0  0  0
  -22.3494  -14.5532   20.6742 O   0  0  0  0  0  0
  -24.6452  -31.8407   23.1849 C   0  0  0  0  0  0
  -25.9216  -32.4666   23.8250 C   0  0  1  0  0  0
  -27.2259  -27.1285   20.1725 C   0  0  0  0  0  0
  -25.5925  -33.8472   24.2132 N   0  0  0  0  0  0
  -23.4486  -30.4592   21.5309 C   0  0  2  0  0  0
  -24.9036  -28.8888   20.1050 C   0  0  0  0  0  0
  -22.7583  -29.4527   22.4856 C   0  0  0  0  0  0
  -18.0312  -28.1410   22.8506 C   0  0  0  0  0  0
  -24.1456  -36.7263   23.2654 C   0  0  0  0  0  0
  -26.0043  -30.7191   21.3806 C   0  0  0  0  0  0
  -26.0790  -29.3269   20.7294 C   0  0  0  0  0  0
  -27.2362  -28.4618   20.7484 C   0  0  0  0  0  0
  -26.0290  -26.7983   19.4943 C   0  0  0  0  0  0
  -24.8943  -27.6392   19.4684 C   0  0  0  0  0  0
  -23.6718  -29.7829   20.1522 C   0  0  0  0  0  0
  -25.4090  -36.3005   24.0306 C   0  0  1  0  0  0
  -20.5929  -28.3727   23.1239 C   0  0  2  0  0  0
  -20.6786  -26.9412   22.5434 C   0  0  0  0  0  0
  -19.5740  -26.6384   21.5256 C   0  0  0  0  0  0
  -18.1917  -26.7959   22.1653 C   0  0  0  0  0  0
  -19.1574  -28.8895   23.2854 C   0  0  0  0  0  0
  -18.9495  -30.1505   23.8842 C   0  0  0  0  0  0
  -17.6487  -30.6601   24.0564 C   0  0  0  0  0  0
  -25.9062  -34.9389   23.5040 C   0  0  0  0  0  0
  -16.5379  -29.9088   23.6354 C   0  0  0  0  0  0
  -16.7305  -28.6520   23.0363 C   0  0  0  0  0  0
  -26.4525  -31.6566   25.0715 C   0  0  0  0  0  0
  -25.3683  -31.3784   26.1396 C   0  0  0  0  0  0
  -27.0444  -30.2965   24.6346 C   0  0  0  0  0  0
  -27.6024  -32.4404   25.7497 C   0  0  0  0  0  0
  -27.5552  -37.1751   24.8444 C   0  0  0  0  0  0
  -21.4282  -29.3019   22.3586 N   0  0  0  0  0  0
  -26.4237  -37.3743   23.9431 N   0  0  0  0  0  0
  -24.7191  -31.0269   22.0873 N   0  0  0  0  0  0
  -23.4218  -28.8093   23.3024 O   0  0  0  0  0  0
  -28.2790  -26.1435   20.2923 O   0  0  0  0  0  0
  -26.5686  -34.8899   22.4642 O   0  0  0  0  0  0
  -23.5569  -32.1317   23.7047 O   0  0  0  0  0  0
  -29.8329  -18.1309   19.4871 C   0  0  0  0  0  0
  -29.3808  -18.5104   21.7626 C   0  0  0  0  0  0
  -29.5864  -19.5488   19.2453 C   0  0  0  0  0  0
  -29.1456  -19.9268   21.5203 C   0  0  0  0  0  0
  -29.7476  -17.5072   20.7778 C   0  0  0  0  0  0
  -29.2264  -20.5406   20.2314 C   0  0  0  0  0  0
  -29.8713  -15.7576   22.5907 C   0  0  0  0  0  0
  -28.8160  -23.2399   20.6288 C   0  0  0  0  0  0
  -28.1037  -24.6257   19.9608 C   0  0  0  0  0  0
  -29.9499  -16.0111   21.1412 N   0  0  0  0  0  0
  -28.9410  -21.9251   19.8357 O   0  0  0  0  0  0
  -31.4670  -12.7563   19.1325 H   0  0  0  0  0  0
  -30.4697  -11.6164   19.9751 H   0  0  0  0  0  0
  -29.8099  -11.7266   17.5692 H   0  0  0  0  0  0
  -29.5973  -13.4558   17.6666 H   0  0  0  0  0  0
  -27.9214  -11.2853   18.9466 H   0  0  0  0  0  0
  -27.3729  -12.4935   17.8145 H   0  0  0  0  0  0
  -27.6212  -14.2627   19.4593 H   0  0  0  0  0  0
  -28.7760  -12.1841   21.3699 H   0  0  0  0  0  0
  -28.3594  -13.8131   21.8101 H   0  0  0  0  0  0
  -25.2767   -9.5679   22.4764 H   0  0  0  0  0  0
  -24.0016   -7.4627   22.7461 H   0  0  0  0  0  0
  -21.0855   -8.8808   19.8946 H   0  0  0  0  0  0
  -22.3728  -10.9695   19.6194 H   0  0  0  0  0  0
  -21.2003   -7.6137   23.9703 H   0  0  0  0  0  0
  -21.1473   -6.0514   25.9064 H   0  0  0  0  0  0
  -22.0605   -2.7609   23.2836 H   0  0  0  0  0  0
  -22.4084  -11.9877   22.4839 H   0  0  0  0  0  0
  -21.1081  -13.1220   22.2638 H   0  0  0  0  0  0
  -24.6570  -15.8545   20.5283 H   0  0  0  0  0  0
  -26.2851  -15.6349   20.1339 H   0  0  0  0  0  0
  -26.7308  -32.5263   23.1004 H   0  0  0  0  0  0
  -24.9898  -33.9578   25.0171 H   0  0  0  0  0  0
  -22.7515  -31.2860   21.3741 H   0  0  0  0  0  0
  -23.3711  -35.9587   23.3243 H   0  0  0  0  0  0
  -24.3551  -36.9011   22.2084 H   0  0  0  0  0  0
  -23.7215  -37.6433   23.6778 H   0  0  0  0  0  0
  -26.1483  -31.4679   20.6004 H   0  0  0  0  0  0
  -26.8801  -30.7813   22.0165 H   0  0  0  0  0  0
  -28.1259  -28.7892   21.2674 H   0  0  0  0  0  0
  -25.9281  -25.8454   19.0009 H   0  0  0  0  0  0
  -24.0004  -27.3004   18.9647 H   0  0  0  0  0  0
  -23.7825  -30.5522   19.3867 H   0  0  0  0  0  0
  -22.7913  -29.2084   19.8605 H   0  0  0  0  0  0
  -25.1269  -36.1802   25.0784 H   0  0  0  0  0  0
  -21.0043  -28.3329   24.1357 H   0  0  0  0  0  0
  -20.5726  -26.2316   23.3658 H   0  0  0  0  0  0
  -21.6632  -26.7416   22.1188 H   0  0  0  0  0  0
  -19.6867  -25.6297   21.1283 H   0  0  0  0  0  0
  -19.6668  -27.3192   20.6778 H   0  0  0  0  0  0
  -17.4201  -26.6780   21.4022 H   0  0  0  0  0  0
  -18.0232  -26.0091   22.9020 H   0  0  0  0  0  0
  -19.7972  -30.7368   24.2137 H   0  0  0  0  0  0
  -17.5034  -31.6273   24.5188 H   0  0  0  0  0  0
  -15.5375  -30.2962   23.7726 H   0  0  0  0  0  0
  -15.8711  -28.0852   22.7048 H   0  0  0  0  0  0
  -24.5832  -30.7168   25.7709 H   0  0  0  0  0  0
  -24.8887  -32.2973   26.4776 H   0  0  0  0  0  0
  -25.7929  -30.8978   27.0220 H   0  0  0  0  0  0
  -26.3118  -29.6625   24.1331 H   0  0  0  0  0  0
  -27.4034  -29.7323   25.4973 H   0  0  0  0  0  0
  -27.8997  -30.4200   23.9699 H   0  0  0  0  0  0
  -27.2583  -33.3748   26.1960 H   0  0  0  0  0  0
  -28.3867  -32.6939   25.0346 H   0  0  0  0  0  0
  -28.0647  -31.8623   26.5517 H   0  0  0  0  0  0
  -28.2501  -38.0110   24.7576 H   0  0  0  0  0  0
  -28.1128  -36.2659   24.6157 H   0  0  0  0  0  0
  -27.2302  -37.1252   25.8850 H   0  0  0  0  0  0
  -20.9508  -29.8701   21.6733 H   0  0  0  0  0  0
  -26.0081  -38.2785   24.1522 H   0  0  0  0  0  0
  -30.0837  -17.5157   18.6332 H   0  0  0  0  0  0
  -29.2483  -18.2097   22.7917 H   0  0  0  0  0  0
  -29.6751  -19.8905   18.2236 H   0  0  0  0  0  0
  -28.8638  -20.5383   22.3669 H   0  0  0  0  0  0
  -30.5167  -16.4466   23.1370 H   0  0  0  0  0  0
  -30.1978  -14.7617   22.8998 H   0  0  0  0  0  0
  -28.8474  -15.8829   22.9422 H   0  0  0  0  0  0
  -28.2967  -23.0111   21.5607 H   0  0  0  0  0  0
  -29.8316  -23.4965   20.9318 H   0  0  0  0  0  0
  -27.0429  -24.3923   20.0196 H   0  0  0  0  0  0
  -28.3441  -24.5802   18.8996 H   0  0  0  0  0  0
  1 25  1  0  0  0
  1 30  2  0  0  0
  1 80  1  0  0  0
  2  3  1  0  0  0
  2 25  1  0  0  0
  2 82  1  0  0  0
  2 83  1  0  0  0
  3  4  1  0  0  0
  3 84  1  0  0  0
  3 85  1  0  0  0
  4  5  1  0  0  0
  4 86  1  0  0  0
  4 87  1  0  0  0
  5  6  1  0  0  0
  5 26  1  0  0  0
  5 88  1  0  0  0
  6 25  1  0  0  0
  6 89  1  0  0  0
  6 90  1  0  0  0
  7  8  2  0  0  0
  7 26  1  0  0  0
  7 29  1  0  0  0
  8  9  1  0  0  0
  8 22  1  0  0  0
  9 10  1  0  0  0
  9 27  2  0  0  0
 10 11  2  0  0  0
 10 15  1  0  0  0
 11 12  1  0  0  0
 11 91  1  0  0  0
 12 13  2  0  0  0
 12 92  1  0  0  0
 13 14  1  0  0  0
 13 31  1  0  0  0
 14 15  2  0  0  0
 14 93  1  0  0  0
 15 94  1  0  0  0
 16 17  2  0  0  0
 16 21  1  0  0  0
 16 31  1  0  0  0
 17 18  1  0  0  0
 17 95  1  0  0  0
 18 19  2  0  0  0
 18 96  1  0  0  0
 19 20  1  0  0  0
 19 24  1  0  0  0
 20 21  2  0  0  0
 20 97  1  0  0  0
 21 23  1  0  0  0
 22 28  1  0  0  0
 22 32  2  0  0  0
 26 27  1  0  0  0
 28 98  1  0  0  0
 28 99  1  0  0  0
 29100  1  0  0  0
 29101  1  0  0  0
 33 34  1  0  0  0
 33 66  1  0  0  0
 33 70  2  0  0  0
 34 36  1  0  0  0
 34 59  1  0  0  0
 34102  1  0  0  0
 35 44  2  0  0  0
 35 45  1  0  0  0
 35 68  1  0  0  0
 36 56  1  0  0  0
 36103  1  0  0  0
 37 39  1  0  0  0
 37 47  1  0  0  0
 37 66  1  0  0  0
 37104  1  0  0  0
 38 43  2  0  0  0
 38 46  1  0  0  0
 38 47  1  0  0  0
 39 64  1  0  0  0
 39 67  2  0  0  0
 40 52  1  0  0  0
 40 53  2  0  0  0
 40 58  1  0  0  0
 41105  1  0  0  0
 41106  1  0  0  0
 41107  1  0  0  0
 41 48  1  0  0  0
 42 43  1  0  0  0
 42 66  1  0  0  0
 42108  1  0  0  0
 42109  1  0  0  0
 43 44  1  0  0  0
 44110  1  0  0  0
 45 46  2  0  0  0
 45111  1  0  0  0
 46112  1  0  0  0
 47113  1  0  0  0
 47114  1  0  0  0
 48 56  1  0  0  0
 48 65  1  0  0  0
 48115  1  0  0  0
 49 50  1  0  0  0
 49 53  1  0  0  0
 49 64  1  0  0  0
 49116  1  0  0  0
 50 51  1  0  0  0
 50117  1  0  0  0
 50118  1  0  0  0
 51 52  1  0  0  0
 51119  1  0  0  0
 51120  1  0  0  0
 52121  1  0  0  0
 52122  1  0  0  0
 53 54  1  0  0  0
 54 55  2  0  0  0
 54123  1  0  0  0
 55 57  1  0  0  0
 55124  1  0  0  0
 56 69  2  0  0  0
 57 58  2  0  0  0
 57125  1  0  0  0
 58126  1  0  0  0
 59 60  1  0  0  0
 59 61  1  0  0  0
 59 62  1  0  0  0
 60127  1  0  0  0
 60128  1  0  0  0
 60129  1  0  0  0
 61130  1  0  0  0
 61131  1  0  0  0
 61132  1  0  0  0
 62133  1  0  0  0
 62134  1  0  0  0
 62135  1  0  0  0
 63 65  1  0  0  0
 63136  1  0  0  0
 63137  1  0  0  0
 63138  1  0  0  0
 64139  1  0  0  0
 65140  1  0  0  0
 68 79  1  0  0  0
 71 73  2  0  0  0
 71 75  1  0  0  0
 71141  1  0  0  0
 72 74  1  0  0  0
 72 75  2  0  0  0
 72142  1  0  0  0
 73 76  1  0  0  0
 73143  1  0  0  0
 74 76  2  0  0  0
 74144  1  0  0  0
 75 80  1  0  0  0
 76 81  1  0  0  0
 77 80  1  0  0  0
 77145  1  0  0  0
 77146  1  0  0  0
 77147  1  0  0  0
 78 79  1  0  0  0
 78 81  1  0  0  0
 78148  1  0  0  0
 78149  1  0  0  0
 79150  1  0  0  0
 79151  1  0  0  0
M  ISO  4   1 100  68 101  79 101  80 100
M  END
> <chiral flag>
0

> <version>
0

> <s_m_source_file>
/data/baiqing/PycharmProjects/Reinvent-master-3.2/result/LINK_invent/BTK/process_docking_weight1_custom_product_contain_oxygen_bond_distance_aromatic_linkinvent_7_9_3/rearranged_h_0013.sdf

> <i_m_source_file_index>
41

> <r_mmod_Potential_Energy-OPLS-2005>
651.3955078125

> <r_mmod_Stretch_Energy-OPLS-2005>
248.777877807617

> <r_mmod_Bend_Energy-OPLS-2005>
299.198822021484

> <r_mmod_Torsional_Energy-OPLS-2005>
271.475402832031

> <r_mmod_Improper_Torsional_Energy-OPLS-2005>
3.15531015396118

> <r_mmod_Van_der_Waal_Energy-OPLS-2005>
147.058776855469

> <r_mmod_Electrostatic_Energy-OPLS-2005>
-298.485565185547

> <r_mmod_Solvation_Energy-OPLS-2005>
-197.978439331055

> <b_mmod_Minimization_Converged-OPLS-2005>
0

> <r_mmod_RMS_Derivative-OPLS-2005>
3.34550595283508

$$$$
42
                    3D
 Structure written by MMmdl.
147155  0  0  1  0            999 V2000
  -30.4173  -15.3377   20.3238 C   0  0  0  0  0  0
  -30.4429  -12.8496   19.5415 C   0  0  0  0  0  0
  -29.5466  -12.5835   18.3044 C   0  0  0  0  0  0
  -28.1044  -12.2845   18.7491 C   0  0  0  0  0  0
  -27.6144  -13.2854   19.8231 C   0  0  2  0  0  0
  -28.6408  -13.5037   20.9568 C   0  0  0  0  0  0
  -25.2393  -13.8315   20.5742 C   0  0  0  0  0  0
  -24.1767  -13.0477   20.9269 C   0  0  0  0  0  0
  -24.6425  -11.6978   20.8757 C   0  0  0  0  0  0
  -23.9107  -10.4331   21.0397 C   0  0  0  0  0  0
  -24.3650   -9.4247   21.9185 C   0  0  0  0  0  0
  -23.6341   -8.2267   22.0730 C   0  0  0  0  0  0
  -22.4321   -8.0295   21.3532 C   0  0  0  0  0  0
  -21.9958   -9.0264   20.4640 C   0  0  0  0  0  0
  -22.7264  -10.2157   20.3058 C   0  0  0  0  0  0
  -21.6874   -6.0761   22.5280 C   0  0  0  0  0  0
  -21.4046   -6.5657   23.8217 C   0  0  0  0  0  0
  -21.3646   -5.6789   24.9163 C   0  0  0  0  0  0
  -21.6025   -4.3052   24.7209 C   0  0  0  0  0  0
  -21.8832   -3.8168   23.4329 C   0  0  0  0  0  0
  -21.9212   -4.6993   22.3394 C   0  0  0  0  0  0
  -22.7765  -13.5177   21.1890 C   0  0  0  0  0  0
  -22.1680   -4.2182   21.0972 F   0  0  0  0  0  0
  -21.5611   -3.4531   25.7724 F   0  0  0  0  0  0
  -29.8736  -14.0115   20.3306 N   0  0  0  0  0  0
  -26.2831  -12.9589   20.3211 N   0  0  0  0  0  0
  -25.9354  -11.6678   20.5719 N   0  0  0  0  0  0
  -22.0445  -12.8139   22.0456 N   0  0  0  0  0  0
  -25.3995  -15.2044   20.4132 N   0  0  0  0  0  0
  -31.6343  -15.3268   20.0769 O   0  0  0  0  0  0
  -21.6653   -6.8903   21.4243 O   0  0  0  0  0  0
  -22.3409  -14.5439   20.6685 O   0  0  0  0  0  0
  -24.6639  -31.8206   23.1679 C   0  0  0  0  0  0
  -25.9293  -32.4590   23.8142 C   0  0  1  0  0  0
  -27.2301  -26.9041   20.1724 C   0  0  0  0  0  0
  -25.5954  -33.8394   24.2048 N   0  0  0  0  0  0
  -23.4792  -30.4275   21.5181 C   0  0  2  0  0  0
  -24.9341  -28.8092   20.1097 C   0  0  0  0  0  0
  -22.7677  -29.4404   22.4791 C   0  0  0  0  0  0
  -18.0352  -28.1409   22.8425 C   0  0  0  0  0  0
  -24.1483  -36.7212   23.2651 C   0  0  0  0  0  0
  -26.0495  -30.6193   21.4014 C   0  0  0  0  0  0
  -26.1180  -29.2050   20.7439 C   0  0  0  0  0  0
  -27.2524  -28.2708   20.7542 C   0  0  0  0  0  0
  -26.0147  -26.6667   19.4886 C   0  0  0  0  0  0
  -24.9079  -27.5614   19.4646 C   0  0  0  0  0  0
  -23.7205  -29.7400   20.1468 C   0  0  0  0  0  0
  -25.4127  -36.2987   24.0300 C   0  0  1  0  0  0
  -20.5945  -28.3771   23.1251 C   0  0  2  0  0  0
  -20.6866  -26.9462   22.5451 C   0  0  0  0  0  0
  -19.5886  -26.6385   21.5253 C   0  0  0  0  0  0
  -18.2023  -26.7962   22.1587 C   0  0  0  0  0  0
  -19.1571  -28.8900   23.2802 C   0  0  0  0  0  0
  -18.9412  -30.1468   23.8857 C   0  0  0  0  0  0
  -17.6405  -30.6562   24.0560 C   0  0  0  0  0  0
  -25.9091  -34.9370   23.4998 C   0  0  0  0  0  0
  -16.5346  -29.9031   23.6257 C   0  0  0  0  0  0
  -16.7313  -28.6471   23.0286 C   0  0  0  0  0  0
  -26.4537  -31.6556   25.0691 C   0  0  0  0  0  0
  -25.3640  -31.3820   26.1332 C   0  0  0  0  0  0
  -27.0445  -30.2923   24.6462 C   0  0  0  0  0  0
  -27.6023  -32.4380   25.7501 C   0  0  0  0  0  0
  -27.5556  -37.1767   24.8467 C   0  0  0  0  0  0
  -21.4334  -29.3040   22.3579 N   0  0  0  0  0  0
  -26.4283  -37.3719   23.9400 N   0  0  0  0  0  0
  -24.7524  -30.9844   22.0828 N   0  0  0  0  0  0
  -23.4211  -28.7995   23.3048 O   0  0  0  0  0  0
  -28.2434  -25.8023   20.2918 O   0  0  0  0  0  0
  -26.5733  -34.8890   22.4621 O   0  0  0  0  0  0
  -23.5697  -32.1187   23.6746 O   0  0  0  0  0  0
  -30.4574  -19.7735   18.2385 C   0  0  0  0  0  0
  -29.8838  -20.9571   18.7817 C   0  0  0  0  0  0
  -30.4003  -18.4795   18.8314 C   0  0  0  0  0  0
  -29.1298  -19.5344   20.5858 C   0  0  0  0  0  0
  -29.1807  -20.9844   20.0068 C   0  0  0  0  0  0
  -29.7276  -18.2014   20.0451 C   0  0  0  0  0  0
  -28.6918  -22.5849   20.5862 C   0  0  0  0  0  0
  -28.2563  -24.1938   19.8356 C   0  0  0  0  0  0
  -29.6525  -16.6185   20.4827 N   0  0  0  0  0  0
  -31.4638  -13.0457   19.2134 H   0  0  0  0  0  0
  -30.5154  -11.9574   20.1644 H   0  0  0  0  0  0
  -29.9397  -11.7591   17.7092 H   0  0  0  0  0  0
  -29.5554  -13.4598   17.6532 H   0  0  0  0  0  0
  -28.0917  -11.2763   19.1669 H   0  0  0  0  0  0
  -27.4290  -12.2662   17.8945 H   0  0  0  0  0  0
  -27.5241  -14.2363   19.2968 H   0  0  0  0  0  0
  -28.8133  -12.5874   21.5201 H   0  0  0  0  0  0
  -28.2689  -14.2421   21.6695 H   0  0  0  0  0  0
  -25.2781   -9.5713   22.4775 H   0  0  0  0  0  0
  -24.0042   -7.4642   22.7429 H   0  0  0  0  0  0
  -21.0895   -8.8773   19.8945 H   0  0  0  0  0  0
  -22.3705  -10.9694   19.6181 H   0  0  0  0  0  0
  -21.2075   -7.6176   23.9727 H   0  0  0  0  0  0
  -21.1425   -6.0520   25.9052 H   0  0  0  0  0  0
  -22.0630   -2.7639   23.2826 H   0  0  0  0  0  0
  -22.4127  -11.9798   22.4786 H   0  0  0  0  0  0
  -21.1051  -13.1114   22.2683 H   0  0  0  0  0  0
  -24.6295  -15.8519   20.5379 H   0  0  0  0  0  0
  -26.2130  -15.6399   19.9971 H   0  0  0  0  0  0
  -26.7351  -32.5122   23.0843 H   0  0  0  0  0  0
  -24.9998  -33.9460   25.0122 H   0  0  0  0  0  0
  -22.7922  -31.2575   21.3482 H   0  0  0  0  0  0
  -23.3772  -35.9518   23.3310 H   0  0  0  0  0  0
  -24.3539  -36.8869   22.2066 H   0  0  0  0  0  0
  -23.7203  -37.6376   23.6715 H   0  0  0  0  0  0
  -26.2310  -31.3606   20.6216 H   0  0  0  0  0  0
  -26.9075  -30.6781   22.0594 H   0  0  0  0  0  0
  -28.1442  -28.5719   21.2874 H   0  0  0  0  0  0
  -25.8772  -25.7137   18.9978 H   0  0  0  0  0  0
  -24.0029  -27.2483   18.9610 H   0  0  0  0  0  0
  -23.8816  -30.5135   19.3931 H   0  0  0  0  0  0
  -22.8297  -29.1979   19.8222 H   0  0  0  0  0  0
  -25.1318  -36.1809   25.0793 H   0  0  0  0  0  0
  -20.9948  -28.3479   24.1395 H   0  0  0  0  0  0
  -20.5743  -26.2411   23.3676 H   0  0  0  0  0  0
  -21.6731  -26.7458   22.1229 H   0  0  0  0  0  0
  -19.6986  -25.6270   21.1352 H   0  0  0  0  0  0
  -19.6945  -27.3099   20.6719 H   0  0  0  0  0  0
  -17.4345  -26.6759   21.3942 H   0  0  0  0  0  0
  -18.0367  -26.0090   22.8930 H   0  0  0  0  0  0
  -19.7873  -30.7321   24.2169 H   0  0  0  0  0  0
  -17.4839  -31.6204   24.5199 H   0  0  0  0  0  0
  -15.5330  -30.2906   23.7480 H   0  0  0  0  0  0
  -15.8730  -28.0789   22.6988 H   0  0  0  0  0  0
  -24.5838  -30.7160   25.7625 H   0  0  0  0  0  0
  -24.8813  -32.3031   26.4615 H   0  0  0  0  0  0
  -25.7848  -30.9075   27.0197 H   0  0  0  0  0  0
  -26.3124  -29.6587   24.1447 H   0  0  0  0  0  0
  -27.3929  -29.7315   25.5133 H   0  0  0  0  0  0
  -27.9081  -30.4088   23.9910 H   0  0  0  0  0  0
  -27.2583  -33.3725   26.1937 H   0  0  0  0  0  0
  -28.3918  -32.6858   25.0397 H   0  0  0  0  0  0
  -28.0600  -31.8599   26.5535 H   0  0  0  0  0  0
  -28.2578  -38.0056   24.7487 H   0  0  0  0  0  0
  -28.1053  -36.2577   24.6356 H   0  0  0  0  0  0
  -27.2263  -37.1481   25.8870 H   0  0  0  0  0  0
  -20.9514  -29.8813   21.6805 H   0  0  0  0  0  0
  -26.0153  -38.2777   24.1451 H   0  0  0  0  0  0
  -30.9796  -19.8670   17.2954 H   0  0  0  0  0  0
  -30.0180  -21.8837   18.2329 H   0  0  0  0  0  0
  -30.8617  -17.6670   18.2851 H   0  0  0  0  0  0
  -28.6059  -19.4490   21.5308 H   0  0  0  0  0  0
  -27.8770  -22.3691   21.2812 H   0  0  0  0  0  0
  -29.5245  -22.8445   21.2385 H   0  0  0  0  0  0
  -27.3031  -24.0277   19.3345 H   0  0  0  0  0  0
  -28.9624  -24.2545   19.0068 H   0  0  0  0  0  0
  -28.7484  -16.3975   20.8725 H   0  0  0  0  0  0
  1 25  1  0  0  0
  1 30  2  0  0  0
  1 79  1  0  0  0
  2  3  1  0  0  0
  2 25  1  0  0  0
  2 80  1  0  0  0
  2 81  1  0  0  0
  3  4  1  0  0  0
  3 82  1  0  0  0
  3 83  1  0  0  0
  4  5  1  0  0  0
  4 84  1  0  0  0
  4 85  1  0  0  0
  5  6  1  0  0  0
  5 26  1  0  0  0
  5 86  1  0  0  0
  6 25  1  0  0  0
  6 87  1  0  0  0
  6 88  1  0  0  0
  7  8  2  0  0  0
  7 26  1  0  0  0
  7 29  1  0  0  0
  8  9  1  0  0  0
  8 22  1  0  0  0
  9 10  1  0  0  0
  9 27  2  0  0  0
 10 11  2  0  0  0
 10 15  1  0  0  0
 11 12  1  0  0  0
 11 89  1  0  0  0
 12 13  2  0  0  0
 12 90  1  0  0  0
 13 14  1  0  0  0
 13 31  1  0  0  0
 14 15  2  0  0  0
 14 91  1  0  0  0
 15 92  1  0  0  0
 16 17  2  0  0  0
 16 21  1  0  0  0
 16 31  1  0  0  0
 17 18  1  0  0  0
 17 93  1  0  0  0
 18 19  2  0  0  0
 18 94  1  0  0  0
 19 20  1  0  0  0
 19 24  1  0  0  0
 20 21  2  0  0  0
 20 95  1  0  0  0
 21 23  1  0  0  0
 22 28  1  0  0  0
 22 32  2  0  0  0
 26 27  1  0  0  0
 28 96  1  0  0  0
 28 97  1  0  0  0
 29 98  1  0  0  0
 29 99  1  0  0  0
 33 34  1  0  0  0
 33 66  1  0  0  0
 33 70  2  0  0  0
 34 36  1  0  0  0
 34 59  1  0  0  0
 34100  1  0  0  0
 35 44  2  0  0  0
 35 45  1  0  0  0
 35 68  1  0  0  0
 36 56  1  0  0  0
 36101  1  0  0  0
 37 39  1  0  0  0
 37 47  1  0  0  0
 37 66  1  0  0  0
 37102  1  0  0  0
 38 43  2  0  0  0
 38 46  1  0  0  0
 38 47  1  0  0  0
 39 64  1  0  0  0
 39 67  2  0  0  0
 40 52  1  0  0  0
 40 53  2  0  0  0
 40 58  1  0  0  0
 41103  1  0  0  0
 41104  1  0  0  0
 41105  1  0  0  0
 41 48  1  0  0  0
 42 43  1  0  0  0
 42 66  1  0  0  0
 42106  1  0  0  0
 42107  1  0  0  0
 43 44  1  0  0  0
 44108  1  0  0  0
 45 46  2  0  0  0
 45109  1  0  0  0
 46110  1  0  0  0
 47111  1  0  0  0
 47112  1  0  0  0
 48 56  1  0  0  0
 48 65  1  0  0  0
 48113  1  0  0  0
 49 50  1  0  0  0
 49 53  1  0  0  0
 49 64  1  0  0  0
 49114  1  0  0  0
 50 51  1  0  0  0
 50115  1  0  0  0
 50116  1  0  0  0
 51 52  1  0  0  0
 51117  1  0  0  0
 51118  1  0  0  0
 52119  1  0  0  0
 52120  1  0  0  0
 53 54  1  0  0  0
 54 55  2  0  0  0
 54121  1  0  0  0
 55 57  1  0  0  0
 55122  1  0  0  0
 56 69  2  0  0  0
 57 58  2  0  0  0
 57123  1  0  0  0
 58124  1  0  0  0
 59 60  1  0  0  0
 59 61  1  0  0  0
 59 62  1  0  0  0
 60125  1  0  0  0
 60126  1  0  0  0
 60127  1  0  0  0
 61128  1  0  0  0
 61129  1  0  0  0
 61130  1  0  0  0
 62131  1  0  0  0
 62132  1  0  0  0
 62133  1  0  0  0
 63 65  1  0  0  0
 63134  1  0  0  0
 63135  1  0  0  0
 63136  1  0  0  0
 64137  1  0  0  0
 65138  1  0  0  0
 68 78  1  0  0  0
 71 72  2  0  0  0
 71 73  1  0  0  0
 71139  1  0  0  0
 72 75  1  0  0  0
 72140  1  0  0  0
 73 76  2  0  0  0
 73141  1  0  0  0
 74 75  2  0  0  0
 74 76  1  0  0  0
 74142  1  0  0  0
 75 77  1  0  0  0
 76 79  1  0  0  0
 77 78  1  0  0  0
 77143  1  0  0  0
 77144  1  0  0  0
 78145  1  0  0  0
 78146  1  0  0  0
 79147  1  0  0  0
M  ISO  4   1 100  68 101  78 101  79 100
M  END
> <chiral flag>
0

> <version>
0

> <s_m_source_file>
/data/baiqing/PycharmProjects/Reinvent-master-3.2/result/LINK_invent/BTK/process_docking_weight1_custom_product_contain_oxygen_bond_distance_aromatic_linkinvent_7_9_3/rearranged_h_0013.sdf

> <i_m_source_file_index>
42

> <r_mmod_Potential_Energy-OPLS-2005>
1413.70751953125

> <r_mmod_Stretch_Energy-OPLS-2005>
652.188598632812

> <r_mmod_Bend_Energy-OPLS-2005>
447.77783203125

> <r_mmod_Torsional_Energy-OPLS-2005>
226.55256652832

> <r_mmod_Improper_Torsional_Energy-OPLS-2005>
3.64749312400818

> <r_mmod_Van_der_Waal_Energy-OPLS-2005>
123.477447509766

> <r_mmod_Electrostatic_Energy-OPLS-2005>
-347.025146484375

> <r_mmod_Solvation_Energy-OPLS-2005>
-211.674667358398

> <b_mmod_Minimization_Converged-OPLS-2005>
0

> <r_mmod_RMS_Derivative-OPLS-2005>
5.35810518264771

$$$$
43
                    3D
 Structure written by MMmdl.
162170  0  0  1  0            999 V2000
  -30.7338  -14.4560   20.6209 C   0  0  0  0  0  0
  -30.4216  -12.3175   19.4146 C   0  0  0  0  0  0
  -29.4952  -12.5185   18.1998 C   0  0  0  0  0  0
  -28.0174  -12.3689   18.6128 C   0  0  0  0  0  0
  -27.6604  -13.2039   19.8702 C   0  0  2  0  0  0
  -28.7014  -12.9917   20.9909 C   0  0  0  0  0  0
  -25.2581  -13.8161   20.5669 C   0  0  0  0  0  0
  -24.1828  -13.0437   20.9183 C   0  0  0  0  0  0
  -24.6368  -11.6903   20.8716 C   0  0  0  0  0  0
  -23.9035  -10.4298   21.0411 C   0  0  0  0  0  0
  -24.3595   -9.4208   21.9189 C   0  0  0  0  0  0
  -23.6278   -8.2242   22.0755 C   0  0  0  0  0  0
  -22.4255   -8.0283   21.3558 C   0  0  0  0  0  0
  -21.9892   -9.0249   20.4656 C   0  0  0  0  0  0
  -22.7212  -10.2125   20.3059 C   0  0  0  0  0  0
  -21.6853   -6.0725   22.5268 C   0  0  0  0  0  0
  -21.4016   -6.5623   23.8204 C   0  0  0  0  0  0
  -21.3664   -5.6766   24.9158 C   0  0  0  0  0  0
  -21.6038   -4.3037   24.7224 C   0  0  0  0  0  0
  -21.8819   -3.8135   23.4339 C   0  0  0  0  0  0
  -21.9194   -4.6956   22.3404 C   0  0  0  0  0  0
  -22.7852  -13.5258   21.1850 C   0  0  0  0  0  0
  -22.1670   -4.2134   21.0988 F   0  0  0  0  0  0
  -21.5629   -3.4528   25.7745 F   0  0  0  0  0  0
  -30.0348  -13.2981   20.4414 N   0  0  0  0  0  0
  -26.3008  -12.9325   20.3339 N   0  0  0  0  0  0
  -25.9300  -11.6486   20.5734 N   0  0  0  0  0  0
  -22.0445  -12.8290   22.0393 N   0  0  0  0  0  0
  -25.4295  -15.1875   20.4058 N   0  0  0  0  0  0
  -31.8305  -14.6633   20.0910 O   0  0  0  0  0  0
  -21.6624   -6.8881   21.4244 O   0  0  0  0  0  0
  -22.3565  -14.5575   20.6691 O   0  0  0  0  0  0
  -24.6159  -31.8678   23.2094 C   0  0  0  0  0  0
  -25.9029  -32.4832   23.8410 C   0  0  1  0  0  0
  -27.2326  -27.4090   20.0949 C   0  0  0  0  0  0
  -25.5868  -33.8635   24.2325 N   0  0  0  0  0  0
  -23.4047  -30.4920   21.5510 C   0  0  2  0  0  0
  -24.8501  -28.9558   20.1161 C   0  0  0  0  0  0
  -22.7414  -29.4664   22.4986 C   0  0  0  0  0  0
  -18.0277  -28.1382   22.8499 C   0  0  0  0  0  0
  -24.1478  -36.7320   23.2641 C   0  0  0  0  0  0
  -25.9367  -30.8250   21.3661 C   0  0  0  0  0  0
  -26.0124  -29.4573   20.7122 C   0  0  0  0  0  0
  -27.2027  -28.6904   20.6998 C   0  0  0  0  0  0
  -26.0444  -26.9328   19.4864 C   0  0  0  0  0  0
  -24.8605  -27.6928   19.5046 C   0  0  0  0  0  0
  -23.6129  -29.8238   20.1670 C   0  0  0  0  0  0
  -25.4098  -36.3125   24.0342 C   0  0  1  0  0  0
  -20.5868  -28.3664   23.1309 C   0  0  2  0  0  0
  -20.6757  -26.9397   22.5414 C   0  0  0  0  0  0
  -19.5733  -26.6390   21.5210 C   0  0  0  0  0  0
  -18.1916  -26.7930   22.1633 C   0  0  0  0  0  0
  -19.1529  -28.8839   23.2904 C   0  0  0  0  0  0
  -18.9457  -30.1444   23.8916 C   0  0  0  0  0  0
  -17.6459  -30.6589   24.0566 C   0  0  0  0  0  0
  -25.9027  -34.9483   23.5136 C   0  0  0  0  0  0
  -16.5348  -29.9094   23.6326 C   0  0  0  0  0  0
  -16.7266  -28.6508   23.0353 C   0  0  0  0  0  0
  -26.4453  -31.6631   25.0748 C   0  0  0  0  0  0
  -25.3721  -31.3766   26.1504 C   0  0  0  0  0  0
  -27.0275  -30.3070   24.6135 C   0  0  0  0  0  0
  -27.6029  -32.4365   25.7488 C   0  0  0  0  0  0
  -27.5585  -37.1802   24.8458 C   0  0  0  0  0  0
  -21.4138  -29.3032   22.3718 N   0  0  0  0  0  0
  -26.4289  -37.3801   23.9417 N   0  0  0  0  0  0
  -24.6711  -31.0766   22.1003 N   0  0  0  0  0  0
  -23.4177  -28.8188   23.3018 O   0  0  0  0  0  0
  -28.4068  -26.6697   20.1298 O   0  0  0  0  0  0
  -26.5599  -34.8932   22.4707 O   0  0  0  0  0  0
  -23.5340  -32.1424   23.7477 O   0  0  0  0  0  0
  -30.7814  -18.3291   20.2016 C   0  0  0  0  0  0
  -28.8605  -18.8230   21.5998 C   0  0  0  0  0  0
  -31.0714  -19.7148   20.1237 C   0  0  0  0  0  0
  -29.1629  -20.2021   21.5407 C   0  0  0  0  0  0
  -29.6582  -17.8710   20.9253 C   0  0  0  0  0  0
  -30.2559  -20.6701   20.7776 C   0  0  0  0  0  0
  -30.7934  -15.6771   22.7237 C   0  0  0  0  0  0
  -29.5232  -22.7389   18.5251 C   0  0  0  0  0  0
  -29.2304  -16.3919   20.9109 C   0  0  0  0  0  0
  -30.5604  -22.1786   20.6999 C   0  0  0  0  0  0
  -29.5464  -24.4456   20.3334 C   0  0  0  0  0  0
  -28.3631  -25.2756   19.7535 C   0  0  0  0  0  0
  -30.1707  -15.3803   21.4339 N   0  0  0  0  0  0
  -29.5160  -22.9806   19.9885 N   0  3  1  0  0  0
  -31.4671  -12.4112   19.1155 H   0  0  0  0  0  0
  -30.3213  -11.3068   19.8120 H   0  0  0  0  0  0
  -29.7397  -11.7980   17.4162 H   0  0  0  0  0  0
  -29.6631  -13.5084   17.7713 H   0  0  0  0  0  0
  -27.8360  -11.3120   18.8102 H   0  0  0  0  0  0
  -27.3631  -12.6420   17.7836 H   0  0  0  0  0  0
  -27.7002  -14.2493   19.5689 H   0  0  0  0  0  0
  -28.6747  -11.9583   21.3427 H   0  0  0  0  0  0
  -28.4503  -13.5991   21.8600 H   0  0  0  0  0  0
  -25.2730   -9.5691   22.4765 H   0  0  0  0  0  0
  -23.9976   -7.4642   22.7473 H   0  0  0  0  0  0
  -21.0821   -8.8767   19.8976 H   0  0  0  0  0  0
  -22.3667  -10.9665   19.6163 H   0  0  0  0  0  0
  -21.2003   -7.6115   23.9713 H   0  0  0  0  0  0
  -21.1490   -6.0488   25.9063 H   0  0  0  0  0  0
  -22.0599   -2.7602   23.2840 H   0  0  0  0  0  0
  -22.4036  -11.9980   22.4856 H   0  0  0  0  0  0
  -21.1066  -13.1377   22.2555 H   0  0  0  0  0  0
  -24.6542  -15.8365   20.4953 H   0  0  0  0  0  0
  -26.2706  -15.6242   20.0522 H   0  0  0  0  0  0
  -26.7093  -32.5537   23.1172 H   0  0  0  0  0  0
  -24.9995  -33.9799   25.0452 H   0  0  0  0  0  0
  -22.6942  -31.3102   21.4122 H   0  0  0  0  0  0
  -23.3747  -35.9647   23.3312 H   0  0  0  0  0  0
  -24.3574  -36.8925   22.2052 H   0  0  0  0  0  0
  -23.7219  -37.6525   23.6645 H   0  0  0  0  0  0
  -26.0505  -31.5898   20.5973 H   0  0  0  0  0  0
  -26.8254  -30.8813   21.9832 H   0  0  0  0  0  0
  -28.0984  -29.0719   21.1702 H   0  0  0  0  0  0
  -25.9973  -25.9752   18.9909 H   0  0  0  0  0  0
  -23.9625  -27.3001   19.0471 H   0  0  0  0  0  0
  -23.7162  -30.5965   19.4045 H   0  0  0  0  0  0
  -22.7373  -29.2404   19.8754 H   0  0  0  0  0  0
  -25.1273  -36.2000   25.0838 H   0  0  0  0  0  0
  -20.9978  -28.3235   24.1420 H   0  0  0  0  0  0
  -20.5655  -26.2270   23.3604 H   0  0  0  0  0  0
  -21.6629  -26.7432   22.1204 H   0  0  0  0  0  0
  -19.6885  -25.6309   21.1223 H   0  0  0  0  0  0
  -19.6670  -27.3214   20.6750 H   0  0  0  0  0  0
  -17.4181  -26.6678   21.4042 H   0  0  0  0  0  0
  -18.0322  -26.0073   22.9034 H   0  0  0  0  0  0
  -19.7932  -30.7256   24.2295 H   0  0  0  0  0  0
  -17.5016  -31.6272   24.5164 H   0  0  0  0  0  0
  -15.5348  -30.3004   23.7639 H   0  0  0  0  0  0
  -15.8664  -28.0834   22.7060 H   0  0  0  0  0  0
  -24.5812  -30.7215   25.7835 H   0  0  0  0  0  0
  -24.9014  -32.2950   26.5029 H   0  0  0  0  0  0
  -25.8058  -30.8848   27.0220 H   0  0  0  0  0  0
  -26.2824  -29.6856   24.1150 H   0  0  0  0  0  0
  -27.3990  -29.7291   25.4609 H   0  0  0  0  0  0
  -27.8687  -30.4391   23.9323 H   0  0  0  0  0  0
  -27.2627  -33.3621   26.2145 H   0  0  0  0  0  0
  -28.3771  -32.7018   25.0276 H   0  0  0  0  0  0
  -28.0776  -31.8463   26.5333 H   0  0  0  0  0  0
  -28.2600  -38.0102   24.7533 H   0  0  0  0  0  0
  -28.1084  -36.2644   24.6250 H   0  0  0  0  0  0
  -27.2313  -37.1414   25.8861 H   0  0  0  0  0  0
  -20.9292  -29.8767   21.6956 H   0  0  0  0  0  0
  -26.0193  -38.2882   24.1436 H   0  0  0  0  0  0
  -31.4102  -17.6206   19.6775 H   0  0  0  0  0  0
  -27.9920  -18.5025   22.1591 H   0  0  0  0  0  0
  -31.9307  -20.0390   19.5496 H   0  0  0  0  0  0
  -28.5349  -20.9006   22.0758 H   0  0  0  0  0  0
  -30.1712  -16.3430   23.3217 H   0  0  0  0  0  0
  -31.7704  -16.1440   22.5931 H   0  0  0  0  0  0
  -30.9312  -14.7575   23.2953 H   0  0  0  0  0  0
  -29.6680  -21.6864   18.2812 H   0  0  0  0  0  0
  -30.3200  -23.3071   18.0453 H   0  0  0  0  0  0
  -28.5771  -23.0354   18.0732 H   0  0  0  0  0  0
  -28.9701  -16.1562   19.8778 H   0  0  0  0  0  0
  -28.3056  -16.2844   21.4788 H   0  0  0  0  0  0
  -31.5290  -22.3445   20.2233 H   0  0  0  0  0  0
  -30.6668  -22.5381   21.7254 H   0  0  0  0  0  0
  -29.5227  -24.5473   21.4187 H   0  0  0  0  0  0
  -30.4959  -24.8725   20.0108 H   0  0  0  0  0  0
  -27.4450  -24.8023   20.1013 H   0  0  0  0  0  0
  -28.3638  -25.2341   18.6641 H   0  0  0  0  0  0
  -28.6408  -22.6133   20.3328 H   0  0  0  0  0  0
  1 25  1  0  0  0
  1 30  2  0  0  0
  1 83  1  0  0  0
  2  3  1  0  0  0
  2 25  1  0  0  0
  2 85  1  0  0  0
  2 86  1  0  0  0
  3  4  1  0  0  0
  3 87  1  0  0  0
  3 88  1  0  0  0
  4  5  1  0  0  0
  4 89  1  0  0  0
  4 90  1  0  0  0
  5  6  1  0  0  0
  5 26  1  0  0  0
  5 91  1  0  0  0
  6 25  1  0  0  0
  6 92  1  0  0  0
  6 93  1  0  0  0
  7  8  2  0  0  0
  7 26  1  0  0  0
  7 29  1  0  0  0
  8  9  1  0  0  0
  8 22  1  0  0  0
  9 10  1  0  0  0
  9 27  2  0  0  0
 10 11  2  0  0  0
 10 15  1  0  0  0
 11 12  1  0  0  0
 11 94  1  0  0  0
 12 13  2  0  0  0
 12 95  1  0  0  0
 13 14  1  0  0  0
 13 31  1  0  0  0
 14 15  2  0  0  0
 14 96  1  0  0  0
 15 97  1  0  0  0
 16 17  2  0  0  0
 16 21  1  0  0  0
 16 31  1  0  0  0
 17 18  1  0  0  0
 17 98  1  0  0  0
 18 19  2  0  0  0
 18 99  1  0  0  0
 19 20  1  0  0  0
 19 24  1  0  0  0
 20 21  2  0  0  0
 20100  1  0  0  0
 21 23  1  0  0  0
 22 28  1  0  0  0
 22 32  2  0  0  0
 26 27  1  0  0  0
 28101  1  0  0  0
 28102  1  0  0  0
 29103  1  0  0  0
 29104  1  0  0  0
 33 34  1  0  0  0
 33 66  1  0  0  0
 33 70  2  0  0  0
 34 36  1  0  0  0
 34 59  1  0  0  0
 34105  1  0  0  0
 35 44  2  0  0  0
 35 45  1  0  0  0
 35 68  1  0  0  0
 36 56  1  0  0  0
 36106  1  0  0  0
 37 39  1  0  0  0
 37 47  1  0  0  0
 37 66  1  0  0  0
 37107  1  0  0  0
 38 43  2  0  0  0
 38 46  1  0  0  0
 38 47  1  0  0  0
 39 64  1  0  0  0
 39 67  2  0  0  0
 40 52  1  0  0  0
 40 53  2  0  0  0
 40 58  1  0  0  0
 41108  1  0  0  0
 41109  1  0  0  0
 41110  1  0  0  0
 41 48  1  0  0  0
 42 43  1  0  0  0
 42 66  1  0  0  0
 42111  1  0  0  0
 42112  1  0  0  0
 43 44  1  0  0  0
 44113  1  0  0  0
 45 46  2  0  0  0
 45114  1  0  0  0
 46115  1  0  0  0
 47116  1  0  0  0
 47117  1  0  0  0
 48 56  1  0  0  0
 48 65  1  0  0  0
 48118  1  0  0  0
 49 50  1  0  0  0
 49 53  1  0  0  0
 49 64  1  0  0  0
 49119  1  0  0  0
 50 51  1  0  0  0
 50120  1  0  0  0
 50121  1  0  0  0
 51 52  1  0  0  0
 51122  1  0  0  0
 51123  1  0  0  0
 52124  1  0  0  0
 52125  1  0  0  0
 53 54  1  0  0  0
 54 55  2  0  0  0
 54126  1  0  0  0
 55 57  1  0  0  0
 55127  1  0  0  0
 56 69  2  0  0  0
 57 58  2  0  0  0
 57128  1  0  0  0
 58129  1  0  0  0
 59 60  1  0  0  0
 59 61  1  0  0  0
 59 62  1  0  0  0
 60130  1  0  0  0
 60131  1  0  0  0
 60132  1  0  0  0
 61133  1  0  0  0
 61134  1  0  0  0
 61135  1  0  0  0
 62136  1  0  0  0
 62137  1  0  0  0
 62138  1  0  0  0
 63 65  1  0  0  0
 63139  1  0  0  0
 63140  1  0  0  0
 63141  1  0  0  0
 64142  1  0  0  0
 65143  1  0  0  0
 68 82  1  0  0  0
 71 73  2  0  0  0
 71 75  1  0  0  0
 71144  1  0  0  0
 72 74  1  0  0  0
 72 75  2  0  0  0
 72145  1  0  0  0
 73 76  1  0  0  0
 73146  1  0  0  0
 74 76  2  0  0  0
 74147  1  0  0  0
 75 79  1  0  0  0
 76 80  1  0  0  0
 77 83  1  0  0  0
 77148  1  0  0  0
 77149  1  0  0  0
 77150  1  0  0  0
 78151  1  0  0  0
 78152  1  0  0  0
 78153  1  0  0  0
 78 84  1  0  0  0
 79 83  1  0  0  0
 79154  1  0  0  0
 79155  1  0  0  0
 80 84  1  0  0  0
 80156  1  0  0  0
 80157  1  0  0  0
 81 82  1  0  0  0
 81 84  1  0  0  0
 81158  1  0  0  0
 81159  1  0  0  0
 82160  1  0  0  0
 82161  1  0  0  0
 84162  1  0  0  0
M  CHG  1  84   1
M  ISO  4   1 100  68 101  82 101  83 100
M  END
> <chiral flag>
0

> <version>
0

> <s_m_source_file>
/data/baiqing/PycharmProjects/Reinvent-master-3.2/result/LINK_invent/BTK/process_docking_weight1_custom_product_contain_oxygen_bond_distance_aromatic_linkinvent_7_9_3/rearranged_h_0013.sdf

> <i_m_source_file_index>
43

> <r_mmod_Potential_Energy-OPLS-2005>
-33.2851181030273

> <r_mmod_Stretch_Energy-OPLS-2005>
43.846809387207

> <r_mmod_Bend_Energy-OPLS-2005>
100.239250183105

> <r_mmod_Torsional_Energy-OPLS-2005>
271.747314453125

> <r_mmod_Improper_Torsional_Energy-OPLS-2005>
3.08024549484253

> <r_mmod_Van_der_Waal_Energy-OPLS-2005>
147.43049621582

> <r_mmod_Electrostatic_Energy-OPLS-2005>
-196.853591918945

> <r_mmod_Solvation_Energy-OPLS-2005>
-416.297576904297

> <b_mmod_Minimization_Converged-OPLS-2005>
0

> <r_mmod_RMS_Derivative-OPLS-2005>
3.12066197395325

$$$$
44
                    3D
 Structure written by MMmdl.
151159  0  0  1  0            999 V2000
  -30.6207  -14.6404   20.5017 C   0  0  0  0  0  0
  -30.4366  -12.3919   19.4535 C   0  0  0  0  0  0
  -29.5098  -12.5192   18.2233 C   0  0  0  0  0  0
  -28.0301  -12.3614   18.6287 C   0  0  0  0  0  0
  -27.6546  -13.2197   19.8662 C   0  0  2  0  0  0
  -28.6989  -13.0661   20.9954 C   0  0  0  0  0  0
  -25.2562  -13.8176   20.5677 C   0  0  0  0  0  0
  -24.1832  -13.0437   20.9184 C   0  0  0  0  0  0
  -24.6408  -11.6909   20.8734 C   0  0  0  0  0  0
  -23.9071  -10.4294   21.0403 C   0  0  0  0  0  0
  -24.3624   -9.4210   21.9184 C   0  0  0  0  0  0
  -23.6305   -8.2243   22.0754 C   0  0  0  0  0  0
  -22.4286   -8.0284   21.3541 C   0  0  0  0  0  0
  -21.9914   -9.0260   20.4646 C   0  0  0  0  0  0
  -22.7240  -10.2138   20.3055 C   0  0  0  0  0  0
  -21.6857   -6.0737   22.5278 C   0  0  0  0  0  0
  -21.4014   -6.5640   23.8212 C   0  0  0  0  0  0
  -21.3660   -5.6793   24.9175 C   0  0  0  0  0  0
  -21.6046   -4.3057   24.7221 C   0  0  0  0  0  0
  -21.8818   -3.8145   23.4342 C   0  0  0  0  0  0
  -21.9192   -4.6963   22.3399 C   0  0  0  0  0  0
  -22.7853  -13.5234   21.1843 C   0  0  0  0  0  0
  -22.1661   -4.2148   21.0977 F   0  0  0  0  0  0
  -21.5634   -3.4541   25.7733 F   0  0  0  0  0  0
  -30.0151  -13.4116   20.4353 N   0  0  0  0  0  0
  -26.2997  -12.9363   20.3319 N   0  0  0  0  0  0
  -25.9335  -11.6512   20.5749 N   0  0  0  0  0  0
  -22.0486  -12.8240   22.0403 N   0  0  0  0  0  0
  -25.4262  -15.1899   20.4079 N   0  0  0  0  0  0
  -31.7816  -14.8007   20.1137 O   0  0  0  0  0  0
  -21.6645   -6.8881   21.4242 O   0  0  0  0  0  0
  -22.3545  -14.5541   20.6689 O   0  0  0  0  0  0
  -24.6261  -31.8609   23.2045 C   0  0  0  0  0  0
  -25.9106  -32.4786   23.8370 C   0  0  1  0  0  0
  -27.2208  -27.3184   20.1168 C   0  0  0  0  0  0
  -25.5922  -33.8588   24.2296 N   0  0  0  0  0  0
  -23.4191  -30.4865   21.5481 C   0  0  2  0  0  0
  -24.8644  -28.9431   20.1147 C   0  0  0  0  0  0
  -22.7475  -29.4631   22.4947 C   0  0  0  0  0  0
  -18.0285  -28.1384   22.8493 C   0  0  0  0  0  0
  -24.1484  -36.7305   23.2639 C   0  0  0  0  0  0
  -25.9610  -30.7917   21.3754 C   0  0  0  0  0  0
  -26.0348  -29.4188   20.7191 C   0  0  0  0  0  0
  -27.2166  -28.6186   20.7108 C   0  0  0  0  0  0
  -26.0277  -26.9035   19.4793 C   0  0  0  0  0  0
  -24.8629  -27.6902   19.4870 C   0  0  0  0  0  0
  -23.6338  -29.8253   20.1625 C   0  0  0  0  0  0
  -25.4108  -36.3093   24.0334 C   0  0  1  0  0  0
  -20.5887  -28.3687   23.1297 C   0  0  2  0  0  0
  -20.6778  -26.9412   22.5417 C   0  0  0  0  0  0
  -19.5748  -26.6383   21.5224 C   0  0  0  0  0  0
  -18.1930  -26.7927   22.1635 C   0  0  0  0  0  0
  -19.1538  -28.8852   23.2889 C   0  0  0  0  0  0
  -18.9458  -30.1459   23.8898 C   0  0  0  0  0  0
  -17.6457  -30.6586   24.0566 C   0  0  0  0  0  0
  -25.9048  -34.9459   23.5116 C   0  0  0  0  0  0
  -16.5350  -29.9089   23.6324 C   0  0  0  0  0  0
  -16.7273  -28.6507   23.0345 C   0  0  0  0  0  0
  -26.4484  -31.6584   25.0734 C   0  0  0  0  0  0
  -25.3716  -31.3731   26.1462 C   0  0  0  0  0  0
  -27.0320  -30.3006   24.6178 C   0  0  0  0  0  0
  -27.6040  -32.4319   25.7509 C   0  0  0  0  0  0
  -27.5581  -37.1809   24.8464 C   0  0  0  0  0  0
  -21.4188  -29.3042   22.3692 N   0  0  0  0  0  0
  -26.4287  -37.3788   23.9414 N   0  0  0  0  0  0
  -24.6878  -31.0628   22.0996 N   0  0  0  0  0  0
  -23.4204  -28.8162   23.3016 O   0  0  0  0  0  0
  -28.3380  -26.4663   20.1474 O   0  0  0  0  0  0
  -26.5621  -34.8920   22.4686 O   0  0  0  0  0  0
  -23.5426  -32.1409   23.7376 O   0  0  0  0  0  0
  -30.9863  -17.8445   20.1353 C   0  0  0  0  0  0
  -30.9685  -19.2641   19.9932 C   0  0  0  0  0  0
  -28.7959  -17.9532   21.1125 C   0  0  0  0  0  0
  -29.8921  -17.1406   20.7028 C   0  0  0  0  0  0
  -29.8751  -20.0780   20.4000 C   0  0  0  0  0  0
  -28.7766  -19.3749   20.9706 C   0  0  0  0  0  0
  -29.2657  -23.9632   20.2182 C   0  0  0  0  0  0
  -28.0896  -25.0186   20.3689 C   0  0  0  0  0  0
  -28.9132  -22.4303   20.4994 C   0  0  0  0  0  0
  -29.8096  -15.6840   20.8721 N   0  0  0  0  0  0
  -29.9850  -21.4758   20.2123 O   0  0  0  0  0  0
  -27.6825  -20.0505   21.3985 F   0  0  0  0  0  0
  -31.4800  -12.5130   19.1578 H   0  0  0  0  0  0
  -30.3636  -11.3933   19.8877 H   0  0  0  0  0  0
  -29.7745  -11.7737   17.4721 H   0  0  0  0  0  0
  -29.6578  -13.4925   17.7514 H   0  0  0  0  0  0
  -27.8564  -11.3069   18.8449 H   0  0  0  0  0  0
  -27.3814  -12.6100   17.7878 H   0  0  0  0  0  0
  -27.6751  -14.2577   19.5349 H   0  0  0  0  0  0
  -28.7070  -12.0412   21.3704 H   0  0  0  0  0  0
  -28.4466  -13.6905   21.8533 H   0  0  0  0  0  0
  -25.2762   -9.5698   22.4766 H   0  0  0  0  0  0
  -24.0009   -7.4636   22.7478 H   0  0  0  0  0  0
  -21.0837   -8.8783   19.8964 H   0  0  0  0  0  0
  -22.3691  -10.9683   19.6175 H   0  0  0  0  0  0
  -21.2008   -7.6150   23.9716 H   0  0  0  0  0  0
  -21.1488   -6.0523   25.9081 H   0  0  0  0  0  0
  -22.0595   -2.7607   23.2840 H   0  0  0  0  0  0
  -22.4089  -11.9910   22.4815 H   0  0  0  0  0  0
  -21.1103  -13.1286   22.2588 H   0  0  0  0  0  0
  -24.6535  -15.8392   20.5078 H   0  0  0  0  0  0
  -26.2659  -15.6258   20.0488 H   0  0  0  0  0  0
  -26.7176  -32.5454   23.1120 H   0  0  0  0  0  0
  -25.0041  -33.9736   25.0421 H   0  0  0  0  0  0
  -22.7122  -31.3072   21.4089 H   0  0  0  0  0  0
  -23.3742  -35.9641   23.3296 H   0  0  0  0  0  0
  -24.3581  -36.8930   22.2055 H   0  0  0  0  0  0
  -23.7231  -37.6505   23.6659 H   0  0  0  0  0  0
  -26.0901  -31.5536   20.6055 H   0  0  0  0  0  0
  -26.8432  -30.8433   22.0018 H   0  0  0  0  0  0
  -28.1141  -28.9809   21.1926 H   0  0  0  0  0  0
  -25.9631  -25.9651   18.9527 H   0  0  0  0  0  0
  -23.9688  -27.3238   19.0015 H   0  0  0  0  0  0
  -23.7580  -30.6052   19.4102 H   0  0  0  0  0  0
  -22.7510  -29.2610   19.8558 H   0  0  0  0  0  0
  -25.1278  -36.1954   25.0826 H   0  0  0  0  0  0
  -20.9986  -28.3259   24.1416 H   0  0  0  0  0  0
  -20.5700  -26.2292   23.3614 H   0  0  0  0  0  0
  -21.6645  -26.7453   22.1199 H   0  0  0  0  0  0
  -19.6912  -25.6297   21.1248 H   0  0  0  0  0  0
  -19.6681  -27.3198   20.6759 H   0  0  0  0  0  0
  -17.4202  -26.6681   21.4034 H   0  0  0  0  0  0
  -18.0319  -26.0066   22.9030 H   0  0  0  0  0  0
  -19.7934  -30.7281   24.2258 H   0  0  0  0  0  0
  -17.5009  -31.6264   24.5173 H   0  0  0  0  0  0
  -15.5352  -30.2993   23.7638 H   0  0  0  0  0  0
  -15.8675  -28.0836   22.7043 H   0  0  0  0  0  0
  -24.5875  -30.7096   25.7793 H   0  0  0  0  0  0
  -24.8922  -32.2904   26.4894 H   0  0  0  0  0  0
  -25.8038  -30.8898   27.0234 H   0  0  0  0  0  0
  -26.2896  -29.6772   24.1177 H   0  0  0  0  0  0
  -27.3990  -29.7243   25.4681 H   0  0  0  0  0  0
  -27.8778  -30.4287   23.9419 H   0  0  0  0  0  0
  -27.2638  -33.3610   26.2096 H   0  0  0  0  0  0
  -28.3847  -32.6897   25.0339 H   0  0  0  0  0  0
  -28.0707  -31.8436   26.5420 H   0  0  0  0  0  0
  -28.2592  -38.0112   24.7515 H   0  0  0  0  0  0
  -28.1081  -36.2644   24.6274 H   0  0  0  0  0  0
  -27.2308  -37.1443   25.8869 H   0  0  0  0  0  0
  -20.9359  -29.8783   21.6922 H   0  0  0  0  0  0
  -26.0170  -38.2865   24.1414 H   0  0  0  0  0  0
  -31.8602  -17.3082   19.7940 H   0  0  0  0  0  0
  -31.8306  -19.7434   19.5523 H   0  0  0  0  0  0
  -27.9270  -17.4854   21.5514 H   0  0  0  0  0  0
  -30.0869  -24.2585   20.8705 H   0  0  0  0  0  0
  -29.6558  -24.0408   19.2037 H   0  0  0  0  0  0
  -27.6780  -24.9194   21.3744 H   0  0  0  0  0  0
  -27.3178  -24.6505   19.6997 H   0  0  0  0  0  0
  -28.0446  -22.1532   19.9005 H   0  0  0  0  0  0
  -28.6236  -22.3281   21.5461 H   0  0  0  0  0  0
  -28.9203  -15.3590   21.2197 H   0  0  0  0  0  0
  1 25  1  0  0  0
  1 30  2  0  0  0
  1 80  1  0  0  0
  2  3  1  0  0  0
  2 25  1  0  0  0
  2 83  1  0  0  0
  2 84  1  0  0  0
  3  4  1  0  0  0
  3 85  1  0  0  0
  3 86  1  0  0  0
  4  5  1  0  0  0
  4 87  1  0  0  0
  4 88  1  0  0  0
  5  6  1  0  0  0
  5 26  1  0  0  0
  5 89  1  0  0  0
  6 25  1  0  0  0
  6 90  1  0  0  0
  6 91  1  0  0  0
  7  8  2  0  0  0
  7 26  1  0  0  0
  7 29  1  0  0  0
  8  9  1  0  0  0
  8 22  1  0  0  0
  9 10  1  0  0  0
  9 27  2  0  0  0
 10 11  2  0  0  0
 10 15  1  0  0  0
 11 12  1  0  0  0
 11 92  1  0  0  0
 12 13  2  0  0  0
 12 93  1  0  0  0
 13 14  1  0  0  0
 13 31  1  0  0  0
 14 15  2  0  0  0
 14 94  1  0  0  0
 15 95  1  0  0  0
 16 17  2  0  0  0
 16 21  1  0  0  0
 16 31  1  0  0  0
 17 18  1  0  0  0
 17 96  1  0  0  0
 18 19  2  0  0  0
 18 97  1  0  0  0
 19 20  1  0  0  0
 19 24  1  0  0  0
 20 21  2  0  0  0
 20 98  1  0  0  0
 21 23  1  0  0  0
 22 28  1  0  0  0
 22 32  2  0  0  0
 26 27  1  0  0  0
 28 99  1  0  0  0
 28100  1  0  0  0
 29101  1  0  0  0
 29102  1  0  0  0
 33 34  1  0  0  0
 33 66  1  0  0  0
 33 70  2  0  0  0
 34 36  1  0  0  0
 34 59  1  0  0  0
 34103  1  0  0  0
 35 44  2  0  0  0
 35 45  1  0  0  0
 35 68  1  0  0  0
 36 56  1  0  0  0
 36104  1  0  0  0
 37 39  1  0  0  0
 37 47  1  0  0  0
 37 66  1  0  0  0
 37105  1  0  0  0
 38 43  2  0  0  0
 38 46  1  0  0  0
 38 47  1  0  0  0
 39 64  1  0  0  0
 39 67  2  0  0  0
 40 52  1  0  0  0
 40 53  2  0  0  0
 40 58  1  0  0  0
 41106  1  0  0  0
 41107  1  0  0  0
 41108  1  0  0  0
 41 48  1  0  0  0
 42 43  1  0  0  0
 42 66  1  0  0  0
 42109  1  0  0  0
 42110  1  0  0  0
 43 44  1  0  0  0
 44111  1  0  0  0
 45 46  2  0  0  0
 45112  1  0  0  0
 46113  1  0  0  0
 47114  1  0  0  0
 47115  1  0  0  0
 48 56  1  0  0  0
 48 65  1  0  0  0
 48116  1  0  0  0
 49 50  1  0  0  0
 49 53  1  0  0  0
 49 64  1  0  0  0
 49117  1  0  0  0
 50 51  1  0  0  0
 50118  1  0  0  0
 50119  1  0  0  0
 51 52  1  0  0  0
 51120  1  0  0  0
 51121  1  0  0  0
 52122  1  0  0  0
 52123  1  0  0  0
 53 54  1  0  0  0
 54 55  2  0  0  0
 54124  1  0  0  0
 55 57  1  0  0  0
 55125  1  0  0  0
 56 69  2  0  0  0
 57 58  2  0  0  0
 57126  1  0  0  0
 58127  1  0  0  0
 59 60  1  0  0  0
 59 61  1  0  0  0
 59 62  1  0  0  0
 60128  1  0  0  0
 60129  1  0  0  0
 60130  1  0  0  0
 61131  1  0  0  0
 61132  1  0  0  0
 61133  1  0  0  0
 62134  1  0  0  0
 62135  1  0  0  0
 62136  1  0  0  0
 63 65  1  0  0  0
 63137  1  0  0  0
 63138  1  0  0  0
 63139  1  0  0  0
 64140  1  0  0  0
 65141  1  0  0  0
 68 78  1  0  0  0
 71 72  2  0  0  0
 71 74  1  0  0  0
 71142  1  0  0  0
 72 75  1  0  0  0
 72143  1  0  0  0
 73 74  2  0  0  0
 73 76  1  0  0  0
 73144  1  0  0  0
 74 80  1  0  0  0
 75 76  2  0  0  0
 75 81  1  0  0  0
 76 82  1  0  0  0
 77 78  1  0  0  0
 77 79  1  0  0  0
 77145  1  0  0  0
 77146  1  0  0  0
 78147  1  0  0  0
 78148  1  0  0  0
 79 81  1  0  0  0
 79149  1  0  0  0
 79150  1  0  0  0
 80151  1  0  0  0
M  ISO  4   1 100  68 101  78 101  80 100
M  END
> <chiral flag>
0

> <version>
0

> <s_m_source_file>
/data/baiqing/PycharmProjects/Reinvent-master-3.2/result/LINK_invent/BTK/process_docking_weight1_custom_product_contain_oxygen_bond_distance_aromatic_linkinvent_7_9_3/rearranged_h_0013.sdf

> <i_m_source_file_index>
44

> <r_mmod_Potential_Energy-OPLS-2005>
74.7860946655273

> <r_mmod_Stretch_Energy-OPLS-2005>
79.5826568603516

> <r_mmod_Bend_Energy-OPLS-2005>
147.580917358398

> <r_mmod_Torsional_Energy-OPLS-2005>
214.559097290039

> <r_mmod_Improper_Torsional_Energy-OPLS-2005>
3.90157985687256

> <r_mmod_Van_der_Waal_Energy-OPLS-2005>
146.884353637695

> <r_mmod_Electrostatic_Energy-OPLS-2005>
-358.382598876953

> <r_mmod_Solvation_Energy-OPLS-2005>
-207.118133544922

> <b_mmod_Minimization_Converged-OPLS-2005>
0

> <r_mmod_RMS_Derivative-OPLS-2005>
1.06894218921661

$$$$
45
                    3D
 Structure written by MMmdl.
165173  0  0  1  0            999 V2000
  -30.6770  -14.5249   20.5816 C   0  0  0  0  0  0
  -30.4360  -12.3392   19.4326 C   0  0  0  0  0  0
  -29.5019  -12.4249   18.2072 C   0  0  0  0  0  0
  -28.0136  -12.3394   18.6121 C   0  0  0  0  0  0
  -27.6529  -13.2005   19.8531 C   0  0  2  0  0  0
  -28.6882  -12.9970   20.9701 C   0  0  0  0  0  0
  -25.2579  -13.8163   20.5641 C   0  0  0  0  0  0
  -24.1828  -13.0453   20.9164 C   0  0  0  0  0  0
  -24.6374  -11.6909   20.8738 C   0  0  0  0  0  0
  -23.9036  -10.4292   21.0412 C   0  0  0  0  0  0
  -24.3599   -9.4215   21.9182 C   0  0  0  0  0  0
  -23.6283   -8.2246   22.0750 C   0  0  0  0  0  0
  -22.4268   -8.0276   21.3533 C   0  0  0  0  0  0
  -21.9892   -9.0254   20.4642 C   0  0  0  0  0  0
  -22.7214  -10.2141   20.3053 C   0  0  0  0  0  0
  -21.6851   -6.0735   22.5276 C   0  0  0  0  0  0
  -21.4013   -6.5637   23.8215 C   0  0  0  0  0  0
  -21.3662   -5.6782   24.9173 C   0  0  0  0  0  0
  -21.6046   -4.3044   24.7226 C   0  0  0  0  0  0
  -21.8822   -3.8142   23.4347 C   0  0  0  0  0  0
  -21.9191   -4.6959   22.3401 C   0  0  0  0  0  0
  -22.7854  -13.5266   21.1840 C   0  0  0  0  0  0
  -22.1654   -4.2149   21.0977 F   0  0  0  0  0  0
  -21.5634   -3.4527   25.7740 F   0  0  0  0  0  0
  -30.0086  -13.3445   20.4193 N   0  0  0  0  0  0
  -26.2975  -12.9301   20.3241 N   0  0  0  0  0  0
  -25.9290  -11.6480   20.5732 N   0  0  0  0  0  0
  -22.0491  -12.8273   22.0407 N   0  0  0  0  0  0
  -25.4328  -15.1881   20.4084 N   0  0  0  0  0  0
  -31.8327  -14.6782   20.1678 O   0  0  0  0  0  0
  -21.6638   -6.8874   21.4229 O   0  0  0  0  0  0
  -22.3534  -14.5561   20.6677 O   0  0  0  0  0  0
  -24.6171  -31.8659   23.2074 C   0  0  0  0  0  0
  -25.9068  -32.4811   23.8374 C   0  0  1  0  0  0
  -27.2322  -27.4057   20.1151 C   0  0  0  0  0  0
  -25.5923  -33.8610   24.2321 N   0  0  0  0  0  0
  -23.4061  -30.4865   21.5490 C   0  0  2  0  0  0
  -24.8531  -28.9391   20.1256 C   0  0  0  0  0  0
  -22.7418  -29.4664   22.5008 C   0  0  0  0  0  0
  -18.0276  -28.1372   22.8476 C   0  0  0  0  0  0
  -24.1485  -36.7307   23.2636 C   0  0  0  0  0  0
  -25.9369  -30.8213   21.3632 C   0  0  0  0  0  0
  -26.0138  -29.4500   20.7210 C   0  0  0  0  0  0
  -27.2085  -28.6908   20.7097 C   0  0  0  0  0  0
  -26.0571  -26.9096   19.5175 C   0  0  0  0  0  0
  -24.8704  -27.6697   19.5208 C   0  0  0  0  0  0
  -23.6173  -29.8117   20.1672 C   0  0  0  0  0  0
  -25.4109  -36.3111   24.0332 C   0  0  1  0  0  0
  -20.5864  -28.3672   23.1325 C   0  0  2  0  0  0
  -20.6786  -26.9413   22.5438 C   0  0  0  0  0  0
  -19.5771  -26.6373   21.5225 C   0  0  0  0  0  0
  -18.1935  -26.7911   22.1614 C   0  0  0  0  0  0
  -19.1517  -28.8832   23.2890 C   0  0  0  0  0  0
  -18.9447  -30.1443   23.8890 C   0  0  0  0  0  0
  -17.6452  -30.6584   24.0559 C   0  0  0  0  0  0
  -25.9041  -34.9475   23.5124 C   0  0  0  0  0  0
  -16.5344  -29.9091   23.6317 C   0  0  0  0  0  0
  -16.7263  -28.6506   23.0336 C   0  0  0  0  0  0
  -26.4485  -31.6597   25.0708 C   0  0  0  0  0  0
  -25.3748  -31.3718   26.1455 C   0  0  0  0  0  0
  -27.0321  -30.3038   24.6097 C   0  0  0  0  0  0
  -27.6060  -32.4316   25.7474 C   0  0  0  0  0  0
  -27.5582  -37.1808   24.8464 C   0  0  0  0  0  0
  -21.4145  -29.3047   22.3739 N   0  0  0  0  0  0
  -26.4295  -37.3797   23.9407 N   0  0  0  0  0  0
  -24.6719  -31.0729   22.0984 N   0  0  0  0  0  0
  -23.4182  -28.8211   23.3062 O   0  0  0  0  0  0
  -28.4007  -26.6801   20.0213 O   0  0  0  0  0  0
  -26.5594  -34.8927   22.4686 O   0  0  0  0  0  0
  -23.5352  -32.1432   23.7449 O   0  0  0  0  0  0
  -29.6621  -19.5447   19.3617 C   0  0  0  0  0  0
  -29.8982  -18.4399   18.5320 C   0  0  0  0  0  0
  -29.4334  -18.0253   21.2371 C   0  0  0  0  0  0
  -29.3433  -19.3449   20.7147 C   0  0  0  0  0  0
  -29.9098  -17.1205   19.0366 C   0  0  0  0  0  0
  -29.7829  -16.8800   20.4462 C   0  0  0  0  0  0
  -29.9967  -16.0295   17.9844 C   0  0  0  0  0  0
  -29.8492  -15.5309   22.5701 C   0  0  0  0  0  0
  -27.1311  -21.2826   20.0691 C   0  0  0  0  0  0
  -28.9821  -20.5314   21.6398 C   0  0  0  0  0  0
  -27.9879  -24.1862   20.4591 C   0  0  0  0  0  0
  -28.8391  -22.9461   20.9116 C   0  0  0  0  0  0
  -28.5880  -25.5559   20.9022 C   0  0  0  0  0  0
  -29.9710  -15.5756   21.1019 N   0  0  0  0  0  0
  -28.1107  -21.6499   21.1235 N   0  3  1  0  0  0
  -31.4714  -12.4801   19.1170 H   0  0  0  0  0  0
  -30.3921  -11.3447   19.8764 H   0  0  0  0  0  0
  -29.7359  -11.6101   17.5206 H   0  0  0  0  0  0
  -29.6970  -13.3313   17.6432 H   0  0  0  0  0  0
  -27.8006  -11.2906   18.8194 H   0  0  0  0  0  0
  -27.3782  -12.6099   17.7671 H   0  0  0  0  0  0
  -27.6902  -14.2459   19.5487 H   0  0  0  0  0  0
  -28.6895  -11.9596   21.3072 H   0  0  0  0  0  0
  -28.4083  -13.5766   21.8448 H   0  0  0  0  0  0
  -25.2755   -9.5705   22.4747 H   0  0  0  0  0  0
  -24.0000   -7.4641   22.7476 H   0  0  0  0  0  0
  -21.0819   -8.8774   19.8962 H   0  0  0  0  0  0
  -22.3659  -10.9679   19.6163 H   0  0  0  0  0  0
  -21.2002   -7.6141   23.9716 H   0  0  0  0  0  0
  -21.1475   -6.0515   25.9076 H   0  0  0  0  0  0
  -22.0600   -2.7605   23.2851 H   0  0  0  0  0  0
  -22.4088  -11.9946   22.4822 H   0  0  0  0  0  0
  -21.1112  -13.1315   22.2605 H   0  0  0  0  0  0
  -24.6756  -15.8502   20.5338 H   0  0  0  0  0  0
  -26.2961  -15.6267   20.1131 H   0  0  0  0  0  0
  -26.7143  -32.5512   23.1139 H   0  0  0  0  0  0
  -25.0110  -33.9777   25.0487 H   0  0  0  0  0  0
  -22.6951  -31.3028   21.4058 H   0  0  0  0  0  0
  -23.3745  -35.9645   23.3310 H   0  0  0  0  0  0
  -24.3564  -36.8906   22.2046 H   0  0  0  0  0  0
  -23.7235  -37.6514   23.6638 H   0  0  0  0  0  0
  -26.0467  -31.5780   20.5857 H   0  0  0  0  0  0
  -26.8261  -30.8824   21.9792 H   0  0  0  0  0  0
  -28.1115  -29.0888   21.1509 H   0  0  0  0  0  0
  -26.0624  -25.9434   19.0346 H   0  0  0  0  0  0
  -23.9808  -27.2722   19.0543 H   0  0  0  0  0  0
  -23.7329  -30.5819   19.4044 H   0  0  0  0  0  0
  -22.7406  -29.2339   19.8707 H   0  0  0  0  0  0
  -25.1287  -36.1976   25.0820 H   0  0  0  0  0  0
  -20.9948  -28.3247   24.1460 H   0  0  0  0  0  0
  -20.5700  -26.2293   23.3629 H   0  0  0  0  0  0
  -21.6660  -26.7475   22.1230 H   0  0  0  0  0  0
  -19.6950  -25.6285   21.1258 H   0  0  0  0  0  0
  -19.6712  -27.3184   20.6756 H   0  0  0  0  0  0
  -17.4228  -26.6663   21.3992 H   0  0  0  0  0  0
  -18.0330  -26.0037   22.8989 H   0  0  0  0  0  0
  -19.7928  -30.7260   24.2248 H   0  0  0  0  0  0
  -17.5017  -31.6257   24.5179 H   0  0  0  0  0  0
  -15.5342  -30.3001   23.7625 H   0  0  0  0  0  0
  -15.8668  -28.0821   22.7055 H   0  0  0  0  0  0
  -24.5916  -30.7074   25.7786 H   0  0  0  0  0  0
  -24.8946  -32.2879   26.4901 H   0  0  0  0  0  0
  -25.8085  -30.8883   27.0215 H   0  0  0  0  0  0
  -26.2872  -29.6787   24.1159 H   0  0  0  0  0  0
  -27.4098  -29.7284   25.4556 H   0  0  0  0  0  0
  -27.8699  -30.4350   23.9247 H   0  0  0  0  0  0
  -27.2691  -33.3607   26.2079 H   0  0  0  0  0  0
  -28.3856  -32.6885   25.0293 H   0  0  0  0  0  0
  -28.0749  -31.8424   26.5364 H   0  0  0  0  0  0
  -28.2616  -38.0095   24.7512 H   0  0  0  0  0  0
  -28.1066  -36.2623   24.6297 H   0  0  0  0  0  0
  -27.2293  -37.1471   25.8869 H   0  0  0  0  0  0
  -20.9305  -29.8758   21.6951 H   0  0  0  0  0  0
  -26.0182  -38.2874   24.1411 H   0  0  0  0  0  0
  -29.6824  -20.5369   18.9345 H   0  0  0  0  0  0
  -30.0528  -18.6179   17.4762 H   0  0  0  0  0  0
  -29.2418  -17.9247   22.2932 H   0  0  0  0  0  0
  -29.1746  -15.3355   18.1323 H   0  0  0  0  0  0
  -30.9472  -15.5014   17.9908 H   0  0  0  0  0  0
  -29.8772  -16.4295   16.9771 H   0  0  0  0  0  0
  -28.8208  -15.7355   22.8677 H   0  0  0  0  0  0
  -30.5033  -16.2667   23.0379 H   0  0  0  0  0  0
  -30.1250  -14.5684   23.0075 H   0  0  0  0  0  0
  -26.6912  -20.3040   20.2642 H   0  0  0  0  0  0
  -27.5746  -21.2666   19.0752 H   0  0  0  0  0  0
  -26.3094  -21.9970   20.0396 H   0  0  0  0  0  0
  -29.9056  -20.9271   22.0655 H   0  0  0  0  0  0
  -28.4427  -20.1133   22.4913 H   0  0  0  0  0  0
  -26.9700  -24.1267   20.8458 H   0  0  0  0  0  0
  -27.9029  -24.1669   19.3731 H   0  0  0  0  0  0
  -29.3226  -23.1890   21.8577 H   0  0  0  0  0  0
  -29.6510  -22.7870   20.1983 H   0  0  0  0  0  0
  -29.6698  -25.4404   20.9777 H   0  0  0  0  0  0
  -28.2499  -25.8033   21.9099 H   0  0  0  0  0  0
  -27.5259  -21.8357   21.9267 H   0  0  0  0  0  0
  1 25  1  0  0  0
  1 30  2  0  0  0
  1 84  1  0  0  0
  2  3  1  0  0  0
  2 25  1  0  0  0
  2 86  1  0  0  0
  2 87  1  0  0  0
  3  4  1  0  0  0
  3 88  1  0  0  0
  3 89  1  0  0  0
  4  5  1  0  0  0
  4 90  1  0  0  0
  4 91  1  0  0  0
  5  6  1  0  0  0
  5 26  1  0  0  0
  5 92  1  0  0  0
  6 25  1  0  0  0
  6 93  1  0  0  0
  6 94  1  0  0  0
  7  8  2  0  0  0
  7 26  1  0  0  0
  7 29  1  0  0  0
  8  9  1  0  0  0
  8 22  1  0  0  0
  9 10  1  0  0  0
  9 27  2  0  0  0
 10 11  2  0  0  0
 10 15  1  0  0  0
 11 12  1  0  0  0
 11 95  1  0  0  0
 12 13  2  0  0  0
 12 96  1  0  0  0
 13 14  1  0  0  0
 13 31  1  0  0  0
 14 15  2  0  0  0
 14 97  1  0  0  0
 15 98  1  0  0  0
 16 17  2  0  0  0
 16 21  1  0  0  0
 16 31  1  0  0  0
 17 18  1  0  0  0
 17 99  1  0  0  0
 18 19  2  0  0  0
 18100  1  0  0  0
 19 20  1  0  0  0
 19 24  1  0  0  0
 20 21  2  0  0  0
 20101  1  0  0  0
 21 23  1  0  0  0
 22 28  1  0  0  0
 22 32  2  0  0  0
 26 27  1  0  0  0
 28102  1  0  0  0
 28103  1  0  0  0
 29104  1  0  0  0
 29105  1  0  0  0
 33 34  1  0  0  0
 33 66  1  0  0  0
 33 70  2  0  0  0
 34 36  1  0  0  0
 34 59  1  0  0  0
 34106  1  0  0  0
 35 44  2  0  0  0
 35 45  1  0  0  0
 35 68  1  0  0  0
 36 56  1  0  0  0
 36107  1  0  0  0
 37 39  1  0  0  0
 37 47  1  0  0  0
 37 66  1  0  0  0
 37108  1  0  0  0
 38 43  2  0  0  0
 38 46  1  0  0  0
 38 47  1  0  0  0
 39 64  1  0  0  0
 39 67  2  0  0  0
 40 52  1  0  0  0
 40 53  2  0  0  0
 40 58  1  0  0  0
 41109  1  0  0  0
 41110  1  0  0  0
 41111  1  0  0  0
 41 48  1  0  0  0
 42 43  1  0  0  0
 42 66  1  0  0  0
 42112  1  0  0  0
 42113  1  0  0  0
 43 44  1  0  0  0
 44114  1  0  0  0
 45 46  2  0  0  0
 45115  1  0  0  0
 46116  1  0  0  0
 47117  1  0  0  0
 47118  1  0  0  0
 48 56  1  0  0  0
 48 65  1  0  0  0
 48119  1  0  0  0
 49 50  1  0  0  0
 49 53  1  0  0  0
 49 64  1  0  0  0
 49120  1  0  0  0
 50 51  1  0  0  0
 50121  1  0  0  0
 50122  1  0  0  0
 51 52  1  0  0  0
 51123  1  0  0  0
 51124  1  0  0  0
 52125  1  0  0  0
 52126  1  0  0  0
 53 54  1  0  0  0
 54 55  2  0  0  0
 54127  1  0  0  0
 55 57  1  0  0  0
 55128  1  0  0  0
 56 69  2  0  0  0
 57 58  2  0  0  0
 57129  1  0  0  0
 58130  1  0  0  0
 59 60  1  0  0  0
 59 61  1  0  0  0
 59 62  1  0  0  0
 60131  1  0  0  0
 60132  1  0  0  0
 60133  1  0  0  0
 61134  1  0  0  0
 61135  1  0  0  0
 61136  1  0  0  0
 62137  1  0  0  0
 62138  1  0  0  0
 62139  1  0  0  0
 63 65  1  0  0  0
 63140  1  0  0  0
 63141  1  0  0  0
 63142  1  0  0  0
 64143  1  0  0  0
 65144  1  0  0  0
 68 83  1  0  0  0
 71 72  2  0  0  0
 71 74  1  0  0  0
 71145  1  0  0  0
 72 75  1  0  0  0
 72146  1  0  0  0
 73 74  2  0  0  0
 73 76  1  0  0  0
 73147  1  0  0  0
 74 80  1  0  0  0
 75 76  2  0  0  0
 75 77  1  0  0  0
 76 84  1  0  0  0
 77148  1  0  0  0
 77149  1  0  0  0
 77150  1  0  0  0
 78 84  1  0  0  0
 78151  1  0  0  0
 78152  1  0  0  0
 78153  1  0  0  0
 79154  1  0  0  0
 79155  1  0  0  0
 79156  1  0  0  0
 79 85  1  0  0  0
 80 85  1  0  0  0
 80157  1  0  0  0
 80158  1  0  0  0
 81 82  1  0  0  0
 81 83  1  0  0  0
 81159  1  0  0  0
 81160  1  0  0  0
 82 85  1  0  0  0
 82161  1  0  0  0
 82162  1  0  0  0
 83163  1  0  0  0
 83164  1  0  0  0
 85165  1  0  0  0
M  CHG  1  85   1
M  ISO  4   1 100  68 101  83 101  84 100
M  END
> <chiral flag>
0

> <version>
0

> <s_m_source_file>
/data/baiqing/PycharmProjects/Reinvent-master-3.2/result/LINK_invent/BTK/process_docking_weight1_custom_product_contain_oxygen_bond_distance_aromatic_linkinvent_7_9_3/rearranged_h_0013.sdf

> <i_m_source_file_index>
45

> <r_mmod_Potential_Energy-OPLS-2005>
55.8165588378906

> <r_mmod_Stretch_Energy-OPLS-2005>
57.4132461547852

> <r_mmod_Bend_Energy-OPLS-2005>
136.042587280273

> <r_mmod_Torsional_Energy-OPLS-2005>
322.935974121094

> <r_mmod_Improper_Torsional_Energy-OPLS-2005>
4.3083028793335

> <r_mmod_Van_der_Waal_Energy-OPLS-2005>
163.707473754883

> <r_mmod_Electrostatic_Energy-OPLS-2005>
-207.577133178711

> <r_mmod_Solvation_Energy-OPLS-2005>
-440.640106201172

> <b_mmod_Minimization_Converged-OPLS-2005>
0

> <r_mmod_RMS_Derivative-OPLS-2005>
2.41446852684021

$$$$
46
                    3D
 Structure written by MMmdl.
158166  0  0  1  0            999 V2000
  -30.6846  -14.6300   20.5571 C   0  0  0  0  0  0
  -30.4271  -12.4163   19.4532 C   0  0  0  0  0  0
  -29.5020  -12.5274   18.2224 C   0  0  0  0  0  0
  -28.0214  -12.3635   18.6167 C   0  0  0  0  0  0
  -27.6396  -13.2308   19.8452 C   0  0  2  0  0  0
  -28.6727  -13.0960   20.9800 C   0  0  0  0  0  0
  -25.2456  -13.8245   20.5730 C   0  0  0  0  0  0
  -24.1717  -13.0499   20.9189 C   0  0  0  0  0  0
  -24.6316  -11.6977   20.8710 C   0  0  0  0  0  0
  -23.9055  -10.4333   21.0433 C   0  0  0  0  0  0
  -24.3626   -9.4225   21.9188 C   0  0  0  0  0  0
  -23.6301   -8.2265   22.0759 C   0  0  0  0  0  0
  -22.4262   -8.0307   21.3592 C   0  0  0  0  0  0
  -21.9919   -9.0282   20.4675 C   0  0  0  0  0  0
  -22.7259  -10.2159   20.3068 C   0  0  0  0  0  0
  -21.6864   -6.0723   22.5285 C   0  0  0  0  0  0
  -21.4009   -6.5599   23.8215 C   0  0  0  0  0  0
  -21.3669   -5.6760   24.9174 C   0  0  0  0  0  0
  -21.6078   -4.3030   24.7234 C   0  0  0  0  0  0
  -21.8828   -3.8122   23.4351 C   0  0  0  0  0  0
  -21.9188   -4.6949   22.3405 C   0  0  0  0  0  0
  -22.7739  -13.5307   21.1873 C   0  0  0  0  0  0
  -22.1676   -4.2133   21.0990 F   0  0  0  0  0  0
  -21.5640   -3.4503   25.7729 F   0  0  0  0  0  0
  -29.9998  -13.4406   20.4370 N   0  0  0  0  0  0
  -26.2860  -12.9452   20.3203 N   0  0  0  0  0  0
  -25.9208  -11.6600   20.5611 N   0  0  0  0  0  0
  -22.0349  -12.8295   22.0410 N   0  0  0  0  0  0
  -25.4206  -15.1991   20.4349 N   0  0  0  0  0  0
  -31.8017  -14.7394   20.0389 O   0  0  0  0  0  0
  -21.6665   -6.8870   21.4251 O   0  0  0  0  0  0
  -22.3435  -14.5651   20.6735 O   0  0  0  0  0  0
  -24.6251  -31.8587   23.2021 C   0  0  0  0  0  0
  -25.9146  -32.4750   23.8324 C   0  0  1  0  0  0
  -27.2538  -27.3693   20.1049 C   0  0  0  0  0  0
  -25.6001  -33.8546   24.2301 N   0  0  0  0  0  0
  -23.4195  -30.4800   21.5385 C   0  0  2  0  0  0
  -24.8755  -28.9379   20.1073 C   0  0  0  0  0  0
  -22.7487  -29.4631   22.4921 C   0  0  0  0  0  0
  -18.0335  -28.1313   22.8472 C   0  0  0  0  0  0
  -24.1488  -36.7268   23.2619 C   0  0  0  0  0  0
  -25.9548  -30.7988   21.3756 C   0  0  0  0  0  0
  -26.0375  -29.4299   20.7214 C   0  0  0  0  0  0
  -27.2287  -28.6534   20.7174 C   0  0  0  0  0  0
  -26.0804  -26.9233   19.4565 C   0  0  0  0  0  0
  -24.9004  -27.6865   19.4657 C   0  0  0  0  0  0
  -23.6395  -29.8102   20.1546 C   0  0  0  0  0  0
  -25.4099  -36.3068   24.0338 C   0  0  1  0  0  0
  -20.5919  -28.3718   23.1330 C   0  0  2  0  0  0
  -20.6872  -26.9444   22.5452 C   0  0  0  0  0  0
  -19.5894  -26.6403   21.5201 C   0  0  0  0  0  0
  -18.2037  -26.7904   22.1560 C   0  0  0  0  0  0
  -19.1541  -28.8805   23.2905 C   0  0  0  0  0  0
  -18.9413  -30.1378   23.8914 C   0  0  0  0  0  0
  -17.6411  -30.6497   24.0580 C   0  0  0  0  0  0
  -25.9030  -34.9426   23.5101 C   0  0  0  0  0  0
  -16.5345  -29.9005   23.6266 C   0  0  0  0  0  0
  -16.7309  -28.6428   23.0295 C   0  0  0  0  0  0
  -26.4562  -31.6540   25.0652 C   0  0  0  0  0  0
  -25.3849  -31.3666   26.1428 C   0  0  0  0  0  0
  -27.0423  -30.2962   24.6109 C   0  0  0  0  0  0
  -27.6160  -32.4246   25.7416 C   0  0  0  0  0  0
  -27.5583  -37.1772   24.8469 C   0  0  0  0  0  0
  -21.4162  -29.3135   22.3734 N   0  0  0  0  0  0
  -26.4283  -37.3757   23.9416 N   0  0  0  0  0  0
  -24.6847  -31.0645   22.0969 N   0  0  0  0  0  0
  -23.4200  -28.8114   23.2963 O   0  0  0  0  0  0
  -28.3544  -26.5158   20.1394 O   0  0  0  0  0  0
  -26.5575  -34.8913   22.4646 O   0  0  0  0  0  0
  -23.5450  -32.1369   23.7419 O   0  0  0  0  0  0
  -28.7011  -18.8411   21.5353 C   0  0  0  0  0  0
  -28.2663  -20.1848   21.7565 C   0  0  0  0  0  0
  -29.8778  -21.0004   20.1901 C   0  0  0  0  0  0
  -29.7576  -18.5308   20.6423 C   0  0  0  0  0  0
  -28.8311  -21.3238   21.0985 C   0  0  0  0  0  0
  -30.3135  -19.6569   19.9679 C   0  0  0  0  0  0
  -27.1429  -22.7750   22.1543 C   0  0  0  0  0  0
  -29.7076  -15.8047   22.4559 C   0  0  0  0  0  0
  -30.3826  -17.0982   20.3503 C   0  0  0  0  0  0
  -28.6844  -23.8586   20.4572 C   0  0  0  0  0  0
  -28.1561  -25.2962   20.9381 C   0  0  0  0  0  0
  -28.3630  -22.6799   21.3426 N   0  0  0  0  0  0
  -30.0318  -15.7649   21.0145 N   0  0  0  0  0  0
  -31.3136  -19.4513   19.0713 F   0  0  0  0  0  0
  -31.4639  -12.5343   19.1335 H   0  0  0  0  0  0
  -30.3642  -11.4251   19.9019 H   0  0  0  0  0  0
  -29.7715  -11.7815   17.4738 H   0  0  0  0  0  0
  -29.6478  -13.5016   17.7485 H   0  0  0  0  0  0
  -27.8583  -11.3097   18.8460 H   0  0  0  0  0  0
  -27.3771  -12.5961   17.7644 H   0  0  0  0  0  0
  -27.6634  -14.2721   19.5155 H   0  0  0  0  0  0
  -28.6860  -12.0846   21.3920 H   0  0  0  0  0  0
  -28.3525  -13.7386   21.7943 H   0  0  0  0  0  0
  -25.2783   -9.5688   22.4768 H   0  0  0  0  0  0
  -24.0038   -7.4654   22.7476 H   0  0  0  0  0  0
  -21.0845   -8.8845   19.8960 H   0  0  0  0  0  0
  -22.3771  -10.9711   19.6173 H   0  0  0  0  0  0
  -21.2001   -7.6111   23.9713 H   0  0  0  0  0  0
  -21.1480   -6.0477   25.9082 H   0  0  0  0  0  0
  -22.0585   -2.7580   23.2866 H   0  0  0  0  0  0
  -22.3978  -11.9994   22.4873 H   0  0  0  0  0  0
  -21.0975  -13.1311   22.2647 H   0  0  0  0  0  0
  -24.6652  -15.8625   20.5720 H   0  0  0  0  0  0
  -26.2961  -15.6430   20.1864 H   0  0  0  0  0  0
  -26.7235  -32.5393   23.1083 H   0  0  0  0  0  0
  -25.0329  -33.9659   25.0584 H   0  0  0  0  0  0
  -22.7116  -31.2977   21.3919 H   0  0  0  0  0  0
  -23.3754  -35.9599   23.3250 H   0  0  0  0  0  0
  -24.3608  -36.8884   22.2046 H   0  0  0  0  0  0
  -23.7223  -37.6451   23.6642 H   0  0  0  0  0  0
  -26.0887  -31.5649   20.6133 H   0  0  0  0  0  0
  -26.8330  -30.8373   22.0095 H   0  0  0  0  0  0
  -28.1182  -29.0149   21.2155 H   0  0  0  0  0  0
  -26.0881  -25.9647   18.9549 H   0  0  0  0  0  0
  -24.0178  -27.3115   18.9635 H   0  0  0  0  0  0
  -23.7568  -30.5805   19.3913 H   0  0  0  0  0  0
  -22.7635  -29.2329   19.8503 H   0  0  0  0  0  0
  -25.1262  -36.1919   25.0828 H   0  0  0  0  0  0
  -20.9967  -28.3348   24.1485 H   0  0  0  0  0  0
  -20.5758  -26.2306   23.3625 H   0  0  0  0  0  0
  -21.6777  -26.7528   22.1307 H   0  0  0  0  0  0
  -19.7077  -25.6313   21.1215 H   0  0  0  0  0  0
  -19.6887  -27.3161   20.6704 H   0  0  0  0  0  0
  -17.4374  -26.6742   21.3897 H   0  0  0  0  0  0
  -18.0423  -25.9948   22.8838 H   0  0  0  0  0  0
  -19.7885  -30.7161   24.2298 H   0  0  0  0  0  0
  -17.4912  -31.6127   24.5194 H   0  0  0  0  0  0
  -15.5322  -30.2886   23.7487 H   0  0  0  0  0  0
  -15.8690  -28.0793   22.6954 H   0  0  0  0  0  0
  -24.6080  -30.6944   25.7784 H   0  0  0  0  0  0
  -24.9002  -32.2811   26.4857 H   0  0  0  0  0  0
  -25.8244  -30.8888   27.0203 H   0  0  0  0  0  0
  -26.2995  -29.6649   24.1250 H   0  0  0  0  0  0
  -27.4230  -29.7266   25.4599 H   0  0  0  0  0  0
  -27.8815  -30.4158   23.9258 H   0  0  0  0  0  0
  -27.2834  -33.3556   26.2025 H   0  0  0  0  0  0
  -28.3992  -32.6780   25.0249 H   0  0  0  0  0  0
  -28.0842  -31.8337   26.5305 H   0  0  0  0  0  0
  -28.2585  -38.0095   24.7533 H   0  0  0  0  0  0
  -28.1083  -36.2604   24.6253 H   0  0  0  0  0  0
  -27.2298  -37.1380   25.8877 H   0  0  0  0  0  0
  -20.9332  -29.8958   21.7036 H   0  0  0  0  0  0
  -26.0169  -38.2815   24.1479 H   0  0  0  0  0  0
  -28.1902  -18.0689   22.0806 H   0  0  0  0  0  0
  -27.4642  -20.2905   22.4707 H   0  0  0  0  0  0
  -30.3817  -21.7837   19.6413 H   0  0  0  0  0  0
  -26.9067  -23.7833   22.4811 H   0  0  0  0  0  0
  -27.2196  -22.2411   23.0997 H   0  0  0  0  0  0
  -26.2798  -22.4020   21.5901 H   0  0  0  0  0  0
  -30.3933  -16.4452   23.0170 H   0  0  0  0  0  0
  -29.7852  -14.8151   22.9172 H   0  0  0  0  0  0
  -28.6822  -16.1330   22.6352 H   0  0  0  0  0  0
  -31.4525  -17.2481   20.5218 H   0  0  0  0  0  0
  -30.3105  -16.9510   19.2643 H   0  0  0  0  0  0
  -29.7666  -23.9003   20.3117 H   0  0  0  0  0  0
  -28.2633  -23.6597   19.4745 H   0  0  0  0  0  0
  -28.5813  -25.5087   21.9179 H   0  0  0  0  0  0
  -27.0792  -25.2143   21.0853 H   0  0  0  0  0  0
  1 25  1  0  0  0
  1 30  2  0  0  0
  1 83  1  0  0  0
  2  3  1  0  0  0
  2 25  1  0  0  0
  2 85  1  0  0  0
  2 86  1  0  0  0
  3  4  1  0  0  0
  3 87  1  0  0  0
  3 88  1  0  0  0
  4  5  1  0  0  0
  4 89  1  0  0  0
  4 90  1  0  0  0
  5  6  1  0  0  0
  5 26  1  0  0  0
  5 91  1  0  0  0
  6 25  1  0  0  0
  6 92  1  0  0  0
  6 93  1  0  0  0
  7  8  2  0  0  0
  7 26  1  0  0  0
  7 29  1  0  0  0
  8  9  1  0  0  0
  8 22  1  0  0  0
  9 10  1  0  0  0
  9 27  2  0  0  0
 10 11  2  0  0  0
 10 15  1  0  0  0
 11 12  1  0  0  0
 11 94  1  0  0  0
 12 13  2  0  0  0
 12 95  1  0  0  0
 13 14  1  0  0  0
 13 31  1  0  0  0
 14 15  2  0  0  0
 14 96  1  0  0  0
 15 97  1  0  0  0
 16 17  2  0  0  0
 16 21  1  0  0  0
 16 31  1  0  0  0
 17 18  1  0  0  0
 17 98  1  0  0  0
 18 19  2  0  0  0
 18 99  1  0  0  0
 19 20  1  0  0  0
 19 24  1  0  0  0
 20 21  2  0  0  0
 20100  1  0  0  0
 21 23  1  0  0  0
 22 28  1  0  0  0
 22 32  2  0  0  0
 26 27  1  0  0  0
 28101  1  0  0  0
 28102  1  0  0  0
 29103  1  0  0  0
 29104  1  0  0  0
 33 34  1  0  0  0
 33 66  1  0  0  0
 33 70  2  0  0  0
 34 36  1  0  0  0
 34 59  1  0  0  0
 34105  1  0  0  0
 35 44  2  0  0  0
 35 45  1  0  0  0
 35 68  1  0  0  0
 36 56  1  0  0  0
 36106  1  0  0  0
 37 39  1  0  0  0
 37 47  1  0  0  0
 37 66  1  0  0  0
 37107  1  0  0  0
 38 43  2  0  0  0
 38 46  1  0  0  0
 38 47  1  0  0  0
 39 64  1  0  0  0
 39 67  2  0  0  0
 40 52  1  0  0  0
 40 53  2  0  0  0
 40 58  1  0  0  0
 41108  1  0  0  0
 41109  1  0  0  0
 41110  1  0  0  0
 41 48  1  0  0  0
 42 43  1  0  0  0
 42 66  1  0  0  0
 42111  1  0  0  0
 42112  1  0  0  0
 43 44  1  0  0  0
 44113  1  0  0  0
 45 46  2  0  0  0
 45114  1  0  0  0
 46115  1  0  0  0
 47116  1  0  0  0
 47117  1  0  0  0
 48 56  1  0  0  0
 48 65  1  0  0  0
 48118  1  0  0  0
 49 50  1  0  0  0
 49 53  1  0  0  0
 49 64  1  0  0  0
 49119  1  0  0  0
 50 51  1  0  0  0
 50120  1  0  0  0
 50121  1  0  0  0
 51 52  1  0  0  0
 51122  1  0  0  0
 51123  1  0  0  0
 52124  1  0  0  0
 52125  1  0  0  0
 53 54  1  0  0  0
 54 55  2  0  0  0
 54126  1  0  0  0
 55 57  1  0  0  0
 55127  1  0  0  0
 56 69  2  0  0  0
 57 58  2  0  0  0
 57128  1  0  0  0
 58129  1  0  0  0
 59 60  1  0  0  0
 59 61  1  0  0  0
 59 62  1  0  0  0
 60130  1  0  0  0
 60131  1  0  0  0
 60132  1  0  0  0
 61133  1  0  0  0
 61134  1  0  0  0
 61135  1  0  0  0
 62136  1  0  0  0
 62137  1  0  0  0
 62138  1  0  0  0
 63 65  1  0  0  0
 63139  1  0  0  0
 63140  1  0  0  0
 63141  1  0  0  0
 64142  1  0  0  0
 65143  1  0  0  0
 68 81  1  0  0  0
 71 72  2  0  0  0
 71 74  1  0  0  0
 71144  1  0  0  0
 72 75  1  0  0  0
 72145  1  0  0  0
 73 75  2  0  0  0
 73 76  1  0  0  0
 73146  1  0  0  0
 74 76  2  0  0  0
 74 79  1  0  0  0
 75 82  1  0  0  0
 76 84  1  0  0  0
 77 82  1  0  0  0
 77147  1  0  0  0
 77148  1  0  0  0
 77149  1  0  0  0
 78 83  1  0  0  0
 78150  1  0  0  0
 78151  1  0  0  0
 78152  1  0  0  0
 79 83  1  0  0  0
 79153  1  0  0  0
 79154  1  0  0  0
 80 81  1  0  0  0
 80 82  1  0  0  0
 80155  1  0  0  0
 80156  1  0  0  0
 81157  1  0  0  0
 81158  1  0  0  0
M  ISO  4   1 100  68 101  81 101  83 100
M  END
> <chiral flag>
0

> <version>
0

> <s_m_source_file>
/data/baiqing/PycharmProjects/Reinvent-master-3.2/result/LINK_invent/BTK/process_docking_weight1_custom_product_contain_oxygen_bond_distance_aromatic_linkinvent_7_9_3/rearranged_h_0013.sdf

> <i_m_source_file_index>
46

> <r_mmod_Potential_Energy-OPLS-2005>
257.834136962891

> <r_mmod_Stretch_Energy-OPLS-2005>
95.4708099365234

> <r_mmod_Bend_Energy-OPLS-2005>
176.485427856445

> <r_mmod_Torsional_Energy-OPLS-2005>
264.584381103516

> <r_mmod_Improper_Torsional_Energy-OPLS-2005>
9.88671112060547

> <r_mmod_Van_der_Waal_Energy-OPLS-2005>
171.807647705078

> <r_mmod_Electrostatic_Energy-OPLS-2005>
-288.885650634766

> <r_mmod_Solvation_Energy-OPLS-2005>
-211.81428527832

> <b_mmod_Minimization_Converged-OPLS-2005>
0

> <r_mmod_RMS_Derivative-OPLS-2005>
7.94141578674316

$$$$
47
                    3D
 Structure written by MMmdl.
169177  0  0  1  0            999 V2000
  -30.6781  -14.5190   20.6254 C   0  0  0  0  0  0
  -30.4280  -12.3607   19.4140 C   0  0  0  0  0  0
  -29.4935  -12.5419   18.2002 C   0  0  0  0  0  0
  -28.0155  -12.3858   18.6103 C   0  0  0  0  0  0
  -27.6604  -13.2121   19.8748 C   0  0  2  0  0  0
  -28.7000  -12.9749   20.9880 C   0  0  0  0  0  0
  -25.2600  -13.8174   20.5729 C   0  0  0  0  0  0
  -24.1823  -13.0433   20.9191 C   0  0  0  0  0  0
  -24.6369  -11.6905   20.8740 C   0  0  0  0  0  0
  -23.9013  -10.4305   21.0407 C   0  0  0  0  0  0
  -24.3577   -9.4254   21.9199 C   0  0  0  0  0  0
  -23.6282   -8.2265   22.0749 C   0  0  0  0  0  0
  -22.4280   -8.0282   21.3515 C   0  0  0  0  0  0
  -21.9886   -9.0267   20.4634 C   0  0  0  0  0  0
  -22.7178  -10.2165   20.3059 C   0  0  0  0  0  0
  -21.6860   -6.0738   22.5270 C   0  0  0  0  0  0
  -21.4026   -6.5640   23.8203 C   0  0  0  0  0  0
  -21.3667   -5.6792   24.9173 C   0  0  0  0  0  0
  -21.6031   -4.3055   24.7230 C   0  0  0  0  0  0
  -21.8817   -3.8138   23.4350 C   0  0  0  0  0  0
  -21.9204   -4.6952   22.3406 C   0  0  0  0  0  0
  -22.7856  -13.5264   21.1867 C   0  0  0  0  0  0
  -22.1663   -4.2133   21.0983 F   0  0  0  0  0  0
  -21.5638   -3.4535   25.7750 F   0  0  0  0  0  0
  -30.0222  -13.3326   20.4494 N   0  0  0  0  0  0
  -26.3024  -12.9330   20.3385 N   0  0  0  0  0  0
  -25.9291  -11.6470   20.5715 N   0  0  0  0  0  0
  -22.0470  -12.8275   22.0441 N   0  0  0  0  0  0
  -25.4334  -15.1877   20.4203 N   0  0  0  0  0  0
  -31.7606  -14.7262   20.0635 O   0  0  0  0  0  0
  -21.6635   -6.8875   21.4223 O   0  0  0  0  0  0
  -22.3541  -14.5587   20.6762 O   0  0  0  0  0  0
  -24.6192  -31.8680   23.2070 C   0  0  0  0  0  0
  -25.9077  -32.4791   23.8396 C   0  0  1  0  0  0
  -27.2147  -27.3836   20.0885 C   0  0  0  0  0  0
  -25.5934  -33.8605   24.2317 N   0  0  0  0  0  0
  -23.4081  -30.4944   21.5491 C   0  0  2  0  0  0
  -24.8482  -28.9557   20.1185 C   0  0  0  0  0  0
  -22.7404  -29.4701   22.4961 C   0  0  0  0  0  0
  -18.0253  -28.1441   22.8445 C   0  0  0  0  0  0
  -24.1501  -36.7283   23.2636 C   0  0  0  0  0  0
  -25.9481  -30.8104   21.3784 C   0  0  0  0  0  0
  -26.0151  -29.4442   20.7189 C   0  0  0  0  0  0
  -27.1991  -28.6640   20.7058 C   0  0  0  0  0  0
  -26.0259  -26.9406   19.4562 C   0  0  0  0  0  0
  -24.8488  -27.7015   19.4916 C   0  0  0  0  0  0
  -23.6205  -29.8327   20.1654 C   0  0  0  0  0  0
  -25.4113  -36.3077   24.0337 C   0  0  1  0  0  0
  -20.5829  -28.3717   23.1286 C   0  0  2  0  0  0
  -20.6694  -26.9437   22.5427 C   0  0  0  0  0  0
  -19.5717  -26.6432   21.5179 C   0  0  0  0  0  0
  -18.1885  -26.8009   22.1538 C   0  0  0  0  0  0
  -19.1486  -28.8893   23.2891 C   0  0  0  0  0  0
  -18.9383  -30.1481   23.8922 C   0  0  0  0  0  0
  -17.6371  -30.6591   24.0575 C   0  0  0  0  0  0
  -25.9051  -34.9449   23.5111 C   0  0  0  0  0  0
  -16.5285  -29.9078   23.6322 C   0  0  0  0  0  0
  -16.7232  -28.6517   23.0329 C   0  0  0  0  0  0
  -26.4470  -31.6605   25.0763 C   0  0  0  0  0  0
  -25.3721  -31.3800   26.1511 C   0  0  0  0  0  0
  -27.0335  -30.3027   24.6248 C   0  0  0  0  0  0
  -27.6026  -32.4375   25.7526 C   0  0  0  0  0  0
  -27.5583  -37.1799   24.8469 C   0  0  0  0  0  0
  -21.4125  -29.3066   22.3677 N   0  0  0  0  0  0
  -26.4296  -37.3763   23.9408 N   0  0  0  0  0  0
  -24.6766  -31.0753   22.0992 N   0  0  0  0  0  0
  -23.4152  -28.8267   23.3055 O   0  0  0  0  0  0
  -28.3696  -26.6097   20.1327 O   0  0  0  0  0  0
  -26.5581  -34.8894   22.4664 O   0  0  0  0  0  0
  -23.5354  -32.1490   23.7386 O   0  0  0  0  0  0
  -29.5683  -16.9026   20.8324 C   0  0  0  0  0  0
  -26.6940  -20.5726   20.1144 C   0  0  0  0  0  0
  -26.9954  -21.7336   21.0774 C   0  0  0  0  0  0
  -29.0709  -20.6059   21.7540 C   0  0  0  0  0  0
  -27.1906  -19.2138   20.6511 C   0  0  1  0  0  0
  -28.7127  -19.2963   20.9534 C   0  0  2  0  0  0
  -26.3322  -18.6993   21.8292 C   0  0  0  0  0  0
  -29.3472  -18.0220   23.0333 C   0  0  0  0  0  0
  -30.1298  -15.6379   21.5747 C   0  0  0  0  0  0
  -29.1494  -22.7502   20.3688 C   0  0  0  0  0  0
  -28.3192  -25.1995   19.7663 C   0  0  0  0  0  0
  -29.0929  -24.2801   20.7520 C   0  0  1  0  0  0
  -28.4330  -21.8726   21.3220 N   0  0  0  0  0  0
  -29.2376  -18.0194   21.5631 N   0  0  0  0  0  0
  -28.5832  -24.4557   22.1277 N   0  3  0  0  0  0
  -29.4114  -16.8814   19.6069 O   0  0  0  0  0  0
  -31.4685  -12.4775   19.1101 H   0  0  0  0  0  0
  -30.3493  -11.3442   19.8029 H   0  0  0  0  0  0
  -29.7407  -11.8201   17.4211 H   0  0  0  0  0  0
  -29.6492  -13.5297   17.7631 H   0  0  0  0  0  0
  -27.8324  -11.3257   18.7925 H   0  0  0  0  0  0
  -27.3609  -12.6723   17.7825 H   0  0  0  0  0  0
  -27.7057  -14.2679   19.5951 H   0  0  0  0  0  0
  -28.7065  -11.9248   21.2862 H   0  0  0  0  0  0
  -28.4188  -13.5074   21.8943 H   0  0  0  0  0  0
  -25.2732   -9.5754   22.4760 H   0  0  0  0  0  0
  -24.0009   -7.4663   22.7475 H   0  0  0  0  0  0
  -21.0804   -8.8769   19.8948 H   0  0  0  0  0  0
  -22.3623  -10.9702   19.6166 H   0  0  0  0  0  0
  -21.2000   -7.6141   23.9701 H   0  0  0  0  0  0
  -21.1490   -6.0527   25.9075 H   0  0  0  0  0  0
  -22.0584   -2.7590   23.2857 H   0  0  0  0  0  0
  -22.4067  -11.9923   22.4800 H   0  0  0  0  0  0
  -21.1079  -13.1320   22.2619 H   0  0  0  0  0  0
  -24.6709  -15.8454   20.5343 H   0  0  0  0  0  0
  -26.2890  -15.6294   20.1094 H   0  0  0  0  0  0
  -26.7166  -32.5465   23.1162 H   0  0  0  0  0  0
  -25.0186  -33.9782   25.0530 H   0  0  0  0  0  0
  -22.6994  -31.3124   21.4016 H   0  0  0  0  0  0
  -23.3747  -35.9634   23.3304 H   0  0  0  0  0  0
  -24.3604  -36.8884   22.2052 H   0  0  0  0  0  0
  -23.7263  -37.6492   23.6650 H   0  0  0  0  0  0
  -26.0917  -31.5807   20.6181 H   0  0  0  0  0  0
  -26.8215  -30.8396   22.0193 H   0  0  0  0  0  0
  -28.0948  -29.0298   21.1912 H   0  0  0  0  0  0
  -25.9561  -26.0113   18.9145 H   0  0  0  0  0  0
  -23.9501  -27.3168   19.0267 H   0  0  0  0  0  0
  -23.7466  -30.6084   19.4098 H   0  0  0  0  0  0
  -22.7422  -29.2655   19.8541 H   0  0  0  0  0  0
  -25.1284  -36.1938   25.0825 H   0  0  0  0  0  0
  -20.9944  -28.3315   24.1390 H   0  0  0  0  0  0
  -20.5491  -26.2332   23.3623 H   0  0  0  0  0  0
  -21.6573  -26.7409   22.1281 H   0  0  0  0  0  0
  -19.6858  -25.6346   21.1201 H   0  0  0  0  0  0
  -19.6682  -27.3237   20.6711 H   0  0  0  0  0  0
  -17.4181  -26.6812   21.3904 H   0  0  0  0  0  0
  -18.0218  -26.0110   22.8884 H   0  0  0  0  0  0
  -19.7834  -30.7311   24.2307 H   0  0  0  0  0  0
  -17.4887  -31.6243   24.5191 H   0  0  0  0  0  0
  -15.5273  -30.2942   23.7647 H   0  0  0  0  0  0
  -15.8636  -28.0835   22.7011 H   0  0  0  0  0  0
  -24.5850  -30.7175   25.7872 H   0  0  0  0  0  0
  -24.8964  -32.3008   26.4914 H   0  0  0  0  0  0
  -25.8043  -30.9005   27.0305 H   0  0  0  0  0  0
  -26.2946  -29.6769   24.1225 H   0  0  0  0  0  0
  -27.3969  -29.7277   25.4775 H   0  0  0  0  0  0
  -27.8831  -30.4290   23.9533 H   0  0  0  0  0  0
  -27.2603  -33.3665   26.2103 H   0  0  0  0  0  0
  -28.3822  -32.6977   25.0354 H   0  0  0  0  0  0
  -28.0725  -31.8544   26.5456 H   0  0  0  0  0  0
  -28.2587  -38.0104   24.7483 H   0  0  0  0  0  0
  -28.1086  -36.2624   24.6322 H   0  0  0  0  0  0
  -27.2315  -37.1483   25.8879 H   0  0  0  0  0  0
  -20.9308  -29.8731   21.6842 H   0  0  0  0  0  0
  -26.0170  -38.2842   24.1368 H   0  0  0  0  0  0
  -27.1445  -20.7814   19.1443 H   0  0  0  0  0  0
  -25.6201  -20.5266   19.9311 H   0  0  0  0  0  0
  -26.4860  -21.5616   22.0260 H   0  0  0  0  0  0
  -26.5800  -22.6618   20.6794 H   0  0  0  0  0  0
  -30.1537  -20.7253   21.8073 H   0  0  0  0  0  0
  -28.7363  -20.5011   22.7850 H   0  0  0  0  0  0
  -27.0539  -18.4923   19.8478 H   0  0  0  0  0  0
  -29.2089  -19.4057   19.9881 H   0  0  0  0  0  0
  -26.4747  -19.2915   22.7341 H   0  0  0  0  0  0
  -26.5784  -17.6659   22.0718 H   0  0  0  0  0  0
  -25.2709  -18.7231   21.5833 H   0  0  0  0  0  0
  -29.2521  -17.0448   23.5000 H   0  0  0  0  0  0
  -28.5414  -18.5834   23.4979 H   0  0  0  0  0  0
  -30.2967  -18.4545   23.3457 H   0  0  0  0  0  0
  -30.9690  -15.9539   22.1961 H   0  0  0  0  0  0
  -29.3745  -15.2651   22.2548 H   0  0  0  0  0  0
  -28.8053  -22.5721   19.3477 H   0  0  0  0  0  0
  -30.2035  -22.4595   20.3614 H   0  0  0  0  0  0
  -28.7324  -25.1028   18.7614 H   0  0  0  0  0  0
  -27.3193  -24.7787   19.7234 H   0  0  0  0  0  0
  -30.1224  -24.6417   20.7611 H   0  0  0  0  0  0
  -28.7985  -25.3657   22.4978 H   0  0  0  0  0  0
  -27.5884  -24.3169   22.1509 H   0  0  0  0  0  0
  -28.9932  -23.7420   22.7055 H   0  0  0  0  0  0
  1 25  1  0  0  0
  1 30  2  0  0  0
  1 79  1  0  0  0
  2  3  1  0  0  0
  2 25  1  0  0  0
  2 87  1  0  0  0
  2 88  1  0  0  0
  3  4  1  0  0  0
  3 89  1  0  0  0
  3 90  1  0  0  0
  4  5  1  0  0  0
  4 91  1  0  0  0
  4 92  1  0  0  0
  5  6  1  0  0  0
  5 26  1  0  0  0
  5 93  1  0  0  0
  6 25  1  0  0  0
  6 94  1  0  0  0
  6 95  1  0  0  0
  7  8  2  0  0  0
  7 26  1  0  0  0
  7 29  1  0  0  0
  8  9  1  0  0  0
  8 22  1  0  0  0
  9 10  1  0  0  0
  9 27  2  0  0  0
 10 11  2  0  0  0
 10 15  1  0  0  0
 11 12  1  0  0  0
 11 96  1  0  0  0
 12 13  2  0  0  0
 12 97  1  0  0  0
 13 14  1  0  0  0
 13 31  1  0  0  0
 14 15  2  0  0  0
 14 98  1  0  0  0
 15 99  1  0  0  0
 16 17  2  0  0  0
 16 21  1  0  0  0
 16 31  1  0  0  0
 17 18  1  0  0  0
 17100  1  0  0  0
 18 19  2  0  0  0
 18101  1  0  0  0
 19 20  1  0  0  0
 19 24  1  0  0  0
 20 21  2  0  0  0
 20102  1  0  0  0
 21 23  1  0  0  0
 22 28  1  0  0  0
 22 32  2  0  0  0
 26 27  1  0  0  0
 28103  1  0  0  0
 28104  1  0  0  0
 29105  1  0  0  0
 29106  1  0  0  0
 33 34  1  0  0  0
 33 66  1  0  0  0
 33 70  2  0  0  0
 34 36  1  0  0  0
 34 59  1  0  0  0
 34107  1  0  0  0
 35 44  2  0  0  0
 35 45  1  0  0  0
 35 68  1  0  0  0
 36 56  1  0  0  0
 36108  1  0  0  0
 37 39  1  0  0  0
 37 47  1  0  0  0
 37 66  1  0  0  0
 37109  1  0  0  0
 38 43  2  0  0  0
 38 46  1  0  0  0
 38 47  1  0  0  0
 39 64  1  0  0  0
 39 67  2  0  0  0
 40 52  1  0  0  0
 40 53  2  0  0  0
 40 58  1  0  0  0
 41110  1  0  0  0
 41111  1  0  0  0
 41112  1  0  0  0
 41 48  1  0  0  0
 42 43  1  0  0  0
 42 66  1  0  0  0
 42113  1  0  0  0
 42114  1  0  0  0
 43 44  1  0  0  0
 44115  1  0  0  0
 45 46  2  0  0  0
 45116  1  0  0  0
 46117  1  0  0  0
 47118  1  0  0  0
 47119  1  0  0  0
 48 56  1  0  0  0
 48 65  1  0  0  0
 48120  1  0  0  0
 49 50  1  0  0  0
 49 53  1  0  0  0
 49 64  1  0  0  0
 49121  1  0  0  0
 50 51  1  0  0  0
 50122  1  0  0  0
 50123  1  0  0  0
 51 52  1  0  0  0
 51124  1  0  0  0
 51125  1  0  0  0
 52126  1  0  0  0
 52127  1  0  0  0
 53 54  1  0  0  0
 54 55  2  0  0  0
 54128  1  0  0  0
 55 57  1  0  0  0
 55129  1  0  0  0
 56 69  2  0  0  0
 57 58  2  0  0  0
 57130  1  0  0  0
 58131  1  0  0  0
 59 60  1  0  0  0
 59 61  1  0  0  0
 59 62  1  0  0  0
 60132  1  0  0  0
 60133  1  0  0  0
 60134  1  0  0  0
 61135  1  0  0  0
 61136  1  0  0  0
 61137  1  0  0  0
 62138  1  0  0  0
 62139  1  0  0  0
 62140  1  0  0  0
 63 65  1  0  0  0
 63141  1  0  0  0
 63142  1  0  0  0
 63143  1  0  0  0
 64144  1  0  0  0
 65145  1  0  0  0
 68 81  1  0  0  0
 71 79  1  0  0  0
 71 84  1  0  0  0
 71 86  2  0  0  0
 72 73  1  0  0  0
 72 75  1  0  0  0
 72146  1  0  0  0
 72147  1  0  0  0
 73 83  1  0  0  0
 73148  1  0  0  0
 73149  1  0  0  0
 74 76  1  0  0  0
 74 83  1  0  0  0
 74150  1  0  0  0
 74151  1  0  0  0
 75 76  1  0  0  0
 75 77  1  0  0  0
 75152  1  0  0  0
 76 84  1  0  0  0
 76153  1  0  0  0
 77154  1  0  0  0
 77155  1  0  0  0
 77156  1  0  0  0
 78 84  1  0  0  0
 78157  1  0  0  0
 78158  1  0  0  0
 78159  1  0  0  0
 79160  1  0  0  0
 79161  1  0  0  0
 80 82  1  0  0  0
 80 83  1  0  0  0
 80162  1  0  0  0
 80163  1  0  0  0
 81 82  1  0  0  0
 81164  1  0  0  0
 81165  1  0  0  0
 82 85  1  0  0  0
 82166  1  0  0  0
 85167  1  0  0  0
 85168  1  0  0  0
 85169  1  0  0  0
M  CHG  1  85   1
M  ISO  4   1 100  68 101  79 100  81 101
M  END
> <chiral flag>
0

> <version>
0

> <s_m_source_file>
/data/baiqing/PycharmProjects/Reinvent-master-3.2/result/LINK_invent/BTK/process_docking_weight1_custom_product_contain_oxygen_bond_distance_aromatic_linkinvent_7_9_3/rearranged_h_0013.sdf

> <i_m_source_file_index>
47

> <r_mmod_Potential_Energy-OPLS-2005>
-87.9159317016602

> <r_mmod_Stretch_Energy-OPLS-2005>
62.717903137207

> <r_mmod_Bend_Energy-OPLS-2005>
150.115509033203

> <r_mmod_Torsional_Energy-OPLS-2005>
295.234344482422

> <r_mmod_Improper_Torsional_Energy-OPLS-2005>
1.8586767911911

> <r_mmod_Van_der_Waal_Energy-OPLS-2005>
157.265151977539

> <r_mmod_Electrostatic_Energy-OPLS-2005>
-334.732696533203

> <r_mmod_Solvation_Energy-OPLS-2005>
-441.663024902344

> <b_mmod_Minimization_Converged-OPLS-2005>
0

> <r_mmod_RMS_Derivative-OPLS-2005>
4.84824514389038

$$$$
48
                    3D
 Structure written by MMmdl.
156165  0  0  1  0            999 V2000
  -30.6145  -14.6422   20.5144 C   0  0  0  0  0  0
  -30.4427  -12.3981   19.4506 C   0  0  0  0  0  0
  -29.5099  -12.5195   18.2242 C   0  0  0  0  0  0
  -28.0314  -12.3560   18.6329 C   0  0  0  0  0  0
  -27.6545  -13.2174   19.8691 C   0  0  2  0  0  0
  -28.6996  -13.0599   20.9970 C   0  0  0  0  0  0
  -25.2541  -13.8156   20.5684 C   0  0  0  0  0  0
  -24.1799  -13.0417   20.9143 C   0  0  0  0  0  0
  -24.6377  -11.6895   20.8713 C   0  0  0  0  0  0
  -23.9047  -10.4279   21.0388 C   0  0  0  0  0  0
  -24.3596   -9.4195   21.9172 C   0  0  0  0  0  0
  -23.6282   -8.2225   22.0748 C   0  0  0  0  0  0
  -22.4267   -8.0254   21.3533 C   0  0  0  0  0  0
  -21.9889   -9.0227   20.4639 C   0  0  0  0  0  0
  -22.7211  -10.2116   20.3046 C   0  0  0  0  0  0
  -21.6846   -6.0717   22.5277 C   0  0  0  0  0  0
  -21.4010   -6.5624   23.8206 C   0  0  0  0  0  0
  -21.3668   -5.6778   24.9168 C   0  0  0  0  0  0
  -21.6043   -4.3037   24.7222 C   0  0  0  0  0  0
  -21.8819   -3.8131   23.4343 C   0  0  0  0  0  0
  -21.9195   -4.6948   22.3401 C   0  0  0  0  0  0
  -22.7823  -13.5216   21.1839 C   0  0  0  0  0  0
  -22.1659   -4.2131   21.0977 F   0  0  0  0  0  0
  -21.5639   -3.4522   25.7734 F   0  0  0  0  0  0
  -30.0169  -13.4097   20.4383 N   0  0  0  0  0  0
  -26.2989  -12.9350   20.3359 N   0  0  0  0  0  0
  -25.9307  -11.6497   20.5753 N   0  0  0  0  0  0
  -22.0475  -12.8210   22.0405 N   0  0  0  0  0  0
  -25.4213  -15.1882   20.4189 N   0  0  0  0  0  0
  -31.7728  -14.8195   20.1229 O   0  0  0  0  0  0
  -21.6626   -6.8855   21.4235 O   0  0  0  0  0  0
  -22.3498  -14.5533   20.6717 O   0  0  0  0  0  0
  -24.6262  -31.8608   23.2045 C   0  0  0  0  0  0
  -25.9126  -32.4770   23.8364 C   0  0  1  0  0  0
  -27.2253  -27.3227   20.1246 C   0  0  0  0  0  0
  -25.5950  -33.8572   24.2303 N   0  0  0  0  0  0
  -23.4180  -30.4863   21.5458 C   0  0  2  0  0  0
  -24.8677  -28.9382   20.1117 C   0  0  0  0  0  0
  -22.7466  -29.4652   22.4949 C   0  0  0  0  0  0
  -18.0275  -28.1376   22.8489 C   0  0  0  0  0  0
  -24.1495  -36.7292   23.2626 C   0  0  0  0  0  0
  -25.9595  -30.7910   21.3762 C   0  0  0  0  0  0
  -26.0349  -29.4174   20.7205 C   0  0  0  0  0  0
  -27.2186  -28.6216   20.7174 C   0  0  0  0  0  0
  -26.0418  -26.8995   19.4796 C   0  0  0  0  0  0
  -24.8725  -27.6838   19.4814 C   0  0  0  0  0  0
  -23.6343  -29.8182   20.1619 C   0  0  0  0  0  0
  -25.4111  -36.3076   24.0331 C   0  0  1  0  0  0
  -20.5878  -28.3698   23.1274 C   0  0  2  0  0  0
  -20.6775  -26.9429   22.5398 C   0  0  0  0  0  0
  -19.5757  -26.6386   21.5202 C   0  0  0  0  0  0
  -18.1933  -26.7914   22.1613 C   0  0  0  0  0  0
  -19.1528  -28.8847   23.2875 C   0  0  0  0  0  0
  -18.9453  -30.1447   23.8898 C   0  0  0  0  0  0
  -17.6458  -30.6587   24.0552 C   0  0  0  0  0  0
  -25.9055  -34.9445   23.5117 C   0  0  0  0  0  0
  -16.5348  -29.9093   23.6318 C   0  0  0  0  0  0
  -16.7262  -28.6495   23.0365 C   0  0  0  0  0  0
  -26.4513  -31.6563   25.0723 C   0  0  0  0  0  0
  -25.3744  -31.3688   26.1450 C   0  0  0  0  0  0
  -27.0339  -30.2976   24.6180 C   0  0  0  0  0  0
  -27.6095  -32.4279   25.7474 C   0  0  0  0  0  0
  -27.5589  -37.1793   24.8458 C   0  0  0  0  0  0
  -21.4176  -29.3056   22.3677 N   0  0  0  0  0  0
  -26.4289  -37.3779   23.9413 N   0  0  0  0  0  0
  -24.6861  -31.0633   22.0984 N   0  0  0  0  0  0
  -23.4194  -28.8193   23.3024 O   0  0  0  0  0  0
  -28.3348  -26.4661   20.1501 O   0  0  0  0  0  0
  -26.5623  -34.8920   22.4682 O   0  0  0  0  0  0
  -23.5438  -32.1423   23.7386 O   0  0  0  0  0  0
  -30.9351  -19.3258   20.3717 C   0  0  0  0  0  0
  -31.0068  -17.9023   20.4852 C   0  0  0  0  0  0
  -28.5682  -19.2664   20.7692 C   0  0  0  0  0  0
  -29.7161  -20.0577   20.5019 C   0  0  0  0  0  0
  -29.8493  -17.1232   20.7408 C   0  0  0  0  0  0
  -28.6362  -17.8459   20.8862 C   0  0  0  0  0  0
  -30.4225  -23.7826   20.4848 C   0  0  0  0  0  0
  -30.8615  -22.3203   20.2354 C   0  0  0  0  0  0
  -28.4811  -22.3910   20.4349 C   0  0  0  0  0  0
  -28.9491  -23.8541   20.0530 C   0  0  1  0  0  0
  -28.1086  -25.0800   20.6317 C   0  0  0  0  0  0
  -29.6646  -21.4954   20.3754 N   0  0  0  0  0  0
  -29.7959  -15.6687   20.8957 N   0  0  0  0  0  0
  -27.5005  -17.1507   21.1391 F   0  0  0  0  0  0
  -31.4833  -12.5315   19.1494 H   0  0  0  0  0  0
  -30.3818  -11.3989   19.8822 H   0  0  0  0  0  0
  -29.7757  -11.7742   17.4729 H   0  0  0  0  0  0
  -29.6520  -13.4935   17.7514 H   0  0  0  0  0  0
  -27.8634  -11.3018   18.8555 H   0  0  0  0  0  0
  -27.3792  -12.5976   17.7922 H   0  0  0  0  0  0
  -27.6728  -14.2557   19.5385 H   0  0  0  0  0  0
  -28.7111  -12.0341   21.3713 H   0  0  0  0  0  0
  -28.4422  -13.6812   21.8562 H   0  0  0  0  0  0
  -25.2734   -9.5675   22.4745 H   0  0  0  0  0  0
  -23.9984   -7.4618   22.7467 H   0  0  0  0  0  0
  -21.0809   -8.8737   19.8956 H   0  0  0  0  0  0
  -22.3648  -10.9643   19.6154 H   0  0  0  0  0  0
  -21.1992   -7.6138   23.9692 H   0  0  0  0  0  0
  -21.1506   -6.0516   25.9069 H   0  0  0  0  0  0
  -22.0603   -2.7595   23.2836 H   0  0  0  0  0  0
  -22.4087  -11.9865   22.4781 H   0  0  0  0  0  0
  -21.1116  -13.1262   22.2658 H   0  0  0  0  0  0
  -24.6610  -15.8411   20.5723 H   0  0  0  0  0  0
  -26.3033  -15.6565   20.2483 H   0  0  0  0  0  0
  -26.7184  -32.5463   23.1110 H   0  0  0  0  0  0
  -25.0106  -33.9712   25.0459 H   0  0  0  0  0  0
  -22.7086  -31.3059   21.4028 H   0  0  0  0  0  0
  -23.3769  -35.9613   23.3266 H   0  0  0  0  0  0
  -24.3591  -36.8933   22.2044 H   0  0  0  0  0  0
  -23.7249  -37.6489   23.6667 H   0  0  0  0  0  0
  -26.0905  -31.5524   20.6066 H   0  0  0  0  0  0
  -26.8394  -30.8414   22.0058 H   0  0  0  0  0  0
  -28.1120  -28.9842   21.2062 H   0  0  0  0  0  0
  -26.0121  -25.9447   18.9745 H   0  0  0  0  0  0
  -23.9798  -27.3169   18.9936 H   0  0  0  0  0  0
  -23.7490  -30.5941   19.4041 H   0  0  0  0  0  0
  -22.7547  -29.2443   19.8633 H   0  0  0  0  0  0
  -25.1291  -36.1906   25.0822 H   0  0  0  0  0  0
  -20.9962  -28.3274   24.1400 H   0  0  0  0  0  0
  -20.5669  -26.2323   23.3601 H   0  0  0  0  0  0
  -21.6648  -26.7469   22.1196 H   0  0  0  0  0  0
  -19.6930  -25.6290   21.1249 H   0  0  0  0  0  0
  -19.6700  -27.3183   20.6719 H   0  0  0  0  0  0
  -17.4213  -26.6652   21.4004 H   0  0  0  0  0  0
  -18.0365  -26.0048   22.9003 H   0  0  0  0  0  0
  -19.7928  -30.7255   24.2285 H   0  0  0  0  0  0
  -17.5017  -31.6268   24.5156 H   0  0  0  0  0  0
  -15.5348  -30.2999   23.7642 H   0  0  0  0  0  0
  -15.8656  -28.0807   22.7105 H   0  0  0  0  0  0
  -24.5941  -30.7018   25.7773 H   0  0  0  0  0  0
  -24.8912  -32.2838   26.4872 H   0  0  0  0  0  0
  -25.8073  -30.8865   27.0225 H   0  0  0  0  0  0
  -26.2900  -29.6724   24.1236 H   0  0  0  0  0  0
  -27.4045  -29.7239   25.4685 H   0  0  0  0  0  0
  -27.8775  -30.4220   23.9391 H   0  0  0  0  0  0
  -27.2736  -33.3586   26.2056 H   0  0  0  0  0  0
  -28.3899  -32.6816   25.0286 H   0  0  0  0  0  0
  -28.0779  -31.8391   26.5375 H   0  0  0  0  0  0
  -28.2577  -38.0125   24.7562 H   0  0  0  0  0  0
  -28.1117  -36.2660   24.6199 H   0  0  0  0  0  0
  -27.2327  -37.1336   25.8867 H   0  0  0  0  0  0
  -20.9373  -29.8738   21.6840 H   0  0  0  0  0  0
  -26.0169  -38.2853   24.1426 H   0  0  0  0  0  0
  -31.8576  -19.8531   20.1778 H   0  0  0  0  0  0
  -31.9683  -17.4221   20.3813 H   0  0  0  0  0  0
  -27.6058  -19.7406   20.8927 H   0  0  0  0  0  0
  -31.0522  -24.5008   19.9581 H   0  0  0  0  0  0
  -30.5041  -24.0029   21.5501 H   0  0  0  0  0  0
  -31.6455  -22.0240   20.9353 H   0  0  0  0  0  0
  -31.2552  -22.2064   19.2236 H   0  0  0  0  0  0
  -27.6937  -22.0467   19.7631 H   0  0  0  0  0  0
  -28.0718  -22.3765   21.4460 H   0  0  0  0  0  0
  -28.9222  -23.9209   18.9640 H   0  0  0  0  0  0
  -28.2633  -25.1044   21.7112 H   0  0  0  0  0  0
  -27.0600  -24.8029   20.5273 H   0  0  0  0  0  0
  -28.8884  -15.3433   21.1943 H   0  0  0  0  0  0
  1 25  1  0  0  0
  1 30  2  0  0  0
  1 83  1  0  0  0
  2  3  1  0  0  0
  2 25  1  0  0  0
  2 85  1  0  0  0
  2 86  1  0  0  0
  3  4  1  0  0  0
  3 87  1  0  0  0
  3 88  1  0  0  0
  4  5  1  0  0  0
  4 89  1  0  0  0
  4 90  1  0  0  0
  5  6  1  0  0  0
  5 26  1  0  0  0
  5 91  1  0  0  0
  6 25  1  0  0  0
  6 92  1  0  0  0
  6 93  1  0  0  0
  7  8  2  0  0  0
  7 26  1  0  0  0
  7 29  1  0  0  0
  8  9  1  0  0  0
  8 22  1  0  0  0
  9 10  1  0  0  0
  9 27  2  0  0  0
 10 11  2  0  0  0
 10 15  1  0  0  0
 11 12  1  0  0  0
 11 94  1  0  0  0
 12 13  2  0  0  0
 12 95  1  0  0  0
 13 14  1  0  0  0
 13 31  1  0  0  0
 14 15  2  0  0  0
 14 96  1  0  0  0
 15 97  1  0  0  0
 16 17  2  0  0  0
 16 21  1  0  0  0
 16 31  1  0  0  0
 17 18  1  0  0  0
 17 98  1  0  0  0
 18 19  2  0  0  0
 18 99  1  0  0  0
 19 20  1  0  0  0
 19 24  1  0  0  0
 20 21  2  0  0  0
 20100  1  0  0  0
 21 23  1  0  0  0
 22 28  1  0  0  0
 22 32  2  0  0  0
 26 27  1  0  0  0
 28101  1  0  0  0
 28102  1  0  0  0
 29103  1  0  0  0
 29104  1  0  0  0
 33 34  1  0  0  0
 33 66  1  0  0  0
 33 70  2  0  0  0
 34 36  1  0  0  0
 34 59  1  0  0  0
 34105  1  0  0  0
 35 44  2  0  0  0
 35 45  1  0  0  0
 35 68  1  0  0  0
 36 56  1  0  0  0
 36106  1  0  0  0
 37 39  1  0  0  0
 37 47  1  0  0  0
 37 66  1  0  0  0
 37107  1  0  0  0
 38 43  2  0  0  0
 38 46  1  0  0  0
 38 47  1  0  0  0
 39 64  1  0  0  0
 39 67  2  0  0  0
 40 52  1  0  0  0
 40 53  2  0  0  0
 40 58  1  0  0  0
 41108  1  0  0  0
 41109  1  0  0  0
 41110  1  0  0  0
 41 48  1  0  0  0
 42 43  1  0  0  0
 42 66  1  0  0  0
 42111  1  0  0  0
 42112  1  0  0  0
 43 44  1  0  0  0
 44113  1  0  0  0
 45 46  2  0  0  0
 45114  1  0  0  0
 46115  1  0  0  0
 47116  1  0  0  0
 47117  1  0  0  0
 48 56  1  0  0  0
 48 65  1  0  0  0
 48118  1  0  0  0
 49 50  1  0  0  0
 49 53  1  0  0  0
 49 64  1  0  0  0
 49119  1  0  0  0
 50 51  1  0  0  0
 50120  1  0  0  0
 50121  1  0  0  0
 51 52  1  0  0  0
 51122  1  0  0  0
 51123  1  0  0  0
 52124  1  0  0  0
 52125  1  0  0  0
 53 54  1  0  0  0
 54 55  2  0  0  0
 54126  1  0  0  0
 55 57  1  0  0  0
 55127  1  0  0  0
 56 69  2  0  0  0
 57 58  2  0  0  0
 57128  1  0  0  0
 58129  1  0  0  0
 59 60  1  0  0  0
 59 61  1  0  0  0
 59 62  1  0  0  0
 60130  1  0  0  0
 60131  1  0  0  0
 60132  1  0  0  0
 61133  1  0  0  0
 61134  1  0  0  0
 61135  1  0  0  0
 62136  1  0  0  0
 62137  1  0  0  0
 62138  1  0  0  0
 63 65  1  0  0  0
 63139  1  0  0  0
 63140  1  0  0  0
 63141  1  0  0  0
 64142  1  0  0  0
 65143  1  0  0  0
 68 81  1  0  0  0
 71 72  2  0  0  0
 71 74  1  0  0  0
 71144  1  0  0  0
 72 75  1  0  0  0
 72145  1  0  0  0
 73 74  2  0  0  0
 73 76  1  0  0  0
 73146  1  0  0  0
 74 82  1  0  0  0
 75 76  2  0  0  0
 75 83  1  0  0  0
 76 84  1  0  0  0
 77 78  1  0  0  0
 77 80  1  0  0  0
 77147  1  0  0  0
 77148  1  0  0  0
 78 82  1  0  0  0
 78149  1  0  0  0
 78150  1  0  0  0
 79 80  1  0  0  0
 79 82  1  0  0  0
 79151  1  0  0  0
 79152  1  0  0  0
 80 81  1  0  0  0
 80153  1  0  0  0
 81154  1  0  0  0
 81155  1  0  0  0
 83156  1  0  0  0
M  ISO  4   1 100  68 101  81 101  83 100
M  END
> <chiral flag>
0

> <version>
0

> <s_m_source_file>
/data/baiqing/PycharmProjects/Reinvent-master-3.2/result/LINK_invent/BTK/process_docking_weight1_custom_product_contain_oxygen_bond_distance_aromatic_linkinvent_7_9_3/rearranged_h_0013.sdf

> <i_m_source_file_index>
48

> <r_mmod_Potential_Energy-OPLS-2005>
93.4092483520508

> <r_mmod_Stretch_Energy-OPLS-2005>
75.6345062255859

> <r_mmod_Bend_Energy-OPLS-2005>
182.932876586914

> <r_mmod_Torsional_Energy-OPLS-2005>
273.003479003906

> <r_mmod_Improper_Torsional_Energy-OPLS-2005>
4.03490972518921

> <r_mmod_Van_der_Waal_Energy-OPLS-2005>
140.680252075195

> <r_mmod_Electrostatic_Energy-OPLS-2005>
-414.97412109375

> <r_mmod_Solvation_Energy-OPLS-2005>
-215.9443359375

> <b_mmod_Minimization_Converged-OPLS-2005>
0

> <r_mmod_RMS_Derivative-OPLS-2005>
2.11652636528015

$$$$
49
                    3D
 Structure written by MMmdl.
153161  0  0  1  0            999 V2000
  -30.5770  -14.6725   20.4904 C   0  0  0  0  0  0
  -30.4513  -12.4109   19.4460 C   0  0  0  0  0  0
  -29.5111  -12.5082   18.2218 C   0  0  0  0  0  0
  -28.0331  -12.3427   18.6331 C   0  0  0  0  0  0
  -27.6543  -13.2087   19.8629 C   0  0  2  0  0  0
  -28.7018  -13.0503   20.9891 C   0  0  0  0  0  0
  -25.2563  -13.8138   20.5656 C   0  0  0  0  0  0
  -24.1833  -13.0425   20.9212 C   0  0  0  0  0  0
  -24.6390  -11.6893   20.8755 C   0  0  0  0  0  0
  -23.9055  -10.4285   21.0419 C   0  0  0  0  0  0
  -24.3609   -9.4201   21.9193 C   0  0  0  0  0  0
  -23.6289   -8.2232   22.0753 C   0  0  0  0  0  0
  -22.4268   -8.0274   21.3546 C   0  0  0  0  0  0
  -21.9909   -9.0246   20.4644 C   0  0  0  0  0  0
  -22.7231  -10.2129   20.3062 C   0  0  0  0  0  0
  -21.6849   -6.0736   22.5281 C   0  0  0  0  0  0
  -21.4005   -6.5638   23.8214 C   0  0  0  0  0  0
  -21.3661   -5.6793   24.9176 C   0  0  0  0  0  0
  -21.6049   -4.3055   24.7226 C   0  0  0  0  0  0
  -21.8819   -3.8148   23.4346 C   0  0  0  0  0  0
  -21.9188   -4.6965   22.3403 C   0  0  0  0  0  0
  -22.7855  -13.5229   21.1870 C   0  0  0  0  0  0
  -22.1658   -4.2152   21.0983 F   0  0  0  0  0  0
  -21.5636   -3.4540   25.7739 F   0  0  0  0  0  0
  -30.0133  -13.4213   20.4294 N   0  0  0  0  0  0
  -26.2989  -12.9307   20.3298 N   0  0  0  0  0  0
  -25.9316  -11.6473   20.5761 N   0  0  0  0  0  0
  -22.0490  -12.8221   22.0420 N   0  0  0  0  0  0
  -25.4254  -15.1846   20.3952 N   0  0  0  0  0  0
  -31.7356  -14.8765   20.1136 O   0  0  0  0  0  0
  -21.6634   -6.8874   21.4241 O   0  0  0  0  0  0
  -22.3553  -14.5545   20.6725 O   0  0  0  0  0  0
  -24.6242  -31.8581   23.2006 C   0  0  0  0  0  0
  -25.9092  -32.4770   23.8324 C   0  0  1  0  0  0
  -27.2353  -27.3171   20.1323 C   0  0  0  0  0  0
  -25.5919  -33.8570   24.2267 N   0  0  0  0  0  0
  -23.4180  -30.4783   21.5426 C   0  0  2  0  0  0
  -24.8675  -28.9199   20.1207 C   0  0  0  0  0  0
  -22.7468  -29.4607   22.4944 C   0  0  0  0  0  0
  -18.0286  -28.1387   22.8478 C   0  0  0  0  0  0
  -24.1489  -36.7273   23.2644 C   0  0  0  0  0  0
  -25.9574  -30.7895   21.3696 C   0  0  0  0  0  0
  -26.0339  -29.4124   20.7186 C   0  0  0  0  0  0
  -27.2204  -28.6243   20.7086 C   0  0  0  0  0  0
  -26.0471  -26.8622   19.5262 C   0  0  0  0  0  0
  -24.8748  -27.6490   19.5176 C   0  0  0  0  0  0
  -23.6358  -29.8027   20.1618 C   0  0  0  0  0  0
  -25.4111  -36.3068   24.0337 C   0  0  1  0  0  0
  -20.5881  -28.3677   23.1298 C   0  0  2  0  0  0
  -20.6777  -26.9401   22.5421 C   0  0  0  0  0  0
  -19.5758  -26.6377   21.5221 C   0  0  0  0  0  0
  -18.1929  -26.7928   22.1619 C   0  0  0  0  0  0
  -19.1534  -28.8846   23.2878 C   0  0  0  0  0  0
  -18.9464  -30.1450   23.8886 C   0  0  0  0  0  0
  -17.6468  -30.6586   24.0557 C   0  0  0  0  0  0
  -25.9047  -34.9445   23.5100 C   0  0  0  0  0  0
  -16.5356  -29.9082   23.6343 C   0  0  0  0  0  0
  -16.7271  -28.6513   23.0338 C   0  0  0  0  0  0
  -26.4496  -31.6579   25.0692 C   0  0  0  0  0  0
  -25.3740  -31.3719   26.1432 C   0  0  0  0  0  0
  -27.0334  -30.3004   24.6123 C   0  0  0  0  0  0
  -27.6044  -32.4321   25.7465 C   0  0  0  0  0  0
  -27.5574  -37.1790   24.8473 C   0  0  0  0  0  0
  -21.4185  -29.3026   22.3690 N   0  0  0  0  0  0
  -26.4286  -37.3765   23.9417 N   0  0  0  0  0  0
  -24.6856  -31.0590   22.0950 N   0  0  0  0  0  0
  -23.4198  -28.8156   23.3030 O   0  0  0  0  0  0
  -28.3897  -26.5274   20.0881 O   0  0  0  0  0  0
  -26.5611  -34.8921   22.4664 O   0  0  0  0  0  0
  -23.5409  -32.1382   23.7341 O   0  0  0  0  0  0
  -28.0843  -19.1029   20.7846 C   0  0  0  0  0  0
  -30.4328  -19.4867   20.4955 C   0  0  0  0  0  0
  -28.3189  -17.7007   20.8122 C   0  0  0  0  0  0
  -30.6689  -18.0648   20.5003 C   0  0  0  0  0  0
  -29.1298  -20.0528   20.6588 C   0  0  0  0  0  0
  -29.6109  -17.1280   20.6915 C   0  0  0  0  0  0
  -28.8026  -21.5923   20.8911 C   0  0  0  0  0  0
  -28.2631  -23.8881   19.6650 C   0  0  0  0  0  0
  -28.4108  -25.1466   20.6335 C   0  0  0  0  0  0
  -29.7000  -15.6689   20.8443 N   0  0  0  0  0  0
  -29.1370  -22.6385   19.8529 N   0  3  0  0  0  0
  -31.4877  -12.5627   19.1392 H   0  0  0  0  0  0
  -30.4120  -11.4125   19.8842 H   0  0  0  0  0  0
  -29.7765  -11.7507   17.4829 H   0  0  0  0  0  0
  -29.6473  -13.4736   17.7317 H   0  0  0  0  0  0
  -27.8690  -11.2888   18.8602 H   0  0  0  0  0  0
  -27.3786  -12.5759   17.7921 H   0  0  0  0  0  0
  -27.6729  -14.2451   19.5254 H   0  0  0  0  0  0
  -28.7240  -12.0195   21.3463 H   0  0  0  0  0  0
  -28.4409  -13.6543   21.8597 H   0  0  0  0  0  0
  -25.2752   -9.5682   22.4767 H   0  0  0  0  0  0
  -24.0001   -7.4627   22.7468 H   0  0  0  0  0  0
  -21.0844   -8.8765   19.8941 H   0  0  0  0  0  0
  -22.3693  -10.9672   19.6174 H   0  0  0  0  0  0
  -21.1988   -7.6144   23.9720 H   0  0  0  0  0  0
  -21.1487   -6.0520   25.9083 H   0  0  0  0  0  0
  -22.0595   -2.7609   23.2846 H   0  0  0  0  0  0
  -22.4087  -11.9862   22.4797 H   0  0  0  0  0  0
  -21.1110  -13.1256   22.2627 H   0  0  0  0  0  0
  -24.6433  -15.8260   20.4683 H   0  0  0  0  0  0
  -26.2318  -15.5958   19.9446 H   0  0  0  0  0  0
  -26.7147  -32.5448   23.1060 H   0  0  0  0  0  0
  -25.0105  -33.9708   25.0434 H   0  0  0  0  0  0
  -22.7111  -31.2973   21.3937 H   0  0  0  0  0  0
  -23.3762  -35.9598   23.3312 H   0  0  0  0  0  0
  -24.3582  -36.8879   22.2059 H   0  0  0  0  0  0
  -23.7244  -37.6476   23.6661 H   0  0  0  0  0  0
  -26.0847  -31.5498   20.5975 H   0  0  0  0  0  0
  -26.8390  -30.8431   21.9958 H   0  0  0  0  0  0
  -28.1236  -29.0078   21.1621 H   0  0  0  0  0  0
  -26.0259  -25.8942   19.0471 H   0  0  0  0  0  0
  -23.9799  -27.2641   19.0491 H   0  0  0  0  0  0
  -23.7586  -30.5754   19.4020 H   0  0  0  0  0  0
  -22.7559  -29.2328   19.8589 H   0  0  0  0  0  0
  -25.1296  -36.1913   25.0833 H   0  0  0  0  0  0
  -20.9956  -28.3246   24.1425 H   0  0  0  0  0  0
  -20.5694  -26.2276   23.3606 H   0  0  0  0  0  0
  -21.6644  -26.7443   22.1200 H   0  0  0  0  0  0
  -19.6924  -25.6294   21.1238 H   0  0  0  0  0  0
  -19.6709  -27.3196   20.6758 H   0  0  0  0  0  0
  -17.4206  -26.6674   21.4016 H   0  0  0  0  0  0
  -18.0314  -26.0076   22.9015 H   0  0  0  0  0  0
  -19.7945  -30.7259   24.2247 H   0  0  0  0  0  0
  -17.5032  -31.6274   24.5145 H   0  0  0  0  0  0
  -15.5361  -30.2975   23.7689 H   0  0  0  0  0  0
  -15.8670  -28.0837   22.7043 H   0  0  0  0  0  0
  -24.5908  -30.7073   25.7769 H   0  0  0  0  0  0
  -24.8948  -32.2889   26.4860 H   0  0  0  0  0  0
  -25.8075  -30.8896   27.0200 H   0  0  0  0  0  0
  -26.2885  -29.6750   24.1184 H   0  0  0  0  0  0
  -27.4093  -29.7261   25.4602 H   0  0  0  0  0  0
  -27.8733  -30.4302   23.9292 H   0  0  0  0  0  0
  -27.2645  -33.3626   26.2018 H   0  0  0  0  0  0
  -28.3868  -32.6868   25.0305 H   0  0  0  0  0  0
  -28.0697  -31.8468   26.5403 H   0  0  0  0  0  0
  -28.2589  -38.0084   24.7501 H   0  0  0  0  0  0
  -28.1070  -36.2613   24.6319 H   0  0  0  0  0  0
  -27.2293  -37.1458   25.8876 H   0  0  0  0  0  0
  -20.9357  -29.8720   21.6881 H   0  0  0  0  0  0
  -26.0168  -38.2841   24.1418 H   0  0  0  0  0  0
  -27.0694  -19.4472   20.9290 H   0  0  0  0  0  0
  -31.2852  -20.1463   20.4074 H   0  0  0  0  0  0
  -27.4664  -17.0557   20.9654 H   0  0  0  0  0  0
  -31.6835  -17.7046   20.3999 H   0  0  0  0  0  0
  -29.2703  -21.8923   21.8299 H   0  0  0  0  0  0
  -27.7307  -21.6654   21.0755 H   0  0  0  0  0  0
  -28.5007  -24.2511   18.6650 H   0  0  0  0  0  0
  -27.2150  -23.5904   19.6133 H   0  0  0  0  0  0
  -29.3783  -25.0637   21.1280 H   0  0  0  0  0  0
  -27.6831  -25.0662   21.4427 H   0  0  0  0  0  0
  -28.8315  -15.2577   21.1476 H   0  0  0  0  0  0
  -29.0980  -22.1450   18.9757 H   0  0  0  0  0  0
  -30.1001  -22.9112   19.9729 H   0  0  0  0  0  0
  1 25  1  0  0  0
  1 30  2  0  0  0
  1 80  1  0  0  0
  2  3  1  0  0  0
  2 25  1  0  0  0
  2 82  1  0  0  0
  2 83  1  0  0  0
  3  4  1  0  0  0
  3 84  1  0  0  0
  3 85  1  0  0  0
  4  5  1  0  0  0
  4 86  1  0  0  0
  4 87  1  0  0  0
  5  6  1  0  0  0
  5 26  1  0  0  0
  5 88  1  0  0  0
  6 25  1  0  0  0
  6 89  1  0  0  0
  6 90  1  0  0  0
  7  8  2  0  0  0
  7 26  1  0  0  0
  7 29  1  0  0  0
  8  9  1  0  0  0
  8 22  1  0  0  0
  9 10  1  0  0  0
  9 27  2  0  0  0
 10 11  2  0  0  0
 10 15  1  0  0  0
 11 12  1  0  0  0
 11 91  1  0  0  0
 12 13  2  0  0  0
 12 92  1  0  0  0
 13 14  1  0  0  0
 13 31  1  0  0  0
 14 15  2  0  0  0
 14 93  1  0  0  0
 15 94  1  0  0  0
 16 17  2  0  0  0
 16 21  1  0  0  0
 16 31  1  0  0  0
 17 18  1  0  0  0
 17 95  1  0  0  0
 18 19  2  0  0  0
 18 96  1  0  0  0
 19 20  1  0  0  0
 19 24  1  0  0  0
 20 21  2  0  0  0
 20 97  1  0  0  0
 21 23  1  0  0  0
 22 28  1  0  0  0
 22 32  2  0  0  0
 26 27  1  0  0  0
 28 98  1  0  0  0
 28 99  1  0  0  0
 29100  1  0  0  0
 29101  1  0  0  0
 33 34  1  0  0  0
 33 66  1  0  0  0
 33 70  2  0  0  0
 34 36  1  0  0  0
 34 59  1  0  0  0
 34102  1  0  0  0
 35 44  2  0  0  0
 35 45  1  0  0  0
 35 68  1  0  0  0
 36 56  1  0  0  0
 36103  1  0  0  0
 37 39  1  0  0  0
 37 47  1  0  0  0
 37 66  1  0  0  0
 37104  1  0  0  0
 38 43  2  0  0  0
 38 46  1  0  0  0
 38 47  1  0  0  0
 39 64  1  0  0  0
 39 67  2  0  0  0
 40 52  1  0  0  0
 40 53  2  0  0  0
 40 58  1  0  0  0
 41105  1  0  0  0
 41106  1  0  0  0
 41107  1  0  0  0
 41 48  1  0  0  0
 42 43  1  0  0  0
 42 66  1  0  0  0
 42108  1  0  0  0
 42109  1  0  0  0
 43 44  1  0  0  0
 44110  1  0  0  0
 45 46  2  0  0  0
 45111  1  0  0  0
 46112  1  0  0  0
 47113  1  0  0  0
 47114  1  0  0  0
 48 56  1  0  0  0
 48 65  1  0  0  0
 48115  1  0  0  0
 49 50  1  0  0  0
 49 53  1  0  0  0
 49 64  1  0  0  0
 49116  1  0  0  0
 50 51  1  0  0  0
 50117  1  0  0  0
 50118  1  0  0  0
 51 52  1  0  0  0
 51119  1  0  0  0
 51120  1  0  0  0
 52121  1  0  0  0
 52122  1  0  0  0
 53 54  1  0  0  0
 54 55  2  0  0  0
 54123  1  0  0  0
 55 57  1  0  0  0
 55124  1  0  0  0
 56 69  2  0  0  0
 57 58  2  0  0  0
 57125  1  0  0  0
 58126  1  0  0  0
 59 60  1  0  0  0
 59 61  1  0  0  0
 59 62  1  0  0  0
 60127  1  0  0  0
 60128  1  0  0  0
 60129  1  0  0  0
 61130  1  0  0  0
 61131  1  0  0  0
 61132  1  0  0  0
 62133  1  0  0  0
 62134  1  0  0  0
 62135  1  0  0  0
 63 65  1  0  0  0
 63136  1  0  0  0
 63137  1  0  0  0
 63138  1  0  0  0
 64139  1  0  0  0
 65140  1  0  0  0
 68 79  1  0  0  0
 71 73  2  0  0  0
 71 75  1  0  0  0
 71141  1  0  0  0
 72 74  1  0  0  0
 72 75  2  0  0  0
 72142  1  0  0  0
 73 76  1  0  0  0
 73143  1  0  0  0
 74 76  2  0  0  0
 74144  1  0  0  0
 75 77  1  0  0  0
 76 80  1  0  0  0
 77 81  1  0  0  0
 77145  1  0  0  0
 77146  1  0  0  0
 78 79  1  0  0  0
 78 81  1  0  0  0
 78147  1  0  0  0
 78148  1  0  0  0
 79149  1  0  0  0
 79150  1  0  0  0
 80151  1  0  0  0
 81152  1  0  0  0
 81153  1  0  0  0
M  CHG  1  81   1
M  ISO  4   1 100  68 101  79 101  80 100
M  END
> <chiral flag>
0

> <version>
0

> <s_m_source_file>
/data/baiqing/PycharmProjects/Reinvent-master-3.2/result/LINK_invent/BTK/process_docking_weight1_custom_product_contain_oxygen_bond_distance_aromatic_linkinvent_7_9_3/rearranged_h_0013.sdf

> <i_m_source_file_index>
49

> <r_mmod_Potential_Energy-OPLS-2005>
-54.9934043884277

> <r_mmod_Stretch_Energy-OPLS-2005>
85.6707229614258

> <r_mmod_Bend_Energy-OPLS-2005>
175.563705444336

> <r_mmod_Torsional_Energy-OPLS-2005>
239.738403320312

> <r_mmod_Improper_Torsional_Energy-OPLS-2005>
5.90545845031738

> <r_mmod_Van_der_Waal_Energy-OPLS-2005>
131.060195922852

> <r_mmod_Electrostatic_Energy-OPLS-2005>
-278.882781982422

> <r_mmod_Solvation_Energy-OPLS-2005>
-465.260192871094

> <b_mmod_Minimization_Converged-OPLS-2005>
0

> <r_mmod_RMS_Derivative-OPLS-2005>
1.49292147159576

$$$$
50
                    3D
 Structure written by MMmdl.
156165  0  0  1  0            999 V2000
  -30.5503  -14.7830   20.4544 C   0  0  0  0  0  0
  -30.4509  -12.4779   19.4684 C   0  0  0  0  0  0
  -29.5171  -12.5169   18.2357 C   0  0  0  0  0  0
  -28.0428  -12.3289   18.6495 C   0  0  0  0  0  0
  -27.6446  -13.2227   19.8530 C   0  0  2  0  0  0
  -28.6916  -13.1389   20.9859 C   0  0  0  0  0  0
  -25.2526  -13.8165   20.5686 C   0  0  0  0  0  0
  -24.1811  -13.0423   20.9207 C   0  0  0  0  0  0
  -24.6395  -11.6900   20.8748 C   0  0  0  0  0  0
  -23.9068  -10.4284   21.0411 C   0  0  0  0  0  0
  -24.3618   -9.4200   21.9187 C   0  0  0  0  0  0
  -23.6291   -8.2238   22.0756 C   0  0  0  0  0  0
  -22.4272   -8.0279   21.3547 C   0  0  0  0  0  0
  -21.9909   -9.0254   20.4650 C   0  0  0  0  0  0
  -22.7241  -10.2131   20.3059 C   0  0  0  0  0  0
  -21.6850   -6.0736   22.5280 C   0  0  0  0  0  0
  -21.4013   -6.5640   23.8214 C   0  0  0  0  0  0
  -21.3658   -5.6792   24.9175 C   0  0  0  0  0  0
  -21.6043   -4.3055   24.7225 C   0  0  0  0  0  0
  -21.8819   -3.8147   23.4346 C   0  0  0  0  0  0
  -21.9191   -4.6963   22.3402 C   0  0  0  0  0  0
  -22.7835  -13.5215   21.1866 C   0  0  0  0  0  0
  -22.1660   -4.2150   21.0979 F   0  0  0  0  0  0
  -21.5631   -3.4540   25.7739 F   0  0  0  0  0  0
  -29.9898  -13.5227   20.4108 N   0  0  0  0  0  0
  -26.2949  -12.9354   20.3280 N   0  0  0  0  0  0
  -25.9322  -11.6507   20.5746 N   0  0  0  0  0  0
  -22.0477  -12.8210   22.0423 N   0  0  0  0  0  0
  -25.4199  -15.1890   20.4090 N   0  0  0  0  0  0
  -31.7364  -14.9436   20.1470 O   0  0  0  0  0  0
  -21.6636   -6.8878   21.4242 O   0  0  0  0  0  0
  -22.3522  -14.5521   20.6712 O   0  0  0  0  0  0
  -24.6338  -31.8519   23.1948 C   0  0  0  0  0  0
  -25.9152  -32.4738   23.8305 C   0  0  1  0  0  0
  -27.2270  -27.2411   20.1369 C   0  0  0  0  0  0
  -25.5933  -33.8540   24.2227 N   0  0  0  0  0  0
  -23.4318  -30.4723   21.5386 C   0  0  2  0  0  0
  -24.8800  -28.9098   20.1138 C   0  0  0  0  0  0
  -22.7513  -29.4586   22.4904 C   0  0  0  0  0  0
  -18.0294  -28.1391   22.8487 C   0  0  0  0  0  0
  -24.1489  -36.7276   23.2641 C   0  0  0  0  0  0
  -25.9785  -30.7606   21.3750 C   0  0  0  0  0  0
  -26.0529  -29.3801   20.7180 C   0  0  0  0  0  0
  -27.2300  -28.5617   20.7088 C   0  0  0  0  0  0
  -26.0267  -26.8342   19.5174 C   0  0  0  0  0  0
  -24.8732  -27.6461   19.5012 C   0  0  0  0  0  0
  -23.6516  -29.8000   20.1572 C   0  0  0  0  0  0
  -25.4119  -36.3058   24.0319 C   0  0  1  0  0  0
  -20.5899  -28.3703   23.1268 C   0  0  2  0  0  0
  -20.6780  -26.9418   22.5410 C   0  0  0  0  0  0
  -19.5753  -26.6384   21.5217 C   0  0  0  0  0  0
  -18.1934  -26.7932   22.1628 C   0  0  0  0  0  0
  -19.1549  -28.8865   23.2869 C   0  0  0  0  0  0
  -18.9467  -30.1468   23.8885 C   0  0  0  0  0  0
  -17.6465  -30.6589   24.0566 C   0  0  0  0  0  0
  -25.9062  -34.9432   23.5079 C   0  0  0  0  0  0
  -16.5357  -29.9085   23.6335 C   0  0  0  0  0  0
  -16.7282  -28.6505   23.0353 C   0  0  0  0  0  0
  -26.4508  -31.6578   25.0712 C   0  0  0  0  0  0
  -25.3721  -31.3735   26.1426 C   0  0  0  0  0  0
  -27.0365  -30.2993   24.6222 C   0  0  0  0  0  0
  -27.6052  -32.4331   25.7490 C   0  0  0  0  0  0
  -27.5578  -37.1793   24.8464 C   0  0  0  0  0  0
  -21.4217  -29.3043   22.3650 N   0  0  0  0  0  0
  -26.4290  -37.3763   23.9408 N   0  0  0  0  0  0
  -24.7006  -31.0468   22.0927 N   0  0  0  0  0  0
  -23.4201  -28.8136   23.3021 O   0  0  0  0  0  0
  -28.3389  -26.3615   20.1656 O   0  0  0  0  0  0
  -26.5638  -34.8916   22.4652 O   0  0  0  0  0  0
  -23.5485  -32.1346   23.7237 O   0  0  0  0  0  0
  -28.3775  -19.3736   19.7321 C   0  0  0  0  0  0
  -30.3917  -19.6879   20.9493 C   0  0  0  0  0  0
  -28.5522  -17.9499   19.8262 C   0  0  0  0  0  0
  -30.5848  -18.2555   21.0227 C   0  0  0  0  0  0
  -29.2786  -20.3220   20.3030 C   0  0  0  0  0  0
  -29.6604  -17.3200   20.4676 C   0  0  0  0  0  0
  -28.1524  -23.9373   19.0805 C   0  0  0  0  0  0
  -29.3478  -24.1978   21.1674 C   0  0  0  0  0  0
  -28.0354  -22.3708   19.3556 C   0  0  0  0  0  0
  -29.2672  -22.6265   21.4223 C   0  0  0  0  0  0
  -28.1830  -24.8612   20.3486 C   0  0  0  0  0  0
  -29.0915  -21.7782   20.2174 N   0  0  0  0  0  0
  -29.6620  -15.8363   20.6522 N   0  0  0  0  0  0
  -31.4861  -12.6369   19.1615 H   0  0  0  0  0  0
  -30.4249  -11.4966   19.9447 H   0  0  0  0  0  0
  -29.8048  -11.7470   17.5184 H   0  0  0  0  0  0
  -29.6316  -13.4717   17.7201 H   0  0  0  0  0  0
  -27.9053  -11.2787   18.9098 H   0  0  0  0  0  0
  -27.3842  -12.5199   17.8015 H   0  0  0  0  0  0
  -27.6389  -14.2452   19.4756 H   0  0  0  0  0  0
  -28.7388  -12.1287   21.3952 H   0  0  0  0  0  0
  -28.4196  -13.7887   21.8193 H   0  0  0  0  0  0
  -25.2764   -9.5673   22.4760 H   0  0  0  0  0  0
  -24.0001   -7.4627   22.7474 H   0  0  0  0  0  0
  -21.0843   -8.8774   19.8952 H   0  0  0  0  0  0
  -22.3705  -10.9672   19.6168 H   0  0  0  0  0  0
  -21.2004   -7.6148   23.9718 H   0  0  0  0  0  0
  -21.1482   -6.0523   25.9079 H   0  0  0  0  0  0
  -22.0598   -2.7609   23.2849 H   0  0  0  0  0  0
  -22.4092  -11.9871   22.4810 H   0  0  0  0  0  0
  -21.1097  -13.1241   22.2631 H   0  0  0  0  0  0
  -24.6454  -15.8355   20.5140 H   0  0  0  0  0  0
  -26.2531  -15.6298   20.0448 H   0  0  0  0  0  0
  -26.7220  -32.5380   23.1046 H   0  0  0  0  0  0
  -25.0074  -33.9669   25.0368 H   0  0  0  0  0  0
  -22.7298  -31.2951   21.3882 H   0  0  0  0  0  0
  -23.3756  -35.9603   23.3298 H   0  0  0  0  0  0
  -24.3576  -36.8911   22.2056 H   0  0  0  0  0  0
  -23.7239  -37.6470   23.6679 H   0  0  0  0  0  0
  -26.1188  -31.5205   20.6050 H   0  0  0  0  0  0
  -26.8550  -30.8105   22.0096 H   0  0  0  0  0  0
  -28.1321  -28.9218   21.1835 H   0  0  0  0  0  0
  -25.9621  -25.8645   19.0494 H   0  0  0  0  0  0
  -23.9742  -27.2782   19.0258 H   0  0  0  0  0  0
  -23.7777  -30.5729   19.3982 H   0  0  0  0  0  0
  -22.7696  -29.2331   19.8537 H   0  0  0  0  0  0
  -25.1305  -36.1896   25.0811 H   0  0  0  0  0  0
  -20.9992  -28.3286   24.1389 H   0  0  0  0  0  0
  -20.5684  -26.2313   23.3617 H   0  0  0  0  0  0
  -21.6647  -26.7437   22.1204 H   0  0  0  0  0  0
  -19.6913  -25.6294   21.1250 H   0  0  0  0  0  0
  -19.6692  -27.3193   20.6746 H   0  0  0  0  0  0
  -17.4203  -26.6688   21.4029 H   0  0  0  0  0  0
  -18.0328  -26.0074   22.9025 H   0  0  0  0  0  0
  -19.7942  -30.7292   24.2243 H   0  0  0  0  0  0
  -17.5016  -31.6266   24.5173 H   0  0  0  0  0  0
  -15.5356  -30.2982   23.7663 H   0  0  0  0  0  0
  -15.8684  -28.0822   22.7069 H   0  0  0  0  0  0
  -24.5899  -30.7084   25.7748 H   0  0  0  0  0  0
  -24.8912  -32.2908   26.4834 H   0  0  0  0  0  0
  -25.8027  -30.8919   27.0215 H   0  0  0  0  0  0
  -26.2958  -29.6728   24.1239 H   0  0  0  0  0  0
  -27.4029  -29.7271   25.4755 H   0  0  0  0  0  0
  -27.8841  -30.4262   23.9483 H   0  0  0  0  0  0
  -27.2651  -33.3639   26.2041 H   0  0  0  0  0  0
  -28.3874  -32.6879   25.0327 H   0  0  0  0  0  0
  -28.0710  -31.8477   26.5428 H   0  0  0  0  0  0
  -28.2588  -38.0096   24.7516 H   0  0  0  0  0  0
  -28.1080  -36.2627   24.6285 H   0  0  0  0  0  0
  -27.2294  -37.1433   25.8865 H   0  0  0  0  0  0
  -20.9408  -29.8752   21.6840 H   0  0  0  0  0  0
  -26.0163  -38.2831   24.1420 H   0  0  0  0  0  0
  -27.4959  -19.7267   19.2181 H   0  0  0  0  0  0
  -31.1435  -20.3122   21.4093 H   0  0  0  0  0  0
  -27.7849  -17.3273   19.3897 H   0  0  0  0  0  0
  -31.4465  -17.8811   21.5568 H   0  0  0  0  0  0
  -27.3260  -24.2326   18.4355 H   0  0  0  0  0  0
  -29.0521  -24.1202   18.4916 H   0  0  0  0  0  0
  -30.2903  -24.4145   20.6631 H   0  0  0  0  0  0
  -29.4191  -24.6983   22.1337 H   0  0  0  0  0  0
  -28.0374  -21.8543   18.3948 H   0  0  0  0  0  0
  -27.0646  -22.1620   19.8084 H   0  0  0  0  0  0
  -28.4359  -22.4227   22.0994 H   0  0  0  0  0  0
  -30.1666  -22.3158   21.9549 H   0  0  0  0  0  0
  -27.2609  -24.6981   20.9086 H   0  0  0  0  0  0
  -28.7375  -15.4653   20.8059 H   0  0  0  0  0  0
  1 25  1  0  0  0
  1 30  2  0  0  0
  1 83  1  0  0  0
  2  3  1  0  0  0
  2 25  1  0  0  0
  2 84  1  0  0  0
  2 85  1  0  0  0
  3  4  1  0  0  0
  3 86  1  0  0  0
  3 87  1  0  0  0
  4  5  1  0  0  0
  4 88  1  0  0  0
  4 89  1  0  0  0
  5  6  1  0  0  0
  5 26  1  0  0  0
  5 90  1  0  0  0
  6 25  1  0  0  0
  6 91  1  0  0  0
  6 92  1  0  0  0
  7  8  2  0  0  0
  7 26  1  0  0  0
  7 29  1  0  0  0
  8  9  1  0  0  0
  8 22  1  0  0  0
  9 10  1  0  0  0
  9 27  2  0  0  0
 10 11  2  0  0  0
 10 15  1  0  0  0
 11 12  1  0  0  0
 11 93  1  0  0  0
 12 13  2  0  0  0
 12 94  1  0  0  0
 13 14  1  0  0  0
 13 31  1  0  0  0
 14 15  2  0  0  0
 14 95  1  0  0  0
 15 96  1  0  0  0
 16 17  2  0  0  0
 16 21  1  0  0  0
 16 31  1  0  0  0
 17 18  1  0  0  0
 17 97  1  0  0  0
 18 19  2  0  0  0
 18 98  1  0  0  0
 19 20  1  0  0  0
 19 24  1  0  0  0
 20 21  2  0  0  0
 20 99  1  0  0  0
 21 23  1  0  0  0
 22 28  1  0  0  0
 22 32  2  0  0  0
 26 27  1  0  0  0
 28100  1  0  0  0
 28101  1  0  0  0
 29102  1  0  0  0
 29103  1  0  0  0
 33 34  1  0  0  0
 33 66  1  0  0  0
 33 70  2  0  0  0
 34 36  1  0  0  0
 34 59  1  0  0  0
 34104  1  0  0  0
 35 44  2  0  0  0
 35 45  1  0  0  0
 35 68  1  0  0  0
 36 56  1  0  0  0
 36105  1  0  0  0
 37 39  1  0  0  0
 37 47  1  0  0  0
 37 66  1  0  0  0
 37106  1  0  0  0
 38 43  2  0  0  0
 38 46  1  0  0  0
 38 47  1  0  0  0
 39 64  1  0  0  0
 39 67  2  0  0  0
 40 52  1  0  0  0
 40 53  2  0  0  0
 40 58  1  0  0  0
 41107  1  0  0  0
 41108  1  0  0  0
 41109  1  0  0  0
 41 48  1  0  0  0
 42 43  1  0  0  0
 42 66  1  0  0  0
 42110  1  0  0  0
 42111  1  0  0  0
 43 44  1  0  0  0
 44112  1  0  0  0
 45 46  2  0  0  0
 45113  1  0  0  0
 46114  1  0  0  0
 47115  1  0  0  0
 47116  1  0  0  0
 48 56  1  0  0  0
 48 65  1  0  0  0
 48117  1  0  0  0
 49 50  1  0  0  0
 49 53  1  0  0  0
 49 64  1  0  0  0
 49118  1  0  0  0
 50 51  1  0  0  0
 50119  1  0  0  0
 50120  1  0  0  0
 51 52  1  0  0  0
 51121  1  0  0  0
 51122  1  0  0  0
 52123  1  0  0  0
 52124  1  0  0  0
 53 54  1  0  0  0
 54 55  2  0  0  0
 54125  1  0  0  0
 55 57  1  0  0  0
 55126  1  0  0  0
 56 69  2  0  0  0
 57 58  2  0  0  0
 57127  1  0  0  0
 58128  1  0  0  0
 59 60  1  0  0  0
 59 61  1  0  0  0
 59 62  1  0  0  0
 60129  1  0  0  0
 60130  1  0  0  0
 60131  1  0  0  0
 61132  1  0  0  0
 61133  1  0  0  0
 61134  1  0  0  0
 62135  1  0  0  0
 62136  1  0  0  0
 62137  1  0  0  0
 63 65  1  0  0  0
 63138  1  0  0  0
 63139  1  0  0  0
 63140  1  0  0  0
 64141  1  0  0  0
 65142  1  0  0  0
 68 81  1  0  0  0
 71 73  2  0  0  0
 71 75  1  0  0  0
 71143  1  0  0  0
 72 74  1  0  0  0
 72 75  2  0  0  0
 72144  1  0  0  0
 73 76  1  0  0  0
 73145  1  0  0  0
 74 76  2  0  0  0
 74146  1  0  0  0
 75 82  1  0  0  0
 76 83  1  0  0  0
 77 79  1  0  0  0
 77 81  1  0  0  0
 77147  1  0  0  0
 77148  1  0  0  0
 78 80  1  0  0  0
 78 81  1  0  0  0
 78149  1  0  0  0
 78150  1  0  0  0
 79 82  1  0  0  0
 79151  1  0  0  0
 79152  1  0  0  0
 80 82  1  0  0  0
 80153  1  0  0  0
 80154  1  0  0  0
 81155  1  0  0  0
 83156  1  0  0  0
M  ISO  4   1 100  68 101  81 101  83 100
M  END
> <chiral flag>
0

> <version>
0

> <s_m_source_file>
/data/baiqing/PycharmProjects/Reinvent-master-3.2/result/LINK_invent/BTK/process_docking_weight1_custom_product_contain_oxygen_bond_distance_aromatic_linkinvent_7_9_3/rearranged_h_0013.sdf

> <i_m_source_file_index>
50

> <r_mmod_Potential_Energy-OPLS-2005>
190.801544189453

> <r_mmod_Stretch_Energy-OPLS-2005>
124.130180358887

> <r_mmod_Bend_Energy-OPLS-2005>
190.531784057617

> <r_mmod_Torsional_Energy-OPLS-2005>
259.040710449219

> <r_mmod_Improper_Torsional_Energy-OPLS-2005>
9.05308055877686

> <r_mmod_Van_der_Waal_Energy-OPLS-2005>
136.684219360352

> <r_mmod_Electrostatic_Energy-OPLS-2005>
-396.944183349609

> <r_mmod_Solvation_Energy-OPLS-2005>
-230.249862670898

> <b_mmod_Minimization_Converged-OPLS-2005>
0

> <r_mmod_RMS_Derivative-OPLS-2005>
0.348706066608429

$$$$
51
                    3D
 Structure written by MMmdl.
156165  0  0  1  0            999 V2000
  -30.5635  -14.9434   20.5131 C   0  0  0  0  0  0
  -30.4405  -12.5950   19.5201 C   0  0  0  0  0  0
  -29.5319  -12.5586   18.2681 C   0  0  0  0  0  0
  -28.0610  -12.3382   18.6673 C   0  0  0  0  0  0
  -27.6361  -13.2502   19.8459 C   0  0  2  0  0  0
  -28.6667  -13.2411   20.9917 C   0  0  0  0  0  0
  -25.2483  -13.8213   20.5700 C   0  0  0  0  0  0
  -24.1793  -13.0433   20.9189 C   0  0  0  0  0  0
  -24.6412  -11.6920   20.8719 C   0  0  0  0  0  0
  -23.9090  -10.4294   21.0402 C   0  0  0  0  0  0
  -24.3634   -9.4205   21.9183 C   0  0  0  0  0  0
  -23.6298   -8.2244   22.0751 C   0  0  0  0  0  0
  -22.4278   -8.0284   21.3543 C   0  0  0  0  0  0
  -21.9920   -9.0262   20.4649 C   0  0  0  0  0  0
  -22.7255  -10.2138   20.3056 C   0  0  0  0  0  0
  -21.6865   -6.0730   22.5269 C   0  0  0  0  0  0
  -21.4031   -6.5634   23.8202 C   0  0  0  0  0  0
  -21.3659   -5.6785   24.9162 C   0  0  0  0  0  0
  -21.6041   -4.3045   24.7219 C   0  0  0  0  0  0
  -21.8822   -3.8138   23.4341 C   0  0  0  0  0  0
  -21.9195   -4.6955   22.3396 C   0  0  0  0  0  0
  -22.7817  -13.5207   21.1860 C   0  0  0  0  0  0
  -22.1665   -4.2138   21.0975 F   0  0  0  0  0  0
  -21.5622   -3.4531   25.7737 F   0  0  0  0  0  0
  -29.9591  -13.6784   20.4339 N   0  0  0  0  0  0
  -26.2909  -12.9449   20.3218 N   0  0  0  0  0  0
  -25.9342  -11.6572   20.5688 N   0  0  0  0  0  0
  -22.0476  -12.8208   22.0434 N   0  0  0  0  0  0
  -25.4163  -15.1947   20.4207 N   0  0  0  0  0  0
  -31.6923  -15.0471   20.0177 O   0  0  0  0  0  0
  -21.6644   -6.8879   21.4234 O   0  0  0  0  0  0
  -22.3486  -14.5500   20.6693 O   0  0  0  0  0  0
  -24.6438  -31.8431   23.1859 C   0  0  0  0  0  0
  -25.9207  -32.4686   23.8256 C   0  0  1  0  0  0
  -27.2241  -27.1267   20.1546 C   0  0  0  0  0  0
  -25.5958  -33.8491   24.2183 N   0  0  0  0  0  0
  -23.4492  -30.4601   21.5304 C   0  0  2  0  0  0
  -24.9015  -28.8835   20.1079 C   0  0  0  0  0  0
  -22.7574  -29.4532   22.4836 C   0  0  0  0  0  0
  -18.0310  -28.1392   22.8480 C   0  0  0  0  0  0
  -24.1492  -36.7247   23.2639 C   0  0  0  0  0  0
  -26.0045  -30.7123   21.3882 C   0  0  0  0  0  0
  -26.0759  -29.3219   20.7317 C   0  0  0  0  0  0
  -27.2349  -28.4579   20.7402 C   0  0  0  0  0  0
  -26.0289  -26.7992   19.4765 C   0  0  0  0  0  0
  -24.8912  -27.6358   19.4653 C   0  0  0  0  0  0
  -23.6785  -29.7862   20.1505 C   0  0  0  0  0  0
  -25.4123  -36.3024   24.0315 C   0  0  1  0  0  0
  -20.5924  -28.3723   23.1227 C   0  0  2  0  0  0
  -20.6791  -26.9422   22.5404 C   0  0  0  0  0  0
  -19.5766  -26.6378   21.5211 C   0  0  0  0  0  0
  -18.1950  -26.7932   22.1623 C   0  0  0  0  0  0
  -19.1568  -28.8872   23.2848 C   0  0  0  0  0  0
  -18.9483  -30.1471   23.8874 C   0  0  0  0  0  0
  -17.6479  -30.6587   24.0557 C   0  0  0  0  0  0
  -25.9079  -34.9403   23.5054 C   0  0  0  0  0  0
  -16.5370  -29.9087   23.6328 C   0  0  0  0  0  0
  -16.7294  -28.6502   23.0352 C   0  0  0  0  0  0
  -26.4532  -31.6546   25.0692 C   0  0  0  0  0  0
  -25.3718  -31.3743   26.1385 C   0  0  0  0  0  0
  -27.0395  -30.2938   24.6268 C   0  0  0  0  0  0
  -27.6060  -32.4312   25.7483 C   0  0  0  0  0  0
  -27.5576  -37.1776   24.8460 C   0  0  0  0  0  0
  -21.4264  -29.3050   22.3595 N   0  0  0  0  0  0
  -26.4281  -37.3745   23.9415 N   0  0  0  0  0  0
  -24.7185  -31.0280   22.0896 N   0  0  0  0  0  0
  -23.4209  -28.8084   23.2998 O   0  0  0  0  0  0
  -28.2822  -26.1465   20.2547 O   0  0  0  0  0  0
  -26.5656  -34.8904   22.4633 O   0  0  0  0  0  0
  -23.5551  -32.1308   23.7071 O   0  0  0  0  0  0
  -29.4843  -19.6261   19.2872 C   0  0  0  0  0  0
  -29.2200  -19.9993   21.5795 C   0  0  0  0  0  0
  -29.7471  -18.2036   19.5178 C   0  0  0  0  0  0
  -29.4664  -18.5826   21.8091 C   0  0  0  0  0  0
  -29.2017  -20.6276   20.2953 C   0  0  0  0  0  0
  -29.7501  -17.5691   20.8083 C   0  0  0  0  0  0
  -28.6017  -24.1301   18.6476 C   0  0  0  0  0  0
  -28.7260  -22.5625   18.6476 C   0  0  0  0  0  0
  -28.7633  -23.3472   20.8676 C   0  0  0  0  0  0
  -28.1030  -24.6063   20.0259 C   0  0  1  0  0  0
  -29.8445  -15.8114   22.6111 C   0  0  0  0  0  0
  -28.9155  -22.0752   20.0190 N   0  0  0  0  0  0
  -29.9435  -16.0624   21.1609 N   0  0  0  0  0  0
  -31.4789  -12.7408   19.2209 H   0  0  0  0  0  0
  -30.4233  -11.6326   20.0339 H   0  0  0  0  0  0
  -29.8599  -11.7745   17.5848 H   0  0  0  0  0  0
  -29.6258  -13.4989   17.7226 H   0  0  0  0  0  0
  -27.9488  -11.2912   18.9507 H   0  0  0  0  0  0
  -27.4055  -12.4930   17.8095 H   0  0  0  0  0  0
  -27.6123  -14.2648   19.4459 H   0  0  0  0  0  0
  -28.7492  -12.2498   21.4407 H   0  0  0  0  0  0
  -28.3178  -13.8978   21.7851 H   0  0  0  0  0  0
  -25.2783   -9.5677   22.4751 H   0  0  0  0  0  0
  -24.0004   -7.4639   22.7472 H   0  0  0  0  0  0
  -21.0840   -8.8788   19.8969 H   0  0  0  0  0  0
  -22.3709  -10.9676   19.6162 H   0  0  0  0  0  0
  -21.2042   -7.6146   23.9706 H   0  0  0  0  0  0
  -21.1475   -6.0515   25.9064 H   0  0  0  0  0  0
  -22.0606   -2.7600   23.2841 H   0  0  0  0  0  0
  -22.4112  -11.9884   22.4834 H   0  0  0  0  0  0
  -21.1093  -13.1231   22.2644 H   0  0  0  0  0  0
  -24.6541  -15.8496   20.5560 H   0  0  0  0  0  0
  -26.2771  -15.6427   20.1323 H   0  0  0  0  0  0
  -26.7263  -32.5289   23.0979 H   0  0  0  0  0  0
  -25.0109  -33.9605   25.0329 H   0  0  0  0  0  0
  -22.7521  -31.2855   21.3720 H   0  0  0  0  0  0
  -23.3763  -35.9568   23.3280 H   0  0  0  0  0  0
  -24.3583  -36.8900   22.2057 H   0  0  0  0  0  0
  -23.7232  -37.6434   23.6684 H   0  0  0  0  0  0
  -26.1607  -31.4640   20.6135 H   0  0  0  0  0  0
  -26.8746  -30.7643   22.0311 H   0  0  0  0  0  0
  -28.1252  -28.7851   21.2582 H   0  0  0  0  0  0
  -25.9409  -25.8542   18.9625 H   0  0  0  0  0  0
  -23.9976  -27.2986   18.9584 H   0  0  0  0  0  0
  -23.8178  -30.5584   19.3934 H   0  0  0  0  0  0
  -22.7938  -29.2283   19.8381 H   0  0  0  0  0  0
  -25.1309  -36.1851   25.0806 H   0  0  0  0  0  0
  -21.0021  -28.3319   24.1347 H   0  0  0  0  0  0
  -20.5676  -26.2341   23.3632 H   0  0  0  0  0  0
  -21.6657  -26.7421   22.1206 H   0  0  0  0  0  0
  -19.6925  -25.6281   21.1261 H   0  0  0  0  0  0
  -19.6697  -27.3171   20.6729 H   0  0  0  0  0  0
  -17.4216  -26.6674   21.4031 H   0  0  0  0  0  0
  -18.0347  -26.0081   22.9026 H   0  0  0  0  0  0
  -19.7960  -30.7292   24.2233 H   0  0  0  0  0  0
  -17.5032  -31.6264   24.5167 H   0  0  0  0  0  0
  -15.5367  -30.2978   23.7661 H   0  0  0  0  0  0
  -15.8700  -28.0812   22.7076 H   0  0  0  0  0  0
  -24.5907  -30.7076   25.7708 H   0  0  0  0  0  0
  -24.8891  -32.2924   26.4739 H   0  0  0  0  0  0
  -25.8000  -30.8966   27.0205 H   0  0  0  0  0  0
  -26.3006  -29.6664   24.1264 H   0  0  0  0  0  0
  -27.4002  -29.7233   25.4838 H   0  0  0  0  0  0
  -27.8921  -30.4180   23.9588 H   0  0  0  0  0  0
  -27.2649  -33.3630   26.2011 H   0  0  0  0  0  0
  -28.3899  -32.6845   25.0332 H   0  0  0  0  0  0
  -28.0693  -31.8466   26.5443 H   0  0  0  0  0  0
  -28.2566  -38.0101   24.7533 H   0  0  0  0  0  0
  -28.1102  -36.2629   24.6251 H   0  0  0  0  0  0
  -27.2298  -37.1376   25.8864 H   0  0  0  0  0  0
  -20.9472  -29.8778   21.6786 H   0  0  0  0  0  0
  -26.0145  -38.2809   24.1437 H   0  0  0  0  0  0
  -29.5058  -19.9468   18.2567 H   0  0  0  0  0  0
  -29.0179  -20.6167   22.4436 H   0  0  0  0  0  0
  -29.9392  -17.5852   18.6532 H   0  0  0  0  0  0
  -29.4157  -18.2933   22.8471 H   0  0  0  0  0  0
  -27.9575  -24.4807   17.8411 H   0  0  0  0  0  0
  -29.5883  -24.5602   18.4709 H   0  0  0  0  0  0
  -29.5552  -22.2543   18.0090 H   0  0  0  0  0  0
  -27.8195  -22.1146   18.2383 H   0  0  0  0  0  0
  -28.1723  -23.1422   21.7611 H   0  0  0  0  0  0
  -29.7575  -23.6338   21.2149 H   0  0  0  0  0  0
  -27.0349  -24.4027   20.0732 H   0  0  0  0  0  0
  -30.5774  -16.4136   23.1499 H   0  0  0  0  0  0
  -30.0391  -14.7831   22.9213 H   0  0  0  0  0  0
  -28.8486  -16.0675   22.9750 H   0  0  0  0  0  0
  1 25  1  0  0  0
  1 30  2  0  0  0
  1 83  1  0  0  0
  2  3  1  0  0  0
  2 25  1  0  0  0
  2 84  1  0  0  0
  2 85  1  0  0  0
  3  4  1  0  0  0
  3 86  1  0  0  0
  3 87  1  0  0  0
  4  5  1  0  0  0
  4 88  1  0  0  0
  4 89  1  0  0  0
  5  6  1  0  0  0
  5 26  1  0  0  0
  5 90  1  0  0  0
  6 25  1  0  0  0
  6 91  1  0  0  0
  6 92  1  0  0  0
  7  8  2  0  0  0
  7 26  1  0  0  0
  7 29  1  0  0  0
  8  9  1  0  0  0
  8 22  1  0  0  0
  9 10  1  0  0  0
  9 27  2  0  0  0
 10 11  2  0  0  0
 10 15  1  0  0  0
 11 12  1  0  0  0
 11 93  1  0  0  0
 12 13  2  0  0  0
 12 94  1  0  0  0
 13 14  1  0  0  0
 13 31  1  0  0  0
 14 15  2  0  0  0
 14 95  1  0  0  0
 15 96  1  0  0  0
 16 17  2  0  0  0
 16 21  1  0  0  0
 16 31  1  0  0  0
 17 18  1  0  0  0
 17 97  1  0  0  0
 18 19  2  0  0  0
 18 98  1  0  0  0
 19 20  1  0  0  0
 19 24  1  0  0  0
 20 21  2  0  0  0
 20 99  1  0  0  0
 21 23  1  0  0  0
 22 28  1  0  0  0
 22 32  2  0  0  0
 26 27  1  0  0  0
 28100  1  0  0  0
 28101  1  0  0  0
 29102  1  0  0  0
 29103  1  0  0  0
 33 34  1  0  0  0
 33 66  1  0  0  0
 33 70  2  0  0  0
 34 36  1  0  0  0
 34 59  1  0  0  0
 34104  1  0  0  0
 35 44  2  0  0  0
 35 45  1  0  0  0
 35 68  1  0  0  0
 36 56  1  0  0  0
 36105  1  0  0  0
 37 39  1  0  0  0
 37 47  1  0  0  0
 37 66  1  0  0  0
 37106  1  0  0  0
 38 43  2  0  0  0
 38 46  1  0  0  0
 38 47  1  0  0  0
 39 64  1  0  0  0
 39 67  2  0  0  0
 40 52  1  0  0  0
 40 53  2  0  0  0
 40 58  1  0  0  0
 41107  1  0  0  0
 41108  1  0  0  0
 41109  1  0  0  0
 41 48  1  0  0  0
 42 43  1  0  0  0
 42 66  1  0  0  0
 42110  1  0  0  0
 42111  1  0  0  0
 43 44  1  0  0  0
 44112  1  0  0  0
 45 46  2  0  0  0
 45113  1  0  0  0
 46114  1  0  0  0
 47115  1  0  0  0
 47116  1  0  0  0
 48 56  1  0  0  0
 48 65  1  0  0  0
 48117  1  0  0  0
 49 50  1  0  0  0
 49 53  1  0  0  0
 49 64  1  0  0  0
 49118  1  0  0  0
 50 51  1  0  0  0
 50119  1  0  0  0
 50120  1  0  0  0
 51 52  1  0  0  0
 51121  1  0  0  0
 51122  1  0  0  0
 52123  1  0  0  0
 52124  1  0  0  0
 53 54  1  0  0  0
 54 55  2  0  0  0
 54125  1  0  0  0
 55 57  1  0  0  0
 55126  1  0  0  0
 56 69  2  0  0  0
 57 58  2  0  0  0
 57127  1  0  0  0
 58128  1  0  0  0
 59 60  1  0  0  0
 59 61  1  0  0  0
 59 62  1  0  0  0
 60129  1  0  0  0
 60130  1  0  0  0
 60131  1  0  0  0
 61132  1  0  0  0
 61133  1  0  0  0
 61134  1  0  0  0
 62135  1  0  0  0
 62136  1  0  0  0
 62137  1  0  0  0
 63 65  1  0  0  0
 63138  1  0  0  0
 63139  1  0  0  0
 63140  1  0  0  0
 64141  1  0  0  0
 65142  1  0  0  0
 68 80  1  0  0  0
 71 73  2  0  0  0
 71 75  1  0  0  0
 71143  1  0  0  0
 72 74  1  0  0  0
 72 75  2  0  0  0
 72144  1  0  0  0
 73 76  1  0  0  0
 73145  1  0  0  0
 74 76  2  0  0  0
 74146  1  0  0  0
 75 82  1  0  0  0
 76 83  1  0  0  0
 77 78  1  0  0  0
 77 80  1  0  0  0
 77147  1  0  0  0
 77148  1  0  0  0
 78 82  1  0  0  0
 78149  1  0  0  0
 78150  1  0  0  0
 79 80  1  0  0  0
 79 82  1  0  0  0
 79151  1  0  0  0
 79152  1  0  0  0
 80153  1  0  0  0
 81 83  1  0  0  0
 81154  1  0  0  0
 81155  1  0  0  0
 81156  1  0  0  0
M  ISO  4   1 100  68 101  80 101  83 100
M  END
> <chiral flag>
0

> <version>
0

> <s_m_source_file>
/data/baiqing/PycharmProjects/Reinvent-master-3.2/result/LINK_invent/BTK/process_docking_weight1_custom_product_contain_oxygen_bond_distance_aromatic_linkinvent_7_9_3/rearranged_h_0013.sdf

> <i_m_source_file_index>
51

> <r_mmod_Potential_Energy-OPLS-2005>
694.363159179688

> <r_mmod_Stretch_Energy-OPLS-2005>
242.295867919922

> <r_mmod_Bend_Energy-OPLS-2005>
324.988952636719

> <r_mmod_Torsional_Energy-OPLS-2005>
313.762268066406

> <r_mmod_Improper_Torsional_Energy-OPLS-2005>
2.89329361915588

> <r_mmod_Van_der_Waal_Energy-OPLS-2005>
143.555725097656

> <r_mmod_Electrostatic_Energy-OPLS-2005>
-309.01806640625

> <r_mmod_Solvation_Energy-OPLS-2005>
-215.142868041992

> <b_mmod_Minimization_Converged-OPLS-2005>
0

> <r_mmod_RMS_Derivative-OPLS-2005>
1.35108029842377

$$$$
52
                    3D
 Structure written by MMmdl.
173182  0  0  1  0            999 V2000
  -30.7908  -14.3265   20.7391 C   0  0  0  0  0  0
  -30.4134  -12.2952   19.3790 C   0  0  0  0  0  0
  -29.4752  -12.5390   18.1842 C   0  0  0  0  0  0
  -28.0029  -12.3821   18.6074 C   0  0  0  0  0  0
  -27.6655  -13.2020   19.8791 C   0  0  2  0  0  0
  -28.7034  -12.9316   20.9893 C   0  0  0  0  0  0
  -25.2589  -13.8154   20.5676 C   0  0  0  0  0  0
  -24.1849  -13.0438   20.9197 C   0  0  0  0  0  0
  -24.6391  -11.6905   20.8739 C   0  0  0  0  0  0
  -23.9051  -10.4290   21.0386 C   0  0  0  0  0  0
  -24.3617   -9.4219   21.9172 C   0  0  0  0  0  0
  -23.6312   -8.2241   22.0749 C   0  0  0  0  0  0
  -22.4286   -8.0268   21.3550 C   0  0  0  0  0  0
  -21.9910   -9.0227   20.4640 C   0  0  0  0  0  0
  -22.7215  -10.2122   20.3039 C   0  0  0  0  0  0
  -21.6856   -6.0743   22.5302 C   0  0  0  0  0  0
  -21.4015   -6.5645   23.8236 C   0  0  0  0  0  0
  -21.3657   -5.6792   24.9194 C   0  0  0  0  0  0
  -21.6041   -4.3056   24.7230 C   0  0  0  0  0  0
  -21.8823   -3.8155   23.4352 C   0  0  0  0  0  0
  -21.9193   -4.6978   22.3415 C   0  0  0  0  0  0
  -22.7853  -13.5234   21.1831 C   0  0  0  0  0  0
  -22.1664   -4.2173   21.0995 F   0  0  0  0  0  0
  -21.5625   -3.4537   25.7738 F   0  0  0  0  0  0
  -30.0491  -13.2229   20.4611 N   0  0  0  0  0  0
  -26.3038  -12.9324   20.3371 N   0  0  0  0  0  0
  -25.9314  -11.6487   20.5762 N   0  0  0  0  0  0
  -22.0477  -12.8253   22.0400 N   0  0  0  0  0  0
  -25.4287  -15.1863   20.4010 N   0  0  0  0  0  0
  -31.7547  -14.6793   20.0533 O   0  0  0  0  0  0
  -21.6642   -6.8875   21.4259 O   0  0  0  0  0  0
  -22.3543  -14.5536   20.6668 O   0  0  0  0  0  0
  -24.6133  -31.8676   23.2114 C   0  0  0  0  0  0
  -25.9035  -32.4825   23.8404 C   0  0  1  0  0  0
  -27.2514  -27.4675   20.0776 C   0  0  0  0  0  0
  -25.5908  -33.8624   24.2336 N   0  0  0  0  0  0
  -23.4026  -30.4908   21.5480 C   0  0  2  0  0  0
  -24.8543  -28.9623   20.1095 C   0  0  0  0  0  0
  -22.7412  -29.4659   22.4967 C   0  0  0  0  0  0
  -18.0277  -28.1385   22.8491 C   0  0  0  0  0  0
  -24.1484  -36.7319   23.2635 C   0  0  0  0  0  0
  -25.9283  -30.8432   21.3619 C   0  0  0  0  0  0
  -26.0105  -29.4798   20.7076 C   0  0  0  0  0  0
  -27.2101  -28.7362   20.6965 C   0  0  0  0  0  0
  -26.0761  -26.9491   19.4940 C   0  0  0  0  0  0
  -24.8816  -27.6948   19.5009 C   0  0  0  0  0  0
  -23.6120  -29.8230   20.1618 C   0  0  0  0  0  0
  -25.4102  -36.3107   24.0336 C   0  0  1  0  0  0
  -20.5869  -28.3677   23.1313 C   0  0  2  0  0  0
  -20.6776  -26.9413   22.5413 C   0  0  0  0  0  0
  -19.5754  -26.6391   21.5214 C   0  0  0  0  0  0
  -18.1928  -26.7931   22.1620 C   0  0  0  0  0  0
  -19.1526  -28.8846   23.2902 C   0  0  0  0  0  0
  -18.9454  -30.1454   23.8907 C   0  0  0  0  0  0
  -17.6457  -30.6589   24.0573 C   0  0  0  0  0  0
  -25.9030  -34.9478   23.5129 C   0  0  0  0  0  0
  -16.5350  -29.9087   23.6335 C   0  0  0  0  0  0
  -16.7266  -28.6511   23.0343 C   0  0  0  0  0  0
  -26.4477  -31.6598   25.0723 C   0  0  0  0  0  0
  -25.3758  -31.3698   26.1484 C   0  0  0  0  0  0
  -27.0300  -30.3041   24.6085 C   0  0  0  0  0  0
  -27.6051  -32.4316   25.7485 C   0  0  0  0  0  0
  -27.5583  -37.1804   24.8457 C   0  0  0  0  0  0
  -21.4139  -29.3039   22.3710 N   0  0  0  0  0  0
  -26.4283  -37.3799   23.9419 N   0  0  0  0  0  0
  -24.6657  -31.0805   22.0994 N   0  0  0  0  0  0
  -23.4194  -28.8203   23.3001 O   0  0  0  0  0  0
  -28.3964  -26.7094   20.1248 O   0  0  0  0  0  0
  -26.5576  -34.8929   22.4681 O   0  0  0  0  0  0
  -23.5328  -32.1407   23.7523 O   0  0  0  0  0  0
  -29.3191  -22.0048   20.8733 C   0  0  0  0  0  0
  -29.9156  -20.9411   18.7660 C   0  0  0  0  0  0
  -29.1166  -20.7361   21.4525 C   0  0  0  0  0  0
  -29.7213  -19.6701   19.3488 C   0  0  0  0  0  0
  -29.7071  -22.1195   19.5217 C   0  0  0  0  0  0
  -29.3151  -19.5556   20.6982 C   0  0  0  0  0  0
  -30.0106  -17.3184   21.3955 C   0  0  0  0  0  0
  -30.7142  -15.1133   24.3364 C   0  0  0  0  0  0
  -30.0625  -16.3623   23.7552 C   0  0  0  0  0  0
  -31.2548  -14.3338   23.1370 C   0  0  0  0  0  0
  -29.7575  -16.0571   22.2742 C   0  0  2  0  0  0
  -27.7451  -18.1420   21.9566 C   0  0  0  0  0  0
  -27.6196  -23.3786   17.8786 C   0  0  0  0  0  0
  -29.8843  -23.5018   18.8847 C   0  0  0  0  0  0
  -28.7582  -25.5511   17.9825 C   0  0  0  0  0  0
  -29.2054  -26.6642   18.9511 C   0  0  0  0  0  0
  -30.5628  -14.8564   21.9589 N   0  0  0  0  0  0
  -29.0504  -18.2827   21.2997 N   0  0  0  0  0  0
  -28.5966  -24.2112   18.6255 N   0  3  1  0  0  0
  -31.1188  -17.4471   20.8652 O   0  0  0  0  0  0
  -31.4554  -12.4039   19.0705 H   0  0  0  0  0  0
  -30.3166  -11.2665   19.7319 H   0  0  0  0  0  0
  -29.7052  -11.8441   17.3761 H   0  0  0  0  0  0
  -29.6389  -13.5425   17.7874 H   0  0  0  0  0  0
  -27.8175  -11.3224   18.7896 H   0  0  0  0  0  0
  -27.3427  -12.6679   17.7882 H   0  0  0  0  0  0
  -27.7256  -14.2578   19.6147 H   0  0  0  0  0  0
  -28.6602  -11.8830   21.2890 H   0  0  0  0  0  0
  -28.4503  -13.4963   21.8853 H   0  0  0  0  0  0
  -25.2758   -9.5739   22.4746 H   0  0  0  0  0  0
  -24.0046   -7.4642   22.7474 H   0  0  0  0  0  0
  -21.0839   -8.8718   19.8945 H   0  0  0  0  0  0
  -22.3639  -10.9658   19.6158 H   0  0  0  0  0  0
  -21.2007   -7.6148   23.9758 H   0  0  0  0  0  0
  -21.1471   -6.0512   25.9106 H   0  0  0  0  0  0
  -22.0600   -2.7619   23.2843 H   0  0  0  0  0  0
  -22.4077  -11.9942   22.4856 H   0  0  0  0  0  0
  -21.1087  -13.1284   22.2545 H   0  0  0  0  0  0
  -24.6480  -15.8296   20.4781 H   0  0  0  0  0  0
  -26.2542  -15.6104   19.9987 H   0  0  0  0  0  0
  -26.7111  -32.5545   23.1176 H   0  0  0  0  0  0
  -25.0110  -33.9785   25.0512 H   0  0  0  0  0  0
  -22.6917  -31.3073   21.4083 H   0  0  0  0  0  0
  -23.3742  -35.9656   23.3281 H   0  0  0  0  0  0
  -24.3594  -36.8947   22.2056 H   0  0  0  0  0  0
  -23.7229  -37.6520   23.6653 H   0  0  0  0  0  0
  -26.0384  -31.6113   20.5956 H   0  0  0  0  0  0
  -26.8162  -30.8965   21.9791 H   0  0  0  0  0  0
  -28.1015  -29.1301   21.1658 H   0  0  0  0  0  0
  -26.0720  -25.9665   19.0485 H   0  0  0  0  0  0
  -23.9900  -27.2870   19.0446 H   0  0  0  0  0  0
  -23.7176  -30.5977   19.4019 H   0  0  0  0  0  0
  -22.7389  -29.2395   19.8656 H   0  0  0  0  0  0
  -25.1266  -36.1973   25.0826 H   0  0  0  0  0  0
  -20.9970  -28.3242   24.1434 H   0  0  0  0  0  0
  -20.5705  -26.2277   23.3595 H   0  0  0  0  0  0
  -21.6643  -26.7467   22.1193 H   0  0  0  0  0  0
  -19.6922  -25.6302   21.1242 H   0  0  0  0  0  0
  -19.6701  -27.3204   20.6748 H   0  0  0  0  0  0
  -17.4206  -26.6690   21.4013 H   0  0  0  0  0  0
  -18.0326  -26.0060   22.9005 H   0  0  0  0  0  0
  -19.7929  -30.7275   24.2272 H   0  0  0  0  0  0
  -17.5010  -31.6268   24.5176 H   0  0  0  0  0  0
  -15.5352  -30.3000   23.7652 H   0  0  0  0  0  0
  -15.8665  -28.0845   22.7038 H   0  0  0  0  0  0
  -24.5927  -30.7046   25.7832 H   0  0  0  0  0  0
  -24.8961  -32.2854   26.4956 H   0  0  0  0  0  0
  -25.8135  -30.8859   27.0223 H   0  0  0  0  0  0
  -26.2834  -29.6809   24.1156 H   0  0  0  0  0  0
  -27.4087  -29.7278   25.4536 H   0  0  0  0  0  0
  -27.8662  -30.4356   23.9214 H   0  0  0  0  0  0
  -27.2665  -33.3605   26.2090 H   0  0  0  0  0  0
  -28.3857  -32.6901   25.0315 H   0  0  0  0  0  0
  -28.0726  -31.8425   26.5383 H   0  0  0  0  0  0
  -28.2570  -38.0131   24.7550 H   0  0  0  0  0  0
  -28.1107  -36.2668   24.6213 H   0  0  0  0  0  0
  -27.2318  -37.1377   25.8862 H   0  0  0  0  0  0
  -20.9297  -29.8751   21.6920 H   0  0  0  0  0  0
  -26.0167  -38.2869   24.1452 H   0  0  0  0  0  0
  -29.1639  -22.8908   21.4745 H   0  0  0  0  0  0
  -30.2161  -21.0000   17.7288 H   0  0  0  0  0  0
  -28.8048  -20.6764   22.4869 H   0  0  0  0  0  0
  -29.8695  -18.7817   18.7483 H   0  0  0  0  0  0
  -29.9643  -14.5128   24.8548 H   0  0  0  0  0  0
  -31.4927  -15.3507   25.0635 H   0  0  0  0  0  0
  -30.7627  -17.1948   23.8442 H   0  0  0  0  0  0
  -29.1652  -16.6423   24.3096 H   0  0  0  0  0  0
  -31.1071  -13.2585   23.2560 H   0  0  0  0  0  0
  -32.3262  -14.5124   23.0215 H   0  0  0  0  0  0
  -28.7227  -15.7336   22.1761 H   0  0  0  0  0  0
  -27.8431  -18.1741   23.0415 H   0  0  0  0  0  0
  -27.2441  -17.2180   21.6723 H   0  0  0  0  0  0
  -27.0679  -18.9458   21.6653 H   0  0  0  0  0  0
  -27.3457  -22.4776   18.4282 H   0  0  0  0  0  0
  -28.0285  -23.0772   16.9132 H   0  0  0  0  0  0
  -26.6917  -23.9212   17.6958 H   0  0  0  0  0  0
  -30.4332  -23.3949   17.9486 H   0  0  0  0  0  0
  -30.5146  -24.1003   19.5427 H   0  0  0  0  0  0
  -29.4543  -25.4817   17.1447 H   0  0  0  0  0  0
  -27.8131  -25.8696   17.5434 H   0  0  0  0  0  0
  -29.2032  -27.6322   18.4452 H   0  0  0  0  0  0
  -30.2358  -26.4933   19.2623 H   0  0  0  0  0  0
  -28.1844  -24.3811   19.5316 H   0  0  0  0  0  0
  1 25  1  0  0  0
  1 30  2  0  0  0
  1 87  1  0  0  0
  2  3  1  0  0  0
  2 25  1  0  0  0
  2 91  1  0  0  0
  2 92  1  0  0  0
  3  4  1  0  0  0
  3 93  1  0  0  0
  3 94  1  0  0  0
  4  5  1  0  0  0
  4 95  1  0  0  0
  4 96  1  0  0  0
  5  6  1  0  0  0
  5 26  1  0  0  0
  5 97  1  0  0  0
  6 25  1  0  0  0
  6 98  1  0  0  0
  6 99  1  0  0  0
  7  8  2  0  0  0
  7 26  1  0  0  0
  7 29  1  0  0  0
  8  9  1  0  0  0
  8 22  1  0  0  0
  9 10  1  0  0  0
  9 27  2  0  0  0
 10 11  2  0  0  0
 10 15  1  0  0  0
 11 12  1  0  0  0
 11100  1  0  0  0
 12 13  2  0  0  0
 12101  1  0  0  0
 13 14  1  0  0  0
 13 31  1  0  0  0
 14 15  2  0  0  0
 14102  1  0  0  0
 15103  1  0  0  0
 16 17  2  0  0  0
 16 21  1  0  0  0
 16 31  1  0  0  0
 17 18  1  0  0  0
 17104  1  0  0  0
 18 19  2  0  0  0
 18105  1  0  0  0
 19 20  1  0  0  0
 19 24  1  0  0  0
 20 21  2  0  0  0
 20106  1  0  0  0
 21 23  1  0  0  0
 22 28  1  0  0  0
 22 32  2  0  0  0
 26 27  1  0  0  0
 28107  1  0  0  0
 28108  1  0  0  0
 29109  1  0  0  0
 29110  1  0  0  0
 33 34  1  0  0  0
 33 66  1  0  0  0
 33 70  2  0  0  0
 34 36  1  0  0  0
 34 59  1  0  0  0
 34111  1  0  0  0
 35 44  2  0  0  0
 35 45  1  0  0  0
 35 68  1  0  0  0
 36 56  1  0  0  0
 36112  1  0  0  0
 37 39  1  0  0  0
 37 47  1  0  0  0
 37 66  1  0  0  0
 37113  1  0  0  0
 38 43  2  0  0  0
 38 46  1  0  0  0
 38 47  1  0  0  0
 39 64  1  0  0  0
 39 67  2  0  0  0
 40 52  1  0  0  0
 40 53  2  0  0  0
 40 58  1  0  0  0
 41114  1  0  0  0
 41115  1  0  0  0
 41116  1  0  0  0
 41 48  1  0  0  0
 42 43  1  0  0  0
 42 66  1  0  0  0
 42117  1  0  0  0
 42118  1  0  0  0
 43 44  1  0  0  0
 44119  1  0  0  0
 45 46  2  0  0  0
 45120  1  0  0  0
 46121  1  0  0  0
 47122  1  0  0  0
 47123  1  0  0  0
 48 56  1  0  0  0
 48 65  1  0  0  0
 48124  1  0  0  0
 49 50  1  0  0  0
 49 53  1  0  0  0
 49 64  1  0  0  0
 49125  1  0  0  0
 50 51  1  0  0  0
 50126  1  0  0  0
 50127  1  0  0  0
 51 52  1  0  0  0
 51128  1  0  0  0
 51129  1  0  0  0
 52130  1  0  0  0
 52131  1  0  0  0
 53 54  1  0  0  0
 54 55  2  0  0  0
 54132  1  0  0  0
 55 57  1  0  0  0
 55133  1  0  0  0
 56 69  2  0  0  0
 57 58  2  0  0  0
 57134  1  0  0  0
 58135  1  0  0  0
 59 60  1  0  0  0
 59 61  1  0  0  0
 59 62  1  0  0  0
 60136  1  0  0  0
 60137  1  0  0  0
 60138  1  0  0  0
 61139  1  0  0  0
 61140  1  0  0  0
 61141  1  0  0  0
 62142  1  0  0  0
 62143  1  0  0  0
 62144  1  0  0  0
 63 65  1  0  0  0
 63145  1  0  0  0
 63146  1  0  0  0
 63147  1  0  0  0
 64148  1  0  0  0
 65149  1  0  0  0
 68 86  1  0  0  0
 71 73  2  0  0  0
 71 75  1  0  0  0
 71150  1  0  0  0
 72 74  1  0  0  0
 72 75  2  0  0  0
 72151  1  0  0  0
 73 76  1  0  0  0
 73152  1  0  0  0
 74 76  2  0  0  0
 74153  1  0  0  0
 75 84  1  0  0  0
 76 88  1  0  0  0
 77 88  1  0  0  0
 77 90  2  0  0  0
 77 81  1  0  0  0
 78 79  1  0  0  0
 78 80  1  0  0  0
 78154  1  0  0  0
 78155  1  0  0  0
 79 81  1  0  0  0
 79156  1  0  0  0
 79157  1  0  0  0
 80 87  1  0  0  0
 80158  1  0  0  0
 80159  1  0  0  0
 81 87  1  0  0  0
 81160  1  0  0  0
 82 88  1  0  0  0
 82161  1  0  0  0
 82162  1  0  0  0
 82163  1  0  0  0
 83164  1  0  0  0
 83165  1  0  0  0
 83166  1  0  0  0
 83 89  1  0  0  0
 84 89  1  0  0  0
 84167  1  0  0  0
 84168  1  0  0  0
 85 86  1  0  0  0
 85 89  1  0  0  0
 85169  1  0  0  0
 85170  1  0  0  0
 86171  1  0  0  0
 86172  1  0  0  0
 89173  1  0  0  0
M  CHG  1  89   1
M  ISO  4   1 100  68 101  86 101  87 100
M  END
> <chiral flag>
0

> <version>
0

> <s_m_source_file>
/data/baiqing/PycharmProjects/Reinvent-master-3.2/result/LINK_invent/BTK/process_docking_weight1_custom_product_contain_oxygen_bond_distance_aromatic_linkinvent_7_9_3/rearranged_h_0013.sdf

> <i_m_source_file_index>
52

> <r_mmod_Potential_Energy-OPLS-2005>
49.6756439208984

> <r_mmod_Stretch_Energy-OPLS-2005>
41.320442199707

> <r_mmod_Bend_Energy-OPLS-2005>
109.518241882324

> <r_mmod_Torsional_Energy-OPLS-2005>
381.446166992188

> <r_mmod_Improper_Torsional_Energy-OPLS-2005>
6.97830438613892

> <r_mmod_Van_der_Waal_Energy-OPLS-2005>
150.224578857422

> <r_mmod_Electrostatic_Energy-OPLS-2005>
-216.980850219727

> <r_mmod_Solvation_Energy-OPLS-2005>
-431.448333740234

> <b_mmod_Minimization_Converged-OPLS-2005>
0

> <r_mmod_RMS_Derivative-OPLS-2005>
2.10168051719666

$$$$
53
                    3D
 Structure written by MMmdl.
155163  0  0  1  0            999 V2000
  -30.5360  -15.0183   20.4852 C   0  0  0  0  0  0
  -30.4528  -12.6570   19.4994 C   0  0  0  0  0  0
  -29.5302  -12.5709   18.2564 C   0  0  0  0  0  0
  -28.0613  -12.3393   18.6649 C   0  0  0  0  0  0
  -27.6338  -13.2459   19.8485 C   0  0  2  0  0  0
  -28.6810  -13.2105   20.9784 C   0  0  0  0  0  0
  -25.2458  -13.8184   20.5730 C   0  0  0  0  0  0
  -24.1759  -13.0411   20.9208 C   0  0  0  0  0  0
  -24.6380  -11.6897   20.8721 C   0  0  0  0  0  0
  -23.9069  -10.4266   21.0382 C   0  0  0  0  0  0
  -24.3613   -9.4190   21.9176 C   0  0  0  0  0  0
  -23.6271   -8.2234   22.0755 C   0  0  0  0  0  0
  -22.4249   -8.0272   21.3542 C   0  0  0  0  0  0
  -21.9882   -9.0245   20.4651 C   0  0  0  0  0  0
  -22.7235  -10.2115   20.3048 C   0  0  0  0  0  0
  -21.6850   -6.0710   22.5267 C   0  0  0  0  0  0
  -21.4020   -6.5622   23.8200 C   0  0  0  0  0  0
  -21.3665   -5.6783   24.9167 C   0  0  0  0  0  0
  -21.6037   -4.3041   24.7219 C   0  0  0  0  0  0
  -21.8819   -3.8126   23.4347 C   0  0  0  0  0  0
  -21.9186   -4.6936   22.3397 C   0  0  0  0  0  0
  -22.7782  -13.5192   21.1870 C   0  0  0  0  0  0
  -22.1663   -4.2117   21.0975 F   0  0  0  0  0  0
  -21.5624   -3.4536   25.7741 F   0  0  0  0  0  0
  -29.9368  -13.7408   20.4047 N   0  0  0  0  0  0
  -26.2893  -12.9416   20.3252 N   0  0  0  0  0  0
  -25.9310  -11.6545   20.5676 N   0  0  0  0  0  0
  -22.0437  -12.8198   22.0446 N   0  0  0  0  0  0
  -25.4077  -15.1925   20.4237 N   0  0  0  0  0  0
  -31.7248  -15.0303   20.1393 O   0  0  0  0  0  0
  -21.6624   -6.8863   21.4234 O   0  0  0  0  0  0
  -22.3462  -14.5504   20.6719 O   0  0  0  0  0  0
  -24.6493  -31.8402   23.1852 C   0  0  0  0  0  0
  -25.9245  -32.4677   23.8252 C   0  0  1  0  0  0
  -27.2091  -27.0867   20.1624 C   0  0  0  0  0  0
  -25.5974  -33.8484   24.2174 N   0  0  0  0  0  0
  -23.4529  -30.4601   21.5324 C   0  0  2  0  0  0
  -24.9006  -28.8792   20.1108 C   0  0  0  0  0  0
  -22.7589  -29.4535   22.4844 C   0  0  0  0  0  0
  -18.0311  -28.1407   22.8477 C   0  0  0  0  0  0
  -24.1490  -36.7251   23.2642 C   0  0  0  0  0  0
  -26.0129  -30.6997   21.3902 C   0  0  0  0  0  0
  -26.0815  -29.3065   20.7313 C   0  0  0  0  0  0
  -27.2365  -28.4296   20.7339 C   0  0  0  0  0  0
  -26.0005  -26.7724   19.5020 C   0  0  0  0  0  0
  -24.8762  -27.6274   19.4779 C   0  0  0  0  0  0
  -23.6828  -29.7919   20.1511 C   0  0  0  0  0  0
  -25.4122  -36.3019   24.0313 C   0  0  1  0  0  0
  -20.5924  -28.3740   23.1232 C   0  0  2  0  0  0
  -20.6805  -26.9441   22.5405 C   0  0  0  0  0  0
  -19.5771  -26.6388   21.5220 C   0  0  0  0  0  0
  -18.1950  -26.7943   22.1633 C   0  0  0  0  0  0
  -19.1570  -28.8892   23.2846 C   0  0  0  0  0  0
  -18.9484  -30.1487   23.8873 C   0  0  0  0  0  0
  -17.6479  -30.6600   24.0563 C   0  0  0  0  0  0
  -25.9082  -34.9399   23.5049 C   0  0  0  0  0  0
  -16.5369  -29.9094   23.6339 C   0  0  0  0  0  0
  -16.7295  -28.6517   23.0353 C   0  0  0  0  0  0
  -26.4543  -31.6557   25.0714 C   0  0  0  0  0  0
  -25.3726  -31.3767   26.1415 C   0  0  0  0  0  0
  -27.0409  -30.2943   24.6320 C   0  0  0  0  0  0
  -27.6058  -32.4336   25.7506 C   0  0  0  0  0  0
  -27.5573  -37.1783   24.8466 C   0  0  0  0  0  0
  -21.4277  -29.3055   22.3593 N   0  0  0  0  0  0
  -26.4281  -37.3737   23.9411 N   0  0  0  0  0  0
  -24.7251  -31.0214   22.0910 N   0  0  0  0  0  0
  -23.4215  -28.8082   23.3011 O   0  0  0  0  0  0
  -28.2552  -26.0794   20.2190 O   0  0  0  0  0  0
  -26.5656  -34.8899   22.4624 O   0  0  0  0  0  0
  -23.5606  -32.1307   23.7046 O   0  0  0  0  0  0
  -31.4087  -18.0743   19.8734 C   0  0  0  0  0  0
  -31.8167  -19.4049   19.6428 C   0  0  0  0  0  0
  -29.2760  -18.9879   20.5383 C   0  0  0  0  0  0
  -30.1316  -17.7557   20.3790 C   0  0  0  0  0  0
  -29.6385  -20.4288   20.2750 C   0  0  0  0  0  0
  -31.0006  -20.5392   19.8558 C   0  0  0  0  0  0
  -28.8040  -16.2085   21.8080 C   0  0  0  0  0  0
  -27.3553  -21.3200   20.5982 C   0  0  0  0  0  0
  -29.0770  -23.2160   20.2310 C   0  0  0  0  0  0
  -27.9719  -24.5249   20.2694 C   0  0  0  0  0  0
  -29.8235  -16.2686   20.7556 N   0  0  0  0  0  0
  -28.7597  -21.6631   20.3953 N   0  0  0  0  0  0
  -31.7965  -22.0513   19.5831 Cl  0  0  0  0  0  0
  -31.4773  -12.8410   19.1714 H   0  0  0  0  0  0
  -30.4957  -11.6990   20.0221 H   0  0  0  0  0  0
  -29.8665  -11.7781   17.5865 H   0  0  0  0  0  0
  -29.6065  -13.4991   17.6878 H   0  0  0  0  0  0
  -27.9618  -11.2928   18.9533 H   0  0  0  0  0  0
  -27.3982  -12.4866   17.8117 H   0  0  0  0  0  0
  -27.6083  -14.2629   19.4571 H   0  0  0  0  0  0
  -28.8136  -12.1895   21.3366 H   0  0  0  0  0  0
  -28.3356  -13.7422   21.8577 H   0  0  0  0  0  0
  -25.2757   -9.5641   22.4759 H   0  0  0  0  0  0
  -23.9959   -7.4610   22.7469 H   0  0  0  0  0  0
  -21.0815   -8.8784   19.8954 H   0  0  0  0  0  0
  -22.3709  -10.9655   19.6157 H   0  0  0  0  0  0
  -21.2042   -7.6134   23.9693 H   0  0  0  0  0  0
  -21.1488   -6.0515   25.9068 H   0  0  0  0  0  0
  -22.0590   -2.7580   23.2851 H   0  0  0  0  0  0
  -22.4075  -11.9880   22.4858 H   0  0  0  0  0  0
  -21.1050  -13.1196   22.2676 H   0  0  0  0  0  0
  -24.6439  -15.8411   20.5807 H   0  0  0  0  0  0
  -26.2583  -15.6446   20.1149 H   0  0  0  0  0  0
  -26.7310  -32.5263   23.0979 H   0  0  0  0  0  0
  -25.0109  -33.9582   25.0314 H   0  0  0  0  0  0
  -22.7585  -31.2883   21.3780 H   0  0  0  0  0  0
  -23.3751  -35.9583   23.3287 H   0  0  0  0  0  0
  -24.3575  -36.8902   22.2059 H   0  0  0  0  0  0
  -23.7248  -37.6444   23.6692 H   0  0  0  0  0  0
  -26.1732  -31.4520   20.6162 H   0  0  0  0  0  0
  -26.8826  -30.7497   22.0340 H   0  0  0  0  0  0
  -28.1376  -28.7539   21.2352 H   0  0  0  0  0  0
  -25.8868  -25.8213   19.0056 H   0  0  0  0  0  0
  -23.9767  -27.2968   18.9772 H   0  0  0  0  0  0
  -23.8329  -30.5699   19.4014 H   0  0  0  0  0  0
  -22.7934  -29.2464   19.8313 H   0  0  0  0  0  0
  -25.1309  -36.1834   25.0801 H   0  0  0  0  0  0
  -21.0013  -28.3332   24.1355 H   0  0  0  0  0  0
  -20.5721  -26.2343   23.3623 H   0  0  0  0  0  0
  -21.6667  -26.7458   22.1188 H   0  0  0  0  0  0
  -19.6928  -25.6286   21.1277 H   0  0  0  0  0  0
  -19.6702  -27.3177   20.6731 H   0  0  0  0  0  0
  -17.4214  -26.6678   21.4041 H   0  0  0  0  0  0
  -18.0351  -26.0100   22.9047 H   0  0  0  0  0  0
  -19.7956  -30.7313   24.2229 H   0  0  0  0  0  0
  -17.5029  -31.6274   24.5175 H   0  0  0  0  0  0
  -15.5370  -30.2988   23.7675 H   0  0  0  0  0  0
  -15.8696  -28.0830   22.7080 H   0  0  0  0  0  0
  -24.5832  -30.7210   25.7722 H   0  0  0  0  0  0
  -24.9019  -32.2975   26.4870 H   0  0  0  0  0  0
  -25.7998  -30.8875   27.0181 H   0  0  0  0  0  0
  -26.3030  -29.6654   24.1326 H   0  0  0  0  0  0
  -27.4005  -29.7253   25.4904 H   0  0  0  0  0  0
  -27.8947  -30.4161   23.9653 H   0  0  0  0  0  0
  -27.2623  -33.3638   26.2042 H   0  0  0  0  0  0
  -28.3891  -32.6903   25.0362 H   0  0  0  0  0  0
  -28.0705  -31.8502   26.5466 H   0  0  0  0  0  0
  -28.2580  -38.0090   24.7509 H   0  0  0  0  0  0
  -28.1080  -36.2618   24.6290 H   0  0  0  0  0  0
  -27.2293  -37.1431   25.8871 H   0  0  0  0  0  0
  -20.9491  -29.8755   21.6756 H   0  0  0  0  0  0
  -26.0142  -38.2800   24.1417 H   0  0  0  0  0  0
  -32.1511  -17.3131   19.6997 H   0  0  0  0  0  0
  -32.8302  -19.5639   19.3068 H   0  0  0  0  0  0
  -28.2750  -18.8142   20.8996 H   0  0  0  0  0  0
  -27.8452  -15.8911   21.4085 H   0  0  0  0  0  0
  -28.6438  -17.1645   22.3055 H   0  0  0  0  0  0
  -29.1118  -15.5461   22.6178 H   0  0  0  0  0  0
  -27.1653  -21.0617   21.6416 H   0  0  0  0  0  0
  -27.0576  -20.4710   19.9787 H   0  0  0  0  0  0
  -26.6928  -22.1432   20.3317 H   0  0  0  0  0  0
  -29.8388  -23.4418   20.9786 H   0  0  0  0  0  0
  -29.5702  -23.3150   19.2648 H   0  0  0  0  0  0
  -27.3796  -24.3902   21.1755 H   0  0  0  0  0  0
  -27.2846  -24.3119   19.4535 H   0  0  0  0  0  0
  1 25  1  0  0  0
  1 30  2  0  0  0
  1 81  1  0  0  0
  2  3  1  0  0  0
  2 25  1  0  0  0
  2 84  1  0  0  0
  2 85  1  0  0  0
  3  4  1  0  0  0
  3 86  1  0  0  0
  3 87  1  0  0  0
  4  5  1  0  0  0
  4 88  1  0  0  0
  4 89  1  0  0  0
  5  6  1  0  0  0
  5 26  1  0  0  0
  5 90  1  0  0  0
  6 25  1  0  0  0
  6 91  1  0  0  0
  6 92  1  0  0  0
  7  8  2  0  0  0
  7 26  1  0  0  0
  7 29  1  0  0  0
  8  9  1  0  0  0
  8 22  1  0  0  0
  9 10  1  0  0  0
  9 27  2  0  0  0
 10 11  2  0  0  0
 10 15  1  0  0  0
 11 12  1  0  0  0
 11 93  1  0  0  0
 12 13  2  0  0  0
 12 94  1  0  0  0
 13 14  1  0  0  0
 13 31  1  0  0  0
 14 15  2  0  0  0
 14 95  1  0  0  0
 15 96  1  0  0  0
 16 17  2  0  0  0
 16 21  1  0  0  0
 16 31  1  0  0  0
 17 18  1  0  0  0
 17 97  1  0  0  0
 18 19  2  0  0  0
 18 98  1  0  0  0
 19 20  1  0  0  0
 19 24  1  0  0  0
 20 21  2  0  0  0
 20 99  1  0  0  0
 21 23  1  0  0  0
 22 28  1  0  0  0
 22 32  2  0  0  0
 26 27  1  0  0  0
 28100  1  0  0  0
 28101  1  0  0  0
 29102  1  0  0  0
 29103  1  0  0  0
 33 34  1  0  0  0
 33 66  1  0  0  0
 33 70  2  0  0  0
 34 36  1  0  0  0
 34 59  1  0  0  0
 34104  1  0  0  0
 35 44  2  0  0  0
 35 45  1  0  0  0
 35 68  1  0  0  0
 36 56  1  0  0  0
 36105  1  0  0  0
 37 39  1  0  0  0
 37 47  1  0  0  0
 37 66  1  0  0  0
 37106  1  0  0  0
 38 43  2  0  0  0
 38 46  1  0  0  0
 38 47  1  0  0  0
 39 64  1  0  0  0
 39 67  2  0  0  0
 40 52  1  0  0  0
 40 53  2  0  0  0
 40 58  1  0  0  0
 41107  1  0  0  0
 41108  1  0  0  0
 41109  1  0  0  0
 41 48  1  0  0  0
 42 43  1  0  0  0
 42 66  1  0  0  0
 42110  1  0  0  0
 42111  1  0  0  0
 43 44  1  0  0  0
 44112  1  0  0  0
 45 46  2  0  0  0
 45113  1  0  0  0
 46114  1  0  0  0
 47115  1  0  0  0
 47116  1  0  0  0
 48 56  1  0  0  0
 48 65  1  0  0  0
 48117  1  0  0  0
 49 50  1  0  0  0
 49 53  1  0  0  0
 49 64  1  0  0  0
 49118  1  0  0  0
 50 51  1  0  0  0
 50119  1  0  0  0
 50120  1  0  0  0
 51 52  1  0  0  0
 51121  1  0  0  0
 51122  1  0  0  0
 52123  1  0  0  0
 52124  1  0  0  0
 53 54  1  0  0  0
 54 55  2  0  0  0
 54125  1  0  0  0
 55 57  1  0  0  0
 55126  1  0  0  0
 56 69  2  0  0  0
 57 58  2  0  0  0
 57127  1  0  0  0
 58128  1  0  0  0
 59 60  1  0  0  0
 59 61  1  0  0  0
 59 62  1  0  0  0
 60129  1  0  0  0
 60130  1  0  0  0
 60131  1  0  0  0
 61132  1  0  0  0
 61133  1  0  0  0
 61134  1  0  0  0
 62135  1  0  0  0
 62136  1  0  0  0
 62137  1  0  0  0
 63 65  1  0  0  0
 63138  1  0  0  0
 63139  1  0  0  0
 63140  1  0  0  0
 64141  1  0  0  0
 65142  1  0  0  0
 68 80  1  0  0  0
 71 72  2  0  0  0
 71 74  1  0  0  0
 71143  1  0  0  0
 72 76  1  0  0  0
 72144  1  0  0  0
 73 74  2  0  0  0
 73 75  1  0  0  0
 73145  1  0  0  0
 74 81  1  0  0  0
 75 76  2  0  0  0
 75 82  1  0  0  0
 76 83  1  0  0  0
 77 81  1  0  0  0
 77146  1  0  0  0
 77147  1  0  0  0
 77148  1  0  0  0
 78 82  1  0  0  0
 78149  1  0  0  0
 78150  1  0  0  0
 78151  1  0  0  0
 79 80  1  0  0  0
 79 82  1  0  0  0
 79152  1  0  0  0
 79153  1  0  0  0
 80154  1  0  0  0
 80155  1  0  0  0
M  ISO  4   1 100  68 101  80 101  81 100
M  END
> <chiral flag>
0

> <version>
0

> <s_m_source_file>
/data/baiqing/PycharmProjects/Reinvent-master-3.2/result/LINK_invent/BTK/process_docking_weight1_custom_product_contain_oxygen_bond_distance_aromatic_linkinvent_7_9_3/rearranged_h_0013.sdf

> <i_m_source_file_index>
53

> <r_mmod_Potential_Energy-OPLS-2005>
858.35986328125

> <r_mmod_Stretch_Energy-OPLS-2005>
342.402130126953

> <r_mmod_Bend_Energy-OPLS-2005>
308.990570068359

> <r_mmod_Torsional_Energy-OPLS-2005>
264.094604492188

> <r_mmod_Improper_Torsional_Energy-OPLS-2005>
4.44735765457153

> <r_mmod_Van_der_Waal_Energy-OPLS-2005>
161.381271362305

> <r_mmod_Electrostatic_Energy-OPLS-2005>
-237.819686889648

> <r_mmod_Solvation_Energy-OPLS-2005>
-211.747192382812

> <b_mmod_Minimization_Converged-OPLS-2005>
0

> <r_mmod_RMS_Derivative-OPLS-2005>
2.61789703369141

$$$$
54
                    3D
 Structure written by MMmdl.
152160  0  0  1  0            999 V2000
  -30.5587  -14.9386   20.3408 C   0  0  0  0  0  0
  -30.4460  -12.5624   19.4774 C   0  0  0  0  0  0
  -29.5181  -12.4355   18.2469 C   0  0  0  0  0  0
  -28.0430  -12.2867   18.6710 C   0  0  0  0  0  0
  -27.6247  -13.2423   19.8219 C   0  0  2  0  0  0
  -28.6809  -13.3004   20.9431 C   0  0  0  0  0  0
  -25.2450  -13.8135   20.5834 C   0  0  0  0  0  0
  -24.1758  -13.0370   20.9287 C   0  0  0  0  0  0
  -24.6386  -11.6874   20.8775 C   0  0  0  0  0  0
  -23.9073  -10.4256   21.0409 C   0  0  0  0  0  0
  -24.3622   -9.4176   21.9188 C   0  0  0  0  0  0
  -23.6291   -8.2218   22.0754 C   0  0  0  0  0  0
  -22.4272   -8.0266   21.3542 C   0  0  0  0  0  0
  -21.9912   -9.0240   20.4644 C   0  0  0  0  0  0
  -22.7247  -10.2112   20.3054 C   0  0  0  0  0  0
  -21.6846   -6.0730   22.5281 C   0  0  0  0  0  0
  -21.4009   -6.5636   23.8213 C   0  0  0  0  0  0
  -21.3657   -5.6791   24.9177 C   0  0  0  0  0  0
  -21.6044   -4.3055   24.7229 C   0  0  0  0  0  0
  -21.8820   -3.8144   23.4350 C   0  0  0  0  0  0
  -21.9191   -4.6959   22.3405 C   0  0  0  0  0  0
  -22.7780  -13.5160   21.1919 C   0  0  0  0  0  0
  -22.1662   -4.2145   21.0983 F   0  0  0  0  0  0
  -21.5629   -3.4539   25.7742 F   0  0  0  0  0  0
  -29.9453  -13.6889   20.3062 N   0  0  0  0  0  0
  -26.2880  -12.9403   20.3254 N   0  0  0  0  0  0
  -25.9317  -11.6533   20.5752 N   0  0  0  0  0  0
  -22.0419  -12.8155   22.0468 N   0  0  0  0  0  0
  -25.4015  -15.1845   20.4430 N   0  0  0  0  0  0
  -31.7948  -14.9540   20.3135 O   0  0  0  0  0  0
  -21.6629   -6.8870   21.4241 O   0  0  0  0  0  0
  -22.3470  -14.5466   20.6755 O   0  0  0  0  0  0
  -24.6409  -31.8464   23.1903 C   0  0  0  0  0  0
  -25.9193  -32.4707   23.8283 C   0  0  1  0  0  0
  -27.2222  -27.1659   20.1438 C   0  0  0  0  0  0
  -25.5951  -33.8512   24.2200 N   0  0  0  0  0  0
  -23.4430  -30.4664   21.5356 C   0  0  2  0  0  0
  -24.8927  -28.8987   20.1098 C   0  0  0  0  0  0
  -22.7553  -29.4558   22.4872 C   0  0  0  0  0  0
  -18.0301  -28.1396   22.8478 C   0  0  0  0  0  0
  -24.1490  -36.7256   23.2642 C   0  0  0  0  0  0
  -25.9970  -30.7293   21.3854 C   0  0  0  0  0  0
  -26.0693  -29.3436   20.7260 C   0  0  0  0  0  0
  -27.2346  -28.4929   20.7270 C   0  0  0  0  0  0
  -26.0188  -26.8172   19.4889 C   0  0  0  0  0  0
  -24.8788  -27.6477   19.4768 C   0  0  0  0  0  0
  -23.6675  -29.7965   20.1544 C   0  0  0  0  0  0
  -25.4123  -36.3038   24.0317 C   0  0  1  0  0  0
  -20.5912  -28.3717   23.1242 C   0  0  2  0  0  0
  -20.6785  -26.9424   22.5405 C   0  0  0  0  0  0
  -19.5760  -26.6383   21.5211 C   0  0  0  0  0  0
  -18.1942  -26.7934   22.1623 C   0  0  0  0  0  0
  -19.1558  -28.8875   23.2851 C   0  0  0  0  0  0
  -18.9475  -30.1470   23.8877 C   0  0  0  0  0  0
  -17.6473  -30.6592   24.0560 C   0  0  0  0  0  0
  -25.9072  -34.9413   23.5065 C   0  0  0  0  0  0
  -16.5363  -29.9086   23.6336 C   0  0  0  0  0  0
  -16.7287  -28.6504   23.0358 C   0  0  0  0  0  0
  -26.4524  -31.6568   25.0716 C   0  0  0  0  0  0
  -25.3714  -31.3750   26.1412 C   0  0  0  0  0  0
  -27.0389  -30.2968   24.6282 C   0  0  0  0  0  0
  -27.6057  -32.4331   25.7502 C   0  0  0  0  0  0
  -27.5575  -37.1786   24.8467 C   0  0  0  0  0  0
  -21.4249  -29.3045   22.3616 N   0  0  0  0  0  0
  -26.4288  -37.3750   23.9407 N   0  0  0  0  0  0
  -24.7132  -31.0344   22.0925 N   0  0  0  0  0  0
  -23.4206  -28.8109   23.3017 O   0  0  0  0  0  0
  -28.2841  -26.1982   20.2179 O   0  0  0  0  0  0
  -26.5656  -34.8908   22.4643 O   0  0  0  0  0  0
  -23.5534  -32.1328   23.7141 O   0  0  0  0  0  0
  -30.1300  -19.9422   20.6850 C   0  0  0  0  0  0
  -30.4271  -18.5046   20.6484 C   0  0  0  0  0  0
  -28.0602  -19.5213   19.6561 C   0  0  0  0  0  0
  -28.9218  -20.5348   20.1686 C   0  0  0  0  0  0
  -29.5564  -17.4987   20.0851 C   0  0  0  0  0  0
  -28.3468  -18.1112   19.5995 C   0  0  0  0  0  0
  -29.9452  -15.8901   18.2659 C   0  0  0  0  0  0
  -28.9868  -23.3706   20.3701 C   0  0  0  0  0  0
  -28.0051  -24.6890   20.0280 C   0  0  0  0  0  0
  -28.4571  -21.9431   20.0879 N   0  0  0  0  0  0
  -29.8741  -16.0337   19.7356 N   0  0  0  0  0  0
  -27.1391  -17.1517   18.8228 Cl  0  0  0  0  0  0
  -31.4741  -12.7277   19.1508 H   0  0  0  0  0  0
  -30.4562  -11.6367   20.0548 H   0  0  0  0  0  0
  -29.8148  -11.5714   17.6508 H   0  0  0  0  0  0
  -29.6338  -13.2900   17.5854 H   0  0  0  0  0  0
  -27.9135  -11.2534   18.9944 H   0  0  0  0  0  0
  -27.3851  -12.4163   17.8108 H   0  0  0  0  0  0
  -27.5726  -14.2354   19.3774 H   0  0  0  0  0  0
  -28.7712  -12.3419   21.4564 H   0  0  0  0  0  0
  -28.3965  -14.0385   21.6950 H   0  0  0  0  0  0
  -25.2765   -9.5654   22.4766 H   0  0  0  0  0  0
  -23.9996   -7.4607   22.7474 H   0  0  0  0  0  0
  -21.0841   -8.8765   19.8950 H   0  0  0  0  0  0
  -22.3712  -10.9658   19.6166 H   0  0  0  0  0  0
  -21.1999   -7.6144   23.9716 H   0  0  0  0  0  0
  -21.1479   -6.0522   25.9080 H   0  0  0  0  0  0
  -22.0601   -2.7606   23.2853 H   0  0  0  0  0  0
  -22.4038  -11.9823   22.4866 H   0  0  0  0  0  0
  -21.1031  -13.1174   22.2660 H   0  0  0  0  0  0
  -24.6198  -15.8217   20.5390 H   0  0  0  0  0  0
  -26.2249  -15.6316   20.0559 H   0  0  0  0  0  0
  -26.7259  -32.5323   23.1014 H   0  0  0  0  0  0
  -25.0083  -33.9630   25.0337 H   0  0  0  0  0  0
  -22.7442  -31.2915   21.3832 H   0  0  0  0  0  0
  -23.3759  -35.9581   23.3297 H   0  0  0  0  0  0
  -24.3575  -36.8894   22.2058 H   0  0  0  0  0  0
  -23.7238  -37.6448   23.6681 H   0  0  0  0  0  0
  -26.1496  -31.4861   20.6147 H   0  0  0  0  0  0
  -26.8683  -30.7779   22.0268 H   0  0  0  0  0  0
  -28.1305  -28.8283   21.2305 H   0  0  0  0  0  0
  -25.9220  -25.8624   18.9954 H   0  0  0  0  0  0
  -23.9807  -27.3020   18.9833 H   0  0  0  0  0  0
  -23.8000  -30.5710   19.3981 H   0  0  0  0  0  0
  -22.7833  -29.2359   19.8459 H   0  0  0  0  0  0
  -25.1311  -36.1868   25.0810 H   0  0  0  0  0  0
  -21.0002  -28.3306   24.1363 H   0  0  0  0  0  0
  -20.5677  -26.2332   23.3621 H   0  0  0  0  0  0
  -21.6653  -26.7431   22.1206 H   0  0  0  0  0  0
  -19.6922  -25.6288   21.1254 H   0  0  0  0  0  0
  -19.6698  -27.3182   20.6731 H   0  0  0  0  0  0
  -17.4210  -26.6677   21.4027 H   0  0  0  0  0  0
  -18.0344  -26.0081   22.9025 H   0  0  0  0  0  0
  -19.7952  -30.7291   24.2238 H   0  0  0  0  0  0
  -17.5028  -31.6271   24.5164 H   0  0  0  0  0  0
  -15.5363  -30.2983   23.7671 H   0  0  0  0  0  0
  -15.8686  -28.0815   22.7088 H   0  0  0  0  0  0
  -24.5902  -30.7089   25.7731 H   0  0  0  0  0  0
  -24.8894  -32.2929   26.4784 H   0  0  0  0  0  0
  -25.8001  -30.8959   27.0223 H   0  0  0  0  0  0
  -26.3004  -29.6695   24.1277 H   0  0  0  0  0  0
  -27.3997  -29.7262   25.4850 H   0  0  0  0  0  0
  -27.8914  -30.4212   23.9601 H   0  0  0  0  0  0
  -27.2653  -33.3650   26.2030 H   0  0  0  0  0  0
  -28.3899  -32.6860   25.0353 H   0  0  0  0  0  0
  -28.0693  -31.8489   26.5462 H   0  0  0  0  0  0
  -28.2590  -38.0085   24.7513 H   0  0  0  0  0  0
  -28.1074  -36.2614   24.6298 H   0  0  0  0  0  0
  -27.2291  -37.1440   25.8870 H   0  0  0  0  0  0
  -20.9455  -29.8752   21.6793 H   0  0  0  0  0  0
  -26.0155  -38.2817   24.1413 H   0  0  0  0  0  0
  -30.8770  -20.5987   21.1084 H   0  0  0  0  0  0
  -31.3921  -18.1858   21.0147 H   0  0  0  0  0  0
  -27.1137  -19.8315   19.2383 H   0  0  0  0  0  0
  -29.0479  -15.4045   17.8859 H   0  0  0  0  0  0
  -30.8062  -15.3163   17.9136 H   0  0  0  0  0  0
  -30.0225  -16.8549   17.7626 H   0  0  0  0  0  0
  -29.2605  -23.4150   21.4249 H   0  0  0  0  0  0
  -29.9217  -23.4890   19.8208 H   0  0  0  0  0  0
  -27.0779  -24.4987   20.5699 H   0  0  0  0  0  0
  -27.7483  -24.5833   18.9735 H   0  0  0  0  0  0
  -27.5204  -22.0015   19.6945 H   0  0  0  0  0  0
  1 25  1  0  0  0
  1 30  2  0  0  0
  1 81  1  0  0  0
  2  3  1  0  0  0
  2 25  1  0  0  0
  2 83  1  0  0  0
  2 84  1  0  0  0
  3  4  1  0  0  0
  3 85  1  0  0  0
  3 86  1  0  0  0
  4  5  1  0  0  0
  4 87  1  0  0  0
  4 88  1  0  0  0
  5  6  1  0  0  0
  5 26  1  0  0  0
  5 89  1  0  0  0
  6 25  1  0  0  0
  6 90  1  0  0  0
  6 91  1  0  0  0
  7  8  2  0  0  0
  7 26  1  0  0  0
  7 29  1  0  0  0
  8  9  1  0  0  0
  8 22  1  0  0  0
  9 10  1  0  0  0
  9 27  2  0  0  0
 10 11  2  0  0  0
 10 15  1  0  0  0
 11 12  1  0  0  0
 11 92  1  0  0  0
 12 13  2  0  0  0
 12 93  1  0  0  0
 13 14  1  0  0  0
 13 31  1  0  0  0
 14 15  2  0  0  0
 14 94  1  0  0  0
 15 95  1  0  0  0
 16 17  2  0  0  0
 16 21  1  0  0  0
 16 31  1  0  0  0
 17 18  1  0  0  0
 17 96  1  0  0  0
 18 19  2  0  0  0
 18 97  1  0  0  0
 19 20  1  0  0  0
 19 24  1  0  0  0
 20 21  2  0  0  0
 20 98  1  0  0  0
 21 23  1  0  0  0
 22 28  1  0  0  0
 22 32  2  0  0  0
 26 27  1  0  0  0
 28 99  1  0  0  0
 28100  1  0  0  0
 29101  1  0  0  0
 29102  1  0  0  0
 33 34  1  0  0  0
 33 66  1  0  0  0
 33 70  2  0  0  0
 34 36  1  0  0  0
 34 59  1  0  0  0
 34103  1  0  0  0
 35 44  2  0  0  0
 35 45  1  0  0  0
 35 68  1  0  0  0
 36 56  1  0  0  0
 36104  1  0  0  0
 37 39  1  0  0  0
 37 47  1  0  0  0
 37 66  1  0  0  0
 37105  1  0  0  0
 38 43  2  0  0  0
 38 46  1  0  0  0
 38 47  1  0  0  0
 39 64  1  0  0  0
 39 67  2  0  0  0
 40 52  1  0  0  0
 40 53  2  0  0  0
 40 58  1  0  0  0
 41106  1  0  0  0
 41107  1  0  0  0
 41108  1  0  0  0
 41 48  1  0  0  0
 42 43  1  0  0  0
 42 66  1  0  0  0
 42109  1  0  0  0
 42110  1  0  0  0
 43 44  1  0  0  0
 44111  1  0  0  0
 45 46  2  0  0  0
 45112  1  0  0  0
 46113  1  0  0  0
 47114  1  0  0  0
 47115  1  0  0  0
 48 56  1  0  0  0
 48 65  1  0  0  0
 48116  1  0  0  0
 49 50  1  0  0  0
 49 53  1  0  0  0
 49 64  1  0  0  0
 49117  1  0  0  0
 50 51  1  0  0  0
 50118  1  0  0  0
 50119  1  0  0  0
 51 52  1  0  0  0
 51120  1  0  0  0
 51121  1  0  0  0
 52122  1  0  0  0
 52123  1  0  0  0
 53 54  1  0  0  0
 54 55  2  0  0  0
 54124  1  0  0  0
 55 57  1  0  0  0
 55125  1  0  0  0
 56 69  2  0  0  0
 57 58  2  0  0  0
 57126  1  0  0  0
 58127  1  0  0  0
 59 60  1  0  0  0
 59 61  1  0  0  0
 59 62  1  0  0  0
 60128  1  0  0  0
 60129  1  0  0  0
 60130  1  0  0  0
 61131  1  0  0  0
 61132  1  0  0  0
 61133  1  0  0  0
 62134  1  0  0  0
 62135  1  0  0  0
 62136  1  0  0  0
 63 65  1  0  0  0
 63137  1  0  0  0
 63138  1  0  0  0
 63139  1  0  0  0
 64140  1  0  0  0
 65141  1  0  0  0
 68 79  1  0  0  0
 71 72  2  0  0  0
 71 74  1  0  0  0
 71142  1  0  0  0
 72 75  1  0  0  0
 72143  1  0  0  0
 73 74  2  0  0  0
 73 76  1  0  0  0
 73144  1  0  0  0
 74 80  1  0  0  0
 75 76  2  0  0  0
 75 81  1  0  0  0
 76 82  1  0  0  0
 77 81  1  0  0  0
 77145  1  0  0  0
 77146  1  0  0  0
 77147  1  0  0  0
 78 79  1  0  0  0
 78 80  1  0  0  0
 78148  1  0  0  0
 78149  1  0  0  0
 79150  1  0  0  0
 79151  1  0  0  0
 80152  1  0  0  0
M  ISO  4   1 100  68 101  79 101  81 100
M  END
> <chiral flag>
0

> <version>
0

> <s_m_source_file>
/data/baiqing/PycharmProjects/Reinvent-master-3.2/result/LINK_invent/BTK/process_docking_weight1_custom_product_contain_oxygen_bond_distance_aromatic_linkinvent_7_9_3/rearranged_h_0013.sdf

> <i_m_source_file_index>
54

> <r_mmod_Potential_Energy-OPLS-2005>
665.677795410156

> <r_mmod_Stretch_Energy-OPLS-2005>
210.87825012207

> <r_mmod_Bend_Energy-OPLS-2005>
294.943023681641

> <r_mmod_Torsional_Energy-OPLS-2005>
311.075378417969

> <r_mmod_Improper_Torsional_Energy-OPLS-2005>
30.0703773498535

> <r_mmod_Van_der_Waal_Energy-OPLS-2005>
142.055145263672

> <r_mmod_Electrostatic_Energy-OPLS-2005>
-309.612091064453

> <r_mmod_Solvation_Energy-OPLS-2005>
-202.458892822266

> <b_mmod_Minimization_Converged-OPLS-2005>
0

> <r_mmod_RMS_Derivative-OPLS-2005>
0.292037159204483

$$$$
55
                    3D
 Structure written by MMmdl.
152160  0  0  1  0            999 V2000
  -30.6938  -14.5955   20.4766 C   0  0  0  0  0  0
  -30.4109  -12.3586   19.4710 C   0  0  0  0  0  0
  -29.4996  -12.4840   18.2312 C   0  0  0  0  0  0
  -28.0240  -12.3296   18.6415 C   0  0  0  0  0  0
  -27.6437  -13.2250   19.8511 C   0  0  2  0  0  0
  -28.6832  -13.1298   20.9879 C   0  0  0  0  0  0
  -25.2534  -13.8206   20.5700 C   0  0  0  0  0  0
  -24.1806  -13.0455   20.9194 C   0  0  0  0  0  0
  -24.6379  -11.6926   20.8734 C   0  0  0  0  0  0
  -23.9054  -10.4300   21.0400 C   0  0  0  0  0  0
  -24.3610   -9.4220   21.9179 C   0  0  0  0  0  0
  -23.6299   -8.2250   22.0755 C   0  0  0  0  0  0
  -22.4280   -8.0286   21.3549 C   0  0  0  0  0  0
  -21.9910   -9.0254   20.4649 C   0  0  0  0  0  0
  -22.7227  -10.2137   20.3056 C   0  0  0  0  0  0
  -21.6851   -6.0739   22.5277 C   0  0  0  0  0  0
  -21.4007   -6.5639   23.8211 C   0  0  0  0  0  0
  -21.3666   -5.6796   24.9177 C   0  0  0  0  0  0
  -21.6049   -4.3061   24.7225 C   0  0  0  0  0  0
  -21.8819   -3.8150   23.4347 C   0  0  0  0  0  0
  -21.9196   -4.6967   22.3403 C   0  0  0  0  0  0
  -22.7827  -13.5232   21.1874 C   0  0  0  0  0  0
  -22.1664   -4.2153   21.0979 F   0  0  0  0  0  0
  -21.5637   -3.4542   25.7735 F   0  0  0  0  0  0
  -30.0064  -13.4137   20.4213 N   0  0  0  0  0  0
  -26.2939  -12.9396   20.3279 N   0  0  0  0  0  0
  -25.9300  -11.6540   20.5736 N   0  0  0  0  0  0
  -22.0483  -12.8205   22.0433 N   0  0  0  0  0  0
  -25.4287  -15.1924   20.4147 N   0  0  0  0  0  0
  -31.8770  -14.6572   20.1366 O   0  0  0  0  0  0
  -21.6656   -6.8879   21.4238 O   0  0  0  0  0  0
  -22.3506  -14.5544   20.6747 O   0  0  0  0  0  0
  -24.6225  -31.8629   23.2063 C   0  0  0  0  0  0
  -25.9089  -32.4794   23.8380 C   0  0  1  0  0  0
  -27.2172  -27.3451   20.1084 C   0  0  0  0  0  0
  -25.5921  -33.8593   24.2305 N   0  0  0  0  0  0
  -23.4139  -30.4896   21.5486 C   0  0  2  0  0  0
  -24.8601  -28.9557   20.1073 C   0  0  0  0  0  0
  -22.7456  -29.4639   22.4945 C   0  0  0  0  0  0
  -18.0288  -28.1373   22.8497 C   0  0  0  0  0  0
  -24.1498  -36.7305   23.2638 C   0  0  0  0  0  0
  -25.9543  -30.8017   21.3758 C   0  0  0  0  0  0
  -26.0269  -29.4323   20.7180 C   0  0  0  0  0  0
  -27.2056  -28.6345   20.7180 C   0  0  0  0  0  0
  -26.0325  -26.9306   19.4526 C   0  0  0  0  0  0
  -24.8639  -27.7098   19.4676 C   0  0  0  0  0  0
  -23.6262  -29.8303   20.1613 C   0  0  0  0  0  0
  -25.4115  -36.3088   24.0329 C   0  0  1  0  0  0
  -20.5883  -28.3667   23.1296 C   0  0  2  0  0  0
  -20.6772  -26.9393   22.5414 C   0  0  0  0  0  0
  -19.5746  -26.6380   21.5213 C   0  0  0  0  0  0
  -18.1930  -26.7921   22.1630 C   0  0  0  0  0  0
  -19.1537  -28.8837   23.2897 C   0  0  0  0  0  0
  -18.9460  -30.1447   23.8903 C   0  0  0  0  0  0
  -17.6455  -30.6577   24.0562 C   0  0  0  0  0  0
  -25.9043  -34.9456   23.5113 C   0  0  0  0  0  0
  -16.5349  -29.9073   23.6326 C   0  0  0  0  0  0
  -16.7274  -28.6490   23.0350 C   0  0  0  0  0  0
  -26.4490  -31.6588   25.0731 C   0  0  0  0  0  0
  -25.3738  -31.3718   26.1464 C   0  0  0  0  0  0
  -27.0334  -30.3020   24.6155 C   0  0  0  0  0  0
  -27.6052  -32.4320   25.7503 C   0  0  0  0  0  0
  -27.5581  -37.1805   24.8464 C   0  0  0  0  0  0
  -21.4172  -29.3031   22.3698 N   0  0  0  0  0  0
  -26.4295  -37.3775   23.9405 N   0  0  0  0  0  0
  -24.6824  -31.0671   22.1005 N   0  0  0  0  0  0
  -23.4206  -28.8164   23.2986 O   0  0  0  0  0  0
  -28.3377  -26.5078   20.1846 O   0  0  0  0  0  0
  -26.5602  -34.8911   22.4671 O   0  0  0  0  0  0
  -23.5397  -32.1415   23.7408 O   0  0  0  0  0  0
  -29.7297  -17.1071   20.6338 C   0  0  0  0  0  0
  -30.0141  -15.9024   20.6774 C   0  0  0  0  0  0
  -29.1448  -19.5028   21.3759 C   0  0  0  0  0  0
  -29.9651  -19.1159   19.1504 C   0  0  0  0  0  0
  -29.0948  -20.9097   21.1164 C   0  0  0  0  0  0
  -29.9092  -20.5087   18.8942 C   0  0  0  0  0  0
  -29.5945  -18.5733   20.3989 C   0  0  0  0  0  0
  -29.4906  -21.4641   19.8670 C   0  0  0  0  0  0
  -30.3058  -23.2712   18.4001 C   0  0  0  0  0  0
  -29.1411  -24.0088   20.4582 C   0  0  0  0  0  0
  -28.1825  -25.0918   19.8154 C   0  0  0  0  0  0
  -29.4948  -22.8738   19.5547 N   0  0  0  0  0  0
  -31.4593  -12.4317   19.1782 H   0  0  0  0  0  0
  -30.2982  -11.3772   19.9349 H   0  0  0  0  0  0
  -29.7586  -11.7258   17.4911 H   0  0  0  0  0  0
  -29.6511  -13.4507   17.7489 H   0  0  0  0  0  0
  -27.8645  -11.2796   18.8921 H   0  0  0  0  0  0
  -27.3702  -12.5412   17.7952 H   0  0  0  0  0  0
  -27.6521  -14.2514   19.4835 H   0  0  0  0  0  0
  -28.6759  -12.1369   21.4405 H   0  0  0  0  0  0
  -28.4379  -13.8287   21.7884 H   0  0  0  0  0  0
  -25.2752   -9.5708   22.4754 H   0  0  0  0  0  0
  -24.0029   -7.4633   22.7453 H   0  0  0  0  0  0
  -21.0860   -8.8750   19.8937 H   0  0  0  0  0  0
  -22.3680  -10.9673   19.6167 H   0  0  0  0  0  0
  -21.1989   -7.6141   23.9712 H   0  0  0  0  0  0
  -21.1492   -6.0527   25.9077 H   0  0  0  0  0  0
  -22.0594   -2.7612   23.2843 H   0  0  0  0  0  0
  -22.4117  -11.9860   22.4796 H   0  0  0  0  0  0
  -21.1094  -13.1202   22.2648 H   0  0  0  0  0  0
  -24.6706  -15.8557   20.5340 H   0  0  0  0  0  0
  -26.2961  -15.6275   20.1248 H   0  0  0  0  0  0
  -26.7155  -32.5483   23.1133 H   0  0  0  0  0  0
  -25.0079  -33.9746   25.0458 H   0  0  0  0  0  0
  -22.7056  -31.3087   21.4096 H   0  0  0  0  0  0
  -23.3746  -35.9654   23.3310 H   0  0  0  0  0  0
  -24.3593  -36.8913   22.2051 H   0  0  0  0  0  0
  -23.7268  -37.6517   23.6655 H   0  0  0  0  0  0
  -26.0807  -31.5665   20.6079 H   0  0  0  0  0  0
  -26.8359  -30.8504   22.0032 H   0  0  0  0  0  0
  -28.0965  -28.9909   21.2163 H   0  0  0  0  0  0
  -25.9707  -25.9942   18.9202 H   0  0  0  0  0  0
  -23.9732  -27.3440   18.9758 H   0  0  0  0  0  0
  -23.7386  -30.6086   19.4059 H   0  0  0  0  0  0
  -22.7477  -29.2560   19.8614 H   0  0  0  0  0  0
  -25.1294  -36.1947   25.0822 H   0  0  0  0  0  0
  -20.9988  -28.3230   24.1407 H   0  0  0  0  0  0
  -20.5674  -26.2264   23.3600 H   0  0  0  0  0  0
  -21.6638  -26.7419   22.1197 H   0  0  0  0  0  0
  -19.6900  -25.6296   21.1223 H   0  0  0  0  0  0
  -19.6684  -27.3201   20.6751 H   0  0  0  0  0  0
  -17.4196  -26.6680   21.4037 H   0  0  0  0  0  0
  -18.0329  -26.0059   22.9020 H   0  0  0  0  0  0
  -19.7935  -30.7276   24.2266 H   0  0  0  0  0  0
  -17.5002  -31.6259   24.5160 H   0  0  0  0  0  0
  -15.5346  -30.2968   23.7641 H   0  0  0  0  0  0
  -15.8683  -28.0808   22.7047 H   0  0  0  0  0  0
  -24.5922  -30.7048   25.7806 H   0  0  0  0  0  0
  -24.8915  -32.2881   26.4877 H   0  0  0  0  0  0
  -25.8069  -30.8919   27.0248 H   0  0  0  0  0  0
  -26.2902  -29.6773   24.1182 H   0  0  0  0  0  0
  -27.4054  -29.7262   25.4640 H   0  0  0  0  0  0
  -27.8763  -30.4323   23.9364 H   0  0  0  0  0  0
  -27.2658  -33.3616   26.2084 H   0  0  0  0  0  0
  -28.3860  -32.6880   25.0332 H   0  0  0  0  0  0
  -28.0724  -31.8445   26.5418 H   0  0  0  0  0  0
  -28.2593  -38.0105   24.7492 H   0  0  0  0  0  0
  -28.1078  -36.2628   24.6312 H   0  0  0  0  0  0
  -27.2297  -37.1479   25.8867 H   0  0  0  0  0  0
  -20.9328  -29.8780   21.6949 H   0  0  0  0  0  0
  -26.0180  -38.2857   24.1381 H   0  0  0  0  0  0
  -28.8446  -19.1431   22.3495 H   0  0  0  0  0  0
  -30.3183  -18.4604   18.3662 H   0  0  0  0  0  0
  -28.7542  -21.5542   21.9127 H   0  0  0  0  0  0
  -30.2119  -20.8177   17.9057 H   0  0  0  0  0  0
  -29.8298  -22.9766   17.4633 H   0  0  0  0  0  0
  -31.2992  -22.8216   18.4456 H   0  0  0  0  0  0
  -30.4545  -24.3510   18.3580 H   0  0  0  0  0  0
  -28.7104  -23.6552   21.3948 H   0  0  0  0  0  0
  -30.0732  -24.5023   20.7349 H   0  0  0  0  0  0
  -27.1851  -24.7338   20.0681 H   0  0  0  0  0  0
  -28.2558  -25.0565   18.7272 H   0  0  0  0  0  0
  1 25  1  0  0  0
  1 30  2  0  0  0
  1 72  1  0  0  0
  2  3  1  0  0  0
  2 25  1  0  0  0
  2 83  1  0  0  0
  2 84  1  0  0  0
  3  4  1  0  0  0
  3 85  1  0  0  0
  3 86  1  0  0  0
  4  5  1  0  0  0
  4 87  1  0  0  0
  4 88  1  0  0  0
  5  6  1  0  0  0
  5 26  1  0  0  0
  5 89  1  0  0  0
  6 25  1  0  0  0
  6 90  1  0  0  0
  6 91  1  0  0  0
  7  8  2  0  0  0
  7 26  1  0  0  0
  7 29  1  0  0  0
  8  9  1  0  0  0
  8 22  1  0  0  0
  9 10  1  0  0  0
  9 27  2  0  0  0
 10 11  2  0  0  0
 10 15  1  0  0  0
 11 12  1  0  0  0
 11 92  1  0  0  0
 12 13  2  0  0  0
 12 93  1  0  0  0
 13 14  1  0  0  0
 13 31  1  0  0  0
 14 15  2  0  0  0
 14 94  1  0  0  0
 15 95  1  0  0  0
 16 17  2  0  0  0
 16 21  1  0  0  0
 16 31  1  0  0  0
 17 18  1  0  0  0
 17 96  1  0  0  0
 18 19  2  0  0  0
 18 97  1  0  0  0
 19 20  1  0  0  0
 19 24  1  0  0  0
 20 21  2  0  0  0
 20 98  1  0  0  0
 21 23  1  0  0  0
 22 28  1  0  0  0
 22 32  2  0  0  0
 26 27  1  0  0  0
 28 99  1  0  0  0
 28100  1  0  0  0
 29101  1  0  0  0
 29102  1  0  0  0
 33 34  1  0  0  0
 33 66  1  0  0  0
 33 70  2  0  0  0
 34 36  1  0  0  0
 34 59  1  0  0  0
 34103  1  0  0  0
 35 44  2  0  0  0
 35 45  1  0  0  0
 35 68  1  0  0  0
 36 56  1  0  0  0
 36104  1  0  0  0
 37 39  1  0  0  0
 37 47  1  0  0  0
 37 66  1  0  0  0
 37105  1  0  0  0
 38 43  2  0  0  0
 38 46  1  0  0  0
 38 47  1  0  0  0
 39 64  1  0  0  0
 39 67  2  0  0  0
 40 52  1  0  0  0
 40 53  2  0  0  0
 40 58  1  0  0  0
 41106  1  0  0  0
 41107  1  0  0  0
 41108  1  0  0  0
 41 48  1  0  0  0
 42 43  1  0  0  0
 42 66  1  0  0  0
 42109  1  0  0  0
 42110  1  0  0  0
 43 44  1  0  0  0
 44111  1  0  0  0
 45 46  2  0  0  0
 45112  1  0  0  0
 46113  1  0  0  0
 47114  1  0  0  0
 47115  1  0  0  0
 48 56  1  0  0  0
 48 65  1  0  0  0
 48116  1  0  0  0
 49 50  1  0  0  0
 49 53  1  0  0  0
 49 64  1  0  0  0
 49117  1  0  0  0
 50 51  1  0  0  0
 50118  1  0  0  0
 50119  1  0  0  0
 51 52  1  0  0  0
 51120  1  0  0  0
 51121  1  0  0  0
 52122  1  0  0  0
 52123  1  0  0  0
 53 54  1  0  0  0
 54 55  2  0  0  0
 54124  1  0  0  0
 55 57  1  0  0  0
 55125  1  0  0  0
 56 69  2  0  0  0
 57 58  2  0  0  0
 57126  1  0  0  0
 58127  1  0  0  0
 59 60  1  0  0  0
 59 61  1  0  0  0
 59 62  1  0  0  0
 60128  1  0  0  0
 60129  1  0  0  0
 60130  1  0  0  0
 61131  1  0  0  0
 61132  1  0  0  0
 61133  1  0  0  0
 62134  1  0  0  0
 62135  1  0  0  0
 62136  1  0  0  0
 63 65  1  0  0  0
 63137  1  0  0  0
 63138  1  0  0  0
 63139  1  0  0  0
 64140  1  0  0  0
 65141  1  0  0  0
 68 81  1  0  0  0
 71 72  3  0  0  0
 71 77  1  0  0  0
 73 75  2  0  0  0
 73 77  1  0  0  0
 73142  1  0  0  0
 74 76  1  0  0  0
 74 77  2  0  0  0
 74143  1  0  0  0
 75 78  1  0  0  0
 75144  1  0  0  0
 76 78  2  0  0  0
 76145  1  0  0  0
 78 82  1  0  0  0
 79 82  1  0  0  0
 79146  1  0  0  0
 79147  1  0  0  0
 79148  1  0  0  0
 80 81  1  0  0  0
 80 82  1  0  0  0
 80149  1  0  0  0
 80150  1  0  0  0
 81151  1  0  0  0
 81152  1  0  0  0
M  ISO  4   1 100  68 101  72 100  81 101
M  END
> <chiral flag>
0

> <version>
0

> <s_m_source_file>
/data/baiqing/PycharmProjects/Reinvent-master-3.2/result/LINK_invent/BTK/process_docking_weight1_custom_product_contain_oxygen_bond_distance_aromatic_linkinvent_7_9_3/rearranged_h_0013.sdf

> <i_m_source_file_index>
55

> <r_mmod_Potential_Energy-OPLS-2005>
73.3864593505859

> <r_mmod_Stretch_Energy-OPLS-2005>
65.0813674926758

> <r_mmod_Bend_Energy-OPLS-2005>
151.054611206055

> <r_mmod_Torsional_Energy-OPLS-2005>
169.918518066406

> <r_mmod_Improper_Torsional_Energy-OPLS-2005>
6.51676368713379

> <r_mmod_Van_der_Waal_Energy-OPLS-2005>
159.104370117188

> <r_mmod_Electrostatic_Energy-OPLS-2005>
-309.326568603516

> <r_mmod_Solvation_Energy-OPLS-2005>
-212.56120300293

> <b_mmod_Minimization_Converged-OPLS-2005>
0

> <r_mmod_RMS_Derivative-OPLS-2005>
2.02229928970337

$$$$
56
                    3D
 Structure written by MMmdl.
172180  0  0  1  0            999 V2000
  -30.7186  -14.4151   20.5585 C   0  0  0  0  0  0
  -30.4175  -12.2695   19.4101 C   0  0  0  0  0  0
  -29.4885  -12.5064   18.2013 C   0  0  0  0  0  0
  -28.0071  -12.3783   18.6124 C   0  0  0  0  0  0
  -27.6641  -13.2018   19.8830 C   0  0  2  0  0  0
  -28.7075  -12.9576   20.9979 C   0  0  0  0  0  0
  -25.2590  -13.8155   20.5694 C   0  0  0  0  0  0
  -24.1827  -13.0429   20.9180 C   0  0  0  0  0  0
  -24.6391  -11.6909   20.8753 C   0  0  0  0  0  0
  -23.9057  -10.4300   21.0406 C   0  0  0  0  0  0
  -24.3606   -9.4218   21.9188 C   0  0  0  0  0  0
  -23.6287   -8.2249   22.0755 C   0  0  0  0  0  0
  -22.4270   -8.0283   21.3540 C   0  0  0  0  0  0
  -21.9902   -9.0251   20.4641 C   0  0  0  0  0  0
  -22.7228  -10.2134   20.3064 C   0  0  0  0  0  0
  -21.6850   -6.0743   22.5278 C   0  0  0  0  0  0
  -21.4003   -6.5645   23.8208 C   0  0  0  0  0  0
  -21.3667   -5.6796   24.9171 C   0  0  0  0  0  0
  -21.6046   -4.3061   24.7221 C   0  0  0  0  0  0
  -21.8820   -3.8154   23.4340 C   0  0  0  0  0  0
  -21.9186   -4.6973   22.3402 C   0  0  0  0  0  0
  -22.7859  -13.5246   21.1834 C   0  0  0  0  0  0
  -22.1658   -4.2167   21.0976 F   0  0  0  0  0  0
  -21.5636   -3.4545   25.7733 F   0  0  0  0  0  0
  -30.0454  -13.2417   20.4455 N   0  0  0  0  0  0
  -26.3033  -12.9315   20.3420 N   0  0  0  0  0  0
  -25.9318  -11.6474   20.5795 N   0  0  0  0  0  0
  -22.0505  -12.8236   22.0395 N   0  0  0  0  0  0
  -25.4299  -15.1858   20.4105 N   0  0  0  0  0  0
  -31.8540  -14.5963   20.1069 O   0  0  0  0  0  0
  -21.6634   -6.8883   21.4239 O   0  0  0  0  0  0
  -22.3556  -14.5571   20.6707 O   0  0  0  0  0  0
  -24.6103  -31.8718   23.2139 C   0  0  0  0  0  0
  -25.9016  -32.4848   23.8434 C   0  0  1  0  0  0
  -27.2585  -27.4858   20.0769 C   0  0  0  0  0  0
  -25.5898  -33.8645   24.2377 N   0  0  0  0  0  0
  -23.3962  -30.4932   21.5531 C   0  0  2  0  0  0
  -24.8463  -28.9561   20.1274 C   0  0  0  0  0  0
  -22.7394  -29.4690   22.5038 C   0  0  0  0  0  0
  -18.0267  -28.1367   22.8502 C   0  0  0  0  0  0
  -24.1476  -36.7321   23.2637 C   0  0  0  0  0  0
  -25.9195  -30.8467   21.3612 C   0  0  0  0  0  0
  -26.0020  -29.4824   20.7172 C   0  0  0  0  0  0
  -27.2089  -28.7546   20.6989 C   0  0  0  0  0  0
  -26.0785  -26.9513   19.5207 C   0  0  0  0  0  0
  -24.8736  -27.6806   19.5369 C   0  0  0  0  0  0
  -23.6042  -29.8175   20.1713 C   0  0  0  0  0  0
  -25.4103  -36.3147   24.0345 C   0  0  1  0  0  0
  -20.5852  -28.3655   23.1326 C   0  0  2  0  0  0
  -20.6757  -26.9401   22.5409 C   0  0  0  0  0  0
  -19.5730  -26.6382   21.5219 C   0  0  0  0  0  0
  -18.1906  -26.7921   22.1620 C   0  0  0  0  0  0
  -19.1514  -28.8827   23.2904 C   0  0  0  0  0  0
  -18.9444  -30.1434   23.8915 C   0  0  0  0  0  0
  -17.6447  -30.6583   24.0561 C   0  0  0  0  0  0
  -25.9028  -34.9495   23.5161 C   0  0  0  0  0  0
  -16.5341  -29.9079   23.6333 C   0  0  0  0  0  0
  -16.7257  -28.6483   23.0382 C   0  0  0  0  0  0
  -26.4467  -31.6588   25.0730 C   0  0  0  0  0  0
  -25.3761  -31.3611   26.1483 C   0  0  0  0  0  0
  -27.0333  -30.3064   24.6052 C   0  0  0  0  0  0
  -27.6046  -32.4284   25.7499 C   0  0  0  0  0  0
  -27.5582  -37.1822   24.8474 C   0  0  0  0  0  0
  -21.4131  -29.3035   22.3757 N   0  0  0  0  0  0
  -26.4300  -37.3825   23.9418 N   0  0  0  0  0  0
  -24.6594  -31.0849   22.1014 N   0  0  0  0  0  0
  -23.4183  -28.8252   23.3080 O   0  0  0  0  0  0
  -28.3973  -26.7207   19.9729 O   0  0  0  0  0  0
  -26.5581  -34.8940   22.4717 O   0  0  0  0  0  0
  -23.5314  -32.1458   23.7565 O   0  0  0  0  0  0
  -31.2161  -18.8963   20.3518 C   0  0  0  0  0  0
  -29.0635  -18.5423   19.2636 C   0  0  0  0  0  0
  -31.1841  -17.5761   20.8452 C   0  0  0  0  0  0
  -29.0186  -17.2329   19.7734 C   0  0  0  0  0  0
  -30.1464  -19.3917   19.5729 C   0  0  0  0  0  0
  -30.0786  -16.7433   20.5621 C   0  0  0  0  0  0
  -30.6660  -25.6508   21.5118 C   0  0  0  0  0  0
  -31.7056  -22.6408   21.7518 C   0  0  0  0  0  0
  -32.6314  -25.4814   20.0214 C   0  0  0  0  0  0
  -27.9703  -21.5312   20.0911 C   0  0  0  0  0  0
  -30.1379  -20.8373   19.0954 C   0  0  0  0  0  0
  -30.4710  -27.1433   21.2221 C   0  0  0  0  0  0
  -29.8205  -23.1413   20.0106 C   0  0  0  0  0  0
  -29.6723  -27.3667   19.9231 C   0  0  0  0  0  0
  -31.2665  -23.4492   20.5094 C   0  0  1  0  0  0
  -29.9962  -15.4231   21.0609 N   0  0  0  0  0  0
  -31.4698  -24.9040   20.7077 N   0  0  0  0  0  0
  -29.4464  -21.7072   20.0812 N   0  3  1  0  0  0
  -29.9870  -25.1481   22.4132 O   0  0  0  0  0  0
  -31.4621  -12.3590   19.1070 H   0  0  0  0  0  0
  -30.3039  -11.2523   19.7882 H   0  0  0  0  0  0
  -29.7172  -11.7962   17.4059 H   0  0  0  0  0  0
  -29.6697  -13.4997   17.7855 H   0  0  0  0  0  0
  -27.7977  -11.3215   18.7838 H   0  0  0  0  0  0
  -27.3630  -12.6831   17.7856 H   0  0  0  0  0  0
  -27.7148  -14.2529   19.6016 H   0  0  0  0  0  0
  -28.6674  -11.9202   21.3338 H   0  0  0  0  0  0
  -28.4809  -13.5511   21.8837 H   0  0  0  0  0  0
  -25.2756   -9.5681   22.4759 H   0  0  0  0  0  0
  -24.0002   -7.4634   22.7473 H   0  0  0  0  0  0
  -21.0844   -8.8754   19.8939 H   0  0  0  0  0  0
  -22.3693  -10.9660   19.6167 H   0  0  0  0  0  0
  -21.1989   -7.6153   23.9720 H   0  0  0  0  0  0
  -21.1489   -6.0527   25.9074 H   0  0  0  0  0  0
  -22.0594   -2.7623   23.2838 H   0  0  0  0  0  0
  -22.4117  -11.9888   22.4755 H   0  0  0  0  0  0
  -21.1117  -13.1232   22.2608 H   0  0  0  0  0  0
  -24.6603  -15.8393   20.5110 H   0  0  0  0  0  0
  -26.2850  -15.6267   20.0991 H   0  0  0  0  0  0
  -26.7081  -32.5580   23.1192 H   0  0  0  0  0  0
  -25.0107  -33.9812   25.0563 H   0  0  0  0  0  0
  -22.6808  -31.3058   21.4124 H   0  0  0  0  0  0
  -23.3756  -35.9635   23.3322 H   0  0  0  0  0  0
  -24.3572  -36.8918   22.2050 H   0  0  0  0  0  0
  -23.7202  -37.6517   23.6635 H   0  0  0  0  0  0
  -26.0269  -31.6039   20.5842 H   0  0  0  0  0  0
  -26.8100  -30.9091   21.9752 H   0  0  0  0  0  0
  -28.0893  -29.1753   21.1616 H   0  0  0  0  0  0
  -26.0978  -25.9749   19.0587 H   0  0  0  0  0  0
  -23.9795  -27.2599   19.0948 H   0  0  0  0  0  0
  -23.7066  -30.5874   19.4048 H   0  0  0  0  0  0
  -22.7327  -29.2284   19.8811 H   0  0  0  0  0  0
  -25.1285  -36.2026   25.0839 H   0  0  0  0  0  0
  -20.9917  -28.3184   24.1461 H   0  0  0  0  0  0
  -20.5675  -26.2268   23.3591 H   0  0  0  0  0  0
  -21.6622  -26.7448   22.1193 H   0  0  0  0  0  0
  -19.6886  -25.6295   21.1252 H   0  0  0  0  0  0
  -19.6674  -27.3202   20.6754 H   0  0  0  0  0  0
  -17.4191  -26.6706   21.4003 H   0  0  0  0  0  0
  -18.0279  -26.0046   22.8992 H   0  0  0  0  0  0
  -19.7915  -30.7262   24.2298 H   0  0  0  0  0  0
  -17.4997  -31.6283   24.5127 H   0  0  0  0  0  0
  -15.5346  -30.2993   23.7652 H   0  0  0  0  0  0
  -15.8640  -28.0799   22.7132 H   0  0  0  0  0  0
  -24.5953  -30.6947   25.7786 H   0  0  0  0  0  0
  -24.8931  -32.2733   26.5000 H   0  0  0  0  0  0
  -25.8151  -30.8723   27.0194 H   0  0  0  0  0  0
  -26.2871  -29.6783   24.1168 H   0  0  0  0  0  0
  -27.4228  -29.7321   25.4469 H   0  0  0  0  0  0
  -27.8644  -30.4446   23.9130 H   0  0  0  0  0  0
  -27.2688  -33.3576   26.2106 H   0  0  0  0  0  0
  -28.3853  -32.6836   25.0322 H   0  0  0  0  0  0
  -28.0719  -31.8389   26.5397 H   0  0  0  0  0  0
  -28.2617  -38.0109   24.7547 H   0  0  0  0  0  0
  -28.1074  -36.2652   24.6283 H   0  0  0  0  0  0
  -27.2306  -37.1434   25.8879 H   0  0  0  0  0  0
  -20.9299  -29.8706   21.6936 H   0  0  0  0  0  0
  -26.0206  -38.2914   24.1404 H   0  0  0  0  0  0
  -32.0699  -19.5204   20.5785 H   0  0  0  0  0  0
  -28.2472  -18.9021   18.6523 H   0  0  0  0  0  0
  -32.0118  -17.2102   21.4383 H   0  0  0  0  0  0
  -28.1721  -16.6081   19.5344 H   0  0  0  0  0  0
  -31.7253  -21.5711   21.5512 H   0  0  0  0  0  0
  -31.0511  -22.8016   22.6071 H   0  0  0  0  0  0
  -32.7174  -22.9142   22.0544 H   0  0  0  0  0  0
  -33.0870  -26.2826   20.6040 H   0  0  0  0  0  0
  -32.3559  -25.8815   19.0469 H   0  0  0  0  0  0
  -33.4200  -24.7418   19.8693 H   0  0  0  0  0  0
  -27.6804  -20.5148   20.3539 H   0  0  0  0  0  0
  -27.5371  -21.7690   19.1191 H   0  0  0  0  0  0
  -27.4930  -22.1724   20.8322 H   0  0  0  0  0  0
  -29.6684  -20.9196   18.1148 H   0  0  0  0  0  0
  -31.1738  -21.1473   18.9572 H   0  0  0  0  0  0
  -31.4323  -27.6498   21.1707 H   0  0  0  0  0  0
  -29.9391  -27.5978   22.0582 H   0  0  0  0  0  0
  -29.6950  -23.5005   18.9870 H   0  0  0  0  0  0
  -29.0868  -23.6916   20.5966 H   0  0  0  0  0  0
  -30.2144  -26.9372   19.0801 H   0  0  0  0  0  0
  -29.6030  -28.4292   19.6921 H   0  0  0  0  0  0
  -31.9302  -23.1380   19.7010 H   0  0  0  0  0  0
  -29.0868  -15.1329   21.3858 H   0  0  0  0  0  0
  -29.7632  -21.4012   20.9888 H   0  0  0  0  0  0
  1 25  1  0  0  0
  1 30  2  0  0  0
  1 86  1  0  0  0
  2  3  1  0  0  0
  2 25  1  0  0  0
  2 90  1  0  0  0
  2 91  1  0  0  0
  3  4  1  0  0  0
  3 92  1  0  0  0
  3 93  1  0  0  0
  4  5  1  0  0  0
  4 94  1  0  0  0
  4 95  1  0  0  0
  5  6  1  0  0  0
  5 26  1  0  0  0
  5 96  1  0  0  0
  6 25  1  0  0  0
  6 97  1  0  0  0
  6 98  1  0  0  0
  7  8  2  0  0  0
  7 26  1  0  0  0
  7 29  1  0  0  0
  8  9  1  0  0  0
  8 22  1  0  0  0
  9 10  1  0  0  0
  9 27  2  0  0  0
 10 11  2  0  0  0
 10 15  1  0  0  0
 11 12  1  0  0  0
 11 99  1  0  0  0
 12 13  2  0  0  0
 12100  1  0  0  0
 13 14  1  0  0  0
 13 31  1  0  0  0
 14 15  2  0  0  0
 14101  1  0  0  0
 15102  1  0  0  0
 16 17  2  0  0  0
 16 21  1  0  0  0
 16 31  1  0  0  0
 17 18  1  0  0  0
 17103  1  0  0  0
 18 19  2  0  0  0
 18104  1  0  0  0
 19 20  1  0  0  0
 19 24  1  0  0  0
 20 21  2  0  0  0
 20105  1  0  0  0
 21 23  1  0  0  0
 22 28  1  0  0  0
 22 32  2  0  0  0
 26 27  1  0  0  0
 28106  1  0  0  0
 28107  1  0  0  0
 29108  1  0  0  0
 29109  1  0  0  0
 33 34  1  0  0  0
 33 66  1  0  0  0
 33 70  2  0  0  0
 34 36  1  0  0  0
 34 59  1  0  0  0
 34110  1  0  0  0
 35 44  2  0  0  0
 35 45  1  0  0  0
 35 68  1  0  0  0
 36 56  1  0  0  0
 36111  1  0  0  0
 37 39  1  0  0  0
 37 47  1  0  0  0
 37 66  1  0  0  0
 37112  1  0  0  0
 38 43  2  0  0  0
 38 46  1  0  0  0
 38 47  1  0  0  0
 39 64  1  0  0  0
 39 67  2  0  0  0
 40 52  1  0  0  0
 40 53  2  0  0  0
 40 58  1  0  0  0
 41113  1  0  0  0
 41114  1  0  0  0
 41115  1  0  0  0
 41 48  1  0  0  0
 42 43  1  0  0  0
 42 66  1  0  0  0
 42116  1  0  0  0
 42117  1  0  0  0
 43 44  1  0  0  0
 44118  1  0  0  0
 45 46  2  0  0  0
 45119  1  0  0  0
 46120  1  0  0  0
 47121  1  0  0  0
 47122  1  0  0  0
 48 56  1  0  0  0
 48 65  1  0  0  0
 48123  1  0  0  0
 49 50  1  0  0  0
 49 53  1  0  0  0
 49 64  1  0  0  0
 49124  1  0  0  0
 50 51  1  0  0  0
 50125  1  0  0  0
 50126  1  0  0  0
 51 52  1  0  0  0
 51127  1  0  0  0
 51128  1  0  0  0
 52129  1  0  0  0
 52130  1  0  0  0
 53 54  1  0  0  0
 54 55  2  0  0  0
 54131  1  0  0  0
 55 57  1  0  0  0
 55132  1  0  0  0
 56 69  2  0  0  0
 57 58  2  0  0  0
 57133  1  0  0  0
 58134  1  0  0  0
 59 60  1  0  0  0
 59 61  1  0  0  0
 59 62  1  0  0  0
 60135  1  0  0  0
 60136  1  0  0  0
 60137  1  0  0  0
 61138  1  0  0  0
 61139  1  0  0  0
 61140  1  0  0  0
 62141  1  0  0  0
 62142  1  0  0  0
 62143  1  0  0  0
 63 65  1  0  0  0
 63144  1  0  0  0
 63145  1  0  0  0
 63146  1  0  0  0
 64147  1  0  0  0
 65148  1  0  0  0
 68 84  1  0  0  0
 71 73  2  0  0  0
 71 75  1  0  0  0
 71149  1  0  0  0
 72 74  1  0  0  0
 72 75  2  0  0  0
 72150  1  0  0  0
 73 76  1  0  0  0
 73151  1  0  0  0
 74 76  2  0  0  0
 74152  1  0  0  0
 75 81  1  0  0  0
 76 86  1  0  0  0
 77 82  1  0  0  0
 77 87  1  0  0  0
 77 89  2  0  0  0
 78153  1  0  0  0
 78154  1  0  0  0
 78155  1  0  0  0
 78 85  1  0  0  0
 79 87  1  0  0  0
 79156  1  0  0  0
 79157  1  0  0  0
 79158  1  0  0  0
 80159  1  0  0  0
 80160  1  0  0  0
 80161  1  0  0  0
 80 88  1  0  0  0
 81 88  1  0  0  0
 81162  1  0  0  0
 81163  1  0  0  0
 82 84  1  0  0  0
 82164  1  0  0  0
 82165  1  0  0  0
 83 85  1  0  0  0
 83 88  1  0  0  0
 83166  1  0  0  0
 83167  1  0  0  0
 84168  1  0  0  0
 84169  1  0  0  0
 85 87  1  0  0  0
 85170  1  0  0  0
 86171  1  0  0  0
 88172  1  0  0  0
M  CHG  1  88   1
M  ISO  4   1 100  68 101  84 101  86 100
M  END
> <chiral flag>
0

> <version>
0

> <s_m_source_file>
/data/baiqing/PycharmProjects/Reinvent-master-3.2/result/LINK_invent/BTK/process_docking_weight1_custom_product_contain_oxygen_bond_distance_aromatic_linkinvent_7_9_3/rearranged_h_0013.sdf

> <i_m_source_file_index>
56

> <r_mmod_Potential_Energy-OPLS-2005>
-151.480697631836

> <r_mmod_Stretch_Energy-OPLS-2005>
36.8594093322754

> <r_mmod_Bend_Energy-OPLS-2005>
101.543968200684

> <r_mmod_Torsional_Energy-OPLS-2005>
281.762268066406

> <r_mmod_Improper_Torsional_Energy-OPLS-2005>
7.2169132232666

> <r_mmod_Van_der_Waal_Energy-OPLS-2005>
163.630950927734

> <r_mmod_Electrostatic_Energy-OPLS-2005>
-308.465270996094

> <r_mmod_Solvation_Energy-OPLS-2005>
-442.798431396484

> <b_mmod_Minimization_Converged-OPLS-2005>
0

> <r_mmod_RMS_Derivative-OPLS-2005>
2.61467528343201

$$$$
57
                    3D
 Structure written by MMmdl.
163172  0  0  1  0            999 V2000
  -30.6577  -14.6274   20.5761 C   0  0  0  0  0  0
  -30.4275  -12.4112   19.4407 C   0  0  0  0  0  0
  -29.4994  -12.5258   18.2111 C   0  0  0  0  0  0
  -28.0216  -12.3609   18.6180 C   0  0  0  0  0  0
  -27.6483  -13.2198   19.8530 C   0  0  2  0  0  0
  -28.6851  -13.0522   20.9779 C   0  0  0  0  0  0
  -25.2546  -13.8187   20.5665 C   0  0  0  0  0  0
  -24.1820  -13.0436   20.9182 C   0  0  0  0  0  0
  -24.6401  -11.6921   20.8733 C   0  0  0  0  0  0
  -23.9079  -10.4300   21.0412 C   0  0  0  0  0  0
  -24.3625   -9.4215   21.9197 C   0  0  0  0  0  0
  -23.6292   -8.2248   22.0769 C   0  0  0  0  0  0
  -22.4278   -8.0289   21.3542 C   0  0  0  0  0  0
  -21.9923   -9.0268   20.4637 C   0  0  0  0  0  0
  -22.7257  -10.2141   20.3053 C   0  0  0  0  0  0
  -21.6856   -6.0740   22.5287 C   0  0  0  0  0  0
  -21.4012   -6.5645   23.8217 C   0  0  0  0  0  0
  -21.3658   -5.6795   24.9180 C   0  0  0  0  0  0
  -21.6052   -4.3057   24.7230 C   0  0  0  0  0  0
  -21.8824   -3.8148   23.4352 C   0  0  0  0  0  0
  -21.9192   -4.6966   22.3409 C   0  0  0  0  0  0
  -22.7838  -13.5217   21.1857 C   0  0  0  0  0  0
  -22.1664   -4.2150   21.0981 F   0  0  0  0  0  0
  -21.5625   -3.4538   25.7741 F   0  0  0  0  0  0
  -30.0040  -13.4213   20.4364 N   0  0  0  0  0  0
  -26.2951  -12.9367   20.3231 N   0  0  0  0  0  0
  -25.9314  -11.6523   20.5702 N   0  0  0  0  0  0
  -22.0481  -12.8167   22.0386 N   0  0  0  0  0  0
  -25.4282  -15.1905   20.4119 N   0  0  0  0  0  0
  -31.7582  -14.8035   20.0425 O   0  0  0  0  0  0
  -21.6629   -6.8888   21.4245 O   0  0  0  0  0  0
  -22.3524  -14.5530   20.6733 O   0  0  0  0  0  0
  -24.6284  -31.8584   23.1986 C   0  0  0  0  0  0
  -25.9124  -32.4764   23.8336 C   0  0  1  0  0  0
  -27.2305  -27.3091   20.1233 C   0  0  0  0  0  0
  -25.5928  -33.8561   24.2242 N   0  0  0  0  0  0
  -23.4219  -30.4785   21.5422 C   0  0  2  0  0  0
  -24.8692  -28.9244   20.1172 C   0  0  0  0  0  0
  -22.7469  -29.4615   22.4929 C   0  0  0  0  0  0
  -18.0279  -28.1404   22.8484 C   0  0  0  0  0  0
  -24.1474  -36.7284   23.2629 C   0  0  0  0  0  0
  -25.9619  -30.7878   21.3658 C   0  0  0  0  0  0
  -26.0388  -29.4104   20.7162 C   0  0  0  0  0  0
  -27.2240  -28.6159   20.7051 C   0  0  0  0  0  0
  -26.0390  -26.8723   19.5050 C   0  0  0  0  0  0
  -24.8708  -27.6610   19.5043 C   0  0  0  0  0  0
  -23.6376  -29.8063   20.1614 C   0  0  0  0  0  0
  -25.4105  -36.3066   24.0310 C   0  0  1  0  0  0
  -20.5877  -28.3717   23.1274 C   0  0  2  0  0  0
  -20.6768  -26.9437   22.5418 C   0  0  0  0  0  0
  -19.5754  -26.6408   21.5210 C   0  0  0  0  0  0
  -18.1921  -26.7954   22.1611 C   0  0  0  0  0  0
  -19.1532  -28.8876   23.2870 C   0  0  0  0  0  0
  -18.9456  -30.1468   23.8908 C   0  0  0  0  0  0
  -17.6465  -30.6603   24.0581 C   0  0  0  0  0  0
  -25.9062  -34.9442   23.5078 C   0  0  0  0  0  0
  -16.5351  -29.9106   23.6339 C   0  0  0  0  0  0
  -16.7270  -28.6517   23.0360 C   0  0  0  0  0  0
  -26.4516  -31.6579   25.0706 C   0  0  0  0  0  0
  -25.3747  -31.3690   26.1413 C   0  0  0  0  0  0
  -27.0380  -30.3006   24.6168 C   0  0  0  0  0  0
  -27.6039  -32.4338   25.7517 C   0  0  0  0  0  0
  -27.5590  -37.1770   24.8439 C   0  0  0  0  0  0
  -21.4177  -29.3061   22.3659 N   0  0  0  0  0  0
  -26.4258  -37.3790   23.9443 N   0  0  0  0  0  0
  -24.6904  -31.0583   22.0940 N   0  0  0  0  0  0
  -23.4178  -28.8165   23.3027 O   0  0  0  0  0  0
  -28.3618  -26.4784   20.1126 O   0  0  0  0  0  0
  -26.5643  -34.8923   22.4655 O   0  0  0  0  0  0
  -23.5439  -32.1374   23.7311 O   0  0  0  0  0  0
  -29.9929  -18.9681   19.3104 C   0  0  0  0  0  0
  -30.2342  -17.6017   19.6657 C   0  0  0  0  0  0
  -28.8510  -19.3239   21.3793 C   0  0  0  0  0  0
  -29.2865  -19.8749   20.1515 C   0  0  0  0  0  0
  -29.8073  -17.0404   20.9061 C   0  0  0  0  0  0
  -29.0991  -17.9681   21.7466 C   0  0  0  0  0  0
  -31.2703  -23.8525   20.8977 C   0  0  0  0  0  0
  -30.5782  -24.4247   19.6666 C   0  0  0  0  0  0
  -30.6382  -22.4686   21.0317 C   0  0  0  0  0  0
  -29.1239  -23.9407   19.8121 C   0  0  2  0  0  0
  -30.0717  -15.3445   22.7675 C   0  0  0  0  0  0
  -28.8934  -21.3344   19.6737 C   0  0  0  0  0  0
  -28.2368  -25.0600   20.5509 C   0  0  0  0  0  0
  -30.0656  -15.6290   21.3203 N   0  0  0  0  0  0
  -29.2543  -22.5646   20.4960 N   0  3  1  0  0  0
  -28.5984  -17.5779   22.9419 F   0  0  0  0  0  0
  -31.4659  -12.5387   19.1344 H   0  0  0  0  0  0
  -30.3696  -11.4101   19.8719 H   0  0  0  0  0  0
  -29.7645  -11.7775   17.4624 H   0  0  0  0  0  0
  -29.6403  -13.4969   17.7351 H   0  0  0  0  0  0
  -27.8502  -11.3057   18.8321 H   0  0  0  0  0  0
  -27.3712  -12.6063   17.7776 H   0  0  0  0  0  0
  -27.6751  -14.2616   19.5341 H   0  0  0  0  0  0
  -28.6964  -12.0195   21.3307 H   0  0  0  0  0  0
  -28.3867  -13.6473   21.8345 H   0  0  0  0  0  0
  -25.2774   -9.5679   22.4782 H   0  0  0  0  0  0
  -23.9999   -7.4641   22.7495 H   0  0  0  0  0  0
  -21.0871   -8.8796   19.8931 H   0  0  0  0  0  0
  -22.3739  -10.9685   19.6167 H   0  0  0  0  0  0
  -21.2006   -7.6153   23.9706 H   0  0  0  0  0  0
  -21.1475   -6.0529   25.9076 H   0  0  0  0  0  0
  -22.0600   -2.7613   23.2850 H   0  0  0  0  0  0
  -22.4101  -11.9808   22.4730 H   0  0  0  0  0  0
  -21.1090  -13.1168   22.2584 H   0  0  0  0  0  0
  -24.6717  -15.8545   20.5396 H   0  0  0  0  0  0
  -26.2922  -15.6277   20.1147 H   0  0  0  0  0  0
  -26.7190  -32.5441   23.1085 H   0  0  0  0  0  0
  -25.0050  -33.9701   25.0372 H   0  0  0  0  0  0
  -22.7161  -31.2989   21.3957 H   0  0  0  0  0  0
  -23.3791  -35.9553   23.3162 H   0  0  0  0  0  0
  -24.3590  -36.9078   22.2079 H   0  0  0  0  0  0
  -23.7155  -37.6397   23.6776 H   0  0  0  0  0  0
  -26.0815  -31.5449   20.5915 H   0  0  0  0  0  0
  -26.8452  -30.8473   21.9906 H   0  0  0  0  0  0
  -28.1263  -28.9889   21.1700 H   0  0  0  0  0  0
  -25.9997  -25.9104   19.0138 H   0  0  0  0  0  0
  -23.9740  -27.2844   19.0318 H   0  0  0  0  0  0
  -23.7539  -30.5782   19.3998 H   0  0  0  0  0  0
  -22.7578  -29.2333   19.8656 H   0  0  0  0  0  0
  -25.1273  -36.1884   25.0796 H   0  0  0  0  0  0
  -20.9962  -28.3317   24.1400 H   0  0  0  0  0  0
  -20.5675  -26.2329   23.3616 H   0  0  0  0  0  0
  -21.6638  -26.7468   22.1231 H   0  0  0  0  0  0
  -19.6924  -25.6317   21.1252 H   0  0  0  0  0  0
  -19.6694  -27.3209   20.6727 H   0  0  0  0  0  0
  -17.4199  -26.6706   21.3998 H   0  0  0  0  0  0
  -18.0307  -26.0081   22.8995 H   0  0  0  0  0  0
  -19.7925  -30.7272   24.2286 H   0  0  0  0  0  0
  -17.5021  -31.6277   24.5207 H   0  0  0  0  0  0
  -15.5352  -30.3028   23.7644 H   0  0  0  0  0  0
  -15.8659  -28.0843   22.7088 H   0  0  0  0  0  0
  -24.5953  -30.7002   25.7738 H   0  0  0  0  0  0
  -24.8893  -32.2830   26.4826 H   0  0  0  0  0  0
  -25.8074  -30.8889   27.0194 H   0  0  0  0  0  0
  -26.2951  -29.6730   24.1221 H   0  0  0  0  0  0
  -27.4107  -29.7285   25.4678 H   0  0  0  0  0  0
  -27.8807  -30.4291   23.9369 H   0  0  0  0  0  0
  -27.2632  -33.3677   26.2007 H   0  0  0  0  0  0
  -28.3916  -32.6837   25.0398 H   0  0  0  0  0  0
  -28.0627  -31.8521   26.5521 H   0  0  0  0  0  0
  -28.2476  -38.0197   24.7678 H   0  0  0  0  0  0
  -28.1210  -36.2738   24.6019 H   0  0  0  0  0  0
  -27.2333  -37.1127   25.8834 H   0  0  0  0  0  0
  -20.9354  -29.8757   21.6845 H   0  0  0  0  0  0
  -26.0114  -38.2819   24.1597 H   0  0  0  0  0  0
  -30.3349  -19.3113   18.3429 H   0  0  0  0  0  0
  -30.7667  -16.9854   18.9548 H   0  0  0  0  0  0
  -28.2816  -19.9375   22.0611 H   0  0  0  0  0  0
  -31.0383  -24.4541   21.7774 H   0  0  0  0  0  0
  -32.3561  -23.8090   20.7988 H   0  0  0  0  0  0
  -31.0214  -23.9925   18.7670 H   0  0  0  0  0  0
  -30.6819  -25.5063   19.5859 H   0  0  0  0  0  0
  -30.6475  -22.1039   22.0598 H   0  0  0  0  0  0
  -31.2297  -21.7675   20.4380 H   0  0  0  0  0  0
  -28.6967  -23.8099   18.8175 H   0  0  0  0  0  0
  -30.6184  -16.1175   23.3073 H   0  0  0  0  0  0
  -30.5449  -14.3956   23.0315 H   0  0  0  0  0  0
  -29.0573  -15.3061   23.1652 H   0  0  0  0  0  0
  -27.8152  -21.3498   19.5143 H   0  0  0  0  0  0
  -29.3314  -21.4723   18.6846 H   0  0  0  0  0  0
  -28.5052  -25.0597   21.6073 H   0  0  0  0  0  0
  -27.1975  -24.7353   20.5322 H   0  0  0  0  0  0
  -28.6322  -22.5560   21.2923 H   0  0  0  0  0  0
  1 25  1  0  0  0
  1 30  2  0  0  0
  1 84  1  0  0  0
  2  3  1  0  0  0
  2 25  1  0  0  0
  2 87  1  0  0  0
  2 88  1  0  0  0
  3  4  1  0  0  0
  3 89  1  0  0  0
  3 90  1  0  0  0
  4  5  1  0  0  0
  4 91  1  0  0  0
  4 92  1  0  0  0
  5  6  1  0  0  0
  5 26  1  0  0  0
  5 93  1  0  0  0
  6 25  1  0  0  0
  6 94  1  0  0  0
  6 95  1  0  0  0
  7  8  2  0  0  0
  7 26  1  0  0  0
  7 29  1  0  0  0
  8  9  1  0  0  0
  8 22  1  0  0  0
  9 10  1  0  0  0
  9 27  2  0  0  0
 10 11  2  0  0  0
 10 15  1  0  0  0
 11 12  1  0  0  0
 11 96  1  0  0  0
 12 13  2  0  0  0
 12 97  1  0  0  0
 13 14  1  0  0  0
 13 31  1  0  0  0
 14 15  2  0  0  0
 14 98  1  0  0  0
 15 99  1  0  0  0
 16 17  2  0  0  0
 16 21  1  0  0  0
 16 31  1  0  0  0
 17 18  1  0  0  0
 17100  1  0  0  0
 18 19  2  0  0  0
 18101  1  0  0  0
 19 20  1  0  0  0
 19 24  1  0  0  0
 20 21  2  0  0  0
 20102  1  0  0  0
 21 23  1  0  0  0
 22 28  1  0  0  0
 22 32  2  0  0  0
 26 27  1  0  0  0
 28103  1  0  0  0
 28104  1  0  0  0
 29105  1  0  0  0
 29106  1  0  0  0
 33 34  1  0  0  0
 33 66  1  0  0  0
 33 70  2  0  0  0
 34 36  1  0  0  0
 34 59  1  0  0  0
 34107  1  0  0  0
 35 44  2  0  0  0
 35 45  1  0  0  0
 35 68  1  0  0  0
 36 56  1  0  0  0
 36108  1  0  0  0
 37 39  1  0  0  0
 37 47  1  0  0  0
 37 66  1  0  0  0
 37109  1  0  0  0
 38 43  2  0  0  0
 38 46  1  0  0  0
 38 47  1  0  0  0
 39 64  1  0  0  0
 39 67  2  0  0  0
 40 52  1  0  0  0
 40 53  2  0  0  0
 40 58  1  0  0  0
 41110  1  0  0  0
 41111  1  0  0  0
 41112  1  0  0  0
 41 48  1  0  0  0
 42 43  1  0  0  0
 42 66  1  0  0  0
 42113  1  0  0  0
 42114  1  0  0  0
 43 44  1  0  0  0
 44115  1  0  0  0
 45 46  2  0  0  0
 45116  1  0  0  0
 46117  1  0  0  0
 47118  1  0  0  0
 47119  1  0  0  0
 48 56  1  0  0  0
 48 65  1  0  0  0
 48120  1  0  0  0
 49 50  1  0  0  0
 49 53  1  0  0  0
 49 64  1  0  0  0
 49121  1  0  0  0
 50 51  1  0  0  0
 50122  1  0  0  0
 50123  1  0  0  0
 51 52  1  0  0  0
 51124  1  0  0  0
 51125  1  0  0  0
 52126  1  0  0  0
 52127  1  0  0  0
 53 54  1  0  0  0
 54 55  2  0  0  0
 54128  1  0  0  0
 55 57  1  0  0  0
 55129  1  0  0  0
 56 69  2  0  0  0
 57 58  2  0  0  0
 57130  1  0  0  0
 58131  1  0  0  0
 59 60  1  0  0  0
 59 61  1  0  0  0
 59 62  1  0  0  0
 60132  1  0  0  0
 60133  1  0  0  0
 60134  1  0  0  0
 61135  1  0  0  0
 61136  1  0  0  0
 61137  1  0  0  0
 62138  1  0  0  0
 62139  1  0  0  0
 62140  1  0  0  0
 63 65  1  0  0  0
 63141  1  0  0  0
 63142  1  0  0  0
 63143  1  0  0  0
 64144  1  0  0  0
 65145  1  0  0  0
 68 83  1  0  0  0
 71 72  2  0  0  0
 71 74  1  0  0  0
 71146  1  0  0  0
 72 75  1  0  0  0
 72147  1  0  0  0
 73 74  2  0  0  0
 73 76  1  0  0  0
 73148  1  0  0  0
 74 82  1  0  0  0
 75 76  2  0  0  0
 75 84  1  0  0  0
 76 86  1  0  0  0
 77 78  1  0  0  0
 77 79  1  0  0  0
 77149  1  0  0  0
 77150  1  0  0  0
 78 80  1  0  0  0
 78151  1  0  0  0
 78152  1  0  0  0
 79 85  1  0  0  0
 79153  1  0  0  0
 79154  1  0  0  0
 80 83  1  0  0  0
 80 85  1  0  0  0
 80155  1  0  0  0
 81 84  1  0  0  0
 81156  1  0  0  0
 81157  1  0  0  0
 81158  1  0  0  0
 82159  1  0  0  0
 82160  1  0  0  0
 82 85  1  0  0  0
 83161  1  0  0  0
 83162  1  0  0  0
 85163  1  0  0  0
M  CHG  1  85   1
M  ISO  4   1 100  68 101  83 101  84 100
M  END
> <chiral flag>
0

> <version>
0

> <s_m_source_file>
/data/baiqing/PycharmProjects/Reinvent-master-3.2/result/LINK_invent/BTK/process_docking_weight1_custom_product_contain_oxygen_bond_distance_aromatic_linkinvent_7_9_3/rearranged_h_0013.sdf

> <i_m_source_file_index>
57

> <r_mmod_Potential_Energy-OPLS-2005>
236.419052124023

> <r_mmod_Stretch_Energy-OPLS-2005>
101.532073974609

> <r_mmod_Bend_Energy-OPLS-2005>
172.996597290039

> <r_mmod_Torsional_Energy-OPLS-2005>
350.48681640625

> <r_mmod_Improper_Torsional_Energy-OPLS-2005>
3.00839710235596

> <r_mmod_Van_der_Waal_Energy-OPLS-2005>
150.268539428711

> <r_mmod_Electrostatic_Energy-OPLS-2005>
-166.404296875

> <r_mmod_Solvation_Energy-OPLS-2005>
-419.643768310547

> <b_mmod_Minimization_Converged-OPLS-2005>
0

> <r_mmod_RMS_Derivative-OPLS-2005>
2.70439553260803

$$$$
58
                    3D
 Structure written by MMmdl.
155163  0  0  1  0            999 V2000
  -30.5178  -14.9236   20.4393 C   0  0  0  0  0  0
  -30.4462  -12.5703   19.5026 C   0  0  0  0  0  0
  -29.5229  -12.5383   18.2608 C   0  0  0  0  0  0
  -28.0567  -12.3192   18.6768 C   0  0  0  0  0  0
  -27.6369  -13.2399   19.8517 C   0  0  2  0  0  0
  -28.6772  -13.2323   20.9935 C   0  0  0  0  0  0
  -25.2464  -13.8177   20.5645 C   0  0  0  0  0  0
  -24.1782  -13.0427   20.9209 C   0  0  0  0  0  0
  -24.6393  -11.6910   20.8769 C   0  0  0  0  0  0
  -23.9069  -10.4283   21.0422 C   0  0  0  0  0  0
  -24.3617   -9.4192   21.9191 C   0  0  0  0  0  0
  -23.6288   -8.2229   22.0764 C   0  0  0  0  0  0
  -22.4266   -8.0276   21.3550 C   0  0  0  0  0  0
  -21.9907   -9.0247   20.4646 C   0  0  0  0  0  0
  -22.7242  -10.2123   20.3064 C   0  0  0  0  0  0
  -21.6850   -6.0729   22.5269 C   0  0  0  0  0  0
  -21.4014   -6.5640   23.8200 C   0  0  0  0  0  0
  -21.3657   -5.6792   24.9165 C   0  0  0  0  0  0
  -21.6050   -4.3055   24.7218 C   0  0  0  0  0  0
  -21.8822   -3.8143   23.4337 C   0  0  0  0  0  0
  -21.9189   -4.6960   22.3391 C   0  0  0  0  0  0
  -22.7798  -13.5213   21.1859 C   0  0  0  0  0  0
  -22.1658   -4.2150   21.0968 F   0  0  0  0  0  0
  -21.5629   -3.4543   25.7728 F   0  0  0  0  0  0
  -29.9616  -13.6474   20.4116 N   0  0  0  0  0  0
  -26.2912  -12.9409   20.3285 N   0  0  0  0  0  0
  -25.9335  -11.6550   20.5783 N   0  0  0  0  0  0
  -22.0450  -12.8212   22.0428 N   0  0  0  0  0  0
  -25.4106  -15.1878   20.3912 N   0  0  0  0  0  0
  -31.6985  -15.0442   20.0931 O   0  0  0  0  0  0
  -21.6632   -6.8873   21.4233 O   0  0  0  0  0  0
  -22.3486  -14.5516   20.6697 O   0  0  0  0  0  0
  -24.6403  -31.8443   23.1920 C   0  0  0  0  0  0
  -25.9193  -32.4687   23.8281 C   0  0  1  0  0  0
  -27.2164  -27.1560   20.1366 C   0  0  0  0  0  0
  -25.5957  -33.8497   24.2190 N   0  0  0  0  0  0
  -23.4438  -30.4690   21.5341 C   0  0  2  0  0  0
  -24.8916  -28.9010   20.1074 C   0  0  0  0  0  0
  -22.7575  -29.4554   22.4836 C   0  0  0  0  0  0
  -18.0302  -28.1413   22.8440 C   0  0  0  0  0  0
  -24.1492  -36.7247   23.2653 C   0  0  0  0  0  0
  -26.0000  -30.7225   21.3927 C   0  0  0  0  0  0
  -26.0670  -29.3384   20.7277 C   0  0  0  0  0  0
  -27.2250  -28.4789   20.7325 C   0  0  0  0  0  0
  -26.0134  -26.8177   19.4750 C   0  0  0  0  0  0
  -24.8749  -27.6510   19.4717 C   0  0  0  0  0  0
  -23.6724  -29.8061   20.1499 C   0  0  0  0  0  0
  -25.4119  -36.3026   24.0330 C   0  0  1  0  0  0
  -20.5915  -28.3724   23.1224 C   0  0  2  0  0  0
  -20.6790  -26.9423   22.5410 C   0  0  0  0  0  0
  -19.5769  -26.6379   21.5213 C   0  0  0  0  0  0
  -18.1939  -26.7939   22.1607 C   0  0  0  0  0  0
  -19.1560  -28.8882   23.2813 C   0  0  0  0  0  0
  -18.9492  -30.1467   23.8845 C   0  0  0  0  0  0
  -17.6497  -30.6592   24.0560 C   0  0  0  0  0  0
  -25.9082  -34.9408   23.5070 C   0  0  0  0  0  0
  -16.5378  -29.9093   23.6351 C   0  0  0  0  0  0
  -16.7290  -28.6532   23.0324 C   0  0  0  0  0  0
  -26.4531  -31.6557   25.0713 C   0  0  0  0  0  0
  -25.3724  -31.3765   26.1416 C   0  0  0  0  0  0
  -27.0428  -30.2959   24.6310 C   0  0  0  0  0  0
  -27.6033  -32.4352   25.7492 C   0  0  0  0  0  0
  -27.5569  -37.1767   24.8465 C   0  0  0  0  0  0
  -21.4269  -29.3051   22.3603 N   0  0  0  0  0  0
  -26.4263  -37.3751   23.9430 N   0  0  0  0  0  0
  -24.7137  -31.0319   22.0946 N   0  0  0  0  0  0
  -23.4230  -28.8109   23.2986 O   0  0  0  0  0  0
  -28.2908  -26.2033   20.2447 O   0  0  0  0  0  0
  -26.5659  -34.8908   22.4643 O   0  0  0  0  0  0
  -23.5527  -32.1308   23.7153 O   0  0  0  0  0  0
  -30.4436  -19.7545   19.5210 C   0  0  0  0  0  0
  -30.5641  -18.3224   19.7240 C   0  0  0  0  0  0
  -28.6089  -19.8645   20.9748 C   0  0  0  0  0  0
  -28.7008  -18.4177   21.1661 C   0  0  0  0  0  0
  -29.4714  -20.6404   20.1326 C   0  0  0  0  0  0
  -29.6906  -17.5571   20.5509 C   0  0  0  0  0  0
  -27.6606  -17.7758   22.0672 C   0  0  0  0  0  0
  -30.5770  -22.5737   19.1108 C   0  0  0  0  0  0
  -28.6709  -23.3157   20.5458 C   0  0  0  0  0  0
  -28.2904  -24.7415   19.7220 C   0  0  0  0  0  0
  -29.6858  -16.0345   20.7316 N   0  0  0  0  0  0
  -29.4079  -22.1176   19.8675 N   0  0  0  0  0  0
  -31.4805  -12.7346   19.1958 H   0  0  0  0  0  0
  -30.4378  -11.6076   20.0161 H   0  0  0  0  0  0
  -29.8395  -11.7534   17.5729 H   0  0  0  0  0  0
  -29.6095  -13.4792   17.7157 H   0  0  0  0  0  0
  -27.9517  -11.2750   18.9748 H   0  0  0  0  0  0
  -27.3920  -12.4605   17.8244 H   0  0  0  0  0  0
  -27.6126  -14.2495   19.4414 H   0  0  0  0  0  0
  -28.7563  -12.2432   21.4464 H   0  0  0  0  0  0
  -28.3755  -13.9093   21.7946 H   0  0  0  0  0  0
  -25.2766   -9.5669   22.4767 H   0  0  0  0  0  0
  -23.9995   -7.4626   22.7495 H   0  0  0  0  0  0
  -21.0840   -8.8767   19.8954 H   0  0  0  0  0  0
  -22.3702  -10.9667   19.6176 H   0  0  0  0  0  0
  -21.2009   -7.6147   23.9706 H   0  0  0  0  0  0
  -21.1481   -6.0520   25.9067 H   0  0  0  0  0  0
  -22.0604   -2.7609   23.2829 H   0  0  0  0  0  0
  -22.4073  -11.9870   22.4802 H   0  0  0  0  0  0
  -21.1078  -13.1249   22.2669 H   0  0  0  0  0  0
  -24.6222  -15.8248   20.4356 H   0  0  0  0  0  0
  -26.2340  -15.6078   19.9802 H   0  0  0  0  0  0
  -26.7252  -32.5301   23.0995 H   0  0  0  0  0  0
  -25.0085  -33.9620   25.0320 H   0  0  0  0  0  0
  -22.7433  -31.2936   21.3837 H   0  0  0  0  0  0
  -23.3767  -35.9562   23.3284 H   0  0  0  0  0  0
  -24.3577  -36.8904   22.2075 H   0  0  0  0  0  0
  -23.7244  -37.6435   23.6702 H   0  0  0  0  0  0
  -26.1634  -31.4816   20.6265 H   0  0  0  0  0  0
  -26.8677  -30.7624   22.0395 H   0  0  0  0  0  0
  -28.1154  -28.8063   21.2514 H   0  0  0  0  0  0
  -25.8907  -25.8716   18.9768 H   0  0  0  0  0  0
  -23.9752  -27.3089   18.9790 H   0  0  0  0  0  0
  -23.8239  -30.5877   19.4041 H   0  0  0  0  0  0
  -22.7864  -29.2582   19.8260 H   0  0  0  0  0  0
  -25.1301  -36.1842   25.0821 H   0  0  0  0  0  0
  -20.9969  -28.3318   24.1360 H   0  0  0  0  0  0
  -20.5707  -26.2331   23.3633 H   0  0  0  0  0  0
  -21.6653  -26.7444   22.1195 H   0  0  0  0  0  0
  -19.6945  -25.6293   21.1245 H   0  0  0  0  0  0
  -19.6725  -27.3182   20.6742 H   0  0  0  0  0  0
  -17.4225  -26.6672   21.4004 H   0  0  0  0  0  0
  -18.0314  -26.0097   22.9025 H   0  0  0  0  0  0
  -19.7980  -30.7273   24.2187 H   0  0  0  0  0  0
  -17.5073  -31.6267   24.5176 H   0  0  0  0  0  0
  -15.5381  -30.2987   23.7716 H   0  0  0  0  0  0
  -15.8684  -28.0862   22.7033 H   0  0  0  0  0  0
  -24.5889  -30.7129   25.7752 H   0  0  0  0  0  0
  -24.8940  -32.2966   26.4778 H   0  0  0  0  0  0
  -25.8000  -30.8980   27.0236 H   0  0  0  0  0  0
  -26.3074  -29.6642   24.1322 H   0  0  0  0  0  0
  -27.4075  -29.7298   25.4895 H   0  0  0  0  0  0
  -27.8953  -30.4214   23.9627 H   0  0  0  0  0  0
  -27.2593  -33.3679   26.1976 H   0  0  0  0  0  0
  -28.3871  -32.6873   25.0341 H   0  0  0  0  0  0
  -28.0663  -31.8557   26.5492 H   0  0  0  0  0  0
  -28.2551  -38.0094   24.7520 H   0  0  0  0  0  0
  -28.1099  -36.2622   24.6257 H   0  0  0  0  0  0
  -27.2291  -37.1362   25.8869 H   0  0  0  0  0  0
  -20.9475  -29.8791   21.6807 H   0  0  0  0  0  0
  -26.0132  -38.2813   24.1461 H   0  0  0  0  0  0
  -31.1627  -20.1565   18.8234 H   0  0  0  0  0  0
  -31.3466  -17.8018   19.1896 H   0  0  0  0  0  0
  -27.8199  -20.3971   21.4854 H   0  0  0  0  0  0
  -27.0646  -18.5207   22.5951 H   0  0  0  0  0  0
  -28.1293  -17.1385   22.8169 H   0  0  0  0  0  0
  -26.9779  -17.1669   21.4768 H   0  0  0  0  0  0
  -30.4938  -22.2806   18.0631 H   0  0  0  0  0  0
  -31.5006  -22.1627   19.5202 H   0  0  0  0  0  0
  -30.7144  -23.6534   19.1389 H   0  0  0  0  0  0
  -27.7443  -22.9328   20.9766 H   0  0  0  0  0  0
  -29.2765  -23.5955   21.4075 H   0  0  0  0  0  0
  -27.3535  -24.5183   19.2249 H   0  0  0  0  0  0
  -28.9742  -24.8155   18.8801 H   0  0  0  0  0  0
  -28.8145  -15.7047   21.1165 H   0  0  0  0  0  0
  1 25  1  0  0  0
  1 30  2  0  0  0
  1 81  1  0  0  0
  2  3  1  0  0  0
  2 25  1  0  0  0
  2 83  1  0  0  0
  2 84  1  0  0  0
  3  4  1  0  0  0
  3 85  1  0  0  0
  3 86  1  0  0  0
  4  5  1  0  0  0
  4 87  1  0  0  0
  4 88  1  0  0  0
  5  6  1  0  0  0
  5 26  1  0  0  0
  5 89  1  0  0  0
  6 25  1  0  0  0
  6 90  1  0  0  0
  6 91  1  0  0  0
  7  8  2  0  0  0
  7 26  1  0  0  0
  7 29  1  0  0  0
  8  9  1  0  0  0
  8 22  1  0  0  0
  9 10  1  0  0  0
  9 27  2  0  0  0
 10 11  2  0  0  0
 10 15  1  0  0  0
 11 12  1  0  0  0
 11 92  1  0  0  0
 12 13  2  0  0  0
 12 93  1  0  0  0
 13 14  1  0  0  0
 13 31  1  0  0  0
 14 15  2  0  0  0
 14 94  1  0  0  0
 15 95  1  0  0  0
 16 17  2  0  0  0
 16 21  1  0  0  0
 16 31  1  0  0  0
 17 18  1  0  0  0
 17 96  1  0  0  0
 18 19  2  0  0  0
 18 97  1  0  0  0
 19 20  1  0  0  0
 19 24  1  0  0  0
 20 21  2  0  0  0
 20 98  1  0  0  0
 21 23  1  0  0  0
 22 28  1  0  0  0
 22 32  2  0  0  0
 26 27  1  0  0  0
 28 99  1  0  0  0
 28100  1  0  0  0
 29101  1  0  0  0
 29102  1  0  0  0
 33 34  1  0  0  0
 33 66  1  0  0  0
 33 70  2  0  0  0
 34 36  1  0  0  0
 34 59  1  0  0  0
 34103  1  0  0  0
 35 44  2  0  0  0
 35 45  1  0  0  0
 35 68  1  0  0  0
 36 56  1  0  0  0
 36104  1  0  0  0
 37 39  1  0  0  0
 37 47  1  0  0  0
 37 66  1  0  0  0
 37105  1  0  0  0
 38 43  2  0  0  0
 38 46  1  0  0  0
 38 47  1  0  0  0
 39 64  1  0  0  0
 39 67  2  0  0  0
 40 52  1  0  0  0
 40 53  2  0  0  0
 40 58  1  0  0  0
 41106  1  0  0  0
 41107  1  0  0  0
 41108  1  0  0  0
 41 48  1  0  0  0
 42 43  1  0  0  0
 42 66  1  0  0  0
 42109  1  0  0  0
 42110  1  0  0  0
 43 44  1  0  0  0
 44111  1  0  0  0
 45 46  2  0  0  0
 45112  1  0  0  0
 46113  1  0  0  0
 47114  1  0  0  0
 47115  1  0  0  0
 48 56  1  0  0  0
 48 65  1  0  0  0
 48116  1  0  0  0
 49 50  1  0  0  0
 49 53  1  0  0  0
 49 64  1  0  0  0
 49117  1  0  0  0
 50 51  1  0  0  0
 50118  1  0  0  0
 50119  1  0  0  0
 51 52  1  0  0  0
 51120  1  0  0  0
 51121  1  0  0  0
 52122  1  0  0  0
 52123  1  0  0  0
 53 54  1  0  0  0
 54 55  2  0  0  0
 54124  1  0  0  0
 55 57  1  0  0  0
 55125  1  0  0  0
 56 69  2  0  0  0
 57 58  2  0  0  0
 57126  1  0  0  0
 58127  1  0  0  0
 59 60  1  0  0  0
 59 61  1  0  0  0
 59 62  1  0  0  0
 60128  1  0  0  0
 60129  1  0  0  0
 60130  1  0  0  0
 61131  1  0  0  0
 61132  1  0  0  0
 61133  1  0  0  0
 62134  1  0  0  0
 62135  1  0  0  0
 62136  1  0  0  0
 63 65  1  0  0  0
 63137  1  0  0  0
 63138  1  0  0  0
 63139  1  0  0  0
 64140  1  0  0  0
 65141  1  0  0  0
 68 80  1  0  0  0
 71 72  2  0  0  0
 71 75  1  0  0  0
 71142  1  0  0  0
 72 76  1  0  0  0
 72143  1  0  0  0
 73 74  1  0  0  0
 73 75  2  0  0  0
 73144  1  0  0  0
 74 76  2  0  0  0
 74 77  1  0  0  0
 75 82  1  0  0  0
 76 81  1  0  0  0
 77145  1  0  0  0
 77146  1  0  0  0
 77147  1  0  0  0
 78 82  1  0  0  0
 78148  1  0  0  0
 78149  1  0  0  0
 78150  1  0  0  0
 79 80  1  0  0  0
 79 82  1  0  0  0
 79151  1  0  0  0
 79152  1  0  0  0
 80153  1  0  0  0
 80154  1  0  0  0
 81155  1  0  0  0
M  ISO  4   1 100  68 101  80 101  81 100
M  END
> <chiral flag>
0

> <version>
0

> <s_m_source_file>
/data/baiqing/PycharmProjects/Reinvent-master-3.2/result/LINK_invent/BTK/process_docking_weight1_custom_product_contain_oxygen_bond_distance_aromatic_linkinvent_7_9_3/rearranged_h_0013.sdf

> <i_m_source_file_index>
58

> <r_mmod_Potential_Energy-OPLS-2005>
426.892639160156

> <r_mmod_Stretch_Energy-OPLS-2005>
225.450973510742

> <r_mmod_Bend_Energy-OPLS-2005>
279.132843017578

> <r_mmod_Torsional_Energy-OPLS-2005>
205.304214477539

> <r_mmod_Improper_Torsional_Energy-OPLS-2005>
5.19139671325684

> <r_mmod_Van_der_Waal_Energy-OPLS-2005>
147.050689697266

> <r_mmod_Electrostatic_Energy-OPLS-2005>
-381.062316894531

> <r_mmod_Solvation_Energy-OPLS-2005>
-229.050720214844

> <b_mmod_Minimization_Converged-OPLS-2005>
0

> <r_mmod_RMS_Derivative-OPLS-2005>
2.51273417472839

$$$$
59
                    3D
 Structure written by MMmdl.
152160  0  0  1  0            999 V2000
  -30.5403  -14.9162   20.4301 C   0  0  0  0  0  0
  -30.4466  -12.5607   19.4953 C   0  0  0  0  0  0
  -29.5172  -12.5106   18.2599 C   0  0  0  0  0  0
  -28.0578  -12.2839   18.6924 C   0  0  0  0  0  0
  -27.6374  -13.2307   19.8442 C   0  0  2  0  0  0
  -28.6786  -13.2440   20.9849 C   0  0  0  0  0  0
  -25.2519  -13.8188   20.5710 C   0  0  0  0  0  0
  -24.1801  -13.0443   20.9206 C   0  0  0  0  0  0
  -24.6389  -11.6918   20.8762 C   0  0  0  0  0  0
  -23.9066  -10.4293   21.0419 C   0  0  0  0  0  0
  -24.3615   -9.4206   21.9195 C   0  0  0  0  0  0
  -23.6291   -8.2243   22.0767 C   0  0  0  0  0  0
  -22.4273   -8.0285   21.3548 C   0  0  0  0  0  0
  -21.9909   -9.0256   20.4648 C   0  0  0  0  0  0
  -22.7242  -10.2135   20.3065 C   0  0  0  0  0  0
  -21.6842   -6.0740   22.5274 C   0  0  0  0  0  0
  -21.4013   -6.5640   23.8210 C   0  0  0  0  0  0
  -21.3668   -5.6794   24.9168 C   0  0  0  0  0  0
  -21.6036   -4.3052   24.7215 C   0  0  0  0  0  0
  -21.8825   -3.8149   23.4333 C   0  0  0  0  0  0
  -21.9194   -4.6970   22.3391 C   0  0  0  0  0  0
  -22.7823  -13.5229   21.1869 C   0  0  0  0  0  0
  -22.1658   -4.2157   21.0969 F   0  0  0  0  0  0
  -21.5631   -3.4548   25.7728 F   0  0  0  0  0  0
  -29.9664  -13.6462   20.3994 N   0  0  0  0  0  0
  -26.2927  -12.9390   20.3268 N   0  0  0  0  0  0
  -25.9313  -11.6543   20.5762 N   0  0  0  0  0  0
  -22.0460  -12.8222   22.0412 N   0  0  0  0  0  0
  -25.4259  -15.1919   20.4158 N   0  0  0  0  0  0
  -31.7222  -15.0240   20.0851 O   0  0  0  0  0  0
  -21.6637   -6.8884   21.4233 O   0  0  0  0  0  0
  -22.3519  -14.5538   20.6713 O   0  0  0  0  0  0
  -24.6422  -31.8448   23.1892 C   0  0  0  0  0  0
  -25.9199  -32.4695   23.8267 C   0  0  1  0  0  0
  -27.2112  -27.1487   20.1338 C   0  0  0  0  0  0
  -25.5966  -33.8498   24.2187 N   0  0  0  0  0  0
  -23.4434  -30.4662   21.5362 C   0  0  2  0  0  0
  -24.8878  -28.8954   20.1077 C   0  0  0  0  0  0
  -22.7567  -29.4544   22.4862 C   0  0  0  0  0  0
  -18.0305  -28.1383   22.8433 C   0  0  0  0  0  0
  -24.1497  -36.7262   23.2649 C   0  0  0  0  0  0
  -25.9974  -30.7237   21.3833 C   0  0  0  0  0  0
  -26.0656  -29.3354   20.7231 C   0  0  0  0  0  0
  -27.2256  -28.4764   20.7218 C   0  0  0  0  0  0
  -26.0012  -26.8041   19.4875 C   0  0  0  0  0  0
  -24.8661  -27.6420   19.4794 C   0  0  0  0  0  0
  -23.6681  -29.8015   20.1514 C   0  0  0  0  0  0
  -25.4123  -36.3036   24.0332 C   0  0  1  0  0  0
  -20.5919  -28.3705   23.1226 C   0  0  2  0  0  0
  -20.6788  -26.9418   22.5390 C   0  0  0  0  0  0
  -19.5765  -26.6370   21.5183 C   0  0  0  0  0  0
  -18.1941  -26.7916   22.1585 C   0  0  0  0  0  0
  -19.1568  -28.8860   23.2809 C   0  0  0  0  0  0
  -18.9496  -30.1447   23.8841 C   0  0  0  0  0  0
  -17.6497  -30.6570   24.0550 C   0  0  0  0  0  0
  -25.9073  -34.9410   23.5065 C   0  0  0  0  0  0
  -16.5381  -29.9073   23.6329 C   0  0  0  0  0  0
  -16.7300  -28.6503   23.0322 C   0  0  0  0  0  0
  -26.4541  -31.6563   25.0694 C   0  0  0  0  0  0
  -25.3745  -31.3738   26.1408 C   0  0  0  0  0  0
  -27.0440  -30.2987   24.6239 C   0  0  0  0  0  0
  -27.6058  -32.4337   25.7469 C   0  0  0  0  0  0
  -27.5576  -37.1783   24.8472 C   0  0  0  0  0  0
  -21.4270  -29.3030   22.3610 N   0  0  0  0  0  0
  -26.4279  -37.3752   23.9430 N   0  0  0  0  0  0
  -24.7139  -31.0327   22.0921 N   0  0  0  0  0  0
  -23.4222  -28.8096   23.2994 O   0  0  0  0  0  0
  -28.2881  -26.1970   20.2355 O   0  0  0  0  0  0
  -26.5655  -34.8911   22.4642 O   0  0  0  0  0  0
  -23.5551  -32.1320   23.7145 O   0  0  0  0  0  0
  -28.8852  -18.4465   21.2823 C   0  0  0  0  0  0
  -28.7785  -19.8911   21.1051 C   0  0  0  0  0  0
  -30.5237  -18.3210   19.6090 C   0  0  0  0  0  0
  -29.7601  -17.5641   20.5490 C   0  0  0  0  0  0
  -29.5333  -20.6575   20.1560 C   0  0  0  0  0  0
  -30.4129  -19.7583   19.4157 C   0  0  0  0  0  0
  -30.7620  -22.6869   19.5108 C   0  0  0  0  0  0
  -28.6084  -23.3006   20.5424 C   0  0  0  0  0  0
  -28.3051  -24.7367   19.7041 C   0  0  0  0  0  0
  -29.7293  -16.0394   20.7294 N   0  0  0  0  0  0
  -29.4700  -22.1472   19.9423 N   0  0  0  0  0  0
  -31.1954  -20.2626   18.4303 F   0  0  0  0  0  0
  -31.4767  -12.7193   19.1736 H   0  0  0  0  0  0
  -30.4438  -11.6016   20.0152 H   0  0  0  0  0  0
  -29.8313  -11.7163   17.5800 H   0  0  0  0  0  0
  -29.5926  -13.4440   17.7001 H   0  0  0  0  0  0
  -27.9783  -11.2480   19.0290 H   0  0  0  0  0  0
  -27.3812  -12.3793   17.8429 H   0  0  0  0  0  0
  -27.6113  -14.2316   19.4117 H   0  0  0  0  0  0
  -28.7532  -12.2640   21.4604 H   0  0  0  0  0  0
  -28.3750  -13.9394   21.7687 H   0  0  0  0  0  0
  -25.2758   -9.5682   22.4770 H   0  0  0  0  0  0
  -23.9996   -7.4638   22.7492 H   0  0  0  0  0  0
  -21.0844   -8.8772   19.8950 H   0  0  0  0  0  0
  -22.3703  -10.9672   19.6176 H   0  0  0  0  0  0
  -21.2012   -7.6155   23.9706 H   0  0  0  0  0  0
  -21.1479   -6.0529   25.9069 H   0  0  0  0  0  0
  -22.0600   -2.7617   23.2825 H   0  0  0  0  0  0
  -22.4075  -11.9859   22.4761 H   0  0  0  0  0  0
  -21.1086  -13.1251   22.2640 H   0  0  0  0  0  0
  -24.6646  -15.8501   20.5360 H   0  0  0  0  0  0
  -26.2804  -15.6293   20.0944 H   0  0  0  0  0  0
  -26.7253  -32.5315   23.0985 H   0  0  0  0  0  0
  -25.0117  -33.9606   25.0338 H   0  0  0  0  0  0
  -22.7459  -31.2934   21.3868 H   0  0  0  0  0  0
  -23.3761  -35.9586   23.3293 H   0  0  0  0  0  0
  -24.3580  -36.8911   22.2066 H   0  0  0  0  0  0
  -23.7247  -37.6451   23.6691 H   0  0  0  0  0  0
  -26.1487  -31.4801   20.6116 H   0  0  0  0  0  0
  -26.8700  -30.7731   22.0236 H   0  0  0  0  0  0
  -28.1219  -28.8065   21.2281 H   0  0  0  0  0  0
  -25.8682  -25.8473   19.0122 H   0  0  0  0  0  0
  -23.9606  -27.2959   18.9986 H   0  0  0  0  0  0
  -23.8158  -30.5822   19.4046 H   0  0  0  0  0  0
  -22.7803  -29.2552   19.8294 H   0  0  0  0  0  0
  -25.1298  -36.1866   25.0823 H   0  0  0  0  0  0
  -20.9979  -28.3287   24.1360 H   0  0  0  0  0  0
  -20.5677  -26.2328   23.3607 H   0  0  0  0  0  0
  -21.6663  -26.7422   22.1207 H   0  0  0  0  0  0
  -19.6958  -25.6281   21.1219 H   0  0  0  0  0  0
  -19.6722  -27.3166   20.6700 H   0  0  0  0  0  0
  -17.4229  -26.6653   21.3967 H   0  0  0  0  0  0
  -18.0348  -26.0053   22.8988 H   0  0  0  0  0  0
  -19.7995  -30.7240   24.2213 H   0  0  0  0  0  0
  -17.5080  -31.6254   24.5164 H   0  0  0  0  0  0
  -15.5386  -30.2966   23.7695 H   0  0  0  0  0  0
  -15.8695  -28.0824   22.7042 H   0  0  0  0  0  0
  -24.5910  -30.7092   25.7745 H   0  0  0  0  0  0
  -24.8947  -32.2922   26.4798 H   0  0  0  0  0  0
  -25.8043  -30.8938   27.0212 H   0  0  0  0  0  0
  -26.3054  -29.6679   24.1279 H   0  0  0  0  0  0
  -27.4157  -29.7297   25.4765 H   0  0  0  0  0  0
  -27.8907  -30.4273   23.9494 H   0  0  0  0  0  0
  -27.2640  -33.3667   26.1964 H   0  0  0  0  0  0
  -28.3902  -32.6863   25.0325 H   0  0  0  0  0  0
  -28.0693  -31.8533   26.5458 H   0  0  0  0  0  0
  -28.2579  -38.0088   24.7519 H   0  0  0  0  0  0
  -28.1085  -36.2622   24.6284 H   0  0  0  0  0  0
  -27.2300  -37.1409   25.8873 H   0  0  0  0  0  0
  -20.9501  -29.8814   21.6847 H   0  0  0  0  0  0
  -26.0155  -38.2826   24.1438 H   0  0  0  0  0  0
  -28.2478  -18.0044   22.0345 H   0  0  0  0  0  0
  -28.0795  -20.4222   21.7361 H   0  0  0  0  0  0
  -31.2137  -17.7920   18.9689 H   0  0  0  0  0  0
  -31.5934  -22.2278   20.0497 H   0  0  0  0  0  0
  -30.8427  -23.7595   19.6917 H   0  0  0  0  0  0
  -30.9108  -22.5427   18.4417 H   0  0  0  0  0  0
  -27.6498  -22.8799   20.8500 H   0  0  0  0  0  0
  -29.0965  -23.5805   21.4758 H   0  0  0  0  0  0
  -27.4119  -24.5358   19.1209 H   0  0  0  0  0  0
  -29.0583  -24.7986   18.9201 H   0  0  0  0  0  0
  -28.8579  -15.7208   21.1252 H   0  0  0  0  0  0
  1 25  1  0  0  0
  1 30  2  0  0  0
  1 80  1  0  0  0
  2  3  1  0  0  0
  2 25  1  0  0  0
  2 83  1  0  0  0
  2 84  1  0  0  0
  3  4  1  0  0  0
  3 85  1  0  0  0
  3 86  1  0  0  0
  4  5  1  0  0  0
  4 87  1  0  0  0
  4 88  1  0  0  0
  5  6  1  0  0  0
  5 26  1  0  0  0
  5 89  1  0  0  0
  6 25  1  0  0  0
  6 90  1  0  0  0
  6 91  1  0  0  0
  7  8  2  0  0  0
  7 26  1  0  0  0
  7 29  1  0  0  0
  8  9  1  0  0  0
  8 22  1  0  0  0
  9 10  1  0  0  0
  9 27  2  0  0  0
 10 11  2  0  0  0
 10 15  1  0  0  0
 11 12  1  0  0  0
 11 92  1  0  0  0
 12 13  2  0  0  0
 12 93  1  0  0  0
 13 14  1  0  0  0
 13 31  1  0  0  0
 14 15  2  0  0  0
 14 94  1  0  0  0
 15 95  1  0  0  0
 16 17  2  0  0  0
 16 21  1  0  0  0
 16 31  1  0  0  0
 17 18  1  0  0  0
 17 96  1  0  0  0
 18 19  2  0  0  0
 18 97  1  0  0  0
 19 20  1  0  0  0
 19 24  1  0  0  0
 20 21  2  0  0  0
 20 98  1  0  0  0
 21 23  1  0  0  0
 22 28  1  0  0  0
 22 32  2  0  0  0
 26 27  1  0  0  0
 28 99  1  0  0  0
 28100  1  0  0  0
 29101  1  0  0  0
 29102  1  0  0  0
 33 34  1  0  0  0
 33 66  1  0  0  0
 33 70  2  0  0  0
 34 36  1  0  0  0
 34 59  1  0  0  0
 34103  1  0  0  0
 35 44  2  0  0  0
 35 45  1  0  0  0
 35 68  1  0  0  0
 36 56  1  0  0  0
 36104  1  0  0  0
 37 39  1  0  0  0
 37 47  1  0  0  0
 37 66  1  0  0  0
 37105  1  0  0  0
 38 43  2  0  0  0
 38 46  1  0  0  0
 38 47  1  0  0  0
 39 64  1  0  0  0
 39 67  2  0  0  0
 40 52  1  0  0  0
 40 53  2  0  0  0
 40 58  1  0  0  0
 41106  1  0  0  0
 41107  1  0  0  0
 41108  1  0  0  0
 41 48  1  0  0  0
 42 43  1  0  0  0
 42 66  1  0  0  0
 42109  1  0  0  0
 42110  1  0  0  0
 43 44  1  0  0  0
 44111  1  0  0  0
 45 46  2  0  0  0
 45112  1  0  0  0
 46113  1  0  0  0
 47114  1  0  0  0
 47115  1  0  0  0
 48 56  1  0  0  0
 48 65  1  0  0  0
 48116  1  0  0  0
 49 50  1  0  0  0
 49 53  1  0  0  0
 49 64  1  0  0  0
 49117  1  0  0  0
 50 51  1  0  0  0
 50118  1  0  0  0
 50119  1  0  0  0
 51 52  1  0  0  0
 51120  1  0  0  0
 51121  1  0  0  0
 52122  1  0  0  0
 52123  1  0  0  0
 53 54  1  0  0  0
 54 55  2  0  0  0
 54124  1  0  0  0
 55 57  1  0  0  0
 55125  1  0  0  0
 56 69  2  0  0  0
 57 58  2  0  0  0
 57126  1  0  0  0
 58127  1  0  0  0
 59 60  1  0  0  0
 59 61  1  0  0  0
 59 62  1  0  0  0
 60128  1  0  0  0
 60129  1  0  0  0
 60130  1  0  0  0
 61131  1  0  0  0
 61132  1  0  0  0
 61133  1  0  0  0
 62134  1  0  0  0
 62135  1  0  0  0
 62136  1  0  0  0
 63 65  1  0  0  0
 63137  1  0  0  0
 63138  1  0  0  0
 63139  1  0  0  0
 64140  1  0  0  0
 65141  1  0  0  0
 68 79  1  0  0  0
 71 72  2  0  0  0
 71 74  1  0  0  0
 71142  1  0  0  0
 72 75  1  0  0  0
 72143  1  0  0  0
 73 74  2  0  0  0
 73 76  1  0  0  0
 73144  1  0  0  0
 74 80  1  0  0  0
 75 76  2  0  0  0
 75 81  1  0  0  0
 76 82  1  0  0  0
 77 81  1  0  0  0
 77145  1  0  0  0
 77146  1  0  0  0
 77147  1  0  0  0
 78 79  1  0  0  0
 78 81  1  0  0  0
 78148  1  0  0  0
 78149  1  0  0  0
 79150  1  0  0  0
 79151  1  0  0  0
 80152  1  0  0  0
M  ISO  4   1 100  68 101  79 101  80 100
M  END
> <chiral flag>
0

> <version>
0

> <s_m_source_file>
/data/baiqing/PycharmProjects/Reinvent-master-3.2/result/LINK_invent/BTK/process_docking_weight1_custom_product_contain_oxygen_bond_distance_aromatic_linkinvent_7_9_3/rearranged_h_0013.sdf

> <i_m_source_file_index>
59

> <r_mmod_Potential_Energy-OPLS-2005>
511.603118896484

> <r_mmod_Stretch_Energy-OPLS-2005>
230.296722412109

> <r_mmod_Bend_Energy-OPLS-2005>
284.916046142578

> <r_mmod_Torsional_Energy-OPLS-2005>
211.01481628418

> <r_mmod_Improper_Torsional_Energy-OPLS-2005>
5.03031587600708

> <r_mmod_Van_der_Waal_Energy-OPLS-2005>
145.182098388672

> <r_mmod_Electrostatic_Energy-OPLS-2005>
-309.540466308594

> <r_mmod_Solvation_Energy-OPLS-2005>
-229.006332397461

> <b_mmod_Minimization_Converged-OPLS-2005>
0

> <r_mmod_RMS_Derivative-OPLS-2005>
3.109783411026

$$$$
60
                    3D
 Structure written by MMmdl.
155164  0  0  1  0            999 V2000
  -30.6545  -14.6625   20.4969 C   0  0  0  0  0  0
  -30.4253  -12.4128   19.4539 C   0  0  0  0  0  0
  -29.5002  -12.4998   18.2221 C   0  0  0  0  0  0
  -28.0261  -12.3359   18.6395 C   0  0  0  0  0  0
  -27.6439  -13.2265   19.8524 C   0  0  2  0  0  0
  -28.6902  -13.1309   20.9835 C   0  0  0  0  0  0
  -25.2521  -13.8193   20.5698 C   0  0  0  0  0  0
  -24.1805  -13.0442   20.9207 C   0  0  0  0  0  0
  -24.6390  -11.6918   20.8749 C   0  0  0  0  0  0
  -23.9067  -10.4294   21.0410 C   0  0  0  0  0  0
  -24.3619   -9.4209   21.9186 C   0  0  0  0  0  0
  -23.6295   -8.2242   22.0754 C   0  0  0  0  0  0
  -22.4277   -8.0281   21.3543 C   0  0  0  0  0  0
  -21.9914   -9.0254   20.4645 C   0  0  0  0  0  0
  -22.7241  -10.2134   20.3057 C   0  0  0  0  0  0
  -21.6854   -6.0737   22.5280 C   0  0  0  0  0  0
  -21.4014   -6.5639   23.8213 C   0  0  0  0  0  0
  -21.3660   -5.6793   24.9175 C   0  0  0  0  0  0
  -21.6044   -4.3056   24.7226 C   0  0  0  0  0  0
  -21.8818   -3.8148   23.4348 C   0  0  0  0  0  0
  -21.9192   -4.6965   22.3403 C   0  0  0  0  0  0
  -22.7827  -13.5224   21.1870 C   0  0  0  0  0  0
  -22.1661   -4.2150   21.0981 F   0  0  0  0  0  0
  -21.5629   -3.4541   25.7739 F   0  0  0  0  0  0
  -29.9959  -13.4633   20.4005 N   0  0  0  0  0  0
  -26.2946  -12.9392   20.3297 N   0  0  0  0  0  0
  -25.9318  -11.6537   20.5759 N   0  0  0  0  0  0
  -22.0475  -12.8208   22.0422 N   0  0  0  0  0  0
  -25.4215  -15.1917   20.4115 N   0  0  0  0  0  0
  -31.8400  -14.7512   20.1687 O   0  0  0  0  0  0
  -21.6640   -6.8879   21.4241 O   0  0  0  0  0  0
  -22.3510  -14.5532   20.6723 O   0  0  0  0  0  0
  -24.6280  -31.8584   23.2008 C   0  0  0  0  0  0
  -25.9124  -32.4770   23.8338 C   0  0  1  0  0  0
  -27.2218  -27.2999   20.1068 C   0  0  0  0  0  0
  -25.5936  -33.8571   24.2267 N   0  0  0  0  0  0
  -23.4212  -30.4833   21.5440 C   0  0  2  0  0  0
  -24.8646  -28.9349   20.1114 C   0  0  0  0  0  0
  -22.7477  -29.4624   22.4924 C   0  0  0  0  0  0
  -18.0289  -28.1383   22.8486 C   0  0  0  0  0  0
  -24.1489  -36.7286   23.2640 C   0  0  0  0  0  0
  -25.9643  -30.7826   21.3738 C   0  0  0  0  0  0
  -26.0353  -29.4087   20.7145 C   0  0  0  0  0  0
  -27.2131  -28.6018   20.7038 C   0  0  0  0  0  0
  -26.0151  -26.8737   19.5030 C   0  0  0  0  0  0
  -24.8568  -27.6729   19.5008 C   0  0  0  0  0  0
  -23.6354  -29.8191   20.1593 C   0  0  0  0  0  0
  -25.4116  -36.3077   24.0323 C   0  0  1  0  0  0
  -20.5891  -28.3690   23.1276 C   0  0  2  0  0  0
  -20.6779  -26.9412   22.5406 C   0  0  0  0  0  0
  -19.5754  -26.6384   21.5210 C   0  0  0  0  0  0
  -18.1933  -26.7928   22.1621 C   0  0  0  0  0  0
  -19.1542  -28.8853   23.2879 C   0  0  0  0  0  0
  -18.9469  -30.1458   23.8893 C   0  0  0  0  0  0
  -17.6468  -30.6588   24.0565 C   0  0  0  0  0  0
  -25.9054  -34.9447   23.5094 C   0  0  0  0  0  0
  -16.5360  -29.9086   23.6334 C   0  0  0  0  0  0
  -16.7278  -28.6504   23.0353 C   0  0  0  0  0  0
  -26.4499  -31.6589   25.0718 C   0  0  0  0  0  0
  -25.3730  -31.3736   26.1445 C   0  0  0  0  0  0
  -27.0349  -30.3012   24.6186 C   0  0  0  0  0  0
  -27.6054  -32.4329   25.7496 C   0  0  0  0  0  0
  -27.5575  -37.1804   24.8468 C   0  0  0  0  0  0
  -21.4189  -29.3048   22.3672 N   0  0  0  0  0  0
  -26.4293  -37.3772   23.9402 N   0  0  0  0  0  0
  -24.6903  -31.0583   22.0964 N   0  0  0  0  0  0
  -23.4199  -28.8162   23.3005 O   0  0  0  0  0  0
  -28.3591  -26.4710   20.1628 O   0  0  0  0  0  0
  -26.5620  -34.8917   22.4660 O   0  0  0  0  0  0
  -23.5441  -32.1392   23.7328 O   0  0  0  0  0  0
  -29.1517  -19.3685   21.5832 C   0  0  0  0  0  0
  -30.3026  -19.1451   19.4945 C   0  0  0  0  0  0
  -28.8700  -20.7453   21.2931 C   0  0  0  0  0  0
  -30.0295  -20.5170   19.2096 C   0  0  0  0  0  0
  -29.9036  -18.5329   20.7075 C   0  0  0  0  0  0
  -29.3343  -21.3850   20.1071 C   0  0  0  0  0  0
  -28.3819  -23.8209   20.3184 C   0  0  0  0  0  0
  -29.7875  -24.9585   18.7987 C   0  0  0  0  0  0
  -29.9550  -23.4295   18.6976 C   0  0  0  0  0  0
  -28.4363  -25.1523   19.4732 C   0  0  2  0  0  0
  -30.5010  -17.1421   21.1645 C   0  0  0  0  0  0
  -29.1814  -22.8300   19.7911 N   0  0  0  0  0  0
  -29.9312  -15.7918   20.8037 N   0  0  0  0  0  0
  -27.6678  -23.7117   21.3209 O   0  0  0  0  0  0
  -31.4671  -12.5253   19.1493 H   0  0  0  0  0  0
  -30.3556  -11.4296   19.9215 H   0  0  0  0  0  0
  -29.7691  -11.7344   17.4926 H   0  0  0  0  0  0
  -29.6374  -13.4606   17.7234 H   0  0  0  0  0  0
  -27.8724  -11.2856   18.8906 H   0  0  0  0  0  0
  -27.3681  -12.5449   17.7952 H   0  0  0  0  0  0
  -27.6484  -14.2537   19.4874 H   0  0  0  0  0  0
  -28.7101  -12.1272   21.4105 H   0  0  0  0  0  0
  -28.4374  -13.8047   21.8035 H   0  0  0  0  0  0
  -25.2762   -9.5686   22.4762 H   0  0  0  0  0  0
  -24.0007   -7.4633   22.7470 H   0  0  0  0  0  0
  -21.0848   -8.8773   19.8947 H   0  0  0  0  0  0
  -22.3701  -10.9674   19.6167 H   0  0  0  0  0  0
  -21.2005   -7.6147   23.9717 H   0  0  0  0  0  0
  -21.1483   -6.0523   25.9078 H   0  0  0  0  0  0
  -22.0596   -2.7611   23.2848 H   0  0  0  0  0  0
  -22.4097  -11.9868   22.4802 H   0  0  0  0  0  0
  -21.1090  -13.1226   22.2634 H   0  0  0  0  0  0
  -24.6538  -15.8452   20.5227 H   0  0  0  0  0  0
  -26.2692  -15.6328   20.0777 H   0  0  0  0  0  0
  -26.7188  -32.5426   23.1078 H   0  0  0  0  0  0
  -25.0108  -33.9717   25.0429 H   0  0  0  0  0  0
  -22.7162  -31.3049   21.4011 H   0  0  0  0  0  0
  -23.3746  -35.9626   23.3327 H   0  0  0  0  0  0
  -24.3573  -36.8881   22.2049 H   0  0  0  0  0  0
  -23.7254  -37.6498   23.6649 H   0  0  0  0  0  0
  -26.0990  -31.5454   20.6057 H   0  0  0  0  0  0
  -26.8439  -30.8293   22.0044 H   0  0  0  0  0  0
  -28.1129  -28.9634   21.1817 H   0  0  0  0  0  0
  -25.9077  -25.9015   19.0516 H   0  0  0  0  0  0
  -23.9531  -27.2976   19.0404 H   0  0  0  0  0  0
  -23.7587  -30.5960   19.4040 H   0  0  0  0  0  0
  -22.7534  -29.2524   19.8549 H   0  0  0  0  0  0
  -25.1301  -36.1926   25.0815 H   0  0  0  0  0  0
  -20.9986  -28.3267   24.1395 H   0  0  0  0  0  0
  -20.5682  -26.2299   23.3607 H   0  0  0  0  0  0
  -21.6648  -26.7439   22.1199 H   0  0  0  0  0  0
  -19.6916  -25.6294   21.1243 H   0  0  0  0  0  0
  -19.6692  -27.3194   20.6740 H   0  0  0  0  0  0
  -17.4203  -26.6679   21.4023 H   0  0  0  0  0  0
  -18.0332  -26.0064   22.9013 H   0  0  0  0  0  0
  -19.7945  -30.7278   24.2250 H   0  0  0  0  0  0
  -17.5025  -31.6267   24.5169 H   0  0  0  0  0  0
  -15.5361  -30.2990   23.7660 H   0  0  0  0  0  0
  -15.8677  -28.0827   22.7063 H   0  0  0  0  0  0
  -24.5905  -30.7079   25.7781 H   0  0  0  0  0  0
  -24.8918  -32.2905   26.4858 H   0  0  0  0  0  0
  -25.8050  -30.8928   27.0229 H   0  0  0  0  0  0
  -26.2930  -29.6759   24.1205 H   0  0  0  0  0  0
  -27.4042  -29.7271   25.4694 H   0  0  0  0  0  0
  -27.8797  -30.4298   23.9416 H   0  0  0  0  0  0
  -27.2661  -33.3636   26.2055 H   0  0  0  0  0  0
  -28.3876  -32.6878   25.0334 H   0  0  0  0  0  0
  -28.0705  -31.8466   26.5429 H   0  0  0  0  0  0
  -28.2606  -38.0088   24.7494 H   0  0  0  0  0  0
  -28.1056  -36.2617   24.6325 H   0  0  0  0  0  0
  -27.2288  -37.1490   25.8872 H   0  0  0  0  0  0
  -20.9364  -29.8782   21.6894 H   0  0  0  0  0  0
  -26.0171  -38.2848   24.1397 H   0  0  0  0  0  0
  -28.8370  -18.9722   22.5390 H   0  0  0  0  0  0
  -30.8978  -18.5773   18.7923 H   0  0  0  0  0  0
  -28.3314  -21.3210   22.0327 H   0  0  0  0  0  0
  -30.4107  -20.9017   18.2746 H   0  0  0  0  0  0
  -29.8398  -25.4437   17.8238 H   0  0  0  0  0  0
  -30.5776  -25.3804   19.4215 H   0  0  0  0  0  0
  -31.0086  -23.1526   18.7509 H   0  0  0  0  0  0
  -29.5589  -23.0705   17.7463 H   0  0  0  0  0  0
  -27.7041  -25.0552   18.6763 H   0  0  0  0  0  0
  -30.5382  -17.1627   22.2545 H   0  0  0  0  0  0
  -31.5508  -17.1635   20.8672 H   0  0  0  0  0  0
  -28.9450  -15.6623   20.9693 H   0  0  0  0  0  0
  1 25  1  0  0  0
  1 30  2  0  0  0
  1 83  1  0  0  0
  2  3  1  0  0  0
  2 25  1  0  0  0
  2 85  1  0  0  0
  2 86  1  0  0  0
  3  4  1  0  0  0
  3 87  1  0  0  0
  3 88  1  0  0  0
  4  5  1  0  0  0
  4 89  1  0  0  0
  4 90  1  0  0  0
  5  6  1  0  0  0
  5 26  1  0  0  0
  5 91  1  0  0  0
  6 25  1  0  0  0
  6 92  1  0  0  0
  6 93  1  0  0  0
  7  8  2  0  0  0
  7 26  1  0  0  0
  7 29  1  0  0  0
  8  9  1  0  0  0
  8 22  1  0  0  0
  9 10  1  0  0  0
  9 27  2  0  0  0
 10 11  2  0  0  0
 10 15  1  0  0  0
 11 12  1  0  0  0
 11 94  1  0  0  0
 12 13  2  0  0  0
 12 95  1  0  0  0
 13 14  1  0  0  0
 13 31  1  0  0  0
 14 15  2  0  0  0
 14 96  1  0  0  0
 15 97  1  0  0  0
 16 17  2  0  0  0
 16 21  1  0  0  0
 16 31  1  0  0  0
 17 18  1  0  0  0
 17 98  1  0  0  0
 18 19  2  0  0  0
 18 99  1  0  0  0
 19 20  1  0  0  0
 19 24  1  0  0  0
 20 21  2  0  0  0
 20100  1  0  0  0
 21 23  1  0  0  0
 22 28  1  0  0  0
 22 32  2  0  0  0
 26 27  1  0  0  0
 28101  1  0  0  0
 28102  1  0  0  0
 29103  1  0  0  0
 29104  1  0  0  0
 33 34  1  0  0  0
 33 66  1  0  0  0
 33 70  2  0  0  0
 34 36  1  0  0  0
 34 59  1  0  0  0
 34105  1  0  0  0
 35 44  2  0  0  0
 35 45  1  0  0  0
 35 68  1  0  0  0
 36 56  1  0  0  0
 36106  1  0  0  0
 37 39  1  0  0  0
 37 47  1  0  0  0
 37 66  1  0  0  0
 37107  1  0  0  0
 38 43  2  0  0  0
 38 46  1  0  0  0
 38 47  1  0  0  0
 39 64  1  0  0  0
 39 67  2  0  0  0
 40 52  1  0  0  0
 40 53  2  0  0  0
 40 58  1  0  0  0
 41108  1  0  0  0
 41109  1  0  0  0
 41110  1  0  0  0
 41 48  1  0  0  0
 42 43  1  0  0  0
 42 66  1  0  0  0
 42111  1  0  0  0
 42112  1  0  0  0
 43 44  1  0  0  0
 44113  1  0  0  0
 45 46  2  0  0  0
 45114  1  0  0  0
 46115  1  0  0  0
 47116  1  0  0  0
 47117  1  0  0  0
 48 56  1  0  0  0
 48 65  1  0  0  0
 48118  1  0  0  0
 49 50  1  0  0  0
 49 53  1  0  0  0
 49 64  1  0  0  0
 49119  1  0  0  0
 50 51  1  0  0  0
 50120  1  0  0  0
 50121  1  0  0  0
 51 52  1  0  0  0
 51122  1  0  0  0
 51123  1  0  0  0
 52124  1  0  0  0
 52125  1  0  0  0
 53 54  1  0  0  0
 54 55  2  0  0  0
 54126  1  0  0  0
 55 57  1  0  0  0
 55127  1  0  0  0
 56 69  2  0  0  0
 57 58  2  0  0  0
 57128  1  0  0  0
 58129  1  0  0  0
 59 60  1  0  0  0
 59 61  1  0  0  0
 59 62  1  0  0  0
 60130  1  0  0  0
 60131  1  0  0  0
 60132  1  0  0  0
 61133  1  0  0  0
 61134  1  0  0  0
 61135  1  0  0  0
 62136  1  0  0  0
 62137  1  0  0  0
 62138  1  0  0  0
 63 65  1  0  0  0
 63139  1  0  0  0
 63140  1  0  0  0
 63141  1  0  0  0
 64142  1  0  0  0
 65143  1  0  0  0
 68 80  1  0  0  0
 71 73  2  0  0  0
 71 75  1  0  0  0
 71144  1  0  0  0
 72 74  1  0  0  0
 72 75  2  0  0  0
 72145  1  0  0  0
 73 76  1  0  0  0
 73146  1  0  0  0
 74 76  2  0  0  0
 74147  1  0  0  0
 75 81  1  0  0  0
 76 82  1  0  0  0
 77 80  1  0  0  0
 77 82  1  0  0  0
 77 84  2  0  0  0
 78 79  1  0  0  0
 78 80  1  0  0  0
 78148  1  0  0  0
 78149  1  0  0  0
 79 82  1  0  0  0
 79150  1  0  0  0
 79151  1  0  0  0
 80152  1  0  0  0
 81 83  1  0  0  0
 81153  1  0  0  0
 81154  1  0  0  0
 83155  1  0  0  0
M  ISO  4   1 100  68 101  80 101  83 100
M  END
> <chiral flag>
0

> <version>
0

> <s_m_source_file>
/data/baiqing/PycharmProjects/Reinvent-master-3.2/result/LINK_invent/BTK/process_docking_weight1_custom_product_contain_oxygen_bond_distance_aromatic_linkinvent_7_9_3/rearranged_h_0013.sdf

> <i_m_source_file_index>
60

> <r_mmod_Potential_Energy-OPLS-2005>
156.050674438477

> <r_mmod_Stretch_Energy-OPLS-2005>
90.2087707519531

> <r_mmod_Bend_Energy-OPLS-2005>
193.114379882812

> <r_mmod_Torsional_Energy-OPLS-2005>
250.651794433594

> <r_mmod_Improper_Torsional_Energy-OPLS-2005>
5.62412261962891

> <r_mmod_Van_der_Waal_Energy-OPLS-2005>
143.626251220703

> <r_mmod_Electrostatic_Energy-OPLS-2005>
-356.565643310547

> <r_mmod_Solvation_Energy-OPLS-2005>
-227.430114746094

> <b_mmod_Minimization_Converged-OPLS-2005>
0

> <r_mmod_RMS_Derivative-OPLS-2005>
0.443382859230042

$$$$
61
                    3D
 Structure written by MMmdl.
158166  0  0  1  0            999 V2000
  -30.6555  -14.6630   20.6061 C   0  0  0  0  0  0
  -30.4400  -12.4375   19.4736 C   0  0  0  0  0  0
  -29.5155  -12.5357   18.2400 C   0  0  0  0  0  0
  -28.0413  -12.3444   18.6439 C   0  0  0  0  0  0
  -27.6511  -13.2236   19.8584 C   0  0  2  0  0  0
  -28.6828  -13.0871   20.9944 C   0  0  0  0  0  0
  -25.2547  -13.8179   20.5679 C   0  0  0  0  0  0
  -24.1822  -13.0431   20.9178 C   0  0  0  0  0  0
  -24.6409  -11.6911   20.8745 C   0  0  0  0  0  0
  -23.9072  -10.4299   21.0421 C   0  0  0  0  0  0
  -24.3619   -9.4213   21.9199 C   0  0  0  0  0  0
  -23.6295   -8.2248   22.0765 C   0  0  0  0  0  0
  -22.4271   -8.0288   21.3556 C   0  0  0  0  0  0
  -21.9908   -9.0264   20.4659 C   0  0  0  0  0  0
  -22.7241  -10.2143   20.3074 C   0  0  0  0  0  0
  -21.6843   -6.0745   22.5278 C   0  0  0  0  0  0
  -21.4004   -6.5657   23.8206 C   0  0  0  0  0  0
  -21.3668   -5.6822   24.9178 C   0  0  0  0  0  0
  -21.6045   -4.3080   24.7239 C   0  0  0  0  0  0
  -21.8808   -3.8161   23.4365 C   0  0  0  0  0  0
  -21.9186   -4.6972   22.3415 C   0  0  0  0  0  0
  -22.7853  -13.5219   21.1853 C   0  0  0  0  0  0
  -22.1653   -4.2168   21.0995 F   0  0  0  0  0  0
  -21.5635   -3.4562   25.7753 F   0  0  0  0  0  0
  -30.0042  -13.4542   20.4607 N   0  0  0  0  0  0
  -26.2971  -12.9376   20.3262 N   0  0  0  0  0  0
  -25.9327  -11.6522   20.5708 N   0  0  0  0  0  0
  -22.0487  -12.8212   22.0409 N   0  0  0  0  0  0
  -25.4296  -15.1897   20.4152 N   0  0  0  0  0  0
  -31.7460  -14.8424   20.0531 O   0  0  0  0  0  0
  -21.6632   -6.8883   21.4238 O   0  0  0  0  0  0
  -22.3556  -14.5542   20.6720 O   0  0  0  0  0  0
  -24.6271  -31.8550   23.1998 C   0  0  0  0  0  0
  -25.9111  -32.4750   23.8331 C   0  0  1  0  0  0
  -27.2311  -27.3153   20.1334 C   0  0  0  0  0  0
  -25.5915  -33.8559   24.2254 N   0  0  0  0  0  0
  -23.4215  -30.4771   21.5411 C   0  0  2  0  0  0
  -24.8709  -28.9275   20.1126 C   0  0  0  0  0  0
  -22.7461  -29.4577   22.4897 C   0  0  0  0  0  0
  -18.0277  -28.1398   22.8460 C   0  0  0  0  0  0
  -24.1492  -36.7302   23.2638 C   0  0  0  0  0  0
  -25.9623  -30.7883   21.3682 C   0  0  0  0  0  0
  -26.0394  -29.4145   20.7151 C   0  0  0  0  0  0
  -27.2269  -28.6246   20.7061 C   0  0  0  0  0  0
  -26.0450  -26.8738   19.5162 C   0  0  0  0  0  0
  -24.8768  -27.6617   19.5014 C   0  0  0  0  0  0
  -23.6377  -29.8068   20.1588 C   0  0  0  0  0  0
  -25.4116  -36.3075   24.0332 C   0  0  1  0  0  0
  -20.5871  -28.3702   23.1310 C   0  0  2  0  0  0
  -20.6719  -26.9350   22.5650 C   0  0  0  0  0  0
  -19.5824  -26.6315   21.5317 C   0  0  0  0  0  0
  -18.1948  -26.7930   22.1611 C   0  0  0  0  0  0
  -19.1526  -28.8881   23.2850 C   0  0  0  0  0  0
  -18.9448  -30.1505   23.8831 C   0  0  0  0  0  0
  -17.6449  -30.6614   24.0534 C   0  0  0  0  0  0
  -25.9053  -34.9446   23.5096 C   0  0  0  0  0  0
  -16.5343  -29.9080   23.6353 C   0  0  0  0  0  0
  -16.7263  -28.6507   23.0350 C   0  0  0  0  0  0
  -26.4508  -31.6557   25.0690 C   0  0  0  0  0  0
  -25.3760  -31.3701   26.1425 C   0  0  0  0  0  0
  -27.0348  -30.2985   24.6124 C   0  0  0  0  0  0
  -27.6063  -32.4286   25.7470 C   0  0  0  0  0  0
  -27.5584  -37.1798   24.8461 C   0  0  0  0  0  0
  -21.4172  -29.2964   22.3611 N   0  0  0  0  0  0
  -26.4302  -37.3776   23.9402 N   0  0  0  0  0  0
  -24.6891  -31.0565   22.0944 N   0  0  0  0  0  0
  -23.4175  -28.8161   23.3010 O   0  0  0  0  0  0
  -28.3498  -26.4715   20.1318 O   0  0  0  0  0  0
  -26.5623  -34.8920   22.4670 O   0  0  0  0  0  0
  -23.5422  -32.1361   23.7299 O   0  0  0  0  0  0
  -29.6101  -17.4938   19.6412 C   0  0  0  0  0  0
  -29.8539  -18.1699   21.9212 C   0  0  0  0  0  0
  -29.3532  -18.8592   19.2917 C   0  0  0  0  0  0
  -29.5851  -19.5319   21.5725 C   0  0  0  0  0  0
  -29.8706  -17.0867   20.9786 C   0  0  0  0  0  0
  -29.3283  -19.9258   20.2352 C   0  0  0  0  0  0
  -28.8061  -16.1647   24.8333 C   0  0  0  0  0  0
  -28.8530  -15.6967   23.5767 C   0  0  0  0  0  0
  -30.1438  -15.3745   22.8361 C   0  0  0  0  0  0
  -28.7173  -23.8248   19.9062 C   0  0  0  0  0  0
  -28.8207  -22.4043   20.6536 C   0  0  0  0  0  0
  -28.2121  -25.1099   20.7120 C   0  0  0  0  0  0
  -30.0837  -15.6643   21.3849 N   0  0  0  0  0  0
  -29.0850  -21.2465   19.7812 O   0  0  0  0  0  0
  -31.4822  -12.5700   19.1780 H   0  0  0  0  0  0
  -30.3876  -11.4412   19.9171 H   0  0  0  0  0  0
  -29.8002  -11.7919   17.4939 H   0  0  0  0  0  0
  -29.6381  -13.5108   17.7669 H   0  0  0  0  0  0
  -27.8985  -11.2915   18.8883 H   0  0  0  0  0  0
  -27.3874  -12.5521   17.7973 H   0  0  0  0  0  0
  -27.6678  -14.2596   19.5149 H   0  0  0  0  0  0
  -28.7022  -12.0673   21.3823 H   0  0  0  0  0  0
  -28.3785  -13.7106   21.8276 H   0  0  0  0  0  0
  -25.2755   -9.5707   22.4781 H   0  0  0  0  0  0
  -24.0010   -7.4647   22.7489 H   0  0  0  0  0  0
  -21.0837   -8.8783   19.8969 H   0  0  0  0  0  0
  -22.3687  -10.9690   19.6197 H   0  0  0  0  0  0
  -21.1979   -7.6163   23.9724 H   0  0  0  0  0  0
  -21.1498   -6.0548   25.9086 H   0  0  0  0  0  0
  -22.0574   -2.7624   23.2853 H   0  0  0  0  0  0
  -22.4055  -11.9868   22.4829 H   0  0  0  0  0  0
  -21.1119  -13.1269   22.2606 H   0  0  0  0  0  0
  -24.6764  -15.8527   20.5575 H   0  0  0  0  0  0
  -26.2982  -15.6290   20.1377 H   0  0  0  0  0  0
  -26.7173  -32.5416   23.1071 H   0  0  0  0  0  0
  -25.0057  -33.9714   25.0385 H   0  0  0  0  0  0
  -22.7153  -31.2977   21.3937 H   0  0  0  0  0  0
  -23.3740  -35.9646   23.3299 H   0  0  0  0  0  0
  -24.3578  -36.8922   22.2052 H   0  0  0  0  0  0
  -23.7273  -37.6517   23.6660 H   0  0  0  0  0  0
  -26.0876  -31.5461   20.5939 H   0  0  0  0  0  0
  -26.8480  -30.8412   21.9904 H   0  0  0  0  0  0
  -28.1265  -29.0004   21.1716 H   0  0  0  0  0  0
  -26.0246  -25.9007   19.0469 H   0  0  0  0  0  0
  -23.9858  -27.2779   19.0233 H   0  0  0  0  0  0
  -23.7517  -30.5806   19.3987 H   0  0  0  0  0  0
  -22.7598  -29.2313   19.8584 H   0  0  0  0  0  0
  -25.1293  -36.1934   25.0827 H   0  0  0  0  0  0
  -20.9963  -28.3415   24.1429 H   0  0  0  0  0  0
  -20.5364  -26.2380   23.3940 H   0  0  0  0  0  0
  -21.6648  -26.7187   22.1690 H   0  0  0  0  0  0
  -19.6997  -25.6185   21.1447 H   0  0  0  0  0  0
  -19.6894  -27.3065   20.6812 H   0  0  0  0  0  0
  -17.4298  -26.6715   21.3924 H   0  0  0  0  0  0
  -18.0256  -26.0086   22.9004 H   0  0  0  0  0  0
  -19.7915  -30.7370   24.2133 H   0  0  0  0  0  0
  -17.4997  -31.6310   24.5090 H   0  0  0  0  0  0
  -15.5346  -30.2974   23.7718 H   0  0  0  0  0  0
  -15.8652  -28.0836   22.7046 H   0  0  0  0  0  0
  -24.5929  -30.7037   25.7770 H   0  0  0  0  0  0
  -24.8959  -32.2871   26.4852 H   0  0  0  0  0  0
  -25.8118  -30.8890   27.0188 H   0  0  0  0  0  0
  -26.2903  -29.6712   24.1198 H   0  0  0  0  0  0
  -27.4104  -29.7256   25.4607 H   0  0  0  0  0  0
  -27.8748  -30.4258   23.9294 H   0  0  0  0  0  0
  -27.2662  -33.3573   26.2058 H   0  0  0  0  0  0
  -28.3891  -32.6858   25.0325 H   0  0  0  0  0  0
  -28.0705  -31.8395   26.5380 H   0  0  0  0  0  0
  -28.2600  -38.0094   24.7491 H   0  0  0  0  0  0
  -28.1085  -36.2624   24.6311 H   0  0  0  0  0  0
  -27.2289  -37.1476   25.8860 H   0  0  0  0  0  0
  -20.9339  -29.8593   21.6744 H   0  0  0  0  0  0
  -26.0177  -38.2852   24.1383 H   0  0  0  0  0  0
  -29.5920  -16.7511   18.8566 H   0  0  0  0  0  0
  -30.0481  -17.9808   22.9656 H   0  0  0  0  0  0
  -29.1634  -19.0933   18.2532 H   0  0  0  0  0  0
  -29.5907  -20.2766   22.3554 H   0  0  0  0  0  0
  -27.8606  -16.3800   25.3126 H   0  0  0  0  0  0
  -29.7070  -16.3377   25.4067 H   0  0  0  0  0  0
  -27.9238  -15.5283   23.0495 H   0  0  0  0  0  0
  -30.9779  -15.9207   23.2809 H   0  0  0  0  0  0
  -30.3604  -14.3235   23.0425 H   0  0  0  0  0  0
  -28.0667  -23.7029   19.0408 H   0  0  0  0  0  0
  -29.7004  -24.0539   19.4941 H   0  0  0  0  0  0
  -27.8837  -22.2155   21.1789 H   0  0  0  0  0  0
  -29.5953  -22.4621   21.4183 H   0  0  0  0  0  0
  -27.1812  -24.9295   21.0235 H   0  0  0  0  0  0
  -28.7754  -25.1397   21.6453 H   0  0  0  0  0  0
  1 25  1  0  0  0
  1 30  2  0  0  0
  1 83  1  0  0  0
  2  3  1  0  0  0
  2 25  1  0  0  0
  2 85  1  0  0  0
  2 86  1  0  0  0
  3  4  1  0  0  0
  3 87  1  0  0  0
  3 88  1  0  0  0
  4  5  1  0  0  0
  4 89  1  0  0  0
  4 90  1  0  0  0
  5  6  1  0  0  0
  5 26  1  0  0  0
  5 91  1  0  0  0
  6 25  1  0  0  0
  6 92  1  0  0  0
  6 93  1  0  0  0
  7  8  2  0  0  0
  7 26  1  0  0  0
  7 29  1  0  0  0
  8  9  1  0  0  0
  8 22  1  0  0  0
  9 10  1  0  0  0
  9 27  2  0  0  0
 10 11  2  0  0  0
 10 15  1  0  0  0
 11 12  1  0  0  0
 11 94  1  0  0  0
 12 13  2  0  0  0
 12 95  1  0  0  0
 13 14  1  0  0  0
 13 31  1  0  0  0
 14 15  2  0  0  0
 14 96  1  0  0  0
 15 97  1  0  0  0
 16 17  2  0  0  0
 16 21  1  0  0  0
 16 31  1  0  0  0
 17 18  1  0  0  0
 17 98  1  0  0  0
 18 19  2  0  0  0
 18 99  1  0  0  0
 19 20  1  0  0  0
 19 24  1  0  0  0
 20 21  2  0  0  0
 20100  1  0  0  0
 21 23  1  0  0  0
 22 28  1  0  0  0
 22 32  2  0  0  0
 26 27  1  0  0  0
 28101  1  0  0  0
 28102  1  0  0  0
 29103  1  0  0  0
 29104  1  0  0  0
 33 34  1  0  0  0
 33 66  1  0  0  0
 33 70  2  0  0  0
 34 36  1  0  0  0
 34 59  1  0  0  0
 34105  1  0  0  0
 35 44  2  0  0  0
 35 45  1  0  0  0
 35 68  1  0  0  0
 36 56  1  0  0  0
 36106  1  0  0  0
 37 39  1  0  0  0
 37 47  1  0  0  0
 37 66  1  0  0  0
 37107  1  0  0  0
 38 43  2  0  0  0
 38 46  1  0  0  0
 38 47  1  0  0  0
 39 64  1  0  0  0
 39 67  2  0  0  0
 40 52  1  0  0  0
 40 53  2  0  0  0
 40 58  1  0  0  0
 41108  1  0  0  0
 41109  1  0  0  0
 41110  1  0  0  0
 41 48  1  0  0  0
 42 43  1  0  0  0
 42 66  1  0  0  0
 42111  1  0  0  0
 42112  1  0  0  0
 43 44  1  0  0  0
 44113  1  0  0  0
 45 46  2  0  0  0
 45114  1  0  0  0
 46115  1  0  0  0
 47116  1  0  0  0
 47117  1  0  0  0
 48 56  1  0  0  0
 48 65  1  0  0  0
 48118  1  0  0  0
 49 50  1  0  0  0
 49 53  1  0  0  0
 49 64  1  0  0  0
 49119  1  0  0  0
 50 51  1  0  0  0
 50120  1  0  0  0
 50121  1  0  0  0
 51 52  1  0  0  0
 51122  1  0  0  0
 51123  1  0  0  0
 52124  1  0  0  0
 52125  1  0  0  0
 53 54  1  0  0  0
 54 55  2  0  0  0
 54126  1  0  0  0
 55 57  1  0  0  0
 55127  1  0  0  0
 56 69  2  0  0  0
 57 58  2  0  0  0
 57128  1  0  0  0
 58129  1  0  0  0
 59 60  1  0  0  0
 59 61  1  0  0  0
 59 62  1  0  0  0
 60130  1  0  0  0
 60131  1  0  0  0
 60132  1  0  0  0
 61133  1  0  0  0
 61134  1  0  0  0
 61135  1  0  0  0
 62136  1  0  0  0
 62137  1  0  0  0
 62138  1  0  0  0
 63 65  1  0  0  0
 63139  1  0  0  0
 63140  1  0  0  0
 63141  1  0  0  0
 64142  1  0  0  0
 65143  1  0  0  0
 68 82  1  0  0  0
 71 73  2  0  0  0
 71 75  1  0  0  0
 71144  1  0  0  0
 72 74  1  0  0  0
 72 75  2  0  0  0
 72145  1  0  0  0
 73 76  1  0  0  0
 73146  1  0  0  0
 74 76  2  0  0  0
 74147  1  0  0  0
 75 83  1  0  0  0
 76 84  1  0  0  0
 77 78  2  0  0  0
 77148  1  0  0  0
 77149  1  0  0  0
 78 79  1  0  0  0
 78150  1  0  0  0
 79 83  1  0  0  0
 79151  1  0  0  0
 79152  1  0  0  0
 80 81  1  0  0  0
 80 82  1  0  0  0
 80153  1  0  0  0
 80154  1  0  0  0
 81 84  1  0  0  0
 81155  1  0  0  0
 81156  1  0  0  0
 82157  1  0  0  0
 82158  1  0  0  0
M  ISO  4   1 100  68 101  82 101  83 100
M  END
> <chiral flag>
0

> <version>
0

> <s_m_source_file>
/data/baiqing/PycharmProjects/Reinvent-master-3.2/result/LINK_invent/BTK/process_docking_weight1_custom_product_contain_oxygen_bond_distance_aromatic_linkinvent_7_9_3/rearranged_h_0013.sdf

> <i_m_source_file_index>
61

> <r_mmod_Potential_Energy-OPLS-2005>
256.288696289062

> <r_mmod_Stretch_Energy-OPLS-2005>
100.052391052246

> <r_mmod_Bend_Energy-OPLS-2005>
157.574676513672

> <r_mmod_Torsional_Energy-OPLS-2005>
291.149444580078

> <r_mmod_Improper_Torsional_Energy-OPLS-2005>
2.85487842559814

> <r_mmod_Van_der_Waal_Energy-OPLS-2005>
143.98193359375

> <r_mmod_Electrostatic_Energy-OPLS-2005>
-297.994903564453

> <r_mmod_Solvation_Energy-OPLS-2005>
-192.997482299805

> <b_mmod_Minimization_Converged-OPLS-2005>
0

> <r_mmod_RMS_Derivative-OPLS-2005>
3.34474968910217

$$$$
62
                    3D
 Structure written by MMmdl.
161169  0  0  1  0            999 V2000
  -30.7162  -14.5920   20.5923 C   0  0  0  0  0  0
  -30.4130  -12.3935   19.4725 C   0  0  0  0  0  0
  -29.4994  -12.5418   18.2404 C   0  0  0  0  0  0
  -28.0274  -12.3607   18.6464 C   0  0  0  0  0  0
  -27.6493  -13.2254   19.8758 C   0  0  2  0  0  0
  -28.6855  -13.1189   21.0199 C   0  0  0  0  0  0
  -25.2506  -13.8177   20.5681 C   0  0  0  0  0  0
  -24.1817  -13.0431   20.9254 C   0  0  0  0  0  0
  -24.6399  -11.6926   20.8833 C   0  0  0  0  0  0
  -23.9081  -10.4294   21.0476 C   0  0  0  0  0  0
  -24.3641   -9.4202   21.9245 C   0  0  0  0  0  0
  -23.6312   -8.2235   22.0780 C   0  0  0  0  0  0
  -22.4308   -8.0276   21.3547 C   0  0  0  0  0  0
  -21.9962   -9.0250   20.4640 C   0  0  0  0  0  0
  -22.7285  -10.2126   20.3079 C   0  0  0  0  0  0
  -21.6847   -6.0748   22.5287 C   0  0  0  0  0  0
  -21.4018   -6.5643   23.8212 C   0  0  0  0  0  0
  -21.3658   -5.6808   24.9180 C   0  0  0  0  0  0
  -21.6041   -4.3066   24.7218 C   0  0  0  0  0  0
  -21.8808   -3.8160   23.4326 C   0  0  0  0  0  0
  -21.9193   -4.6988   22.3404 C   0  0  0  0  0  0
  -22.7823  -13.5207   21.1894 C   0  0  0  0  0  0
  -22.1661   -4.2184   21.0983 F   0  0  0  0  0  0
  -21.5646   -3.4544   25.7714 F   0  0  0  0  0  0
  -30.0102  -13.4219   20.4623 N   0  0  0  0  0  0
  -26.2959  -12.9389   20.3394 N   0  0  0  0  0  0
  -25.9327  -11.6532   20.5845 N   0  0  0  0  0  0
  -22.0434  -12.8168   22.0372 N   0  0  0  0  0  0
  -25.4123  -15.1885   20.3940 N   0  0  0  0  0  0
  -31.8208  -14.7073   20.0522 O   0  0  0  0  0  0
  -21.6657   -6.8887   21.4246 O   0  0  0  0  0  0
  -22.3528  -14.5553   20.6777 O   0  0  0  0  0  0
  -24.6191  -31.8594   23.2166 C   0  0  0  0  0  0
  -25.9062  -32.4807   23.8424 C   0  0  1  0  0  0
  -27.2222  -27.3896   20.1180 C   0  0  0  0  0  0
  -25.5911  -33.8613   24.2318 N   0  0  0  0  0  0
  -23.4100  -30.4865   21.5536 C   0  0  2  0  0  0
  -24.8565  -28.9648   20.1045 C   0  0  0  0  0  0
  -22.7488  -29.4577   22.5002 C   0  0  0  0  0  0
  -18.0272  -28.1352   22.8472 C   0  0  0  0  0  0
  -24.1498  -36.7295   23.2647 C   0  0  0  0  0  0
  -25.9455  -30.8183   21.3718 C   0  0  0  0  0  0
  -26.0216  -29.4558   20.7110 C   0  0  0  0  0  0
  -27.2072  -28.6744   20.7110 C   0  0  0  0  0  0
  -26.0420  -26.9400   19.4716 C   0  0  0  0  0  0
  -24.8661  -27.7120   19.4745 C   0  0  0  0  0  0
  -23.6172  -29.8297   20.1629 C   0  0  0  0  0  0
  -25.4108  -36.3074   24.0331 C   0  0  1  0  0  0
  -20.5884  -28.3588   23.1350 C   0  0  2  0  0  0
  -20.6757  -26.9306   22.5439 C   0  0  0  0  0  0
  -19.5757  -26.6337   21.5223 C   0  0  0  0  0  0
  -18.1914  -26.7926   22.1562 C   0  0  0  0  0  0
  -19.1523  -28.8785   23.2905 C   0  0  0  0  0  0
  -18.9465  -30.1424   23.8854 C   0  0  0  0  0  0
  -17.6463  -30.6541   24.0574 C   0  0  0  0  0  0
  -25.9023  -34.9469   23.5108 C   0  0  0  0  0  0
  -16.5352  -29.9039   23.6347 C   0  0  0  0  0  0
  -16.7255  -28.6492   23.0299 C   0  0  0  0  0  0
  -26.4454  -31.6647   25.0783 C   0  0  0  0  0  0
  -25.3734  -31.3758   26.1542 C   0  0  0  0  0  0
  -27.0310  -30.3119   24.6151 C   0  0  0  0  0  0
  -27.6053  -32.4386   25.7499 C   0  0  0  0  0  0
  -27.5579  -37.1777   24.8421 C   0  0  0  0  0  0
  -21.4180  -29.2982   22.3782 N   0  0  0  0  0  0
  -26.4259  -37.3790   23.9436 N   0  0  0  0  0  0
  -24.6782  -31.0693   22.1066 N   0  0  0  0  0  0
  -23.4267  -28.8087   23.3007 O   0  0  0  0  0  0
  -28.3414  -26.5682   20.2137 O   0  0  0  0  0  0
  -26.5586  -34.8947   22.4669 O   0  0  0  0  0  0
  -23.5367  -32.1319   23.7558 O   0  0  0  0  0  0
  -29.6131  -19.2402   18.5692 C   0  0  0  0  0  0
  -29.4944  -17.9883   19.2026 C   0  0  0  0  0  0
  -29.6072  -20.4314   19.3198 C   0  0  0  0  0  0
  -29.3705  -19.1223   21.3549 C   0  0  0  0  0  0
  -29.3677  -17.9019   20.6059 C   0  0  0  0  0  0
  -29.4987  -20.4057   20.7263 C   0  0  0  0  0  0
  -29.9289  -21.5658   22.8372 C   0  0  0  0  0  0
  -31.3070  -16.1853   22.3110 C   0  0  0  0  0  0
  -29.1242  -16.5084   21.2520 C   0  0  0  0  0  0
  -29.1945  -24.1976   20.9166 C   0  0  0  0  0  0
  -28.6231  -22.7358   21.0277 C   0  0  0  0  0  0
  -28.0294  -25.1977   20.5946 C   0  0  0  0  0  0
  -29.5513  -21.6500   21.4288 N   0  0  0  0  0  0
  -30.2848  -15.5815   21.4441 N   0  0  0  0  0  0
  -31.4600  -12.4782   19.1721 H   0  0  0  0  0  0
  -30.3189  -11.3946   19.9046 H   0  0  0  0  0  0
  -29.7712  -11.8141   17.4768 H   0  0  0  0  0  0
  -29.6399  -13.5265   17.7909 H   0  0  0  0  0  0
  -27.8679  -11.3082   18.8658 H   0  0  0  0  0  0
  -27.3724  -12.5982   17.8077 H   0  0  0  0  0  0
  -27.6542  -14.2540   19.5191 H   0  0  0  0  0  0
  -28.6815  -12.1236   21.4670 H   0  0  0  0  0  0
  -28.4203  -13.8033   21.8273 H   0  0  0  0  0  0
  -25.2763   -9.5679   22.4872 H   0  0  0  0  0  0
  -24.0018   -7.4606   22.7474 H   0  0  0  0  0  0
  -21.0908   -8.8738   19.8901 H   0  0  0  0  0  0
  -22.3751  -10.9691   19.6187 H   0  0  0  0  0  0
  -21.2002   -7.6138   23.9732 H   0  0  0  0  0  0
  -21.1520   -6.0538   25.9091 H   0  0  0  0  0  0
  -22.0605   -2.7636   23.2824 H   0  0  0  0  0  0
  -22.4021  -11.9767   22.4694 H   0  0  0  0  0  0
  -21.1019  -13.1176   22.2529 H   0  0  0  0  0  0
  -24.6164  -15.8146   20.4301 H   0  0  0  0  0  0
  -26.2158  -15.6074   19.9441 H   0  0  0  0  0  0
  -26.7147  -32.5481   23.1189 H   0  0  0  0  0  0
  -25.0184  -33.9818   25.0532 H   0  0  0  0  0  0
  -22.7001  -31.3046   21.4199 H   0  0  0  0  0  0
  -23.3827  -35.9557   23.3159 H   0  0  0  0  0  0
  -24.3609  -36.9031   22.2098 H   0  0  0  0  0  0
  -23.7183  -37.6430   23.6739 H   0  0  0  0  0  0
  -26.0661  -31.5873   20.6080 H   0  0  0  0  0  0
  -26.8368  -30.8606   21.9866 H   0  0  0  0  0  0
  -28.0999  -29.0347   21.2025 H   0  0  0  0  0  0
  -25.9978  -25.9901   18.9606 H   0  0  0  0  0  0
  -23.9724  -27.3379   18.9937 H   0  0  0  0  0  0
  -23.7202  -30.6123   19.4108 H   0  0  0  0  0  0
  -22.7410  -29.2496   19.8627 H   0  0  0  0  0  0
  -25.1289  -36.1895   25.0824 H   0  0  0  0  0  0
  -20.9925  -28.3096   24.1497 H   0  0  0  0  0  0
  -20.5648  -26.2159   23.3607 H   0  0  0  0  0  0
  -21.6617  -26.7319   22.1220 H   0  0  0  0  0  0
  -19.6925  -25.6271   21.1195 H   0  0  0  0  0  0
  -19.6789  -27.3210   20.6840 H   0  0  0  0  0  0
  -17.4221  -26.6744   21.3914 H   0  0  0  0  0  0
  -18.0201  -26.0045   22.8895 H   0  0  0  0  0  0
  -19.7957  -30.7253   24.2186 H   0  0  0  0  0  0
  -17.5010  -31.6235   24.5165 H   0  0  0  0  0  0
  -15.5344  -30.2919   23.7750 H   0  0  0  0  0  0
  -15.8641  -28.0850   22.6972 H   0  0  0  0  0  0
  -24.5965  -30.6990   25.7917 H   0  0  0  0  0  0
  -24.8877  -32.2921   26.4931 H   0  0  0  0  0  0
  -25.8114  -30.9019   27.0342 H   0  0  0  0  0  0
  -26.2832  -29.6884   24.1229 H   0  0  0  0  0  0
  -27.4154  -29.7334   25.4572 H   0  0  0  0  0  0
  -27.8624  -30.4505   23.9240 H   0  0  0  0  0  0
  -27.2720  -33.3812   26.1854 H   0  0  0  0  0  0
  -28.3938  -32.6703   25.0323 H   0  0  0  0  0  0
  -28.0587  -31.8631   26.5566 H   0  0  0  0  0  0
  -28.2493  -38.0185   24.7557 H   0  0  0  0  0  0
  -28.1166  -36.2709   24.6046 H   0  0  0  0  0  0
  -27.2317  -37.1153   25.8826 H   0  0  0  0  0  0
  -20.9322  -29.8734   21.7039 H   0  0  0  0  0  0
  -26.0114  -38.2819   24.1581 H   0  0  0  0  0  0
  -29.7028  -19.2950   17.4923 H   0  0  0  0  0  0
  -29.4803  -17.0879   18.6043 H   0  0  0  0  0  0
  -29.7153  -21.3748   18.8038 H   0  0  0  0  0  0
  -29.2421  -19.0572   22.4274 H   0  0  0  0  0  0
  -30.8327  -20.9663   22.9609 H   0  0  0  0  0  0
  -29.1212  -21.1083   23.4171 H   0  0  0  0  0  0
  -30.1305  -22.5512   23.2621 H   0  0  0  0  0  0
  -30.8730  -16.7949   23.1057 H   0  0  0  0  0  0
  -31.9890  -16.8081   21.7269 H   0  0  0  0  0  0
  -31.8991  -15.4097   22.7987 H   0  0  0  0  0  0
  -28.3439  -16.0129   20.6805 H   0  0  0  0  0  0
  -28.6679  -16.6863   22.2265 H   0  0  0  0  0  0
  -29.9508  -24.2377   20.1309 H   0  0  0  0  0  0
  -29.6978  -24.4977   21.8413 H   0  0  0  0  0  0
  -28.1336  -22.4870   20.0848 H   0  0  0  0  0  0
  -27.8184  -22.7470   21.7675 H   0  0  0  0  0  0
  -27.3733  -25.2306   21.4719 H   0  0  0  0  0  0
  -27.4515  -24.7366   19.7956 H   0  0  0  0  0  0
  1 25  1  0  0  0
  1 30  2  0  0  0
  1 84  1  0  0  0
  2  3  1  0  0  0
  2 25  1  0  0  0
  2 85  1  0  0  0
  2 86  1  0  0  0
  3  4  1  0  0  0
  3 87  1  0  0  0
  3 88  1  0  0  0
  4  5  1  0  0  0
  4 89  1  0  0  0
  4 90  1  0  0  0
  5  6  1  0  0  0
  5 26  1  0  0  0
  5 91  1  0  0  0
  6 25  1  0  0  0
  6 92  1  0  0  0
  6 93  1  0  0  0
  7  8  2  0  0  0
  7 26  1  0  0  0
  7 29  1  0  0  0
  8  9  1  0  0  0
  8 22  1  0  0  0
  9 10  1  0  0  0
  9 27  2  0  0  0
 10 11  2  0  0  0
 10 15  1  0  0  0
 11 12  1  0  0  0
 11 94  1  0  0  0
 12 13  2  0  0  0
 12 95  1  0  0  0
 13 14  1  0  0  0
 13 31  1  0  0  0
 14 15  2  0  0  0
 14 96  1  0  0  0
 15 97  1  0  0  0
 16 17  2  0  0  0
 16 21  1  0  0  0
 16 31  1  0  0  0
 17 18  1  0  0  0
 17 98  1  0  0  0
 18 19  2  0  0  0
 18 99  1  0  0  0
 19 20  1  0  0  0
 19 24  1  0  0  0
 20 21  2  0  0  0
 20100  1  0  0  0
 21 23  1  0  0  0
 22 28  1  0  0  0
 22 32  2  0  0  0
 26 27  1  0  0  0
 28101  1  0  0  0
 28102  1  0  0  0
 29103  1  0  0  0
 29104  1  0  0  0
 33 34  1  0  0  0
 33 66  1  0  0  0
 33 70  2  0  0  0
 34 36  1  0  0  0
 34 59  1  0  0  0
 34105  1  0  0  0
 35 44  2  0  0  0
 35 45  1  0  0  0
 35 68  1  0  0  0
 36 56  1  0  0  0
 36106  1  0  0  0
 37 39  1  0  0  0
 37 47  1  0  0  0
 37 66  1  0  0  0
 37107  1  0  0  0
 38 43  2  0  0  0
 38 46  1  0  0  0
 38 47  1  0  0  0
 39 64  1  0  0  0
 39 67  2  0  0  0
 40 52  1  0  0  0
 40 53  2  0  0  0
 40 58  1  0  0  0
 41108  1  0  0  0
 41109  1  0  0  0
 41110  1  0  0  0
 41 48  1  0  0  0
 42 43  1  0  0  0
 42 66  1  0  0  0
 42111  1  0  0  0
 42112  1  0  0  0
 43 44  1  0  0  0
 44113  1  0  0  0
 45 46  2  0  0  0
 45114  1  0  0  0
 46115  1  0  0  0
 47116  1  0  0  0
 47117  1  0  0  0
 48 56  1  0  0  0
 48 65  1  0  0  0
 48118  1  0  0  0
 49 50  1  0  0  0
 49 53  1  0  0  0
 49 64  1  0  0  0
 49119  1  0  0  0
 50 51  1  0  0  0
 50120  1  0  0  0
 50121  1  0  0  0
 51 52  1  0  0  0
 51122  1  0  0  0
 51123  1  0  0  0
 52124  1  0  0  0
 52125  1  0  0  0
 53 54  1  0  0  0
 54 55  2  0  0  0
 54126  1  0  0  0
 55 57  1  0  0  0
 55127  1  0  0  0
 56 69  2  0  0  0
 57 58  2  0  0  0
 57128  1  0  0  0
 58129  1  0  0  0
 59 60  1  0  0  0
 59 61  1  0  0  0
 59 62  1  0  0  0
 60130  1  0  0  0
 60131  1  0  0  0
 60132  1  0  0  0
 61133  1  0  0  0
 61134  1  0  0  0
 61135  1  0  0  0
 62136  1  0  0  0
 62137  1  0  0  0
 62138  1  0  0  0
 63 65  1  0  0  0
 63139  1  0  0  0
 63140  1  0  0  0
 63141  1  0  0  0
 64142  1  0  0  0
 65143  1  0  0  0
 68 82  1  0  0  0
 71 72  2  0  0  0
 71 73  1  0  0  0
 71144  1  0  0  0
 72 75  1  0  0  0
 72145  1  0  0  0
 73 76  2  0  0  0
 73146  1  0  0  0
 74 75  2  0  0  0
 74 76  1  0  0  0
 74147  1  0  0  0
 75 79  1  0  0  0
 76 83  1  0  0  0
 77 83  1  0  0  0
 77148  1  0  0  0
 77149  1  0  0  0
 77150  1  0  0  0
 78 84  1  0  0  0
 78151  1  0  0  0
 78152  1  0  0  0
 78153  1  0  0  0
 79 84  1  0  0  0
 79154  1  0  0  0
 79155  1  0  0  0
 80 81  1  0  0  0
 80 82  1  0  0  0
 80156  1  0  0  0
 80157  1  0  0  0
 81 83  1  0  0  0
 81158  1  0  0  0
 81159  1  0  0  0
 82160  1  0  0  0
 82161  1  0  0  0
M  ISO  4   1 100  68 101  82 101  84 100
M  END
> <chiral flag>
0

> <version>
0

> <s_m_source_file>
/data/baiqing/PycharmProjects/Reinvent-master-3.2/result/LINK_invent/BTK/process_docking_weight1_custom_product_contain_oxygen_bond_distance_aromatic_linkinvent_7_9_3/rearranged_h_0013.sdf

> <i_m_source_file_index>
62

> <r_mmod_Potential_Energy-OPLS-2005>
140.780197143555

> <r_mmod_Stretch_Energy-OPLS-2005>
61.1357650756836

> <r_mmod_Bend_Energy-OPLS-2005>
129.225311279297

> <r_mmod_Torsional_Energy-OPLS-2005>
275.966644287109

> <r_mmod_Improper_Torsional_Energy-OPLS-2005>
8.5914306640625

> <r_mmod_Van_der_Waal_Energy-OPLS-2005>
151.956314086914

> <r_mmod_Electrostatic_Energy-OPLS-2005>
-305.037139892578

> <r_mmod_Solvation_Energy-OPLS-2005>
-215.415878295898

> <b_mmod_Minimization_Converged-OPLS-2005>
0

> <r_mmod_RMS_Derivative-OPLS-2005>
6.33213806152344

$$$$
63
                    3D
 Structure written by MMmdl.
159167  0  0  1  0            999 V2000
  -30.6556  -14.4952   20.5859 C   0  0  0  0  0  0
  -30.4366  -12.3229   19.4144 C   0  0  0  0  0  0
  -29.5007  -12.5079   18.1990 C   0  0  0  0  0  0
  -28.0224  -12.3498   18.6109 C   0  0  0  0  0  0
  -27.6627  -13.1910   19.8669 C   0  0  2  0  0  0
  -28.7023  -12.9538   20.9856 C   0  0  0  0  0  0
  -25.2604  -13.8125   20.5634 C   0  0  0  0  0  0
  -24.1847  -13.0399   20.9144 C   0  0  0  0  0  0
  -24.6385  -11.6879   20.8688 C   0  0  0  0  0  0
  -23.9048  -10.4271   21.0387 C   0  0  0  0  0  0
  -24.3613   -9.4193   21.9165 C   0  0  0  0  0  0
  -23.6283   -8.2241   22.0746 C   0  0  0  0  0  0
  -22.4263   -8.0275   21.3541 C   0  0  0  0  0  0
  -21.9900   -9.0245   20.4644 C   0  0  0  0  0  0
  -22.7222  -10.2118   20.3037 C   0  0  0  0  0  0
  -21.6843   -6.0732   22.5279 C   0  0  0  0  0  0
  -21.4006   -6.5635   23.8208 C   0  0  0  0  0  0
  -21.3669   -5.6779   24.9174 C   0  0  0  0  0  0
  -21.6048   -4.3047   24.7207 C   0  0  0  0  0  0
  -21.8823   -3.8143   23.4331 C   0  0  0  0  0  0
  -21.9196   -4.6969   22.3388 C   0  0  0  0  0  0
  -22.7883  -13.5238   21.1810 C   0  0  0  0  0  0
  -22.1658   -4.2163   21.0962 F   0  0  0  0  0  0
  -21.5640   -3.4519   25.7721 F   0  0  0  0  0  0
  -30.0336  -13.2893   20.4513 N   0  0  0  0  0  0
  -26.3016  -12.9260   20.3299 N   0  0  0  0  0  0
  -25.9297  -11.6419   20.5673 N   0  0  0  0  0  0
  -22.0527  -12.8233   22.0391 N   0  0  0  0  0  0
  -25.4247  -15.1840   20.4100 N   0  0  0  0  0  0
  -31.7493  -14.7482   20.0695 O   0  0  0  0  0  0
  -21.6617   -6.8882   21.4243 O   0  0  0  0  0  0
  -22.3577  -14.5545   20.6676 O   0  0  0  0  0  0
  -24.6203  -31.8661   23.2001 C   0  0  0  0  0  0
  -25.9054  -32.4805   23.8334 C   0  0  1  0  0  0
  -27.2315  -27.4237   20.0916 C   0  0  0  0  0  0
  -25.5877  -33.8590   24.2273 N   0  0  0  0  0  0
  -23.4033  -30.4937   21.5438 C   0  0  2  0  0  0
  -24.8501  -28.9454   20.1151 C   0  0  0  0  0  0
  -22.7401  -29.4767   22.5022 C   0  0  0  0  0  0
  -18.0302  -28.1430   22.8506 C   0  0  0  0  0  0
  -24.1499  -36.7327   23.2648 C   0  0  0  0  0  0
  -25.9311  -30.8287   21.3458 C   0  0  0  0  0  0
  -26.0121  -29.4585   20.7060 C   0  0  0  0  0  0
  -27.2097  -28.7032   20.6978 C   0  0  0  0  0  0
  -26.0578  -26.9271   19.4889 C   0  0  0  0  0  0
  -24.8682  -27.6778   19.5079 C   0  0  0  0  0  0
  -23.6050  -29.8047   20.1681 C   0  0  0  0  0  0
  -25.4114  -36.3127   24.0358 C   0  0  1  0  0  0
  -20.5884  -28.3746   23.1277 C   0  0  2  0  0  0
  -20.6891  -26.9524   22.5244 C   0  0  0  0  0  0
  -19.5746  -26.6403   21.5182 C   0  0  0  0  0  0
  -18.1933  -26.7975   22.1616 C   0  0  0  0  0  0
  -19.1553  -28.8898   23.2909 C   0  0  0  0  0  0
  -18.9518  -30.1507   23.8938 C   0  0  0  0  0  0
  -17.6534  -30.6680   24.0532 C   0  0  0  0  0  0
  -25.9030  -34.9481   23.5120 C   0  0  0  0  0  0
  -16.5420  -29.9179   23.6315 C   0  0  0  0  0  0
  -16.7312  -28.6560   23.0394 C   0  0  0  0  0  0
  -26.4420  -31.6598   25.0688 C   0  0  0  0  0  0
  -25.3637  -31.3720   26.1411 C   0  0  0  0  0  0
  -27.0252  -30.3077   24.5996 C   0  0  0  0  0  0
  -27.6024  -32.4298   25.7428 C   0  0  0  0  0  0
  -27.5587  -37.1820   24.8475 C   0  0  0  0  0  0
  -21.4126  -29.3226   22.3802 N   0  0  0  0  0  0
  -26.4309  -37.3812   23.9411 N   0  0  0  0  0  0
  -24.6723  -31.0756   22.0897 N   0  0  0  0  0  0
  -23.4163  -28.8288   23.3070 O   0  0  0  0  0  0
  -28.3468  -26.6171   20.1247 O   0  0  0  0  0  0
  -26.5627  -34.8940   22.4695 O   0  0  0  0  0  0
  -23.5403  -32.1461   23.7366 O   0  0  0  0  0  0
  -28.4721  -18.4510   19.6556 C   0  0  0  0  0  0
  -28.8768  -17.1147   19.8740 C   0  0  0  0  0  0
  -30.2377  -17.8344   21.7499 C   0  0  0  0  0  0
  -28.9330  -19.4976   20.4884 C   0  0  0  0  0  0
  -29.7424  -16.7838   20.9412 C   0  0  0  0  0  0
  -29.8564  -19.1768   21.5112 C   0  0  0  0  0  0
  -27.1897  -20.9682   22.4519 C   0  0  0  0  0  0
  -28.4219  -20.9395   20.2771 C   0  0  0  0  0  0
  -28.5444  -24.1286   20.6593 C   0  0  0  0  0  0
  -27.5893  -23.0961   21.3304 C   0  0  0  0  0  0
  -28.2311  -25.5820   21.1215 C   0  0  0  0  0  0
  -29.9595  -15.4130   21.2894 N   0  0  0  0  0  0
  -28.0971  -21.6982   21.5254 N   0  3  1  0  0  0
  -30.3304  -20.1649   22.3076 F   0  0  0  0  0  0
  -31.4786  -12.4532   19.1138 H   0  0  0  0  0  0
  -30.3631  -11.3037   19.8002 H   0  0  0  0  0  0
  -29.7510  -11.7828   17.4230 H   0  0  0  0  0  0
  -29.6553  -13.4930   17.7576 H   0  0  0  0  0  0
  -27.8524  -11.2908   18.8109 H   0  0  0  0  0  0
  -27.3679  -12.6091   17.7774 H   0  0  0  0  0  0
  -27.7049  -14.2376   19.5685 H   0  0  0  0  0  0
  -28.6905  -11.9059   21.2872 H   0  0  0  0  0  0
  -28.4439  -13.5101   21.8862 H   0  0  0  0  0  0
  -25.2777   -9.5659   22.4712 H   0  0  0  0  0  0
  -24.0000   -7.4629   22.7463 H   0  0  0  0  0  0
  -21.0835   -8.8751   19.8948 H   0  0  0  0  0  0
  -22.3694  -10.9649   19.6125 H   0  0  0  0  0  0
  -21.1968   -7.6134   23.9716 H   0  0  0  0  0  0
  -21.1500   -6.0499   25.9078 H   0  0  0  0  0  0
  -22.0597   -2.7611   23.2802 H   0  0  0  0  0  0
  -22.4135  -11.9912   22.4810 H   0  0  0  0  0  0
  -21.1124  -13.1260   22.2559 H   0  0  0  0  0  0
  -24.6422  -15.8159   20.5301 H   0  0  0  0  0  0
  -26.2721  -15.6576   20.1307 H   0  0  0  0  0  0
  -26.7125  -32.5566   23.1111 H   0  0  0  0  0  0
  -24.9980  -33.9719   25.0384 H   0  0  0  0  0  0
  -22.6977  -31.3129   21.3946 H   0  0  0  0  0  0
  -23.3748  -35.9673   23.3327 H   0  0  0  0  0  0
  -24.3609  -36.8910   22.2062 H   0  0  0  0  0  0
  -23.7227  -37.6537   23.6622 H   0  0  0  0  0  0
  -26.0198  -31.5718   20.5544 H   0  0  0  0  0  0
  -26.8262  -30.9052   21.9485 H   0  0  0  0  0  0
  -28.1007  -29.0897   21.1736 H   0  0  0  0  0  0
  -26.0628  -25.9485   19.0281 H   0  0  0  0  0  0
  -23.9753  -27.2683   19.0580 H   0  0  0  0  0  0
  -23.6952  -30.5603   19.3892 H   0  0  0  0  0  0
  -22.7287  -29.2128   19.8959 H   0  0  0  0  0  0
  -25.1271  -36.2016   25.0858 H   0  0  0  0  0  0
  -20.9955  -28.3229   24.1389 H   0  0  0  0  0  0
  -20.6035  -26.2302   23.3349 H   0  0  0  0  0  0
  -21.6752  -26.7738   22.0930 H   0  0  0  0  0  0
  -19.6857  -25.6300   21.1280 H   0  0  0  0  0  0
  -19.6579  -27.3091   20.6632 H   0  0  0  0  0  0
  -17.4295  -26.6837   21.3908 H   0  0  0  0  0  0
  -18.0164  -26.0041   22.8888 H   0  0  0  0  0  0
  -19.8023  -30.7304   24.2324 H   0  0  0  0  0  0
  -17.5170  -31.6380   24.5118 H   0  0  0  0  0  0
  -15.5418  -30.3050   23.7635 H   0  0  0  0  0  0
  -15.8694  -28.0879   22.7166 H   0  0  0  0  0  0
  -24.5814  -30.7067   25.7698 H   0  0  0  0  0  0
  -24.8822  -32.2906   26.4819 H   0  0  0  0  0  0
  -25.7955  -30.8900   27.0194 H   0  0  0  0  0  0
  -26.2795  -29.6868   24.1018 H   0  0  0  0  0  0
  -27.4060  -29.7267   25.4395 H   0  0  0  0  0  0
  -27.8585  -30.4468   23.9096 H   0  0  0  0  0  0
  -27.2654  -33.3584   26.2037 H   0  0  0  0  0  0
  -28.3778  -32.6871   25.0192 H   0  0  0  0  0  0
  -28.0725  -31.8398   26.5309 H   0  0  0  0  0  0
  -28.2636  -38.0096   24.7504 H   0  0  0  0  0  0
  -28.1057  -36.2625   24.6313 H   0  0  0  0  0  0
  -27.2313  -37.1467   25.8887 H   0  0  0  0  0  0
  -20.9282  -29.9173   21.7237 H   0  0  0  0  0  0
  -26.0216  -38.2914   24.1351 H   0  0  0  0  0  0
  -27.7820  -18.6598   18.8483 H   0  0  0  0  0  0
  -28.4784  -16.3442   19.2313 H   0  0  0  0  0  0
  -30.8876  -17.6240   22.5850 H   0  0  0  0  0  0
  -27.5668  -19.9896   22.7433 H   0  0  0  0  0  0
  -26.1974  -20.8283   22.0240 H   0  0  0  0  0  0
  -27.0657  -21.5269   23.3796 H   0  0  0  0  0  0
  -27.5296  -20.9081   19.6514 H   0  0  0  0  0  0
  -29.1721  -21.4824   19.7040 H   0  0  0  0  0  0
  -28.4596  -24.0525   19.5736 H   0  0  0  0  0  0
  -29.5801  -23.8951   20.9166 H   0  0  0  0  0  0
  -26.6411  -23.0789   20.7894 H   0  0  0  0  0  0
  -27.3530  -23.4756   22.3280 H   0  0  0  0  0  0
  -27.2374  -25.6002   21.5785 H   0  0  0  0  0  0
  -28.9112  -25.8437   21.9331 H   0  0  0  0  0  0
  -29.1884  -14.9899   21.7828 H   0  0  0  0  0  0
  -28.9789  -21.7551   22.0149 H   0  0  0  0  0  0
  1 25  1  0  0  0
  1 30  2  0  0  0
  1 82  1  0  0  0
  2  3  1  0  0  0
  2 25  1  0  0  0
  2 85  1  0  0  0
  2 86  1  0  0  0
  3  4  1  0  0  0
  3 87  1  0  0  0
  3 88  1  0  0  0
  4  5  1  0  0  0
  4 89  1  0  0  0
  4 90  1  0  0  0
  5  6  1  0  0  0
  5 26  1  0  0  0
  5 91  1  0  0  0
  6 25  1  0  0  0
  6 92  1  0  0  0
  6 93  1  0  0  0
  7  8  2  0  0  0
  7 26  1  0  0  0
  7 29  1  0  0  0
  8  9  1  0  0  0
  8 22  1  0  0  0
  9 10  1  0  0  0
  9 27  2  0  0  0
 10 11  2  0  0  0
 10 15  1  0  0  0
 11 12  1  0  0  0
 11 94  1  0  0  0
 12 13  2  0  0  0
 12 95  1  0  0  0
 13 14  1  0  0  0
 13 31  1  0  0  0
 14 15  2  0  0  0
 14 96  1  0  0  0
 15 97  1  0  0  0
 16 17  2  0  0  0
 16 21  1  0  0  0
 16 31  1  0  0  0
 17 18  1  0  0  0
 17 98  1  0  0  0
 18 19  2  0  0  0
 18 99  1  0  0  0
 19 20  1  0  0  0
 19 24  1  0  0  0
 20 21  2  0  0  0
 20100  1  0  0  0
 21 23  1  0  0  0
 22 28  1  0  0  0
 22 32  2  0  0  0
 26 27  1  0  0  0
 28101  1  0  0  0
 28102  1  0  0  0
 29103  1  0  0  0
 29104  1  0  0  0
 33 34  1  0  0  0
 33 66  1  0  0  0
 33 70  2  0  0  0
 34 36  1  0  0  0
 34 59  1  0  0  0
 34105  1  0  0  0
 35 44  2  0  0  0
 35 45  1  0  0  0
 35 68  1  0  0  0
 36 56  1  0  0  0
 36106  1  0  0  0
 37 39  1  0  0  0
 37 47  1  0  0  0
 37 66  1  0  0  0
 37107  1  0  0  0
 38 43  2  0  0  0
 38 46  1  0  0  0
 38 47  1  0  0  0
 39 64  1  0  0  0
 39 67  2  0  0  0
 40 52  1  0  0  0
 40 53  2  0  0  0
 40 58  1  0  0  0
 41108  1  0  0  0
 41109  1  0  0  0
 41110  1  0  0  0
 41 48  1  0  0  0
 42 43  1  0  0  0
 42 66  1  0  0  0
 42111  1  0  0  0
 42112  1  0  0  0
 43 44  1  0  0  0
 44113  1  0  0  0
 45 46  2  0  0  0
 45114  1  0  0  0
 46115  1  0  0  0
 47116  1  0  0  0
 47117  1  0  0  0
 48 56  1  0  0  0
 48 65  1  0  0  0
 48118  1  0  0  0
 49 50  1  0  0  0
 49 53  1  0  0  0
 49 64  1  0  0  0
 49119  1  0  0  0
 50 51  1  0  0  0
 50120  1  0  0  0
 50121  1  0  0  0
 51 52  1  0  0  0
 51122  1  0  0  0
 51123  1  0  0  0
 52124  1  0  0  0
 52125  1  0  0  0
 53 54  1  0  0  0
 54 55  2  0  0  0
 54126  1  0  0  0
 55 57  1  0  0  0
 55127  1  0  0  0
 56 69  2  0  0  0
 57 58  2  0  0  0
 57128  1  0  0  0
 58129  1  0  0  0
 59 60  1  0  0  0
 59 61  1  0  0  0
 59 62  1  0  0  0
 60130  1  0  0  0
 60131  1  0  0  0
 60132  1  0  0  0
 61133  1  0  0  0
 61134  1  0  0  0
 61135  1  0  0  0
 62136  1  0  0  0
 62137  1  0  0  0
 62138  1  0  0  0
 63 65  1  0  0  0
 63139  1  0  0  0
 63140  1  0  0  0
 63141  1  0  0  0
 64142  1  0  0  0
 65143  1  0  0  0
 68 81  1  0  0  0
 71 72  2  0  0  0
 71 74  1  0  0  0
 71144  1  0  0  0
 72 75  1  0  0  0
 72145  1  0  0  0
 73 75  2  0  0  0
 73 76  1  0  0  0
 73146  1  0  0  0
 74 76  2  0  0  0
 74 78  1  0  0  0
 75 82  1  0  0  0
 76 84  1  0  0  0
 77147  1  0  0  0
 77148  1  0  0  0
 77149  1  0  0  0
 77 83  1  0  0  0
 78 83  1  0  0  0
 78150  1  0  0  0
 78151  1  0  0  0
 79 80  1  0  0  0
 79 81  1  0  0  0
 79152  1  0  0  0
 79153  1  0  0  0
 80 83  1  0  0  0
 80154  1  0  0  0
 80155  1  0  0  0
 81156  1  0  0  0
 81157  1  0  0  0
 82158  1  0  0  0
 83159  1  0  0  0
M  CHG  1  83   1
M  ISO  4   1 100  68 101  81 101  82 100
M  END
> <chiral flag>
0

> <version>
0

> <s_m_source_file>
/data/baiqing/PycharmProjects/Reinvent-master-3.2/result/LINK_invent/BTK/process_docking_weight1_custom_product_contain_oxygen_bond_distance_aromatic_linkinvent_7_9_3/rearranged_h_0013.sdf

> <i_m_source_file_index>
63

> <r_mmod_Potential_Energy-OPLS-2005>
-123.312965393066

> <r_mmod_Stretch_Energy-OPLS-2005>
41.7686157226562

> <r_mmod_Bend_Energy-OPLS-2005>
103.873176574707

> <r_mmod_Torsional_Energy-OPLS-2005>
282.567504882812

> <r_mmod_Improper_Torsional_Energy-OPLS-2005>
5.60172033309937

> <r_mmod_Van_der_Waal_Energy-OPLS-2005>
149.639495849609

> <r_mmod_Electrostatic_Energy-OPLS-2005>
-279.183563232422

> <r_mmod_Solvation_Energy-OPLS-2005>
-444.560119628906

> <b_mmod_Minimization_Converged-OPLS-2005>
0

> <r_mmod_RMS_Derivative-OPLS-2005>
5.4221625328064

$$$$
64
                    3D
 Structure written by MMmdl.
154162  0  0  1  0            999 V2000
  -30.6063  -14.7267   20.3567 C   0  0  0  0  0  0
  -30.4398  -12.4061   19.4749 C   0  0  0  0  0  0
  -29.5114  -12.3780   18.2406 C   0  0  0  0  0  0
  -28.0243  -12.2940   18.6539 C   0  0  0  0  0  0
  -27.6357  -13.2102   19.8498 C   0  0  2  0  0  0
  -28.6939  -13.1773   20.9707 C   0  0  0  0  0  0
  -25.2531  -13.8140   20.5773 C   0  0  0  0  0  0
  -24.1788  -13.0411   20.9249 C   0  0  0  0  0  0
  -24.6352  -11.6883   20.8795 C   0  0  0  0  0  0
  -23.9032  -10.4279   21.0431 C   0  0  0  0  0  0
  -24.3593   -9.4189   21.9189 C   0  0  0  0  0  0
  -23.6274   -8.2223   22.0748 C   0  0  0  0  0  0
  -22.4256   -8.0272   21.3537 C   0  0  0  0  0  0
  -21.9893   -9.0249   20.4637 C   0  0  0  0  0  0
  -22.7218  -10.2130   20.3064 C   0  0  0  0  0  0
  -21.6847   -6.0727   22.5274 C   0  0  0  0  0  0
  -21.4001   -6.5627   23.8207 C   0  0  0  0  0  0
  -21.3664   -5.6780   24.9169 C   0  0  0  0  0  0
  -21.6053   -4.3044   24.7218 C   0  0  0  0  0  0
  -21.8821   -3.8139   23.4339 C   0  0  0  0  0  0
  -21.9187   -4.6956   22.3394 C   0  0  0  0  0  0
  -22.7819  -13.5221   21.1891 C   0  0  0  0  0  0
  -22.1654   -4.2141   21.0974 F   0  0  0  0  0  0
  -21.5644   -3.4527   25.7733 F   0  0  0  0  0  0
  -29.9848  -13.5008   20.3535 N   0  0  0  0  0  0
  -26.2925  -12.9286   20.3384 N   0  0  0  0  0  0
  -25.9279  -11.6457   20.5855 N   0  0  0  0  0  0
  -22.0449  -12.8216   22.0439 N   0  0  0  0  0  0
  -25.4269  -15.1862   20.4218 N   0  0  0  0  0  0
  -31.8352  -14.7939   20.2597 O   0  0  0  0  0  0
  -21.6619   -6.8871   21.4237 O   0  0  0  0  0  0
  -22.3521  -14.5526   20.6733 O   0  0  0  0  0  0
  -24.6255  -31.8590   23.2003 C   0  0  0  0  0  0
  -25.9104  -32.4773   23.8335 C   0  0  1  0  0  0
  -27.2296  -27.3151   20.1209 C   0  0  0  0  0  0
  -25.5925  -33.8573   24.2269 N   0  0  0  0  0  0
  -23.4183  -30.4801   21.5439 C   0  0  2  0  0  0
  -24.8643  -28.9292   20.1112 C   0  0  0  0  0  0
  -22.7468  -29.4614   22.4946 C   0  0  0  0  0  0
  -18.0285  -28.1377   22.8489 C   0  0  0  0  0  0
  -24.1488  -36.7286   23.2640 C   0  0  0  0  0  0
  -25.9576  -30.7896   21.3685 C   0  0  0  0  0  0
  -26.0306  -29.4149   20.7133 C   0  0  0  0  0  0
  -27.2117  -28.6185   20.7074 C   0  0  0  0  0  0
  -26.0352  -26.8710   19.5090 C   0  0  0  0  0  0
  -24.8683  -27.6631   19.5020 C   0  0  0  0  0  0
  -23.6319  -29.8095   20.1598 C   0  0  0  0  0  0
  -25.4115  -36.3079   24.0330 C   0  0  1  0  0  0
  -20.5881  -28.3679   23.1293 C   0  0  2  0  0  0
  -20.6774  -26.9402   22.5416 C   0  0  0  0  0  0
  -19.5754  -26.6380   21.5214 C   0  0  0  0  0  0
  -18.1931  -26.7921   22.1621 C   0  0  0  0  0  0
  -19.1535  -28.8845   23.2886 C   0  0  0  0  0  0
  -18.9457  -30.1449   23.8898 C   0  0  0  0  0  0
  -17.6456  -30.6582   24.0559 C   0  0  0  0  0  0
  -25.9050  -34.9450   23.5100 C   0  0  0  0  0  0
  -16.5349  -29.9078   23.6328 C   0  0  0  0  0  0
  -16.7271  -28.6494   23.0353 C   0  0  0  0  0  0
  -26.4498  -31.6585   25.0703 C   0  0  0  0  0  0
  -25.3744  -31.3718   26.1439 C   0  0  0  0  0  0
  -27.0343  -30.3015   24.6145 C   0  0  0  0  0  0
  -27.6055  -32.4326   25.7475 C   0  0  0  0  0  0
  -27.5579  -37.1801   24.8468 C   0  0  0  0  0  0
  -21.4183  -29.3030   22.3691 N   0  0  0  0  0  0
  -26.4292  -37.3776   23.9409 N   0  0  0  0  0  0
  -24.6861  -31.0599   22.0951 N   0  0  0  0  0  0
  -23.4196  -28.8169   23.3033 O   0  0  0  0  0  0
  -28.3842  -26.5203   20.1893 O   0  0  0  0  0  0
  -26.5618  -34.8919   22.4666 O   0  0  0  0  0  0
  -23.5420  -32.1384   23.7338 O   0  0  0  0  0  0
  -28.7077  -17.5589   21.2588 C   0  0  0  0  0  0
  -28.3906  -18.9352   21.4772 C   0  0  0  0  0  0
  -30.1618  -19.6103   20.0090 C   0  0  0  0  0  0
  -29.7555  -17.1630   20.3886 C   0  0  0  0  0  0
  -29.0730  -20.0032   20.8306 C   0  0  0  0  0  0
  -30.5010  -18.2362   19.8049 C   0  0  0  0  0  0
  -29.6936  -15.7643   18.4006 C   0  0  0  0  0  0
  -28.4170  -23.8918   20.6762 C   0  0  0  0  0  0
  -28.4834  -25.1331   19.6757 C   0  0  0  0  0  0
  -28.9206  -22.4568   20.1665 C   0  0  0  0  0  0
  -29.8464  -15.7858   19.8718 N   0  0  0  0  0  0
  -28.6487  -21.3317   21.0710 O   0  0  0  0  0  0
  -31.5251  -17.9523   18.9639 F   0  0  0  0  0  0
  -31.4779  -12.5345   19.1615 H   0  0  0  0  0  0
  -30.4003  -11.4564   20.0097 H   0  0  0  0  0  0
  -29.7595  -11.5130   17.6239 H   0  0  0  0  0  0
  -29.6931  -13.2328   17.5962 H   0  0  0  0  0  0
  -27.8412  -11.2542   18.9270 H   0  0  0  0  0  0
  -27.3783  -12.4948   17.7988 H   0  0  0  0  0  0
  -27.5978  -14.2250   19.4703 H   0  0  0  0  0  0
  -28.7291  -12.1996   21.4536 H   0  0  0  0  0  0
  -28.4507  -13.9045   21.7475 H   0  0  0  0  0  0
  -25.2740   -9.5661   22.4759 H   0  0  0  0  0  0
  -23.9987   -7.4605   22.7453 H   0  0  0  0  0  0
  -21.0834   -8.8765   19.8933 H   0  0  0  0  0  0
  -22.3681  -10.9666   19.6170 H   0  0  0  0  0  0
  -21.1989   -7.6129   23.9703 H   0  0  0  0  0  0
  -21.1488   -6.0511   25.9070 H   0  0  0  0  0  0
  -22.0603   -2.7604   23.2837 H   0  0  0  0  0  0
  -22.4035  -11.9863   22.4825 H   0  0  0  0  0  0
  -21.1059  -13.1238   22.2623 H   0  0  0  0  0  0
  -24.6684  -15.8471   20.5492 H   0  0  0  0  0  0
  -26.2890  -15.6233   20.1221 H   0  0  0  0  0  0
  -26.7171  -32.5443   23.1082 H   0  0  0  0  0  0
  -25.0089  -33.9720   25.0424 H   0  0  0  0  0  0
  -22.7114  -31.2997   21.3992 H   0  0  0  0  0  0
  -23.3751  -35.9619   23.3309 H   0  0  0  0  0  0
  -24.3572  -36.8898   22.2052 H   0  0  0  0  0  0
  -23.7242  -37.6491   23.6656 H   0  0  0  0  0  0
  -26.0851  -31.5518   20.5987 H   0  0  0  0  0  0
  -26.8396  -30.8407   21.9955 H   0  0  0  0  0  0
  -28.1087  -28.9902   21.1825 H   0  0  0  0  0  0
  -25.9654  -25.8972   19.0514 H   0  0  0  0  0  0
  -23.9706  -27.2812   19.0354 H   0  0  0  0  0  0
  -23.7490  -30.5832   19.4003 H   0  0  0  0  0  0
  -22.7522  -29.2369   19.8609 H   0  0  0  0  0  0
  -25.1298  -36.1928   25.0824 H   0  0  0  0  0  0
  -20.9971  -28.3248   24.1415 H   0  0  0  0  0  0
  -20.5670  -26.2286   23.3614 H   0  0  0  0  0  0
  -21.6645  -26.7432   22.1214 H   0  0  0  0  0  0
  -19.6912  -25.6292   21.1242 H   0  0  0  0  0  0
  -19.6692  -27.3192   20.6747 H   0  0  0  0  0  0
  -17.4205  -26.6677   21.4018 H   0  0  0  0  0  0
  -18.0320  -26.0058   22.9011 H   0  0  0  0  0  0
  -19.7935  -30.7269   24.2263 H   0  0  0  0  0  0
  -17.5011  -31.6261   24.5163 H   0  0  0  0  0  0
  -15.5348  -30.2980   23.7651 H   0  0  0  0  0  0
  -15.8672  -28.0814   22.7064 H   0  0  0  0  0  0
  -24.5902  -30.7087   25.7769 H   0  0  0  0  0  0
  -24.8959  -32.2885   26.4894 H   0  0  0  0  0  0
  -25.8077  -30.8870   27.0196 H   0  0  0  0  0  0
  -26.2909  -29.6761   24.1187 H   0  0  0  0  0  0
  -27.4074  -29.7272   25.4636 H   0  0  0  0  0  0
  -27.8763  -30.4310   23.9340 H   0  0  0  0  0  0
  -27.2653  -33.3616   26.2065 H   0  0  0  0  0  0
  -28.3856  -32.6908   25.0301 H   0  0  0  0  0  0
  -28.0738  -31.8451   26.5384 H   0  0  0  0  0  0
  -28.2608  -38.0087   24.7501 H   0  0  0  0  0  0
  -28.1063  -36.2617   24.6311 H   0  0  0  0  0  0
  -27.2294  -37.1470   25.8871 H   0  0  0  0  0  0
  -20.9360  -29.8746   21.6897 H   0  0  0  0  0  0
  -26.0171  -38.2853   24.1404 H   0  0  0  0  0  0
  -28.0816  -16.8050   21.7138 H   0  0  0  0  0  0
  -27.5587  -19.1723   22.1253 H   0  0  0  0  0  0
  -30.7500  -20.3602   19.5026 H   0  0  0  0  0  0
  -29.4771  -16.7435   17.9740 H   0  0  0  0  0  0
  -28.8564  -15.1529   18.0832 H   0  0  0  0  0  0
  -30.5921  -15.4017   17.8964 H   0  0  0  0  0  0
  -27.3875  -23.7963   21.0206 H   0  0  0  0  0  0
  -28.9972  -24.1443   21.5636 H   0  0  0  0  0  0
  -27.8188  -24.9626   18.8316 H   0  0  0  0  0  0
  -29.4747  -25.0958   19.2240 H   0  0  0  0  0  0
  -29.9920  -22.5113   19.9706 H   0  0  0  0  0  0
  -28.4434  -22.2346   19.2110 H   0  0  0  0  0  0
  1 25  1  0  0  0
  1 30  2  0  0  0
  1 81  1  0  0  0
  2  3  1  0  0  0
  2 25  1  0  0  0
  2 84  1  0  0  0
  2 85  1  0  0  0
  3  4  1  0  0  0
  3 86  1  0  0  0
  3 87  1  0  0  0
  4  5  1  0  0  0
  4 88  1  0  0  0
  4 89  1  0  0  0
  5  6  1  0  0  0
  5 26  1  0  0  0
  5 90  1  0  0  0
  6 25  1  0  0  0
  6 91  1  0  0  0
  6 92  1  0  0  0
  7  8  2  0  0  0
  7 26  1  0  0  0
  7 29  1  0  0  0
  8  9  1  0  0  0
  8 22  1  0  0  0
  9 10  1  0  0  0
  9 27  2  0  0  0
 10 11  2  0  0  0
 10 15  1  0  0  0
 11 12  1  0  0  0
 11 93  1  0  0  0
 12 13  2  0  0  0
 12 94  1  0  0  0
 13 14  1  0  0  0
 13 31  1  0  0  0
 14 15  2  0  0  0
 14 95  1  0  0  0
 15 96  1  0  0  0
 16 17  2  0  0  0
 16 21  1  0  0  0
 16 31  1  0  0  0
 17 18  1  0  0  0
 17 97  1  0  0  0
 18 19  2  0  0  0
 18 98  1  0  0  0
 19 20  1  0  0  0
 19 24  1  0  0  0
 20 21  2  0  0  0
 20 99  1  0  0  0
 21 23  1  0  0  0
 22 28  1  0  0  0
 22 32  2  0  0  0
 26 27  1  0  0  0
 28100  1  0  0  0
 28101  1  0  0  0
 29102  1  0  0  0
 29103  1  0  0  0
 33 34  1  0  0  0
 33 66  1  0  0  0
 33 70  2  0  0  0
 34 36  1  0  0  0
 34 59  1  0  0  0
 34104  1  0  0  0
 35 44  2  0  0  0
 35 45  1  0  0  0
 35 68  1  0  0  0
 36 56  1  0  0  0
 36105  1  0  0  0
 37 39  1  0  0  0
 37 47  1  0  0  0
 37 66  1  0  0  0
 37106  1  0  0  0
 38 43  2  0  0  0
 38 46  1  0  0  0
 38 47  1  0  0  0
 39 64  1  0  0  0
 39 67  2  0  0  0
 40 52  1  0  0  0
 40 53  2  0  0  0
 40 58  1  0  0  0
 41107  1  0  0  0
 41108  1  0  0  0
 41109  1  0  0  0
 41 48  1  0  0  0
 42 43  1  0  0  0
 42 66  1  0  0  0
 42110  1  0  0  0
 42111  1  0  0  0
 43 44  1  0  0  0
 44112  1  0  0  0
 45 46  2  0  0  0
 45113  1  0  0  0
 46114  1  0  0  0
 47115  1  0  0  0
 47116  1  0  0  0
 48 56  1  0  0  0
 48 65  1  0  0  0
 48117  1  0  0  0
 49 50  1  0  0  0
 49 53  1  0  0  0
 49 64  1  0  0  0
 49118  1  0  0  0
 50 51  1  0  0  0
 50119  1  0  0  0
 50120  1  0  0  0
 51 52  1  0  0  0
 51121  1  0  0  0
 51122  1  0  0  0
 52123  1  0  0  0
 52124  1  0  0  0
 53 54  1  0  0  0
 54 55  2  0  0  0
 54125  1  0  0  0
 55 57  1  0  0  0
 55126  1  0  0  0
 56 69  2  0  0  0
 57 58  2  0  0  0
 57127  1  0  0  0
 58128  1  0  0  0
 59 60  1  0  0  0
 59 61  1  0  0  0
 59 62  1  0  0  0
 60129  1  0  0  0
 60130  1  0  0  0
 60131  1  0  0  0
 61132  1  0  0  0
 61133  1  0  0  0
 61134  1  0  0  0
 62135  1  0  0  0
 62136  1  0  0  0
 62137  1  0  0  0
 63 65  1  0  0  0
 63138  1  0  0  0
 63139  1  0  0  0
 63140  1  0  0  0
 64141  1  0  0  0
 65142  1  0  0  0
 68 79  1  0  0  0
 71 72  2  0  0  0
 71 74  1  0  0  0
 71143  1  0  0  0
 72 75  1  0  0  0
 72144  1  0  0  0
 73 75  2  0  0  0
 73 76  1  0  0  0
 73145  1  0  0  0
 74 76  2  0  0  0
 74 81  1  0  0  0
 75 82  1  0  0  0
 76 83  1  0  0  0
 77 81  1  0  0  0
 77146  1  0  0  0
 77147  1  0  0  0
 77148  1  0  0  0
 78 79  1  0  0  0
 78 80  1  0  0  0
 78149  1  0  0  0
 78150  1  0  0  0
 79151  1  0  0  0
 79152  1  0  0  0
 80 82  1  0  0  0
 80153  1  0  0  0
 80154  1  0  0  0
M  ISO  4   1 100  68 101  79 101  81 100
M  END
> <chiral flag>
0

> <version>
0

> <s_m_source_file>
/data/baiqing/PycharmProjects/Reinvent-master-3.2/result/LINK_invent/BTK/process_docking_weight1_custom_product_contain_oxygen_bond_distance_aromatic_linkinvent_7_9_3/rearranged_h_0013.sdf

> <i_m_source_file_index>
64

> <r_mmod_Potential_Energy-OPLS-2005>
309.552795410156

> <r_mmod_Stretch_Energy-OPLS-2005>
88.2453536987305

> <r_mmod_Bend_Energy-OPLS-2005>
167.276290893555

> <r_mmod_Torsional_Energy-OPLS-2005>
327.139190673828

> <r_mmod_Improper_Torsional_Energy-OPLS-2005>
25.6013622283936

> <r_mmod_Van_der_Waal_Energy-OPLS-2005>
144.744674682617

> <r_mmod_Electrostatic_Energy-OPLS-2005>
-321.322082519531

> <r_mmod_Solvation_Energy-OPLS-2005>
-199.737258911133

> <b_mmod_Minimization_Converged-OPLS-2005>
0

> <r_mmod_RMS_Derivative-OPLS-2005>
0.991896033287048

$$$$
65
                    3D
 Structure written by MMmdl.
159167  0  0  1  0            999 V2000
  -30.6630  -14.4738   20.5996 C   0  0  0  0  0  0
  -30.4355  -12.3140   19.4136 C   0  0  0  0  0  0
  -29.4986  -12.5085   18.2018 C   0  0  0  0  0  0
  -28.0175  -12.3685   18.6113 C   0  0  0  0  0  0
  -27.6649  -13.1945   19.8765 C   0  0  2  0  0  0
  -28.7032  -12.9387   20.9915 C   0  0  0  0  0  0
  -25.2618  -13.8126   20.5646 C   0  0  0  0  0  0
  -24.1855  -13.0433   20.9168 C   0  0  0  0  0  0
  -24.6384  -11.6890   20.8729 C   0  0  0  0  0  0
  -23.9041  -10.4287   21.0401 C   0  0  0  0  0  0
  -24.3601   -9.4212   21.9185 C   0  0  0  0  0  0
  -23.6284   -8.2243   22.0757 C   0  0  0  0  0  0
  -22.4268   -8.0276   21.3539 C   0  0  0  0  0  0
  -21.9897   -9.0247   20.4645 C   0  0  0  0  0  0
  -22.7214  -10.2130   20.3053 C   0  0  0  0  0  0
  -21.6854   -6.0733   22.5279 C   0  0  0  0  0  0
  -21.4013   -6.5640   23.8212 C   0  0  0  0  0  0
  -21.3659   -5.6793   24.9174 C   0  0  0  0  0  0
  -21.6039   -4.3054   24.7228 C   0  0  0  0  0  0
  -21.8822   -3.8146   23.4350 C   0  0  0  0  0  0
  -21.9193   -4.6960   22.3401 C   0  0  0  0  0  0
  -22.7881  -13.5245   21.1833 C   0  0  0  0  0  0
  -22.1663   -4.2143   21.0978 F   0  0  0  0  0  0
  -21.5629   -3.4536   25.7744 F   0  0  0  0  0  0
  -30.0345  -13.2749   20.4521 N   0  0  0  0  0  0
  -26.3035  -12.9269   20.3338 N   0  0  0  0  0  0
  -25.9303  -11.6444   20.5737 N   0  0  0  0  0  0
  -22.0512  -12.8244   22.0389 N   0  0  0  0  0  0
  -25.4383  -15.1844   20.4027 N   0  0  0  0  0  0
  -31.7797  -14.7061   20.1238 O   0  0  0  0  0  0
  -21.6637   -6.8872   21.4237 O   0  0  0  0  0  0
  -22.3577  -14.5557   20.6685 O   0  0  0  0  0  0
  -24.6132  -31.8671   23.2078 C   0  0  0  0  0  0
  -25.9020  -32.4823   23.8375 C   0  0  1  0  0  0
  -27.2381  -27.4349   20.0977 C   0  0  0  0  0  0
  -25.5865  -33.8618   24.2302 N   0  0  0  0  0  0
  -23.4013  -30.4891   21.5498 C   0  0  2  0  0  0
  -24.8486  -28.9521   20.1190 C   0  0  0  0  0  0
  -22.7403  -29.4641   22.4993 C   0  0  0  0  0  0
  -18.0266  -28.1369   22.8495 C   0  0  0  0  0  0
  -24.1484  -36.7323   23.2636 C   0  0  0  0  0  0
  -25.9290  -30.8363   21.3582 C   0  0  0  0  0  0
  -26.0092  -29.4698   20.7069 C   0  0  0  0  0  0
  -27.2079  -28.7202   20.6877 C   0  0  0  0  0  0
  -26.0573  -26.9271   19.5111 C   0  0  0  0  0  0
  -24.8667  -27.6794   19.5202 C   0  0  0  0  0  0
  -23.6106  -29.8187   20.1662 C   0  0  0  0  0  0
  -25.4105  -36.3115   24.0332 C   0  0  1  0  0  0
  -20.5856  -28.3648   23.1325 C   0  0  2  0  0  0
  -20.6763  -26.9385   22.5426 C   0  0  0  0  0  0
  -19.5741  -26.6377   21.5217 C   0  0  0  0  0  0
  -18.1917  -26.7916   22.1625 C   0  0  0  0  0  0
  -19.1518  -28.8827   23.2907 C   0  0  0  0  0  0
  -18.9451  -30.1435   23.8915 C   0  0  0  0  0  0
  -17.6459  -30.6587   24.0556 C   0  0  0  0  0  0
  -25.9030  -34.9477   23.5122 C   0  0  0  0  0  0
  -16.5347  -29.9091   23.6316 C   0  0  0  0  0  0
  -16.7259  -28.6502   23.0345 C   0  0  0  0  0  0
  -26.4455  -31.6601   25.0697 C   0  0  0  0  0  0
  -25.3717  -31.3712   26.1444 C   0  0  0  0  0  0
  -27.0255  -30.3039   24.6041 C   0  0  0  0  0  0
  -27.6023  -32.4317   25.7475 C   0  0  0  0  0  0
  -27.5584  -37.1816   24.8457 C   0  0  0  0  0  0
  -21.4131  -29.3018   22.3739 N   0  0  0  0  0  0
  -26.4296  -37.3797   23.9406 N   0  0  0  0  0  0
  -24.6664  -31.0772   22.0982 N   0  0  0  0  0  0
  -23.4180  -28.8184   23.3033 O   0  0  0  0  0  0
  -28.4201  -26.7232   20.0836 O   0  0  0  0  0  0
  -26.5614  -34.8941   22.4700 O   0  0  0  0  0  0
  -23.5331  -32.1418   23.7487 O   0  0  0  0  0  0
  -28.8695  -18.9699   21.6864 C   0  0  0  0  0  0
  -31.2790  -18.9331   21.3798 C   0  0  0  0  0  0
  -28.8336  -17.5690   21.5127 C   0  0  0  0  0  0
  -31.2438  -17.5312   21.2002 C   0  0  0  0  0  0
  -30.0966  -19.6655   21.6428 C   0  0  0  0  0  0
  -30.0172  -16.8298   21.2797 C   0  0  0  0  0  0
  -30.6160  -21.9426   19.7027 C   0  0  0  0  0  0
  -30.1658  -21.1563   22.0104 C   0  0  0  0  0  0
  -29.7812  -24.7728   20.5643 C   0  0  0  0  0  0
  -29.9523  -23.5426   21.5097 C   0  0  0  0  0  0
  -28.3491  -25.3122   20.3457 C   0  0  0  0  0  0
  -29.8989  -15.4079   21.2059 N   0  0  0  0  0  0
  -29.8359  -22.1554   20.9470 N   0  3  1  0  0  0
  -31.4766  -12.4421   19.1116 H   0  0  0  0  0  0
  -30.3597  -11.2955   19.7965 H   0  0  0  0  0  0
  -29.7377  -11.7843   17.4223 H   0  0  0  0  0  0
  -29.6657  -13.4937   17.7635 H   0  0  0  0  0  0
  -27.8228  -11.3109   18.7943 H   0  0  0  0  0  0
  -27.3701  -12.6558   17.7818 H   0  0  0  0  0  0
  -27.7182  -14.2456   19.5951 H   0  0  0  0  0  0
  -28.6873  -11.8882   21.2871 H   0  0  0  0  0  0
  -28.4519  -13.4895   21.8986 H   0  0  0  0  0  0
  -25.2748   -9.5692   22.4756 H   0  0  0  0  0  0
  -23.9997   -7.4636   22.7480 H   0  0  0  0  0  0
  -21.0831   -8.8756   19.8952 H   0  0  0  0  0  0
  -22.3671  -10.9666   19.6162 H   0  0  0  0  0  0
  -21.2008   -7.6151   23.9710 H   0  0  0  0  0  0
  -21.1476   -6.0526   25.9075 H   0  0  0  0  0  0
  -22.0602   -2.7607   23.2852 H   0  0  0  0  0  0
  -22.4119  -11.9901   22.4771 H   0  0  0  0  0  0
  -21.1131  -13.1279   22.2578 H   0  0  0  0  0  0
  -24.6705  -15.8409   20.4939 H   0  0  0  0  0  0
  -26.2806  -15.6100   20.0376 H   0  0  0  0  0  0
  -26.7091  -32.5549   23.1139 H   0  0  0  0  0  0
  -24.9971  -33.9772   25.0418 H   0  0  0  0  0  0
  -22.6892  -31.3051   21.4092 H   0  0  0  0  0  0
  -23.3746  -35.9655   23.3299 H   0  0  0  0  0  0
  -24.3582  -36.8938   22.2050 H   0  0  0  0  0  0
  -23.7239  -37.6527   23.6659 H   0  0  0  0  0  0
  -26.0314  -31.6029   20.5891 H   0  0  0  0  0  0
  -26.8194  -30.8950   21.9722 H   0  0  0  0  0  0
  -28.1076  -29.1192   21.1375 H   0  0  0  0  0  0
  -26.0476  -25.9590   19.0316 H   0  0  0  0  0  0
  -23.9725  -27.2730   19.0671 H   0  0  0  0  0  0
  -23.7184  -30.5912   19.4035 H   0  0  0  0  0  0
  -22.7348  -29.2371   19.8740 H   0  0  0  0  0  0
  -25.1285  -36.1980   25.0824 H   0  0  0  0  0  0
  -20.9948  -28.3235   24.1439 H   0  0  0  0  0  0
  -20.5671  -26.2259   23.3617 H   0  0  0  0  0  0
  -21.6639  -26.7437   22.1211 H   0  0  0  0  0  0
  -19.6902  -25.6290   21.1235 H   0  0  0  0  0  0
  -19.6687  -27.3203   20.6759 H   0  0  0  0  0  0
  -17.4186  -26.6659   21.4025 H   0  0  0  0  0  0
  -18.0305  -26.0060   22.9024 H   0  0  0  0  0  0
  -19.7939  -30.7223   24.2315 H   0  0  0  0  0  0
  -17.5025  -31.6276   24.5143 H   0  0  0  0  0  0
  -15.5350  -30.3004   23.7633 H   0  0  0  0  0  0
  -15.8654  -28.0834   22.7050 H   0  0  0  0  0  0
  -24.5897  -30.7044   25.7784 H   0  0  0  0  0  0
  -24.8906  -32.2875   26.4878 H   0  0  0  0  0  0
  -25.8070  -30.8899   27.0208 H   0  0  0  0  0  0
  -26.2768  -29.6845   24.1084 H   0  0  0  0  0  0
  -27.4000  -29.7229   25.4476 H   0  0  0  0  0  0
  -27.8622  -30.4335   23.9173 H   0  0  0  0  0  0
  -27.2612  -33.3600   26.2072 H   0  0  0  0  0  0
  -28.3835  -32.6904   25.0313 H   0  0  0  0  0  0
  -28.0679  -31.8421   26.5383 H   0  0  0  0  0  0
  -28.2598  -38.0124   24.7528 H   0  0  0  0  0  0
  -28.1094  -36.2659   24.6259 H   0  0  0  0  0  0
  -27.2306  -37.1421   25.8862 H   0  0  0  0  0  0
  -20.9288  -29.8751   21.6970 H   0  0  0  0  0  0
  -26.0192  -38.2871   24.1437 H   0  0  0  0  0  0
  -27.9512  -19.4993   21.9020 H   0  0  0  0  0  0
  -32.2353  -19.4382   21.3593 H   0  0  0  0  0  0
  -27.8798  -17.0642   21.5855 H   0  0  0  0  0  0
  -32.1759  -17.0057   21.0456 H   0  0  0  0  0  0
  -30.5278  -20.9177   19.3427 H   0  0  0  0  0  0
  -31.6749  -22.1535   19.8552 H   0  0  0  0  0  0
  -30.2494  -22.5730   18.8943 H   0  0  0  0  0  0
  -31.1698  -21.3595   22.3869 H   0  0  0  0  0  0
  -29.5000  -21.3154   22.8607 H   0  0  0  0  0  0
  -30.3000  -24.6564   19.6150 H   0  0  0  0  0  0
  -30.3245  -25.5806   21.0566 H   0  0  0  0  0  0
  -29.2749  -23.6457   22.3586 H   0  0  0  0  0  0
  -30.9524  -23.6238   21.9385 H   0  0  0  0  0  0
  -27.7410  -25.1472   21.2376 H   0  0  0  0  0  0
  -27.8804  -24.7767   19.5196 H   0  0  0  0  0  0
  -29.0125  -15.0397   21.5148 H   0  0  0  0  0  0
  -28.8678  -22.0032   20.7073 H   0  0  0  0  0  0
  1 25  1  0  0  0
  1 30  2  0  0  0
  1 82  1  0  0  0
  2  3  1  0  0  0
  2 25  1  0  0  0
  2 84  1  0  0  0
  2 85  1  0  0  0
  3  4  1  0  0  0
  3 86  1  0  0  0
  3 87  1  0  0  0
  4  5  1  0  0  0
  4 88  1  0  0  0
  4 89  1  0  0  0
  5  6  1  0  0  0
  5 26  1  0  0  0
  5 90  1  0  0  0
  6 25  1  0  0  0
  6 91  1  0  0  0
  6 92  1  0  0  0
  7  8  2  0  0  0
  7 26  1  0  0  0
  7 29  1  0  0  0
  8  9  1  0  0  0
  8 22  1  0  0  0
  9 10  1  0  0  0
  9 27  2  0  0  0
 10 11  2  0  0  0
 10 15  1  0  0  0
 11 12  1  0  0  0
 11 93  1  0  0  0
 12 13  2  0  0  0
 12 94  1  0  0  0
 13 14  1  0  0  0
 13 31  1  0  0  0
 14 15  2  0  0  0
 14 95  1  0  0  0
 15 96  1  0  0  0
 16 17  2  0  0  0
 16 21  1  0  0  0
 16 31  1  0  0  0
 17 18  1  0  0  0
 17 97  1  0  0  0
 18 19  2  0  0  0
 18 98  1  0  0  0
 19 20  1  0  0  0
 19 24  1  0  0  0
 20 21  2  0  0  0
 20 99  1  0  0  0
 21 23  1  0  0  0
 22 28  1  0  0  0
 22 32  2  0  0  0
 26 27  1  0  0  0
 28100  1  0  0  0
 28101  1  0  0  0
 29102  1  0  0  0
 29103  1  0  0  0
 33 34  1  0  0  0
 33 66  1  0  0  0
 33 70  2  0  0  0
 34 36  1  0  0  0
 34 59  1  0  0  0
 34104  1  0  0  0
 35 44  2  0  0  0
 35 45  1  0  0  0
 35 68  1  0  0  0
 36 56  1  0  0  0
 36105  1  0  0  0
 37 39  1  0  0  0
 37 47  1  0  0  0
 37 66  1  0  0  0
 37106  1  0  0  0
 38 43  2  0  0  0
 38 46  1  0  0  0
 38 47  1  0  0  0
 39 64  1  0  0  0
 39 67  2  0  0  0
 40 52  1  0  0  0
 40 53  2  0  0  0
 40 58  1  0  0  0
 41107  1  0  0  0
 41108  1  0  0  0
 41109  1  0  0  0
 41 48  1  0  0  0
 42 43  1  0  0  0
 42 66  1  0  0  0
 42110  1  0  0  0
 42111  1  0  0  0
 43 44  1  0  0  0
 44112  1  0  0  0
 45 46  2  0  0  0
 45113  1  0  0  0
 46114  1  0  0  0
 47115  1  0  0  0
 47116  1  0  0  0
 48 56  1  0  0  0
 48 65  1  0  0  0
 48117  1  0  0  0
 49 50  1  0  0  0
 49 53  1  0  0  0
 49 64  1  0  0  0
 49118  1  0  0  0
 50 51  1  0  0  0
 50119  1  0  0  0
 50120  1  0  0  0
 51 52  1  0  0  0
 51121  1  0  0  0
 51122  1  0  0  0
 52123  1  0  0  0
 52124  1  0  0  0
 53 54  1  0  0  0
 54 55  2  0  0  0
 54125  1  0  0  0
 55 57  1  0  0  0
 55126  1  0  0  0
 56 69  2  0  0  0
 57 58  2  0  0  0
 57127  1  0  0  0
 58128  1  0  0  0
 59 60  1  0  0  0
 59 61  1  0  0  0
 59 62  1  0  0  0
 60129  1  0  0  0
 60130  1  0  0  0
 60131  1  0  0  0
 61132  1  0  0  0
 61133  1  0  0  0
 61134  1  0  0  0
 62135  1  0  0  0
 62136  1  0  0  0
 62137  1  0  0  0
 63 65  1  0  0  0
 63138  1  0  0  0
 63139  1  0  0  0
 63140  1  0  0  0
 64141  1  0  0  0
 65142  1  0  0  0
 68 81  1  0  0  0
 71 73  2  0  0  0
 71 75  1  0  0  0
 71143  1  0  0  0
 72 74  1  0  0  0
 72 75  2  0  0  0
 72144  1  0  0  0
 73 76  1  0  0  0
 73145  1  0  0  0
 74 76  2  0  0  0
 74146  1  0  0  0
 75 78  1  0  0  0
 76 82  1  0  0  0
 77147  1  0  0  0
 77148  1  0  0  0
 77149  1  0  0  0
 77 83  1  0  0  0
 78 83  1  0  0  0
 78150  1  0  0  0
 78151  1  0  0  0
 79 80  1  0  0  0
 79 81  1  0  0  0
 79152  1  0  0  0
 79153  1  0  0  0
 80 83  1  0  0  0
 80154  1  0  0  0
 80155  1  0  0  0
 81156  1  0  0  0
 81157  1  0  0  0
 82158  1  0  0  0
 83159  1  0  0  0
M  CHG  1  83   1
M  ISO  4   1 100  68 101  81 101  82 100
M  END
> <chiral flag>
0

> <version>
0

> <s_m_source_file>
/data/baiqing/PycharmProjects/Reinvent-master-3.2/result/LINK_invent/BTK/process_docking_weight1_custom_product_contain_oxygen_bond_distance_aromatic_linkinvent_7_9_3/rearranged_h_0013.sdf

> <i_m_source_file_index>
65

> <r_mmod_Potential_Energy-OPLS-2005>
-169.5888671875

> <r_mmod_Stretch_Energy-OPLS-2005>
39.6837730407715

> <r_mmod_Bend_Energy-OPLS-2005>
116.625686645508

> <r_mmod_Torsional_Energy-OPLS-2005>
224.905197143555

> <r_mmod_Improper_Torsional_Energy-OPLS-2005>
4.02819395065308

> <r_mmod_Van_der_Waal_Energy-OPLS-2005>
155.463958740234

> <r_mmod_Electrostatic_Energy-OPLS-2005>
-270.951782226562

> <r_mmod_Solvation_Energy-OPLS-2005>
-451.460754394531

> <b_mmod_Minimization_Converged-OPLS-2005>
0

> <r_mmod_RMS_Derivative-OPLS-2005>
1.51259875297546

$$$$
66
                    3D
 Structure written by MMmdl.
159167  0  0  1  0            999 V2000
  -30.6382  -14.5596   20.5567 C   0  0  0  0  0  0
  -30.4385  -12.3600   19.4226 C   0  0  0  0  0  0
  -29.4986  -12.5114   18.2070 C   0  0  0  0  0  0
  -28.0196  -12.3561   18.6203 C   0  0  0  0  0  0
  -27.6563  -13.2042   19.8683 C   0  0  2  0  0  0
  -28.7026  -13.0050   20.9879 C   0  0  0  0  0  0
  -25.2572  -13.8147   20.5681 C   0  0  0  0  0  0
  -24.1823  -13.0426   20.9184 C   0  0  0  0  0  0
  -24.6377  -11.6891   20.8739 C   0  0  0  0  0  0
  -23.9044  -10.4278   21.0393 C   0  0  0  0  0  0
  -24.3602   -9.4199   21.9174 C   0  0  0  0  0  0
  -23.6280   -8.2237   22.0746 C   0  0  0  0  0  0
  -22.4261   -8.0271   21.3544 C   0  0  0  0  0  0
  -21.9894   -9.0239   20.4645 C   0  0  0  0  0  0
  -22.7215  -10.2118   20.3045 C   0  0  0  0  0  0
  -21.6852   -6.0731   22.5280 C   0  0  0  0  0  0
  -21.4019   -6.5637   23.8212 C   0  0  0  0  0  0
  -21.3657   -5.6789   24.9172 C   0  0  0  0  0  0
  -21.6041   -4.3053   24.7224 C   0  0  0  0  0  0
  -21.8820   -3.8144   23.4348 C   0  0  0  0  0  0
  -21.9191   -4.6962   22.3406 C   0  0  0  0  0  0
  -22.7846  -13.5229   21.1844 C   0  0  0  0  0  0
  -22.1655   -4.2143   21.0986 F   0  0  0  0  0  0
  -21.5623   -3.4544   25.7743 F   0  0  0  0  0  0
  -30.0198  -13.3490   20.4296 N   0  0  0  0  0  0
  -26.2994  -12.9304   20.3335 N   0  0  0  0  0  0
  -25.9303  -11.6469   20.5753 N   0  0  0  0  0  0
  -22.0489  -12.8225   22.0410 N   0  0  0  0  0  0
  -25.4295  -15.1870   20.4093 N   0  0  0  0  0  0
  -31.7944  -14.7552   20.1693 O   0  0  0  0  0  0
  -21.6633   -6.8868   21.4236 O   0  0  0  0  0  0
  -22.3532  -14.5534   20.6684 O   0  0  0  0  0  0
  -24.6175  -31.8651   23.2037 C   0  0  0  0  0  0
  -25.9042  -32.4818   23.8365 C   0  0  1  0  0  0
  -27.2438  -27.4016   20.1110 C   0  0  0  0  0  0
  -25.5894  -33.8614   24.2316 N   0  0  0  0  0  0
  -23.4096  -30.4839   21.5459 C   0  0  2  0  0  0
  -24.8587  -28.9388   20.1163 C   0  0  0  0  0  0
  -22.7433  -29.4644   22.4985 C   0  0  0  0  0  0
  -18.0274  -28.1383   22.8480 C   0  0  0  0  0  0
  -24.1486  -36.7323   23.2638 C   0  0  0  0  0  0
  -25.9385  -30.8250   21.3539 C   0  0  0  0  0  0
  -26.0187  -29.4525   20.7087 C   0  0  0  0  0  0
  -27.2157  -28.6948   20.6929 C   0  0  0  0  0  0
  -26.0653  -26.9033   19.5182 C   0  0  0  0  0  0
  -24.8797  -27.6672   19.5138 C   0  0  0  0  0  0
  -23.6193  -29.8066   20.1630 C   0  0  0  0  0  0
  -25.4104  -36.3108   24.0339 C   0  0  1  0  0  0
  -20.5866  -28.3675   23.1318 C   0  0  2  0  0  0
  -20.6776  -26.9409   22.5424 C   0  0  0  0  0  0
  -19.5760  -26.6391   21.5216 C   0  0  0  0  0  0
  -18.1931  -26.7937   22.1608 C   0  0  0  0  0  0
  -19.1523  -28.8845   23.2895 C   0  0  0  0  0  0
  -18.9446  -30.1443   23.8918 C   0  0  0  0  0  0
  -17.6454  -30.6591   24.0559 C   0  0  0  0  0  0
  -25.9033  -34.9475   23.5130 C   0  0  0  0  0  0
  -16.5345  -29.9091   23.6316 C   0  0  0  0  0  0
  -16.7264  -28.6501   23.0342 C   0  0  0  0  0  0
  -26.4466  -31.6580   25.0691 C   0  0  0  0  0  0
  -25.3718  -31.3635   26.1421 C   0  0  0  0  0  0
  -27.0295  -30.3045   24.6017 C   0  0  0  0  0  0
  -27.6081  -32.4254   25.7426 C   0  0  0  0  0  0
  -27.5585  -37.1805   24.8470 C   0  0  0  0  0  0
  -21.4155  -29.3036   22.3723 N   0  0  0  0  0  0
  -26.4295  -37.3793   23.9415 N   0  0  0  0  0  0
  -24.6752  -31.0717   22.0949 N   0  0  0  0  0  0
  -23.4184  -28.8183   23.3048 O   0  0  0  0  0  0
  -28.4244  -26.6781   20.0811 O   0  0  0  0  0  0
  -26.5587  -34.8927   22.4688 O   0  0  0  0  0  0
  -23.5354  -32.1420   23.7412 O   0  0  0  0  0  0
  -30.6211  -18.4888   23.1259 C   0  0  0  0  0  0
  -30.4373  -19.5864   22.2606 C   0  0  0  0  0  0
  -30.4602  -17.1692   22.6579 C   0  0  0  0  0  0
  -29.8923  -18.0418   20.4514 C   0  0  0  0  0  0
  -30.0711  -19.3851   20.9115 C   0  0  0  0  0  0
  -30.1078  -16.9229   21.3136 C   0  0  0  0  0  0
  -27.6516  -21.3347   20.1342 C   0  0  0  0  0  0
  -30.0062  -20.6060   19.9574 C   0  0  0  0  0  0
  -28.4190  -24.2120   19.4587 C   0  0  0  0  0  0
  -29.4380  -23.0081   19.5662 C   0  0  0  0  0  0
  -28.4317  -25.3110   20.5658 C   0  0  0  0  0  0
  -29.8104  -15.5736   20.9215 N   0  0  0  0  0  0
  -29.0671  -21.7371   20.2970 N   0  3  1  0  0  0
  -31.4756  -12.5012   19.1148 H   0  0  0  0  0  0
  -30.3811  -11.3511   19.8362 H   0  0  0  0  0  0
  -29.7520  -11.7776   17.4406 H   0  0  0  0  0  0
  -29.6471  -13.4904   17.7504 H   0  0  0  0  0  0
  -27.8419  -11.3001   18.8275 H   0  0  0  0  0  0
  -27.3659  -12.6155   17.7868 H   0  0  0  0  0  0
  -27.6866  -14.2474   19.5541 H   0  0  0  0  0  0
  -28.7054  -11.9665   21.3242 H   0  0  0  0  0  0
  -28.4586  -13.5995   21.8705 H   0  0  0  0  0  0
  -25.2745   -9.5681   22.4742 H   0  0  0  0  0  0
  -23.9994   -7.4633   22.7464 H   0  0  0  0  0  0
  -21.0823   -8.8749   19.8959 H   0  0  0  0  0  0
  -22.3664  -10.9652   19.6152 H   0  0  0  0  0  0
  -21.2018   -7.6145   23.9715 H   0  0  0  0  0  0
  -21.1477   -6.0521   25.9073 H   0  0  0  0  0  0
  -22.0605   -2.7607   23.2853 H   0  0  0  0  0  0
  -22.4091  -11.9885   22.4811 H   0  0  0  0  0  0
  -21.1102  -13.1239   22.2600 H   0  0  0  0  0  0
  -24.6634  -15.8412   20.5274 H   0  0  0  0  0  0
  -26.2784  -15.6317   20.0847 H   0  0  0  0  0  0
  -26.7120  -32.5531   23.1134 H   0  0  0  0  0  0
  -25.0059  -33.9791   25.0474 H   0  0  0  0  0  0
  -22.7015  -31.3019   21.3981 H   0  0  0  0  0  0
  -23.3756  -35.9653   23.3299 H   0  0  0  0  0  0
  -24.3601  -36.8938   22.2057 H   0  0  0  0  0  0
  -23.7220  -37.6517   23.6661 H   0  0  0  0  0  0
  -26.0399  -31.5829   20.5755 H   0  0  0  0  0  0
  -26.8308  -30.8939   21.9641 H   0  0  0  0  0  0
  -28.1173  -29.0907   21.1385 H   0  0  0  0  0  0
  -26.0668  -25.9325   19.0440 H   0  0  0  0  0  0
  -23.9894  -27.2722   19.0448 H   0  0  0  0  0  0
  -23.7213  -30.5761   19.3967 H   0  0  0  0  0  0
  -22.7452  -29.2207   19.8727 H   0  0  0  0  0  0
  -25.1271  -36.1988   25.0832 H   0  0  0  0  0  0
  -20.9950  -28.3237   24.1443 H   0  0  0  0  0  0
  -20.5684  -26.2279   23.3607 H   0  0  0  0  0  0
  -21.6648  -26.7473   22.1214 H   0  0  0  0  0  0
  -19.6941  -25.6306   21.1238 H   0  0  0  0  0  0
  -19.6718  -27.3206   20.6751 H   0  0  0  0  0  0
  -17.4212  -26.6677   21.3994 H   0  0  0  0  0  0
  -18.0324  -26.0082   22.9003 H   0  0  0  0  0  0
  -19.7919  -30.7237   24.2329 H   0  0  0  0  0  0
  -17.5002  -31.6277   24.5143 H   0  0  0  0  0  0
  -15.5340  -30.2991   23.7643 H   0  0  0  0  0  0
  -15.8655  -28.0821   22.7066 H   0  0  0  0  0  0
  -24.5953  -30.6932   25.7718 H   0  0  0  0  0  0
  -24.8833  -32.2754   26.4873 H   0  0  0  0  0  0
  -25.8065  -30.8801   27.0178 H   0  0  0  0  0  0
  -26.2815  -29.6777   24.1151 H   0  0  0  0  0  0
  -27.4195  -29.7299   25.4420 H   0  0  0  0  0  0
  -27.8586  -30.4414   23.9066 H   0  0  0  0  0  0
  -27.2805  -33.3593   26.2001 H   0  0  0  0  0  0
  -28.3885  -32.6725   25.0217 H   0  0  0  0  0  0
  -28.0748  -31.8345   26.5313 H   0  0  0  0  0  0
  -28.2596  -38.0105   24.7530 H   0  0  0  0  0  0
  -28.1069  -36.2637   24.6272 H   0  0  0  0  0  0
  -27.2309  -37.1427   25.8871 H   0  0  0  0  0  0
  -20.9335  -29.8719   21.6901 H   0  0  0  0  0  0
  -26.0189  -38.2877   24.1407 H   0  0  0  0  0  0
  -30.8927  -18.6612   24.1588 H   0  0  0  0  0  0
  -30.6017  -20.5851   22.6417 H   0  0  0  0  0  0
  -30.5888  -16.3473   23.3488 H   0  0  0  0  0  0
  -29.6043  -17.8667   19.4232 H   0  0  0  0  0  0
  -27.4495  -20.3993   20.6561 H   0  0  0  0  0  0
  -27.4015  -21.1923   19.0822 H   0  0  0  0  0  0
  -26.9784  -22.0813   20.5543 H   0  0  0  0  0  0
  -29.7901  -20.2573   18.9463 H   0  0  0  0  0  0
  -31.0203  -21.0071   19.9138 H   0  0  0  0  0  0
  -27.4009  -23.8847   19.2580 H   0  0  0  0  0  0
  -28.7009  -24.7331   18.5430 H   0  0  0  0  0  0
  -30.3897  -23.3729   19.9570 H   0  0  0  0  0  0
  -29.6535  -22.7094   18.5393 H   0  0  0  0  0  0
  -29.3540  -25.2164   21.1392 H   0  0  0  0  0  0
  -27.6287  -25.1417   21.2851 H   0  0  0  0  0  0
  -28.8623  -15.2802   21.0950 H   0  0  0  0  0  0
  -29.1931  -21.9289   21.2784 H   0  0  0  0  0  0
  1 25  1  0  0  0
  1 30  2  0  0  0
  1 82  1  0  0  0
  2  3  1  0  0  0
  2 25  1  0  0  0
  2 84  1  0  0  0
  2 85  1  0  0  0
  3  4  1  0  0  0
  3 86  1  0  0  0
  3 87  1  0  0  0
  4  5  1  0  0  0
  4 88  1  0  0  0
  4 89  1  0  0  0
  5  6  1  0  0  0
  5 26  1  0  0  0
  5 90  1  0  0  0
  6 25  1  0  0  0
  6 91  1  0  0  0
  6 92  1  0  0  0
  7  8  2  0  0  0
  7 26  1  0  0  0
  7 29  1  0  0  0
  8  9  1  0  0  0
  8 22  1  0  0  0
  9 10  1  0  0  0
  9 27  2  0  0  0
 10 11  2  0  0  0
 10 15  1  0  0  0
 11 12  1  0  0  0
 11 93  1  0  0  0
 12 13  2  0  0  0
 12 94  1  0  0  0
 13 14  1  0  0  0
 13 31  1  0  0  0
 14 15  2  0  0  0
 14 95  1  0  0  0
 15 96  1  0  0  0
 16 17  2  0  0  0
 16 21  1  0  0  0
 16 31  1  0  0  0
 17 18  1  0  0  0
 17 97  1  0  0  0
 18 19  2  0  0  0
 18 98  1  0  0  0
 19 20  1  0  0  0
 19 24  1  0  0  0
 20 21  2  0  0  0
 20 99  1  0  0  0
 21 23  1  0  0  0
 22 28  1  0  0  0
 22 32  2  0  0  0
 26 27  1  0  0  0
 28100  1  0  0  0
 28101  1  0  0  0
 29102  1  0  0  0
 29103  1  0  0  0
 33 34  1  0  0  0
 33 66  1  0  0  0
 33 70  2  0  0  0
 34 36  1  0  0  0
 34 59  1  0  0  0
 34104  1  0  0  0
 35 44  2  0  0  0
 35 45  1  0  0  0
 35 68  1  0  0  0
 36 56  1  0  0  0
 36105  1  0  0  0
 37 39  1  0  0  0
 37 47  1  0  0  0
 37 66  1  0  0  0
 37106  1  0  0  0
 38 43  2  0  0  0
 38 46  1  0  0  0
 38 47  1  0  0  0
 39 64  1  0  0  0
 39 67  2  0  0  0
 40 52  1  0  0  0
 40 53  2  0  0  0
 40 58  1  0  0  0
 41107  1  0  0  0
 41108  1  0  0  0
 41109  1  0  0  0
 41 48  1  0  0  0
 42 43  1  0  0  0
 42 66  1  0  0  0
 42110  1  0  0  0
 42111  1  0  0  0
 43 44  1  0  0  0
 44112  1  0  0  0
 45 46  2  0  0  0
 45113  1  0  0  0
 46114  1  0  0  0
 47115  1  0  0  0
 47116  1  0  0  0
 48 56  1  0  0  0
 48 65  1  0  0  0
 48117  1  0  0  0
 49 50  1  0  0  0
 49 53  1  0  0  0
 49 64  1  0  0  0
 49118  1  0  0  0
 50 51  1  0  0  0
 50119  1  0  0  0
 50120  1  0  0  0
 51 52  1  0  0  0
 51121  1  0  0  0
 51122  1  0  0  0
 52123  1  0  0  0
 52124  1  0  0  0
 53 54  1  0  0  0
 54 55  2  0  0  0
 54125  1  0  0  0
 55 57  1  0  0  0
 55126  1  0  0  0
 56 69  2  0  0  0
 57 58  2  0  0  0
 57127  1  0  0  0
 58128  1  0  0  0
 59 60  1  0  0  0
 59 61  1  0  0  0
 59 62  1  0  0  0
 60129  1  0  0  0
 60130  1  0  0  0
 60131  1  0  0  0
 61132  1  0  0  0
 61133  1  0  0  0
 61134  1  0  0  0
 62135  1  0  0  0
 62136  1  0  0  0
 62137  1  0  0  0
 63 65  1  0  0  0
 63138  1  0  0  0
 63139  1  0  0  0
 63140  1  0  0  0
 64141  1  0  0  0
 65142  1  0  0  0
 68 81  1  0  0  0
 71 72  2  0  0  0
 71 73  1  0  0  0
 71143  1  0  0  0
 72 75  1  0  0  0
 72144  1  0  0  0
 73 76  2  0  0  0
 73145  1  0  0  0
 74 75  2  0  0  0
 74 76  1  0  0  0
 74146  1  0  0  0
 75 78  1  0  0  0
 76 82  1  0  0  0
 77147  1  0  0  0
 77148  1  0  0  0
 77149  1  0  0  0
 77 83  1  0  0  0
 78 83  1  0  0  0
 78150  1  0  0  0
 78151  1  0  0  0
 79 80  1  0  0  0
 79 81  1  0  0  0
 79152  1  0  0  0
 79153  1  0  0  0
 80 83  1  0  0  0
 80154  1  0  0  0
 80155  1  0  0  0
 81156  1  0  0  0
 81157  1  0  0  0
 82158  1  0  0  0
 83159  1  0  0  0
M  CHG  1  83   1
M  ISO  4   1 100  68 101  81 101  82 100
M  END
> <chiral flag>
0

> <version>
0

> <s_m_source_file>
/data/baiqing/PycharmProjects/Reinvent-master-3.2/result/LINK_invent/BTK/process_docking_weight1_custom_product_contain_oxygen_bond_distance_aromatic_linkinvent_7_9_3/rearranged_h_0013.sdf

> <i_m_source_file_index>
66

> <r_mmod_Potential_Energy-OPLS-2005>
-110.506134033203

> <r_mmod_Stretch_Energy-OPLS-2005>
52.4333229064941

> <r_mmod_Bend_Energy-OPLS-2005>
124.485054016113

> <r_mmod_Torsional_Energy-OPLS-2005>
269.557495117188

> <r_mmod_Improper_Torsional_Energy-OPLS-2005>
6.56660842895508

> <r_mmod_Van_der_Waal_Energy-OPLS-2005>
140.084213256836

> <r_mmod_Electrostatic_Energy-OPLS-2005>
-265.61083984375

> <r_mmod_Solvation_Energy-OPLS-2005>
-460.304290771484

> <b_mmod_Minimization_Converged-OPLS-2005>
0

> <r_mmod_RMS_Derivative-OPLS-2005>
2.0980486869812

$$$$
67
                    3D
 Structure written by MMmdl.
159167  0  0  1  0            999 V2000
  -30.6530  -14.5887   20.5299 C   0  0  0  0  0  0
  -30.4296  -12.3639   19.4469 C   0  0  0  0  0  0
  -29.5102  -12.5113   18.2165 C   0  0  0  0  0  0
  -28.0304  -12.3503   18.6201 C   0  0  0  0  0  0
  -27.6568  -13.2105   19.8585 C   0  0  2  0  0  0
  -28.6965  -13.0423   20.9902 C   0  0  0  0  0  0
  -25.2598  -13.8147   20.5633 C   0  0  0  0  0  0
  -24.1859  -13.0427   20.9163 C   0  0  0  0  0  0
  -24.6412  -11.6900   20.8687 C   0  0  0  0  0  0
  -23.9057  -10.4283   21.0353 C   0  0  0  0  0  0
  -24.3611   -9.4206   21.9136 C   0  0  0  0  0  0
  -23.6301   -8.2240   22.0718 C   0  0  0  0  0  0
  -22.4280   -8.0265   21.3526 C   0  0  0  0  0  0
  -21.9907   -9.0237   20.4630 C   0  0  0  0  0  0
  -22.7223  -10.2122   20.3026 C   0  0  0  0  0  0
  -21.6869   -6.0729   22.5287 C   0  0  0  0  0  0
  -21.4010   -6.5637   23.8225 C   0  0  0  0  0  0
  -21.3652   -5.6773   24.9177 C   0  0  0  0  0  0
  -21.6063   -4.3040   24.7240 C   0  0  0  0  0  0
  -21.8825   -3.8131   23.4356 C   0  0  0  0  0  0
  -21.9198   -4.6946   22.3402 C   0  0  0  0  0  0
  -22.7885  -13.5233   21.1840 C   0  0  0  0  0  0
  -22.1663   -4.2123   21.0991 F   0  0  0  0  0  0
  -21.5626   -3.4542   25.7750 F   0  0  0  0  0  0
  -30.0204  -13.3761   20.4411 N   0  0  0  0  0  0
  -26.3005  -12.9318   20.3249 N   0  0  0  0  0  0
  -25.9324  -11.6478   20.5696 N   0  0  0  0  0  0
  -22.0516  -12.8253   22.0402 N   0  0  0  0  0  0
  -25.4309  -15.1874   20.4033 N   0  0  0  0  0  0
  -31.7800  -14.7395   20.0547 O   0  0  0  0  0  0
  -21.6641   -6.8870   21.4248 O   0  0  0  0  0  0
  -22.3582  -14.5526   20.6654 O   0  0  0  0  0  0
  -24.6249  -31.8624   23.2042 C   0  0  0  0  0  0
  -25.9096  -32.4799   23.8389 C   0  0  1  0  0  0
  -27.2154  -27.3217   20.1015 C   0  0  0  0  0  0
  -25.5923  -33.8604   24.2295 N   0  0  0  0  0  0
  -23.4185  -30.4880   21.5480 C   0  0  2  0  0  0
  -24.8635  -28.9514   20.1074 C   0  0  0  0  0  0
  -22.7482  -29.4625   22.4931 C   0  0  0  0  0  0
  -18.0277  -28.1350   22.8491 C   0  0  0  0  0  0
  -24.1493  -36.7276   23.2641 C   0  0  0  0  0  0
  -25.9653  -30.7911   21.3812 C   0  0  0  0  0  0
  -26.0361  -29.4233   20.7129 C   0  0  0  0  0  0
  -27.2171  -28.6217   20.6971 C   0  0  0  0  0  0
  -26.0160  -26.9051   19.4775 C   0  0  0  0  0  0
  -24.8557  -27.6968   19.4839 C   0  0  0  0  0  0
  -23.6333  -29.8323   20.1604 C   0  0  0  0  0  0
  -25.4115  -36.3091   24.0336 C   0  0  1  0  0  0
  -20.5883  -28.3653   23.1271 C   0  0  2  0  0  0
  -20.6765  -26.9370   22.5397 C   0  0  0  0  0  0
  -19.5729  -26.6347   21.5212 C   0  0  0  0  0  0
  -18.1917  -26.7894   22.1633 C   0  0  0  0  0  0
  -19.1532  -28.8813   23.2880 C   0  0  0  0  0  0
  -18.9458  -30.1421   23.8886 C   0  0  0  0  0  0
  -17.6461  -30.6569   24.0523 C   0  0  0  0  0  0
  -25.9056  -34.9471   23.5115 C   0  0  0  0  0  0
  -16.5347  -29.9062   23.6314 C   0  0  0  0  0  0
  -16.7265  -28.6465   23.0362 C   0  0  0  0  0  0
  -26.4464  -31.6626   25.0772 C   0  0  0  0  0  0
  -25.3708  -31.3794   26.1515 C   0  0  0  0  0  0
  -27.0283  -30.3039   24.6256 C   0  0  0  0  0  0
  -27.6016  -32.4381   25.7528 C   0  0  0  0  0  0
  -27.5583  -37.1795   24.8459 C   0  0  0  0  0  0
  -21.4187  -29.3030   22.3699 N   0  0  0  0  0  0
  -26.4286  -37.3789   23.9421 N   0  0  0  0  0  0
  -24.6884  -31.0643   22.0999 N   0  0  0  0  0  0
  -23.4232  -28.8144   23.2977 O   0  0  0  0  0  0
  -28.3254  -26.4617   20.1526 O   0  0  0  0  0  0
  -26.5611  -34.8924   22.4679 O   0  0  0  0  0  0
  -23.5422  -32.1424   23.7380 O   0  0  0  0  0  0
  -28.5711  -19.1579   21.0788 C   0  0  0  0  0  0
  -28.6998  -17.7392   21.0749 C   0  0  0  0  0  0
  -30.9516  -19.3414   20.8339 C   0  0  0  0  0  0
  -29.7010  -20.0024   20.9603 C   0  0  0  0  0  0
  -31.0976  -17.9224   20.8648 C   0  0  0  0  0  0
  -29.9508  -17.0688   20.9631 C   0  0  0  0  0  0
  -32.5216  -17.3953   20.8761 C   0  0  0  0  0  0
  -28.8506  -21.9823   18.8408 C   0  0  0  0  0  0
  -29.6500  -21.5645   21.1563 C   0  0  0  0  0  0
  -29.1871  -23.9553   20.3782 C   0  0  0  0  0  0
  -28.0830  -25.0116   19.9434 C   0  0  0  0  0  0
  -29.9154  -15.6081   21.0666 N   0  0  0  0  0  0
  -28.8444  -22.4673   20.2426 N   0  3  1  0  0  0
  -31.4758  -12.4661   19.1549 H   0  0  0  0  0  0
  -30.3371  -11.3600   19.8660 H   0  0  0  0  0  0
  -29.7795  -11.7713   17.4610 H   0  0  0  0  0  0
  -29.6676  -13.4876   17.7543 H   0  0  0  0  0  0
  -27.8637  -11.2952   18.8395 H   0  0  0  0  0  0
  -27.3770  -12.5841   17.7767 H   0  0  0  0  0  0
  -27.6887  -14.2512   19.5315 H   0  0  0  0  0  0
  -28.6988  -12.0129   21.3524 H   0  0  0  0  0  0
  -28.4390  -13.6533   21.8542 H   0  0  0  0  0  0
  -25.2757   -9.5702   22.4710 H   0  0  0  0  0  0
  -24.0025   -7.4637   22.7443 H   0  0  0  0  0  0
  -21.0825   -8.8734   19.8976 H   0  0  0  0  0  0
  -22.3634  -10.9638   19.6137 H   0  0  0  0  0  0
  -21.1992   -7.6130   23.9731 H   0  0  0  0  0  0
  -21.1470   -6.0489   25.9089 H   0  0  0  0  0  0
  -22.0611   -2.7593   23.2859 H   0  0  0  0  0  0
  -22.4102  -11.9954   22.4872 H   0  0  0  0  0  0
  -21.1119  -13.1282   22.2538 H   0  0  0  0  0  0
  -24.6552  -15.8321   20.5019 H   0  0  0  0  0  0
  -26.2653  -15.6246   20.0344 H   0  0  0  0  0  0
  -26.7177  -32.5458   23.1153 H   0  0  0  0  0  0
  -25.0100  -33.9772   25.0461 H   0  0  0  0  0  0
  -22.7105  -31.3085   21.4102 H   0  0  0  0  0  0
  -23.3782  -35.9578   23.3282 H   0  0  0  0  0  0
  -24.3596  -36.8916   22.2058 H   0  0  0  0  0  0
  -23.7209  -37.6463   23.6666 H   0  0  0  0  0  0
  -26.1148  -31.5630   20.6242 H   0  0  0  0  0  0
  -26.8406  -30.8252   22.0190 H   0  0  0  0  0  0
  -28.1185  -28.9762   21.1775 H   0  0  0  0  0  0
  -25.9321  -25.9481   18.9845 H   0  0  0  0  0  0
  -23.9574  -27.3293   19.0068 H   0  0  0  0  0  0
  -23.7557  -30.6157   19.4124 H   0  0  0  0  0  0
  -22.7515  -29.2686   19.8502 H   0  0  0  0  0  0
  -25.1299  -36.1942   25.0829 H   0  0  0  0  0  0
  -20.9979  -28.3208   24.1386 H   0  0  0  0  0  0
  -20.5662  -26.2245   23.3591 H   0  0  0  0  0  0
  -21.6625  -26.7396   22.1176 H   0  0  0  0  0  0
  -19.6874  -25.6261   21.1228 H   0  0  0  0  0  0
  -19.6654  -27.3152   20.6738 H   0  0  0  0  0  0
  -17.4177  -26.6622   21.4048 H   0  0  0  0  0  0
  -18.0319  -26.0041   22.9028 H   0  0  0  0  0  0
  -19.7939  -30.7220   24.2266 H   0  0  0  0  0  0
  -17.5020  -31.6259   24.5098 H   0  0  0  0  0  0
  -15.5346  -30.2957   23.7640 H   0  0  0  0  0  0
  -15.8662  -28.0771   22.7108 H   0  0  0  0  0  0
  -24.5837  -30.7174   25.7882 H   0  0  0  0  0  0
  -24.8938  -32.2970   26.4977 H   0  0  0  0  0  0
  -25.8045  -30.8961   27.0279 H   0  0  0  0  0  0
  -26.2857  -29.6831   24.1221 H   0  0  0  0  0  0
  -27.3879  -29.7266   25.4785 H   0  0  0  0  0  0
  -27.8787  -30.4297   23.9547 H   0  0  0  0  0  0
  -27.2604  -33.3680   26.2098 H   0  0  0  0  0  0
  -28.3815  -32.6971   25.0352 H   0  0  0  0  0  0
  -28.0693  -31.8529   26.5456 H   0  0  0  0  0  0
  -28.2581  -38.0114   24.7548 H   0  0  0  0  0  0
  -28.1100  -36.2647   24.6232 H   0  0  0  0  0  0
  -27.2301  -37.1379   25.8861 H   0  0  0  0  0  0
  -20.9342  -29.8804   21.6971 H   0  0  0  0  0  0
  -26.0165  -38.2858   24.1465 H   0  0  0  0  0  0
  -27.5916  -19.5934   21.2209 H   0  0  0  0  0  0
  -27.7983  -17.1547   21.2012 H   0  0  0  0  0  0
  -31.8443  -19.9493   20.7890 H   0  0  0  0  0  0
  -33.2294  -18.1712   21.1710 H   0  0  0  0  0  0
  -32.8156  -17.0507   19.8846 H   0  0  0  0  0  0
  -32.6339  -16.5879   21.5988 H   0  0  0  0  0  0
  -28.2689  -21.0637   18.7510 H   0  0  0  0  0  0
  -29.8656  -21.7679   18.5015 H   0  0  0  0  0  0
  -28.4090  -22.7009   18.1518 H   0  0  0  0  0  0
  -30.6832  -21.9150   21.1118 H   0  0  0  0  0  0
  -29.3314  -21.7492   22.1843 H   0  0  0  0  0  0
  -29.4156  -24.1542   21.4254 H   0  0  0  0  0  0
  -30.1096  -24.1527   19.8280 H   0  0  0  0  0  0
  -27.1758  -24.7389   20.4840 H   0  0  0  0  0  0
  -27.8705  -24.8593   18.8848 H   0  0  0  0  0  0
  -29.0408  -15.2519   21.4202 H   0  0  0  0  0  0
  -27.8917  -22.3623   20.5610 H   0  0  0  0  0  0
  1 25  1  0  0  0
  1 30  2  0  0  0
  1 82  1  0  0  0
  2  3  1  0  0  0
  2 25  1  0  0  0
  2 84  1  0  0  0
  2 85  1  0  0  0
  3  4  1  0  0  0
  3 86  1  0  0  0
  3 87  1  0  0  0
  4  5  1  0  0  0
  4 88  1  0  0  0
  4 89  1  0  0  0
  5  6  1  0  0  0
  5 26  1  0  0  0
  5 90  1  0  0  0
  6 25  1  0  0  0
  6 91  1  0  0  0
  6 92  1  0  0  0
  7  8  2  0  0  0
  7 26  1  0  0  0
  7 29  1  0  0  0
  8  9  1  0  0  0
  8 22  1  0  0  0
  9 10  1  0  0  0
  9 27  2  0  0  0
 10 11  2  0  0  0
 10 15  1  0  0  0
 11 12  1  0  0  0
 11 93  1  0  0  0
 12 13  2  0  0  0
 12 94  1  0  0  0
 13 14  1  0  0  0
 13 31  1  0  0  0
 14 15  2  0  0  0
 14 95  1  0  0  0
 15 96  1  0  0  0
 16 17  2  0  0  0
 16 21  1  0  0  0
 16 31  1  0  0  0
 17 18  1  0  0  0
 17 97  1  0  0  0
 18 19  2  0  0  0
 18 98  1  0  0  0
 19 20  1  0  0  0
 19 24  1  0  0  0
 20 21  2  0  0  0
 20 99  1  0  0  0
 21 23  1  0  0  0
 22 28  1  0  0  0
 22 32  2  0  0  0
 26 27  1  0  0  0
 28100  1  0  0  0
 28101  1  0  0  0
 29102  1  0  0  0
 29103  1  0  0  0
 33 34  1  0  0  0
 33 66  1  0  0  0
 33 70  2  0  0  0
 34 36  1  0  0  0
 34 59  1  0  0  0
 34104  1  0  0  0
 35 44  2  0  0  0
 35 45  1  0  0  0
 35 68  1  0  0  0
 36 56  1  0  0  0
 36105  1  0  0  0
 37 39  1  0  0  0
 37 47  1  0  0  0
 37 66  1  0  0  0
 37106  1  0  0  0
 38 43  2  0  0  0
 38 46  1  0  0  0
 38 47  1  0  0  0
 39 64  1  0  0  0
 39 67  2  0  0  0
 40 52  1  0  0  0
 40 53  2  0  0  0
 40 58  1  0  0  0
 41107  1  0  0  0
 41108  1  0  0  0
 41109  1  0  0  0
 41 48  1  0  0  0
 42 43  1  0  0  0
 42 66  1  0  0  0
 42110  1  0  0  0
 42111  1  0  0  0
 43 44  1  0  0  0
 44112  1  0  0  0
 45 46  2  0  0  0
 45113  1  0  0  0
 46114  1  0  0  0
 47115  1  0  0  0
 47116  1  0  0  0
 48 56  1  0  0  0
 48 65  1  0  0  0
 48117  1  0  0  0
 49 50  1  0  0  0
 49 53  1  0  0  0
 49 64  1  0  0  0
 49118  1  0  0  0
 50 51  1  0  0  0
 50119  1  0  0  0
 50120  1  0  0  0
 51 52  1  0  0  0
 51121  1  0  0  0
 51122  1  0  0  0
 52123  1  0  0  0
 52124  1  0  0  0
 53 54  1  0  0  0
 54 55  2  0  0  0
 54125  1  0  0  0
 55 57  1  0  0  0
 55126  1  0  0  0
 56 69  2  0  0  0
 57 58  2  0  0  0
 57127  1  0  0  0
 58128  1  0  0  0
 59 60  1  0  0  0
 59 61  1  0  0  0
 59 62  1  0  0  0
 60129  1  0  0  0
 60130  1  0  0  0
 60131  1  0  0  0
 61132  1  0  0  0
 61133  1  0  0  0
 61134  1  0  0  0
 62135  1  0  0  0
 62136  1  0  0  0
 62137  1  0  0  0
 63 65  1  0  0  0
 63138  1  0  0  0
 63139  1  0  0  0
 63140  1  0  0  0
 64141  1  0  0  0
 65142  1  0  0  0
 68 81  1  0  0  0
 71 72  2  0  0  0
 71 74  1  0  0  0
 71143  1  0  0  0
 72 76  1  0  0  0
 72144  1  0  0  0
 73 74  2  0  0  0
 73 75  1  0  0  0
 73145  1  0  0  0
 74 79  1  0  0  0
 75 76  2  0  0  0
 75 77  1  0  0  0
 76 82  1  0  0  0
 77146  1  0  0  0
 77147  1  0  0  0
 77148  1  0  0  0
 78149  1  0  0  0
 78150  1  0  0  0
 78151  1  0  0  0
 78 83  1  0  0  0
 79 83  1  0  0  0
 79152  1  0  0  0
 79153  1  0  0  0
 80 81  1  0  0  0
 80 83  1  0  0  0
 80154  1  0  0  0
 80155  1  0  0  0
 81156  1  0  0  0
 81157  1  0  0  0
 82158  1  0  0  0
 83159  1  0  0  0
M  CHG  1  83   1
M  ISO  4   1 100  68 101  81 101  82 100
M  END
> <chiral flag>
0

> <version>
0

> <s_m_source_file>
/data/baiqing/PycharmProjects/Reinvent-master-3.2/result/LINK_invent/BTK/process_docking_weight1_custom_product_contain_oxygen_bond_distance_aromatic_linkinvent_7_9_3/rearranged_h_0013.sdf

> <i_m_source_file_index>
67

> <r_mmod_Potential_Energy-OPLS-2005>
-59.9554862976074

> <r_mmod_Stretch_Energy-OPLS-2005>
79.1656265258789

> <r_mmod_Bend_Energy-OPLS-2005>
152.762817382812

> <r_mmod_Torsional_Energy-OPLS-2005>
213.767150878906

> <r_mmod_Improper_Torsional_Energy-OPLS-2005>
5.0261344909668

> <r_mmod_Van_der_Waal_Energy-OPLS-2005>
151.810638427734

> <r_mmod_Electrostatic_Energy-OPLS-2005>
-266.357666015625

> <r_mmod_Solvation_Energy-OPLS-2005>
-436.529144287109

> <b_mmod_Minimization_Converged-OPLS-2005>
0

> <r_mmod_RMS_Derivative-OPLS-2005>
3.54204821586609

$$$$
68
                    3D
 Structure written by MMmdl.
154162  0  0  1  0            999 V2000
  -30.7208  -14.4233   20.5337 C   0  0  0  0  0  0
  -30.3958  -12.2647   19.4276 C   0  0  0  0  0  0
  -29.4850  -12.4881   18.2064 C   0  0  0  0  0  0
  -28.0034  -12.3689   18.6099 C   0  0  0  0  0  0
  -27.6500  -13.2113   19.8675 C   0  0  2  0  0  0
  -28.6856  -13.0122   20.9967 C   0  0  0  0  0  0
  -25.2538  -13.8189   20.5696 C   0  0  0  0  0  0
  -24.1791  -13.0443   20.9210 C   0  0  0  0  0  0
  -24.6344  -11.6926   20.8701 C   0  0  0  0  0  0
  -23.9007  -10.4299   21.0377 C   0  0  0  0  0  0
  -24.3587   -9.4241   21.9163 C   0  0  0  0  0  0
  -23.6293   -8.2245   22.0734 C   0  0  0  0  0  0
  -22.4282   -8.0253   21.3525 C   0  0  0  0  0  0
  -21.9881   -9.0219   20.4629 C   0  0  0  0  0  0
  -22.7169  -10.2125   20.3055 C   0  0  0  0  0  0
  -21.6856   -6.0715   22.5279 C   0  0  0  0  0  0
  -21.4010   -6.5636   23.8219 C   0  0  0  0  0  0
  -21.3662   -5.6798   24.9188 C   0  0  0  0  0  0
  -21.6051   -4.3047   24.7238 C   0  0  0  0  0  0
  -21.8817   -3.8145   23.4360 C   0  0  0  0  0  0
  -21.9206   -4.6944   22.3412 C   0  0  0  0  0  0
  -22.7837  -13.5231   21.1881 C   0  0  0  0  0  0
  -22.1679   -4.2160   21.0978 F   0  0  0  0  0  0
  -21.5638   -3.4517   25.7744 F   0  0  0  0  0  0
  -30.0191  -13.2695   20.4366 N   0  0  0  0  0  0
  -26.2945  -12.9356   20.3317 N   0  0  0  0  0  0
  -25.9261  -11.6502   20.5698 N   0  0  0  0  0  0
  -22.0498  -12.8205   22.0440 N   0  0  0  0  0  0
  -25.4287  -15.1889   20.4099 N   0  0  0  0  0  0
  -31.8965  -14.5130   20.1682 O   0  0  0  0  0  0
  -21.6646   -6.8842   21.4239 O   0  0  0  0  0  0
  -22.3498  -14.5521   20.6717 O   0  0  0  0  0  0
  -24.6194  -31.8678   23.2113 C   0  0  0  0  0  0
  -25.9084  -32.4828   23.8385 C   0  0  1  0  0  0
  -27.2038  -27.4111   20.0598 C   0  0  0  0  0  0
  -25.5911  -33.8634   24.2308 N   0  0  0  0  0  0
  -23.4034  -30.5012   21.5550 C   0  0  2  0  0  0
  -24.8363  -28.9688   20.1133 C   0  0  0  0  0  0
  -22.7417  -29.4678   22.4976 C   0  0  0  0  0  0
  -18.0291  -28.1371   22.8502 C   0  0  0  0  0  0
  -24.1495  -36.7319   23.2641 C   0  0  0  0  0  0
  -25.9397  -30.8221   21.3696 C   0  0  0  0  0  0
  -26.0056  -29.4587   20.7071 C   0  0  0  0  0  0
  -27.1941  -28.6868   20.6757 C   0  0  0  0  0  0
  -26.0018  -26.9376   19.4800 C   0  0  0  0  0  0
  -24.8295  -27.7079   19.5008 C   0  0  0  0  0  0
  -23.6089  -29.8491   20.1646 C   0  0  0  0  0  0
  -25.4119  -36.3114   24.0334 C   0  0  1  0  0  0
  -20.5888  -28.3662   23.1310 C   0  0  2  0  0  0
  -20.6793  -26.9395   22.5411 C   0  0  0  0  0  0
  -19.5760  -26.6385   21.5214 C   0  0  0  0  0  0
  -18.1940  -26.7924   22.1620 C   0  0  0  0  0  0
  -19.1543  -28.8831   23.2904 C   0  0  0  0  0  0
  -18.9471  -30.1439   23.8920 C   0  0  0  0  0  0
  -17.6472  -30.6574   24.0574 C   0  0  0  0  0  0
  -25.9053  -34.9481   23.5111 C   0  0  0  0  0  0
  -16.5365  -29.9089   23.6308 C   0  0  0  0  0  0
  -16.7285  -28.6499   23.0341 C   0  0  0  0  0  0
  -26.4485  -31.6627   25.0721 C   0  0  0  0  0  0
  -25.3763  -31.3781   26.1477 C   0  0  0  0  0  0
  -27.0294  -30.3058   24.6108 C   0  0  0  0  0  0
  -27.6022  -32.4388   25.7507 C   0  0  0  0  0  0
  -27.5585  -37.1818   24.8456 C   0  0  0  0  0  0
  -21.4147  -29.3026   22.3703 N   0  0  0  0  0  0
  -26.4300  -37.3793   23.9403 N   0  0  0  0  0  0
  -24.6724  -31.0792   22.1015 N   0  0  0  0  0  0
  -23.4195  -28.8209   23.3000 O   0  0  0  0  0  0
  -28.3702  -26.6656   20.0318 O   0  0  0  0  0  0
  -26.5612  -34.8926   22.4668 O   0  0  0  0  0  0
  -23.5370  -32.1445   23.7493 O   0  0  0  0  0  0
  -29.2379  -18.6593   21.3629 C   0  0  0  0  0  0
  -28.8917  -20.0347   21.3764 C   0  0  0  0  0  0
  -29.7837  -18.8567   19.0073 C   0  0  0  0  0  0
  -29.7733  -18.0900   20.1892 C   0  0  0  0  0  0
  -29.0591  -20.8515   20.2285 C   0  0  0  0  0  0
  -29.4258  -20.2104   19.0131 C   0  0  0  0  0  0
  -30.5514  -16.7797   20.1551 C   0  0  0  0  0  0
  -29.6142  -24.5615   19.7447 C   0  0  0  0  0  0
  -28.2666  -25.2899   19.6155 C   0  0  0  0  0  0
  -29.5593  -23.0602   19.3943 C   0  0  0  0  0  0
  -30.0102  -15.5495   20.7407 N   0  0  0  0  0  0
  -28.8913  -22.2271   20.3584 O   0  0  0  0  0  0
  -29.5041  -20.8705   17.8321 F   0  0  0  0  0  0
  -31.4432  -12.3284   19.1252 H   0  0  0  0  0  0
  -30.2637  -11.2571   19.8251 H   0  0  0  0  0  0
  -29.7110  -11.7643   17.4212 H   0  0  0  0  0  0
  -29.6732  -13.4726   17.7764 H   0  0  0  0  0  0
  -27.7869  -11.3141   18.7875 H   0  0  0  0  0  0
  -27.3686  -12.6712   17.7748 H   0  0  0  0  0  0
  -27.6872  -14.2556   19.5598 H   0  0  0  0  0  0
  -28.6442  -11.9931   21.3842 H   0  0  0  0  0  0
  -28.4649  -13.6610   21.8451 H   0  0  0  0  0  0
  -25.2746   -9.5761   22.4704 H   0  0  0  0  0  0
  -24.0050   -7.4642   22.7416 H   0  0  0  0  0  0
  -21.0839   -8.8694   19.8901 H   0  0  0  0  0  0
  -22.3612  -10.9643   19.6144 H   0  0  0  0  0  0
  -21.1998   -7.6155   23.9712 H   0  0  0  0  0  0
  -21.1480   -6.0536   25.9085 H   0  0  0  0  0  0
  -22.0601   -2.7598   23.2862 H   0  0  0  0  0  0
  -22.4143  -11.9886   22.4844 H   0  0  0  0  0  0
  -21.1084  -13.1156   22.2570 H   0  0  0  0  0  0
  -24.6645  -15.8491   20.5187 H   0  0  0  0  0  0
  -26.2825  -15.6253   20.0847 H   0  0  0  0  0  0
  -26.7141  -32.5512   23.1128 H   0  0  0  0  0  0
  -25.0046  -33.9801   25.0439 H   0  0  0  0  0  0
  -22.6938  -31.3217   21.4277 H   0  0  0  0  0  0
  -23.3729  -35.9673   23.3319 H   0  0  0  0  0  0
  -24.3585  -36.8914   22.2047 H   0  0  0  0  0  0
  -23.7269  -37.6541   23.6641 H   0  0  0  0  0  0
  -26.0685  -31.5922   20.6078 H   0  0  0  0  0  0
  -26.8235  -30.8615   21.9955 H   0  0  0  0  0  0
  -28.0991  -29.0632   21.1303 H   0  0  0  0  0  0
  -25.9306  -25.9743   18.9989 H   0  0  0  0  0  0
  -23.9273  -27.3265   19.0434 H   0  0  0  0  0  0
  -23.7353  -30.6369   19.4190 H   0  0  0  0  0  0
  -22.7234  -29.2936   19.8508 H   0  0  0  0  0  0
  -25.1309  -36.1957   25.0828 H   0  0  0  0  0  0
  -21.0027  -28.3217   24.1412 H   0  0  0  0  0  0
  -20.5722  -26.2260   23.3598 H   0  0  0  0  0  0
  -21.6657  -26.7460   22.1186 H   0  0  0  0  0  0
  -19.6932  -25.6306   21.1219 H   0  0  0  0  0  0
  -19.6699  -27.3214   20.6758 H   0  0  0  0  0  0
  -17.4226  -26.6694   21.3999 H   0  0  0  0  0  0
  -18.0323  -26.0058   22.9003 H   0  0  0  0  0  0
  -19.7950  -30.7250   24.2293 H   0  0  0  0  0  0
  -17.5029  -31.6262   24.5168 H   0  0  0  0  0  0
  -15.5367  -30.3003   23.7614 H   0  0  0  0  0  0
  -15.8684  -28.0833   22.7032 H   0  0  0  0  0  0
  -24.5841  -30.7242   25.7809 H   0  0  0  0  0  0
  -24.9090  -32.2987   26.4988 H   0  0  0  0  0  0
  -25.8110  -30.8865   27.0190 H   0  0  0  0  0  0
  -26.2815  -29.6851   24.1158 H   0  0  0  0  0  0
  -27.4033  -29.7269   25.4557 H   0  0  0  0  0  0
  -27.8675  -30.4346   23.9259 H   0  0  0  0  0  0
  -27.2546  -33.3629   26.2145 H   0  0  0  0  0  0
  -28.3792  -32.7089   25.0347 H   0  0  0  0  0  0
  -28.0729  -31.8515   26.5391 H   0  0  0  0  0  0
  -28.2606  -38.0118   24.7502 H   0  0  0  0  0  0
  -28.1092  -36.2646   24.6288 H   0  0  0  0  0  0
  -27.2312  -37.1476   25.8867 H   0  0  0  0  0  0
  -20.9296  -29.8761   21.6952 H   0  0  0  0  0  0
  -26.0175  -38.2869   24.1399 H   0  0  0  0  0  0
  -29.1858  -18.0796   22.2756 H   0  0  0  0  0  0
  -28.5657  -20.4791   22.3067 H   0  0  0  0  0  0
  -30.1441  -18.4355   18.0811 H   0  0  0  0  0  0
  -31.5271  -16.9922   20.5981 H   0  0  0  0  0  0
  -30.7631  -16.5563   19.1039 H   0  0  0  0  0  0
  -30.0526  -24.7084   20.7324 H   0  0  0  0  0  0
  -30.2984  -25.0292   19.0326 H   0  0  0  0  0  0
  -27.5187  -24.7651   20.2146 H   0  0  0  0  0  0
  -27.9459  -25.2294   18.5720 H   0  0  0  0  0  0
  -30.5884  -22.7125   19.2791 H   0  0  0  0  0  0
  -29.0670  -22.9821   18.4263 H   0  0  0  0  0  0
  -29.0377  -15.4963   21.0057 H   0  0  0  0  0  0
  1 25  1  0  0  0
  1 30  2  0  0  0
  1 81  1  0  0  0
  2  3  1  0  0  0
  2 25  1  0  0  0
  2 84  1  0  0  0
  2 85  1  0  0  0
  3  4  1  0  0  0
  3 86  1  0  0  0
  3 87  1  0  0  0
  4  5  1  0  0  0
  4 88  1  0  0  0
  4 89  1  0  0  0
  5  6  1  0  0  0
  5 26  1  0  0  0
  5 90  1  0  0  0
  6 25  1  0  0  0
  6 91  1  0  0  0
  6 92  1  0  0  0
  7  8  2  0  0  0
  7 26  1  0  0  0
  7 29  1  0  0  0
  8  9  1  0  0  0
  8 22  1  0  0  0
  9 10  1  0  0  0
  9 27  2  0  0  0
 10 11  2  0  0  0
 10 15  1  0  0  0
 11 12  1  0  0  0
 11 93  1  0  0  0
 12 13  2  0  0  0
 12 94  1  0  0  0
 13 14  1  0  0  0
 13 31  1  0  0  0
 14 15  2  0  0  0
 14 95  1  0  0  0
 15 96  1  0  0  0
 16 17  2  0  0  0
 16 21  1  0  0  0
 16 31  1  0  0  0
 17 18  1  0  0  0
 17 97  1  0  0  0
 18 19  2  0  0  0
 18 98  1  0  0  0
 19 20  1  0  0  0
 19 24  1  0  0  0
 20 21  2  0  0  0
 20 99  1  0  0  0
 21 23  1  0  0  0
 22 28  1  0  0  0
 22 32  2  0  0  0
 26 27  1  0  0  0
 28100  1  0  0  0
 28101  1  0  0  0
 29102  1  0  0  0
 29103  1  0  0  0
 33 34  1  0  0  0
 33 66  1  0  0  0
 33 70  2  0  0  0
 34 36  1  0  0  0
 34 59  1  0  0  0
 34104  1  0  0  0
 35 44  2  0  0  0
 35 45  1  0  0  0
 35 68  1  0  0  0
 36 56  1  0  0  0
 36105  1  0  0  0
 37 39  1  0  0  0
 37 47  1  0  0  0
 37 66  1  0  0  0
 37106  1  0  0  0
 38 43  2  0  0  0
 38 46  1  0  0  0
 38 47  1  0  0  0
 39 64  1  0  0  0
 39 67  2  0  0  0
 40 52  1  0  0  0
 40 53  2  0  0  0
 40 58  1  0  0  0
 41107  1  0  0  0
 41108  1  0  0  0
 41109  1  0  0  0
 41 48  1  0  0  0
 42 43  1  0  0  0
 42 66  1  0  0  0
 42110  1  0  0  0
 42111  1  0  0  0
 43 44  1  0  0  0
 44112  1  0  0  0
 45 46  2  0  0  0
 45113  1  0  0  0
 46114  1  0  0  0
 47115  1  0  0  0
 47116  1  0  0  0
 48 56  1  0  0  0
 48 65  1  0  0  0
 48117  1  0  0  0
 49 50  1  0  0  0
 49 53  1  0  0  0
 49 64  1  0  0  0
 49118  1  0  0  0
 50 51  1  0  0  0
 50119  1  0  0  0
 50120  1  0  0  0
 51 52  1  0  0  0
 51121  1  0  0  0
 51122  1  0  0  0
 52123  1  0  0  0
 52124  1  0  0  0
 53 54  1  0  0  0
 54 55  2  0  0  0
 54125  1  0  0  0
 55 57  1  0  0  0
 55126  1  0  0  0
 56 69  2  0  0  0
 57 58  2  0  0  0
 57127  1  0  0  0
 58128  1  0  0  0
 59 60  1  0  0  0
 59 61  1  0  0  0
 59 62  1  0  0  0
 60129  1  0  0  0
 60130  1  0  0  0
 60131  1  0  0  0
 61132  1  0  0  0
 61133  1  0  0  0
 61134  1  0  0  0
 62135  1  0  0  0
 62136  1  0  0  0
 62137  1  0  0  0
 63 65  1  0  0  0
 63138  1  0  0  0
 63139  1  0  0  0
 63140  1  0  0  0
 64141  1  0  0  0
 65142  1  0  0  0
 68 79  1  0  0  0
 71 72  2  0  0  0
 71 74  1  0  0  0
 71143  1  0  0  0
 72 75  1  0  0  0
 72144  1  0  0  0
 73 74  2  0  0  0
 73 76  1  0  0  0
 73145  1  0  0  0
 74 77  1  0  0  0
 75 76  2  0  0  0
 75 82  1  0  0  0
 76 83  1  0  0  0
 77 81  1  0  0  0
 77146  1  0  0  0
 77147  1  0  0  0
 78 79  1  0  0  0
 78 80  1  0  0  0
 78148  1  0  0  0
 78149  1  0  0  0
 79150  1  0  0  0
 79151  1  0  0  0
 80 82  1  0  0  0
 80152  1  0  0  0
 80153  1  0  0  0
 81154  1  0  0  0
M  ISO  4   1 100  68 101  79 101  81 100
M  END
> <chiral flag>
0

> <version>
0

> <s_m_source_file>
/data/baiqing/PycharmProjects/Reinvent-master-3.2/result/LINK_invent/BTK/process_docking_weight1_custom_product_contain_oxygen_bond_distance_aromatic_linkinvent_7_9_3/rearranged_h_0013.sdf

> <i_m_source_file_index>
68

> <r_mmod_Potential_Energy-OPLS-2005>
-37.7589836120605

> <r_mmod_Stretch_Energy-OPLS-2005>
37.3119201660156

> <r_mmod_Bend_Energy-OPLS-2005>
112.144645690918

> <r_mmod_Torsional_Energy-OPLS-2005>
223.52961730957

> <r_mmod_Improper_Torsional_Energy-OPLS-2005>
10.0917682647705

> <r_mmod_Van_der_Waal_Energy-OPLS-2005>
175.78059387207

> <r_mmod_Electrostatic_Energy-OPLS-2005>
-410.294860839844

> <r_mmod_Solvation_Energy-OPLS-2005>
-206.057235717773

> <b_mmod_Minimization_Converged-OPLS-2005>
0

> <r_mmod_RMS_Derivative-OPLS-2005>
4.96707916259766

$$$$
69
                    3D
 Structure written by MMmdl.
153162  0  0  1  0            999 V2000
  -30.5041  -14.9487   20.4277 C   0  0  0  0  0  0
  -30.4546  -12.5902   19.4880 C   0  0  0  0  0  0
  -29.5250  -12.5287   18.2517 C   0  0  0  0  0  0
  -28.0582  -12.3085   18.6739 C   0  0  0  0  0  0
  -27.6339  -13.2393   19.8399 C   0  0  2  0  0  0
  -28.6783  -13.2464   20.9767 C   0  0  0  0  0  0
  -25.2496  -13.8204   20.5718 C   0  0  0  0  0  0
  -24.1801  -13.0435   20.9234 C   0  0  0  0  0  0
  -24.6400  -11.6915   20.8762 C   0  0  0  0  0  0
  -23.9078  -10.4289   21.0417 C   0  0  0  0  0  0
  -24.3627   -9.4204   21.9189 C   0  0  0  0  0  0
  -23.6299   -8.2241   22.0758 C   0  0  0  0  0  0
  -22.4280   -8.0284   21.3547 C   0  0  0  0  0  0
  -21.9918   -9.0258   20.4646 C   0  0  0  0  0  0
  -22.7253  -10.2133   20.3058 C   0  0  0  0  0  0
  -21.6852   -6.0742   22.5281 C   0  0  0  0  0  0
  -21.4013   -6.5643   23.8215 C   0  0  0  0  0  0
  -21.3659   -5.6793   24.9174 C   0  0  0  0  0  0
  -21.6043   -4.3057   24.7221 C   0  0  0  0  0  0
  -21.8819   -3.8149   23.4342 C   0  0  0  0  0  0
  -21.9192   -4.6969   22.3402 C   0  0  0  0  0  0
  -22.7816  -13.5211   21.1889 C   0  0  0  0  0  0
  -22.1658   -4.2157   21.0981 F   0  0  0  0  0  0
  -21.5629   -3.4539   25.7733 F   0  0  0  0  0  0
  -29.9540  -13.6702   20.3818 N   0  0  0  0  0  0
  -26.2908  -12.9410   20.3238 N   0  0  0  0  0  0
  -25.9330  -11.6549   20.5738 N   0  0  0  0  0  0
  -22.0458  -12.8197   22.0434 N   0  0  0  0  0  0
  -25.4149  -15.1943   20.4162 N   0  0  0  0  0  0
  -31.7096  -15.0666   20.1789 O   0  0  0  0  0  0
  -21.6640   -6.8886   21.4242 O   0  0  0  0  0  0
  -22.3499  -14.5522   20.6739 O   0  0  0  0  0  0
  -24.6432  -31.8427   23.1850 C   0  0  0  0  0  0
  -25.9197  -32.4697   23.8249 C   0  0  1  0  0  0
  -27.2259  -27.1367   20.1660 C   0  0  0  0  0  0
  -25.5945  -33.8500   24.2180 N   0  0  0  0  0  0
  -23.4479  -30.4591   21.5304 C   0  0  2  0  0  0
  -24.8984  -28.8748   20.1182 C   0  0  0  0  0  0
  -22.7566  -29.4542   22.4858 C   0  0  0  0  0  0
  -18.0300  -28.1404   22.8483 C   0  0  0  0  0  0
  -24.1480  -36.7244   23.2642 C   0  0  0  0  0  0
  -26.0014  -30.7197   21.3784 C   0  0  0  0  0  0
  -26.0754  -29.3263   20.7290 C   0  0  0  0  0  0
  -27.2427  -28.4757   20.7276 C   0  0  0  0  0  0
  -26.0215  -26.7733   19.5305 C   0  0  0  0  0  0
  -24.8829  -27.6117   19.5033 C   0  0  0  0  0  0
  -23.6752  -29.7783   20.1534 C   0  0  0  0  0  0
  -25.4111  -36.3028   24.0319 C   0  0  1  0  0  0
  -20.5915  -28.3722   23.1240 C   0  0  2  0  0  0
  -20.6783  -26.9425   22.5405 C   0  0  0  0  0  0
  -19.5754  -26.6387   21.5216 C   0  0  0  0  0  0
  -18.1935  -26.7946   22.1625 C   0  0  0  0  0  0
  -19.1558  -28.8879   23.2857 C   0  0  0  0  0  0
  -18.9481  -30.1477   23.8882 C   0  0  0  0  0  0
  -17.6479  -30.6603   24.0566 C   0  0  0  0  0  0
  -25.9068  -34.9410   23.5059 C   0  0  0  0  0  0
  -16.5367  -29.9101   23.6342 C   0  0  0  0  0  0
  -16.7285  -28.6518   23.0363 C   0  0  0  0  0  0
  -26.4524  -31.6563   25.0689 C   0  0  0  0  0  0
  -25.3722  -31.3760   26.1398 C   0  0  0  0  0  0
  -27.0376  -30.2964   24.6237 C   0  0  0  0  0  0
  -27.6060  -32.4319   25.7476 C   0  0  0  0  0  0
  -27.5572  -37.1764   24.8460 C   0  0  0  0  0  0
  -21.4258  -29.3055   22.3613 N   0  0  0  0  0  0
  -26.4267  -37.3751   23.9432 N   0  0  0  0  0  0
  -24.7178  -31.0284   22.0876 N   0  0  0  0  0  0
  -23.4207  -28.8095   23.3016 O   0  0  0  0  0  0
  -28.3080  -26.1877   20.1615 O   0  0  0  0  0  0
  -26.5656  -34.8913   22.4638 O   0  0  0  0  0  0
  -23.5550  -32.1284   23.7075 O   0  0  0  0  0  0
  -30.2724  -19.9540   21.1842 C   0  0  0  0  0  0
  -30.4759  -18.5089   21.1566 C   0  0  0  0  0  0
  -28.4171  -19.7578   19.7614 C   0  0  0  0  0  0
  -29.2301  -20.6841   20.4977 C   0  0  0  0  0  0
  -29.6301  -17.5898   20.4517 C   0  0  0  0  0  0
  -28.5875  -18.3078   19.7625 C   0  0  0  0  0  0
  -29.2036  -24.3813   21.6978 C   0  0  0  0  0  0
  -29.2786  -22.8317   21.9033 C   0  0  0  0  0  0
  -28.4313  -23.2906   19.7547 C   0  0  0  0  0  0
  -28.1731  -24.6957   20.5955 C   0  0  2  0  0  0
  -29.0260  -22.1660   20.6225 N   0  0  0  0  0  0
  -29.6201  -16.0545   20.5264 N   0  0  0  0  0  0
  -27.6779  -17.5666   19.0837 F   0  0  0  0  0  0
  -31.4824  -12.7750   19.1718 H   0  0  0  0  0  0
  -30.4699  -11.6337   20.0126 H   0  0  0  0  0  0
  -29.8448  -11.7327   17.5778 H   0  0  0  0  0  0
  -29.6054  -13.4584   17.6865 H   0  0  0  0  0  0
  -27.9592  -11.2672   18.9830 H   0  0  0  0  0  0
  -27.3916  -12.4364   17.8201 H   0  0  0  0  0  0
  -27.6001  -14.2432   19.4162 H   0  0  0  0  0  0
  -28.7685  -12.2610   21.4366 H   0  0  0  0  0  0
  -28.3779  -13.9302   21.7728 H   0  0  0  0  0  0
  -25.2775   -9.5681   22.4761 H   0  0  0  0  0  0
  -24.0007   -7.4633   22.7479 H   0  0  0  0  0  0
  -21.0850   -8.8780   19.8949 H   0  0  0  0  0  0
  -22.3720  -10.9673   19.6164 H   0  0  0  0  0  0
  -21.2003   -7.6151   23.9722 H   0  0  0  0  0  0
  -21.1480   -6.0521   25.9079 H   0  0  0  0  0  0
  -22.0599   -2.7611   23.2838 H   0  0  0  0  0  0
  -22.4066  -11.9845   22.4809 H   0  0  0  0  0  0
  -21.1074  -13.1221   22.2641 H   0  0  0  0  0  0
  -24.6406  -15.8370   20.5432 H   0  0  0  0  0  0
  -26.2372  -15.6466   20.0374 H   0  0  0  0  0  0
  -26.7264  -32.5309   23.0978 H   0  0  0  0  0  0
  -25.0088  -33.9609   25.0330 H   0  0  0  0  0  0
  -22.7514  -31.2845   21.3702 H   0  0  0  0  0  0
  -23.3760  -35.9558   23.3274 H   0  0  0  0  0  0
  -24.3570  -36.8896   22.2061 H   0  0  0  0  0  0
  -23.7203  -37.6424   23.6686 H   0  0  0  0  0  0
  -26.1457  -31.4684   20.5980 H   0  0  0  0  0  0
  -26.8771  -30.7813   22.0130 H   0  0  0  0  0  0
  -28.1477  -28.8247   21.2046 H   0  0  0  0  0  0
  -25.9524  -25.8025   19.0594 H   0  0  0  0  0  0
  -23.9827  -27.2592   19.0189 H   0  0  0  0  0  0
  -23.8138  -30.5472   19.3925 H   0  0  0  0  0  0
  -22.7910  -29.2178   19.8442 H   0  0  0  0  0  0
  -25.1292  -36.1846   25.0810 H   0  0  0  0  0  0
  -21.0006  -28.3305   24.1361 H   0  0  0  0  0  0
  -20.5671  -26.2338   23.3626 H   0  0  0  0  0  0
  -21.6647  -26.7426   22.1200 H   0  0  0  0  0  0
  -19.6915  -25.6295   21.1250 H   0  0  0  0  0  0
  -19.6694  -27.3197   20.6747 H   0  0  0  0  0  0
  -17.4205  -26.6696   21.4028 H   0  0  0  0  0  0
  -18.0329  -26.0097   22.9026 H   0  0  0  0  0  0
  -19.7960  -30.7299   24.2240 H   0  0  0  0  0  0
  -17.5038  -31.6284   24.5167 H   0  0  0  0  0  0
  -15.5369  -30.3004   23.7684 H   0  0  0  0  0  0
  -15.8680  -28.0836   22.7093 H   0  0  0  0  0  0
  -24.5904  -30.7097   25.7730 H   0  0  0  0  0  0
  -24.8917  -32.2953   26.4757 H   0  0  0  0  0  0
  -25.8021  -30.8982   27.0210 H   0  0  0  0  0  0
  -26.2974  -29.6698   24.1247 H   0  0  0  0  0  0
  -27.4017  -29.7241   25.4780 H   0  0  0  0  0  0
  -27.8868  -30.4213   23.9515 H   0  0  0  0  0  0
  -27.2669  -33.3665   26.1953 H   0  0  0  0  0  0
  -28.3934  -32.6790   25.0344 H   0  0  0  0  0  0
  -28.0651  -31.8498   26.5475 H   0  0  0  0  0  0
  -28.2545  -38.0106   24.7564 H   0  0  0  0  0  0
  -28.1109  -36.2635   24.6205 H   0  0  0  0  0  0
  -27.2306  -37.1310   25.8866 H   0  0  0  0  0  0
  -20.9464  -29.8775   21.6799 H   0  0  0  0  0  0
  -26.0126  -38.2803   24.1496 H   0  0  0  0  0  0
  -30.9723  -20.5185   21.7831 H   0  0  0  0  0  0
  -31.2846  -18.1031   21.7470 H   0  0  0  0  0  0
  -27.5822  -20.1552   19.2042 H   0  0  0  0  0  0
  -30.1810  -24.7370   21.3703 H   0  0  0  0  0  0
  -28.9774  -24.9026   22.6282 H   0  0  0  0  0  0
  -28.5104  -22.5178   22.6114 H   0  0  0  0  0  0
  -30.2415  -22.5510   22.3301 H   0  0  0  0  0  0
  -29.1354  -23.4884   18.9457 H   0  0  0  0  0  0
  -27.5066  -22.9572   19.2810 H   0  0  0  0  0  0
  -27.1868  -24.6017   21.0531 H   0  0  0  0  0  0
  -28.6743  -15.7065   20.5422 H   0  0  0  0  0  0
  1 25  1  0  0  0
  1 30  2  0  0  0
  1 82  1  0  0  0
  2  3  1  0  0  0
  2 25  1  0  0  0
  2 84  1  0  0  0
  2 85  1  0  0  0
  3  4  1  0  0  0
  3 86  1  0  0  0
  3 87  1  0  0  0
  4  5  1  0  0  0
  4 88  1  0  0  0
  4 89  1  0  0  0
  5  6  1  0  0  0
  5 26  1  0  0  0
  5 90  1  0  0  0
  6 25  1  0  0  0
  6 91  1  0  0  0
  6 92  1  0  0  0
  7  8  2  0  0  0
  7 26  1  0  0  0
  7 29  1  0  0  0
  8  9  1  0  0  0
  8 22  1  0  0  0
  9 10  1  0  0  0
  9 27  2  0  0  0
 10 11  2  0  0  0
 10 15  1  0  0  0
 11 12  1  0  0  0
 11 93  1  0  0  0
 12 13  2  0  0  0
 12 94  1  0  0  0
 13 14  1  0  0  0
 13 31  1  0  0  0
 14 15  2  0  0  0
 14 95  1  0  0  0
 15 96  1  0  0  0
 16 17  2  0  0  0
 16 21  1  0  0  0
 16 31  1  0  0  0
 17 18  1  0  0  0
 17 97  1  0  0  0
 18 19  2  0  0  0
 18 98  1  0  0  0
 19 20  1  0  0  0
 19 24  1  0  0  0
 20 21  2  0  0  0
 20 99  1  0  0  0
 21 23  1  0  0  0
 22 28  1  0  0  0
 22 32  2  0  0  0
 26 27  1  0  0  0
 28100  1  0  0  0
 28101  1  0  0  0
 29102  1  0  0  0
 29103  1  0  0  0
 33 34  1  0  0  0
 33 66  1  0  0  0
 33 70  2  0  0  0
 34 36  1  0  0  0
 34 59  1  0  0  0
 34104  1  0  0  0
 35 44  2  0  0  0
 35 45  1  0  0  0
 35 68  1  0  0  0
 36 56  1  0  0  0
 36105  1  0  0  0
 37 39  1  0  0  0
 37 47  1  0  0  0
 37 66  1  0  0  0
 37106  1  0  0  0
 38 43  2  0  0  0
 38 46  1  0  0  0
 38 47  1  0  0  0
 39 64  1  0  0  0
 39 67  2  0  0  0
 40 52  1  0  0  0
 40 53  2  0  0  0
 40 58  1  0  0  0
 41107  1  0  0  0
 41108  1  0  0  0
 41109  1  0  0  0
 41 48  1  0  0  0
 42 43  1  0  0  0
 42 66  1  0  0  0
 42110  1  0  0  0
 42111  1  0  0  0
 43 44  1  0  0  0
 44112  1  0  0  0
 45 46  2  0  0  0
 45113  1  0  0  0
 46114  1  0  0  0
 47115  1  0  0  0
 47116  1  0  0  0
 48 56  1  0  0  0
 48 65  1  0  0  0
 48117  1  0  0  0
 49 50  1  0  0  0
 49 53  1  0  0  0
 49 64  1  0  0  0
 49118  1  0  0  0
 50 51  1  0  0  0
 50119  1  0  0  0
 50120  1  0  0  0
 51 52  1  0  0  0
 51121  1  0  0  0
 51122  1  0  0  0
 52123  1  0  0  0
 52124  1  0  0  0
 53 54  1  0  0  0
 54 55  2  0  0  0
 54125  1  0  0  0
 55 57  1  0  0  0
 55126  1  0  0  0
 56 69  2  0  0  0
 57 58  2  0  0  0
 57127  1  0  0  0
 58128  1  0  0  0
 59 60  1  0  0  0
 59 61  1  0  0  0
 59 62  1  0  0  0
 60129  1  0  0  0
 60130  1  0  0  0
 60131  1  0  0  0
 61132  1  0  0  0
 61133  1  0  0  0
 61134  1  0  0  0
 62135  1  0  0  0
 62136  1  0  0  0
 62137  1  0  0  0
 63 65  1  0  0  0
 63138  1  0  0  0
 63139  1  0  0  0
 63140  1  0  0  0
 64141  1  0  0  0
 65142  1  0  0  0
 68 80  1  0  0  0
 71 72  2  0  0  0
 71 74  1  0  0  0
 71143  1  0  0  0
 72 75  1  0  0  0
 72144  1  0  0  0
 73 74  2  0  0  0
 73 76  1  0  0  0
 73145  1  0  0  0
 74 81  1  0  0  0
 75 76  2  0  0  0
 75 82  1  0  0  0
 76 83  1  0  0  0
 77 78  1  0  0  0
 77 80  1  0  0  0
 77146  1  0  0  0
 77147  1  0  0  0
 78 81  1  0  0  0
 78148  1  0  0  0
 78149  1  0  0  0
 79 80  1  0  0  0
 79 81  1  0  0  0
 79150  1  0  0  0
 79151  1  0  0  0
 80152  1  0  0  0
 82153  1  0  0  0
M  ISO  4   1 100  68 101  80 101  82 100
M  END
> <chiral flag>
0

> <version>
0

> <s_m_source_file>
/data/baiqing/PycharmProjects/Reinvent-master-3.2/result/LINK_invent/BTK/process_docking_weight1_custom_product_contain_oxygen_bond_distance_aromatic_linkinvent_7_9_3/rearranged_h_0013.sdf

> <i_m_source_file_index>
69

> <r_mmod_Potential_Energy-OPLS-2005>
511.134216308594

> <r_mmod_Stretch_Energy-OPLS-2005>
215.138229370117

> <r_mmod_Bend_Energy-OPLS-2005>
311.854766845703

> <r_mmod_Torsional_Energy-OPLS-2005>
297.146484375

> <r_mmod_Improper_Torsional_Energy-OPLS-2005>
6.74517917633057

> <r_mmod_Van_der_Waal_Energy-OPLS-2005>
122.15104675293

> <r_mmod_Electrostatic_Energy-OPLS-2005>
-410.138092041016

> <r_mmod_Solvation_Energy-OPLS-2005>
-221.11376953125

> <b_mmod_Minimization_Converged-OPLS-2005>
0

> <r_mmod_RMS_Derivative-OPLS-2005>
0.983909428119659

$$$$
70
                    3D
 Structure written by MMmdl.
155163  0  0  1  0            999 V2000
  -30.5491  -14.9706   20.3392 C   0  0  0  0  0  0
  -30.4533  -12.5772   19.4956 C   0  0  0  0  0  0
  -29.5306  -12.4242   18.2624 C   0  0  0  0  0  0
  -28.0545  -12.2614   18.6848 C   0  0  0  0  0  0
  -27.6224  -13.2149   19.8317 C   0  0  2  0  0  0
  -28.6800  -13.3110   20.9517 C   0  0  0  0  0  0
  -25.2510  -13.8132   20.5801 C   0  0  0  0  0  0
  -24.1780  -13.0408   20.9278 C   0  0  0  0  0  0
  -24.6349  -11.6878   20.8806 C   0  0  0  0  0  0
  -23.9026  -10.4273   21.0445 C   0  0  0  0  0  0
  -24.3588   -9.4189   21.9211 C   0  0  0  0  0  0
  -23.6277   -8.2219   22.0756 C   0  0  0  0  0  0
  -22.4263   -8.0262   21.3538 C   0  0  0  0  0  0
  -21.9889   -9.0241   20.4651 C   0  0  0  0  0  0
  -22.7212  -10.2123   20.3081 C   0  0  0  0  0  0
  -21.6849   -6.0729   22.5279 C   0  0  0  0  0  0
  -21.4013   -6.5634   23.8213 C   0  0  0  0  0  0
  -21.3664   -5.6781   24.9173 C   0  0  0  0  0  0
  -21.6050   -4.3044   24.7224 C   0  0  0  0  0  0
  -21.8820   -3.8137   23.4343 C   0  0  0  0  0  0
  -21.9191   -4.6956   22.3402 C   0  0  0  0  0  0
  -22.7808  -13.5223   21.1891 C   0  0  0  0  0  0
  -22.1658   -4.2145   21.0978 F   0  0  0  0  0  0
  -21.5626   -3.4533   25.7746 F   0  0  0  0  0  0
  -29.9475  -13.7086   20.3196 N   0  0  0  0  0  0
  -26.2877  -12.9274   20.3324 N   0  0  0  0  0  0
  -25.9273  -11.6445   20.5818 N   0  0  0  0  0  0
  -22.0406  -12.8242   22.0429 N   0  0  0  0  0  0
  -25.4228  -15.1858   20.4269 N   0  0  0  0  0  0
  -31.7797  -15.0065   20.2341 O   0  0  0  0  0  0
  -21.6620   -6.8867   21.4243 O   0  0  0  0  0  0
  -22.3530  -14.5531   20.6714 O   0  0  0  0  0  0
  -24.6395  -31.8464   23.1896 C   0  0  0  0  0  0
  -25.9186  -32.4712   23.8281 C   0  0  1  0  0  0
  -27.2343  -27.1687   20.1550 C   0  0  0  0  0  0
  -25.5949  -33.8517   24.2197 N   0  0  0  0  0  0
  -23.4438  -30.4633   21.5333 C   0  0  2  0  0  0
  -24.8977  -28.8941   20.1087 C   0  0  0  0  0  0
  -22.7558  -29.4555   22.4870 C   0  0  0  0  0  0
  -18.0298  -28.1389   22.8480 C   0  0  0  0  0  0
  -24.1486  -36.7252   23.2643 C   0  0  0  0  0  0
  -25.9959  -30.7282   21.3870 C   0  0  0  0  0  0
  -26.0690  -29.3420   20.7305 C   0  0  0  0  0  0
  -27.2342  -28.4936   20.7408 C   0  0  0  0  0  0
  -26.0417  -26.8205   19.4783 C   0  0  0  0  0  0
  -24.8953  -27.6453   19.4675 C   0  0  0  0  0  0
  -23.6699  -29.7888   20.1528 C   0  0  0  0  0  0
  -25.4125  -36.3043   24.0317 C   0  0  1  0  0  0
  -20.5909  -28.3714   23.1236 C   0  0  2  0  0  0
  -20.6777  -26.9421   22.5404 C   0  0  0  0  0  0
  -19.5752  -26.6380   21.5211 C   0  0  0  0  0  0
  -18.1934  -26.7928   22.1628 C   0  0  0  0  0  0
  -19.1556  -28.8873   23.2849 C   0  0  0  0  0  0
  -18.9475  -30.1466   23.8879 C   0  0  0  0  0  0
  -17.6476  -30.6589   24.0560 C   0  0  0  0  0  0
  -25.9072  -34.9416   23.5071 C   0  0  0  0  0  0
  -16.5363  -29.9080   23.6335 C   0  0  0  0  0  0
  -16.7286  -28.6498   23.0364 C   0  0  0  0  0  0
  -26.4520  -31.6572   25.0712 C   0  0  0  0  0  0
  -25.3719  -31.3753   26.1416 C   0  0  0  0  0  0
  -27.0384  -30.2975   24.6276 C   0  0  0  0  0  0
  -27.6040  -32.4349   25.7498 C   0  0  0  0  0  0
  -27.5573  -37.1789   24.8472 C   0  0  0  0  0  0
  -21.4254  -29.3045   22.3618 N   0  0  0  0  0  0
  -26.4289  -37.3759   23.9406 N   0  0  0  0  0  0
  -24.7118  -31.0345   22.0916 N   0  0  0  0  0  0
  -23.4210  -28.8118   23.3025 O   0  0  0  0  0  0
  -28.3084  -26.2178   20.2634 O   0  0  0  0  0  0
  -26.5656  -34.8911   22.4643 O   0  0  0  0  0  0
  -23.5518  -32.1329   23.7133 O   0  0  0  0  0  0
  -30.8762  -18.4952   19.8513 C   0  0  0  0  0  0
  -30.7376  -19.9349   19.7513 C   0  0  0  0  0  0
  -28.7672  -18.4077   20.8943 C   0  0  0  0  0  0
  -29.8770  -17.6328   20.3961 C   0  0  0  0  0  0
  -29.5945  -20.7158   20.1721 C   0  0  0  0  0  0
  -28.6321  -19.8570   20.8098 C   0  0  0  0  0  0
  -29.0287  -16.0952   18.7978 C   0  0  0  0  0  0
  -30.2683  -22.5479   18.6918 C   0  0  0  0  0  0
  -28.9755  -23.4177   20.6280 C   0  0  0  0  0  0
  -28.1605  -24.7143   19.9316 C   0  0  0  0  0  0
  -29.7642  -16.1444   20.0696 N   0  0  0  0  0  0
  -29.4184  -22.1644   19.8217 N   0  0  0  0  0  0
  -27.4894  -20.4152   21.2809 F   0  0  0  0  0  0
  -31.4820  -12.7410   19.1695 H   0  0  0  0  0  0
  -30.4674  -11.6581   20.0835 H   0  0  0  0  0  0
  -29.8352  -11.5489   17.6874 H   0  0  0  0  0  0
  -29.6555  -13.2596   17.5772 H   0  0  0  0  0  0
  -27.9391  -11.2298   19.0177 H   0  0  0  0  0  0
  -27.3949  -12.3717   17.8234 H   0  0  0  0  0  0
  -27.5299  -14.1848   19.3676 H   0  0  0  0  0  0
  -28.7800  -12.3653   21.4858 H   0  0  0  0  0  0
  -28.3826  -14.0612   21.6867 H   0  0  0  0  0  0
  -25.2736   -9.5669   22.4779 H   0  0  0  0  0  0
  -23.9997   -7.4608   22.7467 H   0  0  0  0  0  0
  -21.0815   -8.8764   19.8960 H   0  0  0  0  0  0
  -22.3680  -10.9664   19.6181 H   0  0  0  0  0  0
  -21.2004   -7.6141   23.9724 H   0  0  0  0  0  0
  -21.1481   -6.0502   25.9076 H   0  0  0  0  0  0
  -22.0595   -2.7606   23.2835 H   0  0  0  0  0  0
  -22.4003  -11.9924   22.4871 H   0  0  0  0  0  0
  -21.1014  -13.1280   22.2589 H   0  0  0  0  0  0
  -24.6602  -15.8416   20.5587 H   0  0  0  0  0  0
  -26.2844  -15.6284   20.1366 H   0  0  0  0  0  0
  -26.7249  -32.5326   23.1005 H   0  0  0  0  0  0
  -25.0100  -33.9640   25.0348 H   0  0  0  0  0  0
  -22.7446  -31.2876   21.3777 H   0  0  0  0  0  0
  -23.3760  -35.9574   23.3311 H   0  0  0  0  0  0
  -24.3569  -36.8880   22.2058 H   0  0  0  0  0  0
  -23.7227  -37.6446   23.6673 H   0  0  0  0  0  0
  -26.1511  -31.4838   20.6164 H   0  0  0  0  0  0
  -26.8653  -30.7765   22.0309 H   0  0  0  0  0  0
  -28.1231  -28.8318   21.2543 H   0  0  0  0  0  0
  -25.9631  -25.8736   18.9666 H   0  0  0  0  0  0
  -24.0030  -27.3007   18.9632 H   0  0  0  0  0  0
  -23.8006  -30.5604   19.3930 H   0  0  0  0  0  0
  -22.7881  -29.2230   19.8473 H   0  0  0  0  0  0
  -25.1312  -36.1880   25.0812 H   0  0  0  0  0  0
  -20.9994  -28.3299   24.1363 H   0  0  0  0  0  0
  -20.5652  -26.2347   23.3631 H   0  0  0  0  0  0
  -21.6643  -26.7417   22.1219 H   0  0  0  0  0  0
  -19.6912  -25.6288   21.1249 H   0  0  0  0  0  0
  -19.6670  -27.3184   20.6731 H   0  0  0  0  0  0
  -17.4205  -26.6675   21.4027 H   0  0  0  0  0  0
  -18.0328  -26.0065   22.9020 H   0  0  0  0  0  0
  -19.7954  -30.7279   24.2242 H   0  0  0  0  0  0
  -17.5033  -31.6266   24.5166 H   0  0  0  0  0  0
  -15.5365  -30.2982   23.7668 H   0  0  0  0  0  0
  -15.8685  -28.0807   22.7096 H   0  0  0  0  0  0
  -24.5896  -30.7104   25.7743 H   0  0  0  0  0  0
  -24.8912  -32.2933   26.4804 H   0  0  0  0  0  0
  -25.8016  -30.8955   27.0219 H   0  0  0  0  0  0
  -26.2996  -29.6711   24.1268 H   0  0  0  0  0  0
  -27.3996  -29.7260   25.4833 H   0  0  0  0  0  0
  -27.8902  -30.4223   23.9589 H   0  0  0  0  0  0
  -27.2612  -33.3659   26.2026 H   0  0  0  0  0  0
  -28.3870  -32.6908   25.0349 H   0  0  0  0  0  0
  -28.0689  -31.8523   26.5462 H   0  0  0  0  0  0
  -28.2603  -38.0075   24.7514 H   0  0  0  0  0  0
  -28.1057  -36.2608   24.6308 H   0  0  0  0  0  0
  -27.2291  -37.1451   25.8876 H   0  0  0  0  0  0
  -20.9478  -29.8778   21.6801 H   0  0  0  0  0  0
  -26.0157  -38.2831   24.1409 H   0  0  0  0  0  0
  -31.7445  -18.0390   19.3939 H   0  0  0  0  0  0
  -31.5580  -20.4333   19.2593 H   0  0  0  0  0  0
  -27.9212  -17.8670   21.2893 H   0  0  0  0  0  0
  -29.1125  -15.1644   18.2500 H   0  0  0  0  0  0
  -29.4049  -16.8516   18.1069 H   0  0  0  0  0  0
  -27.9727  -16.3140   18.9557 H   0  0  0  0  0  0
  -29.9891  -23.5106   18.2669 H   0  0  0  0  0  0
  -30.2119  -21.8226   17.8780 H   0  0  0  0  0  0
  -31.3100  -22.6366   19.0039 H   0  0  0  0  0  0
  -28.4123  -23.0856   21.5013 H   0  0  0  0  0  0
  -29.8971  -23.8266   21.0463 H   0  0  0  0  0  0
  -27.1137  -24.4541   20.0803 H   0  0  0  0  0  0
  -28.2917  -24.6636   18.8525 H   0  0  0  0  0  0
  1 25  1  0  0  0
  1 30  2  0  0  0
  1 81  1  0  0  0
  2  3  1  0  0  0
  2 25  1  0  0  0
  2 84  1  0  0  0
  2 85  1  0  0  0
  3  4  1  0  0  0
  3 86  1  0  0  0
  3 87  1  0  0  0
  4  5  1  0  0  0
  4 88  1  0  0  0
  4 89  1  0  0  0
  5  6  1  0  0  0
  5 26  1  0  0  0
  5 90  1  0  0  0
  6 25  1  0  0  0
  6 91  1  0  0  0
  6 92  1  0  0  0
  7  8  2  0  0  0
  7 26  1  0  0  0
  7 29  1  0  0  0
  8  9  1  0  0  0
  8 22  1  0  0  0
  9 10  1  0  0  0
  9 27  2  0  0  0
 10 11  2  0  0  0
 10 15  1  0  0  0
 11 12  1  0  0  0
 11 93  1  0  0  0
 12 13  2  0  0  0
 12 94  1  0  0  0
 13 14  1  0  0  0
 13 31  1  0  0  0
 14 15  2  0  0  0
 14 95  1  0  0  0
 15 96  1  0  0  0
 16 17  2  0  0  0
 16 21  1  0  0  0
 16 31  1  0  0  0
 17 18  1  0  0  0
 17 97  1  0  0  0
 18 19  2  0  0  0
 18 98  1  0  0  0
 19 20  1  0  0  0
 19 24  1  0  0  0
 20 21  2  0  0  0
 20 99  1  0  0  0
 21 23  1  0  0  0
 22 28  1  0  0  0
 22 32  2  0  0  0
 26 27  1  0  0  0
 28100  1  0  0  0
 28101  1  0  0  0
 29102  1  0  0  0
 29103  1  0  0  0
 33 34  1  0  0  0
 33 66  1  0  0  0
 33 70  2  0  0  0
 34 36  1  0  0  0
 34 59  1  0  0  0
 34104  1  0  0  0
 35 44  2  0  0  0
 35 45  1  0  0  0
 35 68  1  0  0  0
 36 56  1  0  0  0
 36105  1  0  0  0
 37 39  1  0  0  0
 37 47  1  0  0  0
 37 66  1  0  0  0
 37106  1  0  0  0
 38 43  2  0  0  0
 38 46  1  0  0  0
 38 47  1  0  0  0
 39 64  1  0  0  0
 39 67  2  0  0  0
 40 52  1  0  0  0
 40 53  2  0  0  0
 40 58  1  0  0  0
 41107  1  0  0  0
 41108  1  0  0  0
 41109  1  0  0  0
 41 48  1  0  0  0
 42 43  1  0  0  0
 42 66  1  0  0  0
 42110  1  0  0  0
 42111  1  0  0  0
 43 44  1  0  0  0
 44112  1  0  0  0
 45 46  2  0  0  0
 45113  1  0  0  0
 46114  1  0  0  0
 47115  1  0  0  0
 47116  1  0  0  0
 48 56  1  0  0  0
 48 65  1  0  0  0
 48117  1  0  0  0
 49 50  1  0  0  0
 49 53  1  0  0  0
 49 64  1  0  0  0
 49118  1  0  0  0
 50 51  1  0  0  0
 50119  1  0  0  0
 50120  1  0  0  0
 51 52  1  0  0  0
 51121  1  0  0  0
 51122  1  0  0  0
 52123  1  0  0  0
 52124  1  0  0  0
 53 54  1  0  0  0
 54 55  2  0  0  0
 54125  1  0  0  0
 55 57  1  0  0  0
 55126  1  0  0  0
 56 69  2  0  0  0
 57 58  2  0  0  0
 57127  1  0  0  0
 58128  1  0  0  0
 59 60  1  0  0  0
 59 61  1  0  0  0
 59 62  1  0  0  0
 60129  1  0  0  0
 60130  1  0  0  0
 60131  1  0  0  0
 61132  1  0  0  0
 61133  1  0  0  0
 61134  1  0  0  0
 62135  1  0  0  0
 62136  1  0  0  0
 62137  1  0  0  0
 63 65  1  0  0  0
 63138  1  0  0  0
 63139  1  0  0  0
 63140  1  0  0  0
 64141  1  0  0  0
 65142  1  0  0  0
 68 80  1  0  0  0
 71 72  2  0  0  0
 71 74  1  0  0  0
 71143  1  0  0  0
 72 75  1  0  0  0
 72144  1  0  0  0
 73 74  2  0  0  0
 73 76  1  0  0  0
 73145  1  0  0  0
 74 81  1  0  0  0
 75 76  2  0  0  0
 75 82  1  0  0  0
 76 83  1  0  0  0
 77 81  1  0  0  0
 77146  1  0  0  0
 77147  1  0  0  0
 77148  1  0  0  0
 78 82  1  0  0  0
 78149  1  0  0  0
 78150  1  0  0  0
 78151  1  0  0  0
 79 80  1  0  0  0
 79 82  1  0  0  0
 79152  1  0  0  0
 79153  1  0  0  0
 80154  1  0  0  0
 80155  1  0  0  0
M  ISO  4   1 100  68 101  80 101  81 100
M  END
> <chiral flag>
0

> <version>
0

> <s_m_source_file>
/data/baiqing/PycharmProjects/Reinvent-master-3.2/result/LINK_invent/BTK/process_docking_weight1_custom_product_contain_oxygen_bond_distance_aromatic_linkinvent_7_9_3/rearranged_h_0013.sdf

> <i_m_source_file_index>
70

> <r_mmod_Potential_Energy-OPLS-2005>
757.08544921875

> <r_mmod_Stretch_Energy-OPLS-2005>
221.660217285156

> <r_mmod_Bend_Energy-OPLS-2005>
277.215484619141

> <r_mmod_Torsional_Energy-OPLS-2005>
345.148010253906

> <r_mmod_Improper_Torsional_Energy-OPLS-2005>
20.6981258392334

> <r_mmod_Van_der_Waal_Energy-OPLS-2005>
151.594589233398

> <r_mmod_Electrostatic_Energy-OPLS-2005>
-246.331100463867

> <r_mmod_Solvation_Energy-OPLS-2005>
-209.666458129883

> <b_mmod_Minimization_Converged-OPLS-2005>
0

> <r_mmod_RMS_Derivative-OPLS-2005>
1.80845773220062

$$$$
71
                    3D
 Structure written by MMmdl.
156165  0  0  1  0            999 V2000
  -30.6061  -14.6392   20.5158 C   0  0  0  0  0  0
  -30.4417  -12.3940   19.4521 C   0  0  0  0  0  0
  -29.5103  -12.5162   18.2241 C   0  0  0  0  0  0
  -28.0319  -12.3513   18.6321 C   0  0  0  0  0  0
  -27.6559  -13.2119   19.8671 C   0  0  2  0  0  0
  -28.6985  -13.0522   20.9974 C   0  0  0  0  0  0
  -25.2576  -13.8149   20.5670 C   0  0  0  0  0  0
  -24.1832  -13.0429   20.9180 C   0  0  0  0  0  0
  -24.6389  -11.6896   20.8733 C   0  0  0  0  0  0
  -23.9042  -10.4287   21.0402 C   0  0  0  0  0  0
  -24.3604   -9.4203   21.9177 C   0  0  0  0  0  0
  -23.6288   -8.2230   22.0744 C   0  0  0  0  0  0
  -22.4276   -8.0268   21.3529 C   0  0  0  0  0  0
  -21.9902   -9.0240   20.4634 C   0  0  0  0  0  0
  -22.7218  -10.2126   20.3048 C   0  0  0  0  0  0
  -21.6851   -6.0728   22.5275 C   0  0  0  0  0  0
  -21.4011   -6.5636   23.8208 C   0  0  0  0  0  0
  -21.3663   -5.6788   24.9173 C   0  0  0  0  0  0
  -21.6047   -4.3046   24.7223 C   0  0  0  0  0  0
  -21.8819   -3.8139   23.4343 C   0  0  0  0  0  0
  -21.9193   -4.6954   22.3404 C   0  0  0  0  0  0
  -22.7862  -13.5237   21.1855 C   0  0  0  0  0  0
  -22.1657   -4.2139   21.0981 F   0  0  0  0  0  0
  -21.5643   -3.4525   25.7737 F   0  0  0  0  0  0
  -30.0149  -13.4037   20.4406 N   0  0  0  0  0  0
  -26.3005  -12.9320   20.3315 N   0  0  0  0  0  0
  -25.9319  -11.6479   20.5741 N   0  0  0  0  0  0
  -22.0493  -12.8236   22.0406 N   0  0  0  0  0  0
  -25.4301  -15.1867   20.4070 N   0  0  0  0  0  0
  -31.7620  -14.8218   20.1204 O   0  0  0  0  0  0
  -21.6643   -6.8866   21.4238 O   0  0  0  0  0  0
  -22.3549  -14.5550   20.6714 O   0  0  0  0  0  0
  -24.6252  -31.8617   23.2048 C   0  0  0  0  0  0
  -25.9111  -32.4776   23.8367 C   0  0  1  0  0  0
  -27.2234  -27.3267   20.1265 C   0  0  0  0  0  0
  -25.5947  -33.8575   24.2304 N   0  0  0  0  0  0
  -23.4166  -30.4868   21.5465 C   0  0  2  0  0  0
  -24.8659  -28.9389   20.1136 C   0  0  0  0  0  0
  -22.7457  -29.4653   22.4948 C   0  0  0  0  0  0
  -18.0276  -28.1385   22.8500 C   0  0  0  0  0  0
  -24.1489  -36.7293   23.2631 C   0  0  0  0  0  0
  -25.9572  -30.7943   21.3746 C   0  0  0  0  0  0
  -26.0338  -29.4213   20.7199 C   0  0  0  0  0  0
  -27.2176  -28.6263   20.7168 C   0  0  0  0  0  0
  -26.0397  -26.8985   19.4862 C   0  0  0  0  0  0
  -24.8705  -27.6825   19.4869 C   0  0  0  0  0  0
  -23.6322  -29.8185   20.1628 C   0  0  0  0  0  0
  -25.4114  -36.3078   24.0330 C   0  0  1  0  0  0
  -20.5877  -28.3708   23.1282 C   0  0  2  0  0  0
  -20.6778  -26.9435   22.5402 C   0  0  0  0  0  0
  -19.5756  -26.6396   21.5203 C   0  0  0  0  0  0
  -18.1936  -26.7937   22.1619 C   0  0  0  0  0  0
  -19.1528  -28.8857   23.2889 C   0  0  0  0  0  0
  -18.9456  -30.1462   23.8906 C   0  0  0  0  0  0
  -17.6458  -30.6596   24.0558 C   0  0  0  0  0  0
  -25.9065  -34.9446   23.5121 C   0  0  0  0  0  0
  -16.5343  -29.9098   23.6320 C   0  0  0  0  0  0
  -16.7263  -28.6498   23.0364 C   0  0  0  0  0  0
  -26.4506  -31.6570   25.0723 C   0  0  0  0  0  0
  -25.3742  -31.3692   26.1451 C   0  0  0  0  0  0
  -27.0341  -30.2988   24.6180 C   0  0  0  0  0  0
  -27.6092  -32.4288   25.7473 C   0  0  0  0  0  0
  -27.5588  -37.1798   24.8461 C   0  0  0  0  0  0
  -21.4172  -29.3058   22.3670 N   0  0  0  0  0  0
  -26.4289  -37.3780   23.9417 N   0  0  0  0  0  0
  -24.6848  -31.0642   22.0989 N   0  0  0  0  0  0
  -23.4184  -28.8203   23.3023 O   0  0  0  0  0  0
  -28.3315  -26.4710   20.1521 O   0  0  0  0  0  0
  -26.5619  -34.8908   22.4677 O   0  0  0  0  0  0
  -23.5428  -32.1420   23.7389 O   0  0  0  0  0  0
  -28.5931  -19.2957   20.8522 C   0  0  0  0  0  0
  -28.6412  -17.8747   20.9801 C   0  0  0  0  0  0
  -30.9638  -17.8822   20.3823 C   0  0  0  0  0  0
  -29.7259  -20.0679   20.4830 C   0  0  0  0  0  0
  -29.8227  -17.1205   20.7439 C   0  0  0  0  0  0
  -30.9198  -19.3042   20.2522 C   0  0  0  0  0  0
  -30.4004  -23.8149   20.3722 C   0  0  0  0  0  0
  -30.8358  -22.3492   20.1390 C   0  0  0  0  0  0
  -28.4810  -22.4028   20.5142 C   0  0  0  0  0  0
  -28.8999  -23.8592   20.0564 C   0  0  1  0  0  0
  -28.1084  -25.1008   20.6701 C   0  0  0  0  0  0
  -29.6588  -21.5112   20.3576 N   0  0  0  0  0  0
  -29.7780  -15.6626   20.9011 N   0  0  0  0  0  0
  -32.0714  -19.9223   19.8912 F   0  0  0  0  0  0
  -31.4822  -12.5307   19.1529 H   0  0  0  0  0  0
  -30.3833  -11.3930   19.8832 H   0  0  0  0  0  0
  -29.7762  -11.7720   17.4725 H   0  0  0  0  0  0
  -29.6512  -13.4908   17.7540 H   0  0  0  0  0  0
  -27.8681  -11.2971   18.8564 H   0  0  0  0  0  0
  -27.3784  -12.5903   17.7916 H   0  0  0  0  0  0
  -27.6779  -14.2508   19.5374 H   0  0  0  0  0  0
  -28.7102  -12.0270   21.3704 H   0  0  0  0  0  0
  -28.4405  -13.6732   21.8570 H   0  0  0  0  0  0
  -25.2747   -9.5689   22.4757 H   0  0  0  0  0  0
  -23.9997   -7.4625   22.7471 H   0  0  0  0  0  0
  -21.0824   -8.8759   19.8953 H   0  0  0  0  0  0
  -22.3663  -10.9667   19.6166 H   0  0  0  0  0  0
  -21.1992   -7.6141   23.9701 H   0  0  0  0  0  0
  -21.1495   -6.0521   25.9078 H   0  0  0  0  0  0
  -22.0598   -2.7599   23.2838 H   0  0  0  0  0  0
  -22.4110  -11.9900   22.4797 H   0  0  0  0  0  0
  -21.1115  -13.1272   22.2622 H   0  0  0  0  0  0
  -24.6566  -15.8369   20.4959 H   0  0  0  0  0  0
  -26.2675  -15.6153   20.0347 H   0  0  0  0  0  0
  -26.7175  -32.5465   23.1113 H   0  0  0  0  0  0
  -25.0107  -33.9719   25.0457 H   0  0  0  0  0  0
  -22.7094  -31.3073   21.4034 H   0  0  0  0  0  0
  -23.3756  -35.9618   23.3272 H   0  0  0  0  0  0
  -24.3585  -36.8927   22.2047 H   0  0  0  0  0  0
  -23.7237  -37.6492   23.6661 H   0  0  0  0  0  0
  -26.0862  -31.5567   20.6047 H   0  0  0  0  0  0
  -26.8375  -30.8451   22.0043 H   0  0  0  0  0  0
  -28.1133  -28.9901   21.2022 H   0  0  0  0  0  0
  -26.0125  -25.9400   18.9875 H   0  0  0  0  0  0
  -23.9776  -27.3112   19.0023 H   0  0  0  0  0  0
  -23.7473  -30.5939   19.4046 H   0  0  0  0  0  0
  -22.7531  -29.2460   19.8621 H   0  0  0  0  0  0
  -25.1286  -36.1925   25.0823 H   0  0  0  0  0  0
  -20.9972  -28.3280   24.1401 H   0  0  0  0  0  0
  -20.5681  -26.2325   23.3604 H   0  0  0  0  0  0
  -21.6652  -26.7486   22.1188 H   0  0  0  0  0  0
  -19.6927  -25.6296   21.1258 H   0  0  0  0  0  0
  -19.6700  -27.3192   20.6718 H   0  0  0  0  0  0
  -17.4217  -26.6667   21.4010 H   0  0  0  0  0  0
  -18.0364  -26.0061   22.9006 H   0  0  0  0  0  0
  -19.7927  -30.7271   24.2290 H   0  0  0  0  0  0
  -17.5012  -31.6275   24.5165 H   0  0  0  0  0  0
  -15.5347  -30.3008   23.7647 H   0  0  0  0  0  0
  -15.8658  -28.0816   22.7103 H   0  0  0  0  0  0
  -24.5930  -30.7029   25.7764 H   0  0  0  0  0  0
  -24.8909  -32.2842   26.4884 H   0  0  0  0  0  0
  -25.8068  -30.8861   27.0221 H   0  0  0  0  0  0
  -26.2905  -29.6731   24.1229 H   0  0  0  0  0  0
  -27.4050  -29.7259   25.4690 H   0  0  0  0  0  0
  -27.8776  -30.4238   23.9385 H   0  0  0  0  0  0
  -27.2734  -33.3593   26.2056 H   0  0  0  0  0  0
  -28.3895  -32.6829   25.0285 H   0  0  0  0  0  0
  -28.0769  -31.8399   26.5373 H   0  0  0  0  0  0
  -28.2587  -38.0119   24.7563 H   0  0  0  0  0  0
  -28.1110  -36.2659   24.6216 H   0  0  0  0  0  0
  -27.2328  -37.1362   25.8869 H   0  0  0  0  0  0
  -20.9363  -29.8733   21.6835 H   0  0  0  0  0  0
  -26.0172  -38.2855   24.1425 H   0  0  0  0  0  0
  -27.6550  -19.7924   21.0515 H   0  0  0  0  0  0
  -27.7340  -17.3612   21.2681 H   0  0  0  0  0  0
  -31.9073  -17.3894   20.2017 H   0  0  0  0  0  0
  -30.9762  -24.5203   19.7713 H   0  0  0  0  0  0
  -30.5631  -24.0747   21.4193 H   0  0  0  0  0  0
  -31.6542  -22.0833   20.8101 H   0  0  0  0  0  0
  -31.1821  -22.2164   19.1126 H   0  0  0  0  0  0
  -27.6313  -22.0430   19.9319 H   0  0  0  0  0  0
  -28.1750  -22.4070   21.5620 H   0  0  0  0  0  0
  -28.7876  -23.8996   18.9719 H   0  0  0  0  0  0
  -28.3341  -25.1416   21.7361 H   0  0  0  0  0  0
  -27.0506  -24.8428   20.6366 H   0  0  0  0  0  0
  -28.8893  -15.3116   21.2260 H   0  0  0  0  0  0
  1 25  1  0  0  0
  1 30  2  0  0  0
  1 83  1  0  0  0
  2  3  1  0  0  0
  2 25  1  0  0  0
  2 85  1  0  0  0
  2 86  1  0  0  0
  3  4  1  0  0  0
  3 87  1  0  0  0
  3 88  1  0  0  0
  4  5  1  0  0  0
  4 89  1  0  0  0
  4 90  1  0  0  0
  5  6  1  0  0  0
  5 26  1  0  0  0
  5 91  1  0  0  0
  6 25  1  0  0  0
  6 92  1  0  0  0
  6 93  1  0  0  0
  7  8  2  0  0  0
  7 26  1  0  0  0
  7 29  1  0  0  0
  8  9  1  0  0  0
  8 22  1  0  0  0
  9 10  1  0  0  0
  9 27  2  0  0  0
 10 11  2  0  0  0
 10 15  1  0  0  0
 11 12  1  0  0  0
 11 94  1  0  0  0
 12 13  2  0  0  0
 12 95  1  0  0  0
 13 14  1  0  0  0
 13 31  1  0  0  0
 14 15  2  0  0  0
 14 96  1  0  0  0
 15 97  1  0  0  0
 16 17  2  0  0  0
 16 21  1  0  0  0
 16 31  1  0  0  0
 17 18  1  0  0  0
 17 98  1  0  0  0
 18 19  2  0  0  0
 18 99  1  0  0  0
 19 20  1  0  0  0
 19 24  1  0  0  0
 20 21  2  0  0  0
 20100  1  0  0  0
 21 23  1  0  0  0
 22 28  1  0  0  0
 22 32  2  0  0  0
 26 27  1  0  0  0
 28101  1  0  0  0
 28102  1  0  0  0
 29103  1  0  0  0
 29104  1  0  0  0
 33 34  1  0  0  0
 33 66  1  0  0  0
 33 70  2  0  0  0
 34 36  1  0  0  0
 34 59  1  0  0  0
 34105  1  0  0  0
 35 44  2  0  0  0
 35 45  1  0  0  0
 35 68  1  0  0  0
 36 56  1  0  0  0
 36106  1  0  0  0
 37 39  1  0  0  0
 37 47  1  0  0  0
 37 66  1  0  0  0
 37107  1  0  0  0
 38 43  2  0  0  0
 38 46  1  0  0  0
 38 47  1  0  0  0
 39 64  1  0  0  0
 39 67  2  0  0  0
 40 52  1  0  0  0
 40 53  2  0  0  0
 40 58  1  0  0  0
 41108  1  0  0  0
 41109  1  0  0  0
 41110  1  0  0  0
 41 48  1  0  0  0
 42 43  1  0  0  0
 42 66  1  0  0  0
 42111  1  0  0  0
 42112  1  0  0  0
 43 44  1  0  0  0
 44113  1  0  0  0
 45 46  2  0  0  0
 45114  1  0  0  0
 46115  1  0  0  0
 47116  1  0  0  0
 47117  1  0  0  0
 48 56  1  0  0  0
 48 65  1  0  0  0
 48118  1  0  0  0
 49 50  1  0  0  0
 49 53  1  0  0  0
 49 64  1  0  0  0
 49119  1  0  0  0
 50 51  1  0  0  0
 50120  1  0  0  0
 50121  1  0  0  0
 51 52  1  0  0  0
 51122  1  0  0  0
 51123  1  0  0  0
 52124  1  0  0  0
 52125  1  0  0  0
 53 54  1  0  0  0
 54 55  2  0  0  0
 54126  1  0  0  0
 55 57  1  0  0  0
 55127  1  0  0  0
 56 69  2  0  0  0
 57 58  2  0  0  0
 57128  1  0  0  0
 58129  1  0  0  0
 59 60  1  0  0  0
 59 61  1  0  0  0
 59 62  1  0  0  0
 60130  1  0  0  0
 60131  1  0  0  0
 60132  1  0  0  0
 61133  1  0  0  0
 61134  1  0  0  0
 61135  1  0  0  0
 62136  1  0  0  0
 62137  1  0  0  0
 62138  1  0  0  0
 63 65  1  0  0  0
 63139  1  0  0  0
 63140  1  0  0  0
 63141  1  0  0  0
 64142  1  0  0  0
 65143  1  0  0  0
 68 81  1  0  0  0
 71 72  2  0  0  0
 71 74  1  0  0  0
 71144  1  0  0  0
 72 75  1  0  0  0
 72145  1  0  0  0
 73 75  2  0  0  0
 73 76  1  0  0  0
 73146  1  0  0  0
 74 76  2  0  0  0
 74 82  1  0  0  0
 75 83  1  0  0  0
 76 84  1  0  0  0
 77 78  1  0  0  0
 77 80  1  0  0  0
 77147  1  0  0  0
 77148  1  0  0  0
 78 82  1  0  0  0
 78149  1  0  0  0
 78150  1  0  0  0
 79 80  1  0  0  0
 79 82  1  0  0  0
 79151  1  0  0  0
 79152  1  0  0  0
 80 81  1  0  0  0
 80153  1  0  0  0
 81154  1  0  0  0
 81155  1  0  0  0
 83156  1  0  0  0
M  ISO  4   1 100  68 101  81 101  83 100
M  END
> <chiral flag>
0

> <version>
0

> <s_m_source_file>
/data/baiqing/PycharmProjects/Reinvent-master-3.2/result/LINK_invent/BTK/process_docking_weight1_custom_product_contain_oxygen_bond_distance_aromatic_linkinvent_7_9_3/rearranged_h_0013.sdf

> <i_m_source_file_index>
71

> <r_mmod_Potential_Energy-OPLS-2005>
174.036407470703

> <r_mmod_Stretch_Energy-OPLS-2005>
77.9916610717773

> <r_mmod_Bend_Energy-OPLS-2005>
181.72412109375

> <r_mmod_Torsional_Energy-OPLS-2005>
273.582580566406

> <r_mmod_Improper_Torsional_Energy-OPLS-2005>
4.25436925888062

> <r_mmod_Van_der_Waal_Energy-OPLS-2005>
143.523300170898

> <r_mmod_Electrostatic_Energy-OPLS-2005>
-328.852081298828

> <r_mmod_Solvation_Energy-OPLS-2005>
-225.19221496582

> <b_mmod_Minimization_Converged-OPLS-2005>
0

> <r_mmod_RMS_Derivative-OPLS-2005>
1.95960474014282

$$$$
72
                    3D
 Structure written by MMmdl.
153162  0  0  1  0            999 V2000
  -30.5011  -14.9501   20.4203 C   0  0  0  0  0  0
  -30.4530  -12.5884   19.4893 C   0  0  0  0  0  0
  -29.5251  -12.5277   18.2517 C   0  0  0  0  0  0
  -28.0575  -12.3110   18.6714 C   0  0  0  0  0  0
  -27.6331  -13.2385   19.8397 C   0  0  2  0  0  0
  -28.6776  -13.2460   20.9761 C   0  0  0  0  0  0
  -25.2477  -13.8187   20.5677 C   0  0  0  0  0  0
  -24.1791  -13.0427   20.9230 C   0  0  0  0  0  0
  -24.6398  -11.6911   20.8769 C   0  0  0  0  0  0
  -23.9076  -10.4287   21.0422 C   0  0  0  0  0  0
  -24.3628   -9.4201   21.9197 C   0  0  0  0  0  0
  -23.6300   -8.2239   22.0761 C   0  0  0  0  0  0
  -22.4281   -8.0283   21.3548 C   0  0  0  0  0  0
  -21.9920   -9.0255   20.4648 C   0  0  0  0  0  0
  -22.7253  -10.2132   20.3065 C   0  0  0  0  0  0
  -21.6850   -6.0743   22.5281 C   0  0  0  0  0  0
  -21.4010   -6.5646   23.8215 C   0  0  0  0  0  0
  -21.3659   -5.6795   24.9173 C   0  0  0  0  0  0
  -21.6042   -4.3058   24.7219 C   0  0  0  0  0  0
  -21.8820   -3.8151   23.4342 C   0  0  0  0  0  0
  -21.9191   -4.6971   22.3401 C   0  0  0  0  0  0
  -22.7810  -13.5208   21.1884 C   0  0  0  0  0  0
  -22.1661   -4.2158   21.0980 F   0  0  0  0  0  0
  -21.5629   -3.4540   25.7732 F   0  0  0  0  0  0
  -29.9521  -13.6702   20.3811 N   0  0  0  0  0  0
  -26.2901  -12.9402   20.3235 N   0  0  0  0  0  0
  -25.9327  -11.6542   20.5746 N   0  0  0  0  0  0
  -22.0455  -12.8198   22.0431 N   0  0  0  0  0  0
  -25.4114  -15.1914   20.4036 N   0  0  0  0  0  0
  -31.7072  -15.0665   20.1732 O   0  0  0  0  0  0
  -21.6642   -6.8885   21.4244 O   0  0  0  0  0  0
  -22.3504  -14.5521   20.6734 O   0  0  0  0  0  0
  -24.6432  -31.8435   23.1855 C   0  0  0  0  0  0
  -25.9197  -32.4696   23.8254 C   0  0  1  0  0  0
  -27.2229  -27.1404   20.1613 C   0  0  0  0  0  0
  -25.5949  -33.8501   24.2183 N   0  0  0  0  0  0
  -23.4469  -30.4603   21.5316 C   0  0  2  0  0  0
  -24.8964  -28.8774   20.1176 C   0  0  0  0  0  0
  -22.7559  -29.4548   22.4862 C   0  0  0  0  0  0
  -18.0299  -28.1400   22.8484 C   0  0  0  0  0  0
  -24.1489  -36.7251   23.2640 C   0  0  0  0  0  0
  -26.0008  -30.7199   21.3795 C   0  0  0  0  0  0
  -26.0737  -29.3282   20.7284 C   0  0  0  0  0  0
  -27.2411  -28.4780   20.7251 C   0  0  0  0  0  0
  -26.0180  -26.7780   19.5255 C   0  0  0  0  0  0
  -24.8797  -27.6154   19.5013 C   0  0  0  0  0  0
  -23.6729  -29.7806   20.1544 C   0  0  0  0  0  0
  -25.4120  -36.3033   24.0317 C   0  0  1  0  0  0
  -20.5916  -28.3722   23.1243 C   0  0  2  0  0  0
  -20.6787  -26.9423   22.5409 C   0  0  0  0  0  0
  -19.5760  -26.6387   21.5218 C   0  0  0  0  0  0
  -18.1940  -26.7944   22.1626 C   0  0  0  0  0  0
  -19.1557  -28.8878   23.2861 C   0  0  0  0  0  0
  -18.9477  -30.1476   23.8884 C   0  0  0  0  0  0
  -17.6474  -30.6600   24.0565 C   0  0  0  0  0  0
  -25.9068  -34.9408   23.5059 C   0  0  0  0  0  0
  -16.5361  -29.9097   23.6339 C   0  0  0  0  0  0
  -16.7283  -28.6512   23.0362 C   0  0  0  0  0  0
  -26.4508  -31.6559   25.0697 C   0  0  0  0  0  0
  -25.3698  -31.3813   26.1415 C   0  0  0  0  0  0
  -27.0303  -30.2927   24.6268 C   0  0  0  0  0  0
  -27.6084  -32.4275   25.7463 C   0  0  0  0  0  0
  -27.5576  -37.1780   24.8465 C   0  0  0  0  0  0
  -21.4251  -29.3050   22.3614 N   0  0  0  0  0  0
  -26.4283  -37.3748   23.9414 N   0  0  0  0  0  0
  -24.7170  -31.0295   22.0881 N   0  0  0  0  0  0
  -23.4200  -28.8098   23.3017 O   0  0  0  0  0  0
  -28.3026  -26.1907   20.1578 O   0  0  0  0  0  0
  -26.5654  -34.8910   22.4638 O   0  0  0  0  0  0
  -23.5549  -32.1295   23.7082 O   0  0  0  0  0  0
  -30.1427  -19.9397   21.3229 C   0  0  0  0  0  0
  -28.5452  -19.7942   19.6124 C   0  0  0  0  0  0
  -30.3499  -18.4954   21.2873 C   0  0  0  0  0  0
  -28.7245  -18.3453   19.5989 C   0  0  0  0  0  0
  -29.2234  -20.6946   20.5007 C   0  0  0  0  0  0
  -29.6367  -17.5955   20.4284 C   0  0  0  0  0  0
  -29.1146  -24.3827   21.7327 C   0  0  0  0  0  0
  -29.1946  -22.8331   21.9267 C   0  0  0  0  0  0
  -28.4721  -23.3054   19.7362 C   0  0  0  0  0  0
  -28.1508  -24.6972   20.5732 C   0  0  2  0  0  0
  -29.0037  -22.1726   20.6318 N   0  0  0  0  0  0
  -29.6152  -16.0593   20.5055 N   0  0  0  0  0  0
  -31.4814  -12.7721   19.1743 H   0  0  0  0  0  0
  -30.4663  -11.6321   20.0142 H   0  0  0  0  0  0
  -29.8446  -11.7305   17.5790 H   0  0  0  0  0  0
  -29.6087  -13.4565   17.6854 H   0  0  0  0  0  0
  -27.9547  -11.2689   18.9764 H   0  0  0  0  0  0
  -27.3923  -12.4445   17.8173 H   0  0  0  0  0  0
  -27.6001  -14.2428   19.4174 H   0  0  0  0  0  0
  -28.7672  -12.2606   21.4366 H   0  0  0  0  0  0
  -28.3766  -13.9301   21.7718 H   0  0  0  0  0  0
  -25.2772   -9.5677   22.4773 H   0  0  0  0  0  0
  -24.0006   -7.4627   22.7478 H   0  0  0  0  0  0
  -21.0852   -8.8776   19.8948 H   0  0  0  0  0  0
  -22.3718  -10.9675   19.6173 H   0  0  0  0  0  0
  -21.2002   -7.6155   23.9720 H   0  0  0  0  0  0
  -21.1479   -6.0525   25.9076 H   0  0  0  0  0  0
  -22.0600   -2.7613   23.2835 H   0  0  0  0  0  0
  -22.4068  -11.9851   22.4808 H   0  0  0  0  0  0
  -21.1071  -13.1225   22.2634 H   0  0  0  0  0  0
  -24.6289  -15.8305   20.4959 H   0  0  0  0  0  0
  -26.2282  -15.6289   19.9990 H   0  0  0  0  0  0
  -26.7269  -32.5304   23.0989 H   0  0  0  0  0  0
  -25.0087  -33.9612   25.0328 H   0  0  0  0  0  0
  -22.7506  -31.2867   21.3731 H   0  0  0  0  0  0
  -23.3773  -35.9559   23.3256 H   0  0  0  0  0  0
  -24.3585  -36.8916   22.2062 H   0  0  0  0  0  0
  -23.7205  -37.6422   23.6692 H   0  0  0  0  0  0
  -26.1490  -31.4697   20.6011 H   0  0  0  0  0  0
  -26.8747  -30.7783   22.0165 H   0  0  0  0  0  0
  -28.1466  -28.8255   21.2021 H   0  0  0  0  0  0
  -25.9483  -25.8090   19.0513 H   0  0  0  0  0  0
  -23.9782  -27.2644   19.0178 H   0  0  0  0  0  0
  -23.8097  -30.5496   19.3934 H   0  0  0  0  0  0
  -22.7882  -29.2198   19.8469 H   0  0  0  0  0  0
  -25.1305  -36.1857   25.0808 H   0  0  0  0  0  0
  -21.0011  -28.3307   24.1363 H   0  0  0  0  0  0
  -20.5673  -26.2333   23.3628 H   0  0  0  0  0  0
  -21.6650  -26.7427   22.1208 H   0  0  0  0  0  0
  -19.6922  -25.6294   21.1251 H   0  0  0  0  0  0
  -19.6703  -27.3199   20.6751 H   0  0  0  0  0  0
  -17.4208  -26.6684   21.4030 H   0  0  0  0  0  0
  -18.0342  -26.0094   22.9031 H   0  0  0  0  0  0
  -19.7951  -30.7300   24.2239 H   0  0  0  0  0  0
  -17.5028  -31.6280   24.5170 H   0  0  0  0  0  0
  -15.5363  -30.3000   23.7677 H   0  0  0  0  0  0
  -15.8678  -28.0830   22.7090 H   0  0  0  0  0  0
  -24.5830  -30.7208   25.7754 H   0  0  0  0  0  0
  -24.8957  -32.3036   26.4786 H   0  0  0  0  0  0
  -25.7969  -30.9002   27.0224 H   0  0  0  0  0  0
  -26.2874  -29.6698   24.1275 H   0  0  0  0  0  0
  -27.3884  -29.7193   25.4828 H   0  0  0  0  0  0
  -27.8816  -30.4116   23.9566 H   0  0  0  0  0  0
  -27.2774  -33.3700   26.1836 H   0  0  0  0  0  0
  -28.4015  -32.6591   25.0342 H   0  0  0  0  0  0
  -28.0583  -31.8481   26.5534 H   0  0  0  0  0  0
  -28.2586  -38.0084   24.7515 H   0  0  0  0  0  0
  -28.1075  -36.2612   24.6280 H   0  0  0  0  0  0
  -27.2300  -37.1416   25.8869 H   0  0  0  0  0  0
  -20.9453  -29.8756   21.6792 H   0  0  0  0  0  0
  -26.0148  -38.2812   24.1433 H   0  0  0  0  0  0
  -30.7354  -20.4797   22.0459 H   0  0  0  0  0  0
  -27.8115  -20.2111   18.9372 H   0  0  0  0  0  0
  -31.0500  -18.0717   21.9936 H   0  0  0  0  0  0
  -28.0961  -17.7890   18.9180 H   0  0  0  0  0  0
  -30.1064  -24.7516   21.4683 H   0  0  0  0  0  0
  -28.8263  -24.8931   22.6526 H   0  0  0  0  0  0
  -28.4038  -22.5049   22.6032 H   0  0  0  0  0  0
  -30.1454  -22.5639   22.3871 H   0  0  0  0  0  0
  -29.2327  -23.5138   18.9827 H   0  0  0  0  0  0
  -27.5843  -22.9767   19.1936 H   0  0  0  0  0  0
  -27.1394  -24.5886   20.9679 H   0  0  0  0  0  0
  -28.6724  -15.7064   20.5518 H   0  0  0  0  0  0
  1 25  1  0  0  0
  1 30  2  0  0  0
  1 82  1  0  0  0
  2  3  1  0  0  0
  2 25  1  0  0  0
  2 83  1  0  0  0
  2 84  1  0  0  0
  3  4  1  0  0  0
  3 85  1  0  0  0
  3 86  1  0  0  0
  4  5  1  0  0  0
  4 87  1  0  0  0
  4 88  1  0  0  0
  5  6  1  0  0  0
  5 26  1  0  0  0
  5 89  1  0  0  0
  6 25  1  0  0  0
  6 90  1  0  0  0
  6 91  1  0  0  0
  7  8  2  0  0  0
  7 26  1  0  0  0
  7 29  1  0  0  0
  8  9  1  0  0  0
  8 22  1  0  0  0
  9 10  1  0  0  0
  9 27  2  0  0  0
 10 11  2  0  0  0
 10 15  1  0  0  0
 11 12  1  0  0  0
 11 92  1  0  0  0
 12 13  2  0  0  0
 12 93  1  0  0  0
 13 14  1  0  0  0
 13 31  1  0  0  0
 14 15  2  0  0  0
 14 94  1  0  0  0
 15 95  1  0  0  0
 16 17  2  0  0  0
 16 21  1  0  0  0
 16 31  1  0  0  0
 17 18  1  0  0  0
 17 96  1  0  0  0
 18 19  2  0  0  0
 18 97  1  0  0  0
 19 20  1  0  0  0
 19 24  1  0  0  0
 20 21  2  0  0  0
 20 98  1  0  0  0
 21 23  1  0  0  0
 22 28  1  0  0  0
 22 32  2  0  0  0
 26 27  1  0  0  0
 28 99  1  0  0  0
 28100  1  0  0  0
 29101  1  0  0  0
 29102  1  0  0  0
 33 34  1  0  0  0
 33 66  1  0  0  0
 33 70  2  0  0  0
 34 36  1  0  0  0
 34 59  1  0  0  0
 34103  1  0  0  0
 35 44  2  0  0  0
 35 45  1  0  0  0
 35 68  1  0  0  0
 36 56  1  0  0  0
 36104  1  0  0  0
 37 39  1  0  0  0
 37 47  1  0  0  0
 37 66  1  0  0  0
 37105  1  0  0  0
 38 43  2  0  0  0
 38 46  1  0  0  0
 38 47  1  0  0  0
 39 64  1  0  0  0
 39 67  2  0  0  0
 40 52  1  0  0  0
 40 53  2  0  0  0
 40 58  1  0  0  0
 41106  1  0  0  0
 41107  1  0  0  0
 41108  1  0  0  0
 41 48  1  0  0  0
 42 43  1  0  0  0
 42 66  1  0  0  0
 42109  1  0  0  0
 42110  1  0  0  0
 43 44  1  0  0  0
 44111  1  0  0  0
 45 46  2  0  0  0
 45112  1  0  0  0
 46113  1  0  0  0
 47114  1  0  0  0
 47115  1  0  0  0
 48 56  1  0  0  0
 48 65  1  0  0  0
 48116  1  0  0  0
 49 50  1  0  0  0
 49 53  1  0  0  0
 49 64  1  0  0  0
 49117  1  0  0  0
 50 51  1  0  0  0
 50118  1  0  0  0
 50119  1  0  0  0
 51 52  1  0  0  0
 51120  1  0  0  0
 51121  1  0  0  0
 52122  1  0  0  0
 52123  1  0  0  0
 53 54  1  0  0  0
 54 55  2  0  0  0
 54124  1  0  0  0
 55 57  1  0  0  0
 55125  1  0  0  0
 56 69  2  0  0  0
 57 58  2  0  0  0
 57126  1  0  0  0
 58127  1  0  0  0
 59 60  1  0  0  0
 59 61  1  0  0  0
 59 62  1  0  0  0
 60128  1  0  0  0
 60129  1  0  0  0
 60130  1  0  0  0
 61131  1  0  0  0
 61132  1  0  0  0
 61133  1  0  0  0
 62134  1  0  0  0
 62135  1  0  0  0
 62136  1  0  0  0
 63 65  1  0  0  0
 63137  1  0  0  0
 63138  1  0  0  0
 63139  1  0  0  0
 64140  1  0  0  0
 65141  1  0  0  0
 68 80  1  0  0  0
 71 73  2  0  0  0
 71 75  1  0  0  0
 71142  1  0  0  0
 72 74  1  0  0  0
 72 75  2  0  0  0
 72143  1  0  0  0
 73 76  1  0  0  0
 73144  1  0  0  0
 74 76  2  0  0  0
 74145  1  0  0  0
 75 81  1  0  0  0
 76 82  1  0  0  0
 77 78  1  0  0  0
 77 80  1  0  0  0
 77146  1  0  0  0
 77147  1  0  0  0
 78 81  1  0  0  0
 78148  1  0  0  0
 78149  1  0  0  0
 79 80  1  0  0  0
 79 81  1  0  0  0
 79150  1  0  0  0
 79151  1  0  0  0
 80152  1  0  0  0
 82153  1  0  0  0
M  ISO  4   1 100  68 101  80 101  82 100
M  END
> <chiral flag>
0

> <version>
0

> <s_m_source_file>
/data/baiqing/PycharmProjects/Reinvent-master-3.2/result/LINK_invent/BTK/process_docking_weight1_custom_product_contain_oxygen_bond_distance_aromatic_linkinvent_7_9_3/rearranged_h_0013.sdf

> <i_m_source_file_index>
72

> <r_mmod_Potential_Energy-OPLS-2005>
525.946105957031

> <r_mmod_Stretch_Energy-OPLS-2005>
213.858779907227

> <r_mmod_Bend_Energy-OPLS-2005>
307.925323486328

> <r_mmod_Torsional_Energy-OPLS-2005>
299.310577392578

> <r_mmod_Improper_Torsional_Energy-OPLS-2005>
7.30253410339355

> <r_mmod_Van_der_Waal_Energy-OPLS-2005>
124.300971984863

> <r_mmod_Electrostatic_Energy-OPLS-2005>
-383.096618652344

> <r_mmod_Solvation_Energy-OPLS-2005>
-232.282287597656

> <b_mmod_Minimization_Converged-OPLS-2005>
0

> <r_mmod_RMS_Derivative-OPLS-2005>
0.949168264865875

$$$$
73
                    3D
 Structure written by MMmdl.
151159  0  0  1  0            999 V2000
  -30.6835  -14.6372   20.4794 C   0  0  0  0  0  0
  -30.4155  -12.3912   19.4637 C   0  0  0  0  0  0
  -29.4998  -12.4935   18.2268 C   0  0  0  0  0  0
  -28.0254  -12.3355   18.6422 C   0  0  0  0  0  0
  -27.6439  -13.2296   19.8531 C   0  0  2  0  0  0
  -28.6888  -13.1444   20.9879 C   0  0  0  0  0  0
  -25.2514  -13.8203   20.5698 C   0  0  0  0  0  0
  -24.1801  -13.0448   20.9207 C   0  0  0  0  0  0
  -24.6388  -11.6925   20.8752 C   0  0  0  0  0  0
  -23.9067  -10.4299   21.0411 C   0  0  0  0  0  0
  -24.3619   -9.4211   21.9186 C   0  0  0  0  0  0
  -23.6295   -8.2245   22.0754 C   0  0  0  0  0  0
  -22.4276   -8.0284   21.3546 C   0  0  0  0  0  0
  -21.9911   -9.0258   20.4649 C   0  0  0  0  0  0
  -22.7239  -10.2139   20.3059 C   0  0  0  0  0  0
  -21.6855   -6.0735   22.5279 C   0  0  0  0  0  0
  -21.4015   -6.5639   23.8214 C   0  0  0  0  0  0
  -21.3660   -5.6791   24.9174 C   0  0  0  0  0  0
  -21.6043   -4.3053   24.7226 C   0  0  0  0  0  0
  -21.8817   -3.8146   23.4347 C   0  0  0  0  0  0
  -21.9193   -4.6963   22.3403 C   0  0  0  0  0  0
  -22.7821  -13.5230   21.1863 C   0  0  0  0  0  0
  -22.1661   -4.2149   21.0980 F   0  0  0  0  0  0
  -21.5630   -3.4538   25.7738 F   0  0  0  0  0  0
  -29.9994  -13.4525   20.4051 N   0  0  0  0  0  0
  -26.2945  -12.9410   20.3299 N   0  0  0  0  0  0
  -25.9319  -11.6551   20.5763 N   0  0  0  0  0  0
  -22.0467  -12.8224   22.0424 N   0  0  0  0  0  0
  -25.4205  -15.1926   20.4109 N   0  0  0  0  0  0
  -31.8703  -14.6907   20.1500 O   0  0  0  0  0  0
  -21.6641   -6.8879   21.4240 O   0  0  0  0  0  0
  -22.3501  -14.5534   20.6711 O   0  0  0  0  0  0
  -24.6254  -31.8608   23.2038 C   0  0  0  0  0  0
  -25.9104  -32.4784   23.8365 C   0  0  1  0  0  0
  -27.2149  -27.3214   20.1254 C   0  0  0  0  0  0
  -25.5922  -33.8585   24.2287 N   0  0  0  0  0  0
  -23.4193  -30.4854   21.5459 C   0  0  2  0  0  0
  -24.8660  -28.9436   20.1093 C   0  0  0  0  0  0
  -22.7474  -29.4630   22.4934 C   0  0  0  0  0  0
  -18.0288  -28.1383   22.8489 C   0  0  0  0  0  0
  -24.1489  -36.7298   23.2638 C   0  0  0  0  0  0
  -25.9605  -30.7922   21.3764 C   0  0  0  0  0  0
  -26.0343  -29.4204   20.7187 C   0  0  0  0  0  0
  -27.2153  -28.6204   20.7180 C   0  0  0  0  0  0
  -26.0341  -26.9068   19.4722 C   0  0  0  0  0  0
  -24.8677  -27.6923   19.4749 C   0  0  0  0  0  0
  -23.6343  -29.8233   20.1599 C   0  0  0  0  0  0
  -25.4111  -36.3087   24.0332 C   0  0  1  0  0  0
  -20.5888  -28.3688   23.1282 C   0  0  2  0  0  0
  -20.6776  -26.9412   22.5409 C   0  0  0  0  0  0
  -19.5750  -26.6383   21.5213 C   0  0  0  0  0  0
  -18.1931  -26.7926   22.1627 C   0  0  0  0  0  0
  -19.1540  -28.8851   23.2882 C   0  0  0  0  0  0
  -18.9462  -30.1454   23.8898 C   0  0  0  0  0  0
  -17.6462  -30.6585   24.0563 C   0  0  0  0  0  0
  -25.9048  -34.9456   23.5109 C   0  0  0  0  0  0
  -16.5354  -29.9084   23.6328 C   0  0  0  0  0  0
  -16.7276  -28.6501   23.0350 C   0  0  0  0  0  0
  -26.4487  -31.6594   25.0736 C   0  0  0  0  0  0
  -25.3721  -31.3739   26.1466 C   0  0  0  0  0  0
  -27.0325  -30.3015   24.6194 C   0  0  0  0  0  0
  -27.6047  -32.4330   25.7504 C   0  0  0  0  0  0
  -27.5579  -37.1803   24.8463 C   0  0  0  0  0  0
  -21.4188  -29.3045   22.3677 N   0  0  0  0  0  0
  -26.4290  -37.3779   23.9409 N   0  0  0  0  0  0
  -24.6871  -31.0625   22.0989 N   0  0  0  0  0  0
  -23.4200  -28.8166   23.3009 O   0  0  0  0  0  0
  -28.3057  -26.4437   20.1689 O   0  0  0  0  0  0
  -26.5616  -34.8920   22.4675 O   0  0  0  0  0  0
  -23.5418  -32.1406   23.7366 O   0  0  0  0  0  0
  -30.6455  -19.6796   20.0605 C   0  0  0  0  0  0
  -30.1222  -21.0056   20.0942 C   0  0  0  0  0  0
  -28.6510  -18.8152   21.0840 C   0  0  0  0  0  0
  -29.9377  -18.5477   20.5568 C   0  0  0  0  0  0
  -28.8451  -21.2789   20.6423 C   0  0  0  0  0  0
  -28.1255  -20.1442   21.1249 C   0  0  0  0  0  0
  -30.6645  -17.1524   20.5597 C   0  0  0  0  0  0
  -28.0238  -25.0854   20.7005 C   0  0  0  0  0  0
  -28.8701  -23.8042   20.2722 C   0  0  0  0  0  0
  -29.9992  -15.8078   20.7025 N   0  0  0  0  0  0
  -28.2608  -22.5594   20.7551 O   0  0  0  0  0  0
  -26.8948  -20.3338   21.6593 F   0  0  0  0  0  0
  -31.4614  -12.4779   19.1643 H   0  0  0  0  0  0
  -30.3220  -11.4110   19.9336 H   0  0  0  0  0  0
  -29.7662  -11.7299   17.4948 H   0  0  0  0  0  0
  -29.6449  -13.4561   17.7335 H   0  0  0  0  0  0
  -27.8699  -11.2865   18.8962 H   0  0  0  0  0  0
  -27.3689  -12.5435   17.7966 H   0  0  0  0  0  0
  -27.6474  -14.2554   19.4839 H   0  0  0  0  0  0
  -28.6977  -12.1495   21.4354 H   0  0  0  0  0  0
  -28.4431  -13.8399   21.7918 H   0  0  0  0  0  0
  -25.2764   -9.5689   22.4759 H   0  0  0  0  0  0
  -24.0009   -7.4634   22.7470 H   0  0  0  0  0  0
  -21.0844   -8.8779   19.8954 H   0  0  0  0  0  0
  -22.3699  -10.9680   19.6171 H   0  0  0  0  0  0
  -21.2009   -7.6147   23.9715 H   0  0  0  0  0  0
  -21.1484   -6.0522   25.9077 H   0  0  0  0  0  0
  -22.0597   -2.7609   23.2844 H   0  0  0  0  0  0
  -22.4088  -11.9894   22.4824 H   0  0  0  0  0  0
  -21.1082  -13.1247   22.2625 H   0  0  0  0  0  0
  -24.6512  -15.8450   20.5169 H   0  0  0  0  0  0
  -26.2654  -15.6313   20.0684 H   0  0  0  0  0  0
  -26.7175  -32.5455   23.1117 H   0  0  0  0  0  0
  -25.0064  -33.9734   25.0427 H   0  0  0  0  0  0
  -22.7129  -31.3061   21.4045 H   0  0  0  0  0  0
  -23.3749  -35.9633   23.3300 H   0  0  0  0  0  0
  -24.3582  -36.8919   22.2053 H   0  0  0  0  0  0
  -23.7246  -37.6504   23.6657 H   0  0  0  0  0  0
  -26.0932  -31.5556   20.6087 H   0  0  0  0  0  0
  -26.8403  -30.8394   22.0065 H   0  0  0  0  0  0
  -28.1098  -28.9773   21.2090 H   0  0  0  0  0  0
  -25.9996  -25.9537   18.9639 H   0  0  0  0  0  0
  -23.9761  -27.3261   18.9845 H   0  0  0  0  0  0
  -23.7541  -30.6016   19.4053 H   0  0  0  0  0  0
  -22.7541  -29.2538   19.8562 H   0  0  0  0  0  0
  -25.1289  -36.1942   25.0824 H   0  0  0  0  0  0
  -20.9984  -28.3262   24.1400 H   0  0  0  0  0  0
  -20.5677  -26.2299   23.3609 H   0  0  0  0  0  0
  -21.6645  -26.7439   22.1202 H   0  0  0  0  0  0
  -19.6910  -25.6293   21.1243 H   0  0  0  0  0  0
  -19.6682  -27.3194   20.6742 H   0  0  0  0  0  0
  -17.4199  -26.6673   21.4031 H   0  0  0  0  0  0
  -18.0332  -26.0068   22.9025 H   0  0  0  0  0  0
  -19.7938  -30.7269   24.2268 H   0  0  0  0  0  0
  -17.5017  -31.6266   24.5165 H   0  0  0  0  0  0
  -15.5353  -30.2985   23.7649 H   0  0  0  0  0  0
  -15.8679  -28.0821   22.7061 H   0  0  0  0  0  0
  -24.5890  -30.7092   25.7800 H   0  0  0  0  0  0
  -24.8919  -32.2910   26.4891 H   0  0  0  0  0  0
  -25.8045  -30.8918   27.0242 H   0  0  0  0  0  0
  -26.2902  -29.6776   24.1203 H   0  0  0  0  0  0
  -27.4001  -29.7263   25.4702 H   0  0  0  0  0  0
  -27.8783  -30.4297   23.9434 H   0  0  0  0  0  0
  -27.2654  -33.3626   26.2087 H   0  0  0  0  0  0
  -28.3852  -32.6899   25.0329 H   0  0  0  0  0  0
  -28.0723  -31.8456   26.5417 H   0  0  0  0  0  0
  -28.2595  -38.0101   24.7510 H   0  0  0  0  0  0
  -28.1076  -36.2633   24.6283 H   0  0  0  0  0  0
  -27.2301  -37.1453   25.8868 H   0  0  0  0  0  0
  -20.9361  -29.8777   21.6898 H   0  0  0  0  0  0
  -26.0173  -38.2855   24.1407 H   0  0  0  0  0  0
  -31.6381  -19.5369   19.6551 H   0  0  0  0  0  0
  -30.7272  -21.8124   19.7071 H   0  0  0  0  0  0
  -28.0605  -18.0069   21.4893 H   0  0  0  0  0  0
  -31.4195  -17.2096   21.3459 H   0  0  0  0  0  0
  -31.2322  -17.1252   19.6273 H   0  0  0  0  0  0
  -28.0944  -25.1698   21.7853 H   0  0  0  0  0  0
  -26.9843  -24.8121   20.5287 H   0  0  0  0  0  0
  -29.8886  -23.8937   20.6514 H   0  0  0  0  0  0
  -28.9348  -23.7563   19.1847 H   0  0  0  0  0  0
  -29.0140  -15.7678   20.9118 H   0  0  0  0  0  0
  1 25  1  0  0  0
  1 30  2  0  0  0
  1 80  1  0  0  0
  2  3  1  0  0  0
  2 25  1  0  0  0
  2 83  1  0  0  0
  2 84  1  0  0  0
  3  4  1  0  0  0
  3 85  1  0  0  0
  3 86  1  0  0  0
  4  5  1  0  0  0
  4 87  1  0  0  0
  4 88  1  0  0  0
  5  6  1  0  0  0
  5 26  1  0  0  0
  5 89  1  0  0  0
  6 25  1  0  0  0
  6 90  1  0  0  0
  6 91  1  0  0  0
  7  8  2  0  0  0
  7 26  1  0  0  0
  7 29  1  0  0  0
  8  9  1  0  0  0
  8 22  1  0  0  0
  9 10  1  0  0  0
  9 27  2  0  0  0
 10 11  2  0  0  0
 10 15  1  0  0  0
 11 12  1  0  0  0
 11 92  1  0  0  0
 12 13  2  0  0  0
 12 93  1  0  0  0
 13 14  1  0  0  0
 13 31  1  0  0  0
 14 15  2  0  0  0
 14 94  1  0  0  0
 15 95  1  0  0  0
 16 17  2  0  0  0
 16 21  1  0  0  0
 16 31  1  0  0  0
 17 18  1  0  0  0
 17 96  1  0  0  0
 18 19  2  0  0  0
 18 97  1  0  0  0
 19 20  1  0  0  0
 19 24  1  0  0  0
 20 21  2  0  0  0
 20 98  1  0  0  0
 21 23  1  0  0  0
 22 28  1  0  0  0
 22 32  2  0  0  0
 26 27  1  0  0  0
 28 99  1  0  0  0
 28100  1  0  0  0
 29101  1  0  0  0
 29102  1  0  0  0
 33 34  1  0  0  0
 33 66  1  0  0  0
 33 70  2  0  0  0
 34 36  1  0  0  0
 34 59  1  0  0  0
 34103  1  0  0  0
 35 44  2  0  0  0
 35 45  1  0  0  0
 35 68  1  0  0  0
 36 56  1  0  0  0
 36104  1  0  0  0
 37 39  1  0  0  0
 37 47  1  0  0  0
 37 66  1  0  0  0
 37105  1  0  0  0
 38 43  2  0  0  0
 38 46  1  0  0  0
 38 47  1  0  0  0
 39 64  1  0  0  0
 39 67  2  0  0  0
 40 52  1  0  0  0
 40 53  2  0  0  0
 40 58  1  0  0  0
 41106  1  0  0  0
 41107  1  0  0  0
 41108  1  0  0  0
 41 48  1  0  0  0
 42 43  1  0  0  0
 42 66  1  0  0  0
 42109  1  0  0  0
 42110  1  0  0  0
 43 44  1  0  0  0
 44111  1  0  0  0
 45 46  2  0  0  0
 45112  1  0  0  0
 46113  1  0  0  0
 47114  1  0  0  0
 47115  1  0  0  0
 48 56  1  0  0  0
 48 65  1  0  0  0
 48116  1  0  0  0
 49 50  1  0  0  0
 49 53  1  0  0  0
 49 64  1  0  0  0
 49117  1  0  0  0
 50 51  1  0  0  0
 50118  1  0  0  0
 50119  1  0  0  0
 51 52  1  0  0  0
 51120  1  0  0  0
 51121  1  0  0  0
 52122  1  0  0  0
 52123  1  0  0  0
 53 54  1  0  0  0
 54 55  2  0  0  0
 54124  1  0  0  0
 55 57  1  0  0  0
 55125  1  0  0  0
 56 69  2  0  0  0
 57 58  2  0  0  0
 57126  1  0  0  0
 58127  1  0  0  0
 59 60  1  0  0  0
 59 61  1  0  0  0
 59 62  1  0  0  0
 60128  1  0  0  0
 60129  1  0  0  0
 60130  1  0  0  0
 61131  1  0  0  0
 61132  1  0  0  0
 61133  1  0  0  0
 62134  1  0  0  0
 62135  1  0  0  0
 62136  1  0  0  0
 63 65  1  0  0  0
 63137  1  0  0  0
 63138  1  0  0  0
 63139  1  0  0  0
 64140  1  0  0  0
 65141  1  0  0  0
 68 78  1  0  0  0
 71 72  2  0  0  0
 71 74  1  0  0  0
 71142  1  0  0  0
 72 75  1  0  0  0
 72143  1  0  0  0
 73 74  2  0  0  0
 73 76  1  0  0  0
 73144  1  0  0  0
 74 77  1  0  0  0
 75 76  2  0  0  0
 75 81  1  0  0  0
 76 82  1  0  0  0
 77 80  1  0  0  0
 77145  1  0  0  0
 77146  1  0  0  0
 78 79  1  0  0  0
 78147  1  0  0  0
 78148  1  0  0  0
 79 81  1  0  0  0
 79149  1  0  0  0
 79150  1  0  0  0
 80151  1  0  0  0
M  ISO  4   1 100  68 101  78 101  80 100
M  END
> <chiral flag>
0

> <version>
0

> <s_m_source_file>
/data/baiqing/PycharmProjects/Reinvent-master-3.2/result/LINK_invent/BTK/process_docking_weight1_custom_product_contain_oxygen_bond_distance_aromatic_linkinvent_7_9_3/rearranged_h_0013.sdf

> <i_m_source_file_index>
73

> <r_mmod_Potential_Energy-OPLS-2005>
57.1438636779785

> <r_mmod_Stretch_Energy-OPLS-2005>
77.1801834106445

> <r_mmod_Bend_Energy-OPLS-2005>
156.112350463867

> <r_mmod_Torsional_Energy-OPLS-2005>
214.515319824219

> <r_mmod_Improper_Torsional_Energy-OPLS-2005>
5.03410863876343

> <r_mmod_Van_der_Waal_Energy-OPLS-2005>
145.950302124023

> <r_mmod_Electrostatic_Energy-OPLS-2005>
-386.678894042969

> <r_mmod_Solvation_Energy-OPLS-2005>
-209.099853515625

> <b_mmod_Minimization_Converged-OPLS-2005>
0

> <r_mmod_RMS_Derivative-OPLS-2005>
0.420190036296844

$$$$
74
                    3D
 Structure written by MMmdl.
153161  0  0  1  0            999 V2000
  -30.5927  -14.6696   20.5040 C   0  0  0  0  0  0
  -30.4517  -12.4151   19.4426 C   0  0  0  0  0  0
  -29.5091  -12.5164   18.2206 C   0  0  0  0  0  0
  -28.0307  -12.3577   18.6322 C   0  0  0  0  0  0
  -27.6572  -13.2157   19.8697 C   0  0  2  0  0  0
  -28.7073  -13.0500   20.9923 C   0  0  0  0  0  0
  -25.2525  -13.8130   20.5564 C   0  0  0  0  0  0
  -24.1818  -13.0409   20.9166 C   0  0  0  0  0  0
  -24.6408  -11.6889   20.8765 C   0  0  0  0  0  0
  -23.9075  -10.4279   21.0430 C   0  0  0  0  0  0
  -24.3627   -9.4190   21.9202 C   0  0  0  0  0  0
  -23.6298   -8.2229   22.0756 C   0  0  0  0  0  0
  -22.4278   -8.0279   21.3546 C   0  0  0  0  0  0
  -21.9924   -9.0253   20.4645 C   0  0  0  0  0  0
  -22.7256  -10.2128   20.3068 C   0  0  0  0  0  0
  -21.6844   -6.0738   22.5278 C   0  0  0  0  0  0
  -21.4006   -6.5641   23.8211 C   0  0  0  0  0  0
  -21.3658   -5.6792   24.9176 C   0  0  0  0  0  0
  -21.6047   -4.3055   24.7221 C   0  0  0  0  0  0
  -21.8824   -3.8150   23.4339 C   0  0  0  0  0  0
  -21.9191   -4.6969   22.3401 C   0  0  0  0  0  0
  -22.7839  -13.5210   21.1840 C   0  0  0  0  0  0
  -22.1658   -4.2155   21.0977 F   0  0  0  0  0  0
  -21.5638   -3.4542   25.7735 F   0  0  0  0  0  0
  -30.0193  -13.4235   20.4333 N   0  0  0  0  0  0
  -26.3014  -12.9334   20.3354 N   0  0  0  0  0  0
  -25.9354  -11.6488   20.5822 N   0  0  0  0  0  0
  -22.0494  -12.8205   22.0412 N   0  0  0  0  0  0
  -25.4121  -15.1810   20.3719 N   0  0  0  0  0  0
  -31.7367  -14.8751   20.0840 O   0  0  0  0  0  0
  -21.6633   -6.8878   21.4239 O   0  0  0  0  0  0
  -22.3513  -14.5521   20.6699 O   0  0  0  0  0  0
  -24.6247  -31.8577   23.2009 C   0  0  0  0  0  0
  -25.9095  -32.4772   23.8334 C   0  0  1  0  0  0
  -27.2331  -27.3113   20.1378 C   0  0  0  0  0  0
  -25.5928  -33.8568   24.2279 N   0  0  0  0  0  0
  -23.4204  -30.4777   21.5410 C   0  0  2  0  0  0
  -24.8698  -28.9191   20.1205 C   0  0  0  0  0  0
  -22.7481  -29.4595   22.4927 C   0  0  0  0  0  0
  -18.0281  -28.1388   22.8473 C   0  0  0  0  0  0
  -24.1485  -36.7266   23.2647 C   0  0  0  0  0  0
  -25.9594  -30.7879   21.3709 C   0  0  0  0  0  0
  -26.0355  -29.4107   20.7206 C   0  0  0  0  0  0
  -27.2214  -28.6195   20.7124 C   0  0  0  0  0  0
  -26.0460  -26.8591   19.5273 C   0  0  0  0  0  0
  -24.8767  -27.6491   19.5166 C   0  0  0  0  0  0
  -23.6396  -29.8041   20.1599 C   0  0  0  0  0  0
  -25.4105  -36.3076   24.0349 C   0  0  1  0  0  0
  -20.5885  -28.3681   23.1290 C   0  0  2  0  0  0
  -20.6775  -26.9403   22.5417 C   0  0  0  0  0  0
  -19.5751  -26.6380   21.5213 C   0  0  0  0  0  0
  -18.1921  -26.7923   22.1614 C   0  0  0  0  0  0
  -19.1540  -28.8846   23.2874 C   0  0  0  0  0  0
  -18.9468  -30.1443   23.8891 C   0  0  0  0  0  0
  -17.6476  -30.6588   24.0555 C   0  0  0  0  0  0
  -25.9049  -34.9449   23.5115 C   0  0  0  0  0  0
  -16.5359  -29.9086   23.6346 C   0  0  0  0  0  0
  -16.7275  -28.6515   23.0341 C   0  0  0  0  0  0
  -26.4489  -31.6574   25.0697 C   0  0  0  0  0  0
  -25.3741  -31.3726   26.1456 C   0  0  0  0  0  0
  -27.0330  -30.3007   24.6125 C   0  0  0  0  0  0
  -27.6053  -32.4310   25.7465 C   0  0  0  0  0  0
  -27.5573  -37.1787   24.8477 C   0  0  0  0  0  0
  -21.4188  -29.3033   22.3689 N   0  0  0  0  0  0
  -26.4280  -37.3771   23.9428 N   0  0  0  0  0  0
  -24.6866  -31.0577   22.0960 N   0  0  0  0  0  0
  -23.4213  -28.8140   23.3007 O   0  0  0  0  0  0
  -28.3833  -26.5144   20.0994 O   0  0  0  0  0  0
  -26.5602  -34.8917   22.4673 O   0  0  0  0  0  0
  -23.5413  -32.1376   23.7339 O   0  0  0  0  0  0
  -30.2894  -19.4625   20.1883 C   0  0  0  0  0  0
  -30.5366  -18.0407   20.1977 C   0  0  0  0  0  0
  -28.2801  -19.1119   21.4455 C   0  0  0  0  0  0
  -29.1408  -20.0447   20.8121 C   0  0  0  0  0  0
  -29.6630  -17.1247   20.8597 C   0  0  0  0  0  0
  -28.5372  -17.7163   21.4902 C   0  0  0  0  0  0
  -28.7987  -21.5899   20.9796 C   0  0  0  0  0  0
  -28.2239  -23.8640   19.7309 C   0  0  0  0  0  0
  -28.3992  -25.1418   20.6712 C   0  0  0  0  0  0
  -29.7642  -15.6605   20.9604 N   0  0  0  0  0  0
  -29.1015  -22.6128   19.9074 N   0  3  0  0  0  0
  -27.4433  -16.7212   22.3851 Cl  0  0  0  0  0  0
  -31.4864  -12.5672   19.1304 H   0  0  0  0  0  0
  -30.4147  -11.4148   19.8768 H   0  0  0  0  0  0
  -29.7694  -11.7578   17.4811 H   0  0  0  0  0  0
  -29.6491  -13.4813   17.7299 H   0  0  0  0  0  0
  -27.8571  -11.3028   18.8475 H   0  0  0  0  0  0
  -27.3780  -12.6066   17.7943 H   0  0  0  0  0  0
  -27.6786  -14.2559   19.5441 H   0  0  0  0  0  0
  -28.7314  -12.0159   21.3418 H   0  0  0  0  0  0
  -28.4465  -13.6461   21.8684 H   0  0  0  0  0  0
  -25.2771   -9.5664   22.4778 H   0  0  0  0  0  0
  -24.0005   -7.4617   22.7473 H   0  0  0  0  0  0
  -21.0860   -8.8778   19.8944 H   0  0  0  0  0  0
  -22.3726  -10.9675   19.6181 H   0  0  0  0  0  0
  -21.1985   -7.6146   23.9715 H   0  0  0  0  0  0
  -21.1477   -6.0520   25.9075 H   0  0  0  0  0  0
  -22.0603   -2.7614   23.2838 H   0  0  0  0  0  0
  -22.4111  -11.9854   22.4787 H   0  0  0  0  0  0
  -21.1120  -13.1241   22.2641 H   0  0  0  0  0  0
  -24.6511  -15.8377   20.5002 H   0  0  0  0  0  0
  -26.2766  -15.6268   20.0955 H   0  0  0  0  0  0
  -26.7152  -32.5457   23.1067 H   0  0  0  0  0  0
  -25.0126  -33.9703   25.0462 H   0  0  0  0  0  0
  -22.7135  -31.2966   21.3922 H   0  0  0  0  0  0
  -23.3766  -35.9584   23.3315 H   0  0  0  0  0  0
  -24.3577  -36.8868   22.2062 H   0  0  0  0  0  0
  -23.7220  -37.6463   23.6655 H   0  0  0  0  0  0
  -26.0890  -31.5479   20.5990 H   0  0  0  0  0  0
  -26.8411  -30.8414   21.9982 H   0  0  0  0  0  0
  -28.1243  -28.9988   21.1683 H   0  0  0  0  0  0
  -26.0246  -25.8906   19.0479 H   0  0  0  0  0  0
  -23.9829  -27.2660   19.0439 H   0  0  0  0  0  0
  -23.7701  -30.5795   19.4034 H   0  0  0  0  0  0
  -22.7596  -29.2388   19.8513 H   0  0  0  0  0  0
  -25.1281  -36.1927   25.0844 H   0  0  0  0  0  0
  -20.9957  -28.3245   24.1419 H   0  0  0  0  0  0
  -20.5676  -26.2275   23.3607 H   0  0  0  0  0  0
  -21.6637  -26.7426   22.1200 H   0  0  0  0  0  0
  -19.6915  -25.6298   21.1230 H   0  0  0  0  0  0
  -19.6703  -27.3199   20.6749 H   0  0  0  0  0  0
  -17.4193  -26.6679   21.4015 H   0  0  0  0  0  0
  -18.0307  -26.0065   22.9013 H   0  0  0  0  0  0
  -19.7955  -30.7246   24.2260 H   0  0  0  0  0  0
  -17.5045  -31.6275   24.5144 H   0  0  0  0  0  0
  -15.5367  -30.2988   23.7684 H   0  0  0  0  0  0
  -15.8666  -28.0842   22.7052 H   0  0  0  0  0  0
  -24.5900  -30.7085   25.7802 H   0  0  0  0  0  0
  -24.8956  -32.2898   26.4897 H   0  0  0  0  0  0
  -25.8083  -30.8901   27.0220 H   0  0  0  0  0  0
  -26.2877  -29.6760   24.1187 H   0  0  0  0  0  0
  -27.4097  -29.7263   25.4597 H   0  0  0  0  0  0
  -27.8724  -30.4321   23.9291 H   0  0  0  0  0  0
  -27.2681  -33.3628   26.2004 H   0  0  0  0  0  0
  -28.3880  -32.6825   25.0306 H   0  0  0  0  0  0
  -28.0692  -31.8461   26.5409 H   0  0  0  0  0  0
  -28.2589  -38.0080   24.7509 H   0  0  0  0  0  0
  -28.1065  -36.2610   24.6317 H   0  0  0  0  0  0
  -27.2295  -37.1453   25.8881 H   0  0  0  0  0  0
  -20.9366  -29.8765   21.6917 H   0  0  0  0  0  0
  -26.0169  -38.2849   24.1436 H   0  0  0  0  0  0
  -31.0121  -20.1046   19.7035 H   0  0  0  0  0  0
  -31.4181  -17.6615   19.6986 H   0  0  0  0  0  0
  -27.4026  -19.4746   21.9614 H   0  0  0  0  0  0
  -29.2599  -21.9309   21.9076 H   0  0  0  0  0  0
  -27.7246  -21.6475   21.1575 H   0  0  0  0  0  0
  -28.4222  -24.2080   18.7161 H   0  0  0  0  0  0
  -27.1745  -23.5658   19.7232 H   0  0  0  0  0  0
  -29.3684  -25.0554   21.1624 H   0  0  0  0  0  0
  -27.6770  -25.0858   21.4866 H   0  0  0  0  0  0
  -28.9342  -15.2663   21.3788 H   0  0  0  0  0  0
  -29.0162  -22.1028   19.0428 H   0  0  0  0  0  0
  -30.0701  -22.8806   19.9794 H   0  0  0  0  0  0
  1 25  1  0  0  0
  1 30  2  0  0  0
  1 80  1  0  0  0
  2  3  1  0  0  0
  2 25  1  0  0  0
  2 83  1  0  0  0
  2 84  1  0  0  0
  3  4  1  0  0  0
  3 85  1  0  0  0
  3 86  1  0  0  0
  4  5  1  0  0  0
  4 87  1  0  0  0
  4 88  1  0  0  0
  5  6  1  0  0  0
  5 26  1  0  0  0
  5 89  1  0  0  0
  6 25  1  0  0  0
  6 90  1  0  0  0
  6 91  1  0  0  0
  7  8  2  0  0  0
  7 26  1  0  0  0
  7 29  1  0  0  0
  8  9  1  0  0  0
  8 22  1  0  0  0
  9 10  1  0  0  0
  9 27  2  0  0  0
 10 11  2  0  0  0
 10 15  1  0  0  0
 11 12  1  0  0  0
 11 92  1  0  0  0
 12 13  2  0  0  0
 12 93  1  0  0  0
 13 14  1  0  0  0
 13 31  1  0  0  0
 14 15  2  0  0  0
 14 94  1  0  0  0
 15 95  1  0  0  0
 16 17  2  0  0  0
 16 21  1  0  0  0
 16 31  1  0  0  0
 17 18  1  0  0  0
 17 96  1  0  0  0
 18 19  2  0  0  0
 18 97  1  0  0  0
 19 20  1  0  0  0
 19 24  1  0  0  0
 20 21  2  0  0  0
 20 98  1  0  0  0
 21 23  1  0  0  0
 22 28  1  0  0  0
 22 32  2  0  0  0
 26 27  1  0  0  0
 28 99  1  0  0  0
 28100  1  0  0  0
 29101  1  0  0  0
 29102  1  0  0  0
 33 34  1  0  0  0
 33 66  1  0  0  0
 33 70  2  0  0  0
 34 36  1  0  0  0
 34 59  1  0  0  0
 34103  1  0  0  0
 35 44  2  0  0  0
 35 45  1  0  0  0
 35 68  1  0  0  0
 36 56  1  0  0  0
 36104  1  0  0  0
 37 39  1  0  0  0
 37 47  1  0  0  0
 37 66  1  0  0  0
 37105  1  0  0  0
 38 43  2  0  0  0
 38 46  1  0  0  0
 38 47  1  0  0  0
 39 64  1  0  0  0
 39 67  2  0  0  0
 40 52  1  0  0  0
 40 53  2  0  0  0
 40 58  1  0  0  0
 41106  1  0  0  0
 41107  1  0  0  0
 41108  1  0  0  0
 41 48  1  0  0  0
 42 43  1  0  0  0
 42 66  1  0  0  0
 42109  1  0  0  0
 42110  1  0  0  0
 43 44  1  0  0  0
 44111  1  0  0  0
 45 46  2  0  0  0
 45112  1  0  0  0
 46113  1  0  0  0
 47114  1  0  0  0
 47115  1  0  0  0
 48 56  1  0  0  0
 48 65  1  0  0  0
 48116  1  0  0  0
 49 50  1  0  0  0
 49 53  1  0  0  0
 49 64  1  0  0  0
 49117  1  0  0  0
 50 51  1  0  0  0
 50118  1  0  0  0
 50119  1  0  0  0
 51 52  1  0  0  0
 51120  1  0  0  0
 51121  1  0  0  0
 52122  1  0  0  0
 52123  1  0  0  0
 53 54  1  0  0  0
 54 55  2  0  0  0
 54124  1  0  0  0
 55 57  1  0  0  0
 55125  1  0  0  0
 56 69  2  0  0  0
 57 58  2  0  0  0
 57126  1  0  0  0
 58127  1  0  0  0
 59 60  1  0  0  0
 59 61  1  0  0  0
 59 62  1  0  0  0
 60128  1  0  0  0
 60129  1  0  0  0
 60130  1  0  0  0
 61131  1  0  0  0
 61132  1  0  0  0
 61133  1  0  0  0
 62134  1  0  0  0
 62135  1  0  0  0
 62136  1  0  0  0
 63 65  1  0  0  0
 63137  1  0  0  0
 63138  1  0  0  0
 63139  1  0  0  0
 64140  1  0  0  0
 65141  1  0  0  0
 68 79  1  0  0  0
 71 72  2  0  0  0
 71 74  1  0  0  0
 71142  1  0  0  0
 72 75  1  0  0  0
 72143  1  0  0  0
 73 74  2  0  0  0
 73 76  1  0  0  0
 73144  1  0  0  0
 74 77  1  0  0  0
 75 76  2  0  0  0
 75 80  1  0  0  0
 76 82  1  0  0  0
 77 81  1  0  0  0
 77145  1  0  0  0
 77146  1  0  0  0
 78 79  1  0  0  0
 78 81  1  0  0  0
 78147  1  0  0  0
 78148  1  0  0  0
 79149  1  0  0  0
 79150  1  0  0  0
 80151  1  0  0  0
 81152  1  0  0  0
 81153  1  0  0  0
M  CHG  1  81   1
M  ISO  4   1 100  68 101  79 101  80 100
M  END
> <chiral flag>
0

> <version>
0

> <s_m_source_file>
/data/baiqing/PycharmProjects/Reinvent-master-3.2/result/LINK_invent/BTK/process_docking_weight1_custom_product_contain_oxygen_bond_distance_aromatic_linkinvent_7_9_3/rearranged_h_0013.sdf

> <i_m_source_file_index>
74

> <r_mmod_Potential_Energy-OPLS-2005>
-80.4939880371094

> <r_mmod_Stretch_Energy-OPLS-2005>
87.8066329956055

> <r_mmod_Bend_Energy-OPLS-2005>
185.707748413086

> <r_mmod_Torsional_Energy-OPLS-2005>
236.429458618164

> <r_mmod_Improper_Torsional_Energy-OPLS-2005>
3.60788893699646

> <r_mmod_Van_der_Waal_Energy-OPLS-2005>
130.897430419922

> <r_mmod_Electrostatic_Energy-OPLS-2005>
-304.163726806641

> <r_mmod_Solvation_Energy-OPLS-2005>
-471.931243896484

> <b_mmod_Minimization_Converged-OPLS-2005>
0

> <r_mmod_RMS_Derivative-OPLS-2005>
2.12187266349792

$$$$
75
                    3D
 Structure written by MMmdl.
162171  0  0  1  0            999 V2000
  -30.5884  -14.7307   20.4957 C   0  0  0  0  0  0
  -30.4453  -12.4514   19.4677 C   0  0  0  0  0  0
  -29.5118  -12.5155   18.2361 C   0  0  0  0  0  0
  -28.0374  -12.3395   18.6500 C   0  0  0  0  0  0
  -27.6508  -13.2234   19.8653 C   0  0  2  0  0  0
  -28.6956  -13.1128   20.9982 C   0  0  0  0  0  0
  -25.2528  -13.8164   20.5656 C   0  0  0  0  0  0
  -24.1807  -13.0424   20.9164 C   0  0  0  0  0  0
  -24.6396  -11.6904   20.8740 C   0  0  0  0  0  0
  -23.9067  -10.4287   21.0404 C   0  0  0  0  0  0
  -24.3615   -9.4204   21.9183 C   0  0  0  0  0  0
  -23.6290   -8.2239   22.0755 C   0  0  0  0  0  0
  -22.4274   -8.0276   21.3544 C   0  0  0  0  0  0
  -21.9911   -9.0248   20.4644 C   0  0  0  0  0  0
  -22.7237  -10.2130   20.3055 C   0  0  0  0  0  0
  -21.6855   -6.0733   22.5274 C   0  0  0  0  0  0
  -21.4013   -6.5640   23.8206 C   0  0  0  0  0  0
  -21.3660   -5.6793   24.9169 C   0  0  0  0  0  0
  -21.6045   -4.3055   24.7222 C   0  0  0  0  0  0
  -21.8821   -3.8147   23.4344 C   0  0  0  0  0  0
  -21.9193   -4.6960   22.3399 C   0  0  0  0  0  0
  -22.7831  -13.5211   21.1842 C   0  0  0  0  0  0
  -22.1660   -4.2147   21.0975 F   0  0  0  0  0  0
  -21.5634   -3.4539   25.7736 F   0  0  0  0  0  0
  -30.0027  -13.4843   20.4325 N   0  0  0  0  0  0
  -26.2981  -12.9365   20.3349 N   0  0  0  0  0  0
  -25.9337  -11.6518   20.5793 N   0  0  0  0  0  0
  -22.0494  -12.8199   22.0415 N   0  0  0  0  0  0
  -25.4200  -15.1871   20.4005 N   0  0  0  0  0  0
  -31.7454  -14.8963   20.0964 O   0  0  0  0  0  0
  -21.6641   -6.8873   21.4235 O   0  0  0  0  0  0
  -22.3504  -14.5518   20.6700 O   0  0  0  0  0  0
  -24.6294  -31.8548   23.1984 C   0  0  0  0  0  0
  -25.9114  -32.4757   23.8321 C   0  0  1  0  0  0
  -27.2271  -27.2642   20.1332 C   0  0  0  0  0  0
  -25.5911  -33.8561   24.2238 N   0  0  0  0  0  0
  -23.4268  -30.4778   21.5397 C   0  0  2  0  0  0
  -24.8754  -28.9240   20.1118 C   0  0  0  0  0  0
  -22.7509  -29.4593   22.4899 C   0  0  0  0  0  0
  -18.0289  -28.1402   22.8479 C   0  0  0  0  0  0
  -24.1490  -36.7273   23.2647 C   0  0  0  0  0  0
  -25.9719  -30.7717   21.3755 C   0  0  0  0  0  0
  -26.0467  -29.3939   20.7185 C   0  0  0  0  0  0
  -27.2226  -28.5772   20.7157 C   0  0  0  0  0  0
  -26.0241  -26.8548   19.5126 C   0  0  0  0  0  0
  -24.8693  -27.6623   19.5009 C   0  0  0  0  0  0
  -23.6468  -29.8121   20.1560 C   0  0  0  0  0  0
  -25.4112  -36.3058   24.0328 C   0  0  1  0  0  0
  -20.5896  -28.3682   23.1280 C   0  0  2  0  0  0
  -20.6778  -26.9405   22.5414 C   0  0  0  0  0  0
  -19.5752  -26.6381   21.5223 C   0  0  0  0  0  0
  -18.1926  -26.7940   22.1625 C   0  0  0  0  0  0
  -19.1549  -28.8860   23.2873 C   0  0  0  0  0  0
  -18.9480  -30.1466   23.8879 C   0  0  0  0  0  0
  -17.6484  -30.6599   24.0568 C   0  0  0  0  0  0
  -25.9052  -34.9440   23.5086 C   0  0  0  0  0  0
  -16.5366  -29.9107   23.6346 C   0  0  0  0  0  0
  -16.7278  -28.6535   23.0343 C   0  0  0  0  0  0
  -26.4488  -31.6587   25.0708 C   0  0  0  0  0  0
  -25.3716  -31.3763   26.1428 C   0  0  0  0  0  0
  -27.0326  -30.3004   24.6185 C   0  0  0  0  0  0
  -27.6028  -32.4344   25.7485 C   0  0  0  0  0  0
  -27.5570  -37.1789   24.8468 C   0  0  0  0  0  0
  -21.4212  -29.3040   22.3671 N   0  0  0  0  0  0
  -26.4277  -37.3763   23.9421 N   0  0  0  0  0  0
  -24.6951  -31.0531   22.0948 N   0  0  0  0  0  0
  -23.4219  -28.8135   23.2990 O   0  0  0  0  0  0
  -28.3528  -26.4059   20.1837 O   0  0  0  0  0  0
  -26.5638  -34.8920   22.4661 O   0  0  0  0  0  0
  -23.5440  -32.1351   23.7282 O   0  0  0  0  0  0
  -30.6146  -19.5037   20.0405 C   0  0  0  0  0  0
  -30.7015  -18.0667   20.0591 C   0  0  0  0  0  0
  -28.7505  -19.4268   21.5317 C   0  0  0  0  0  0
  -29.6398  -20.2458   20.7798 C   0  0  0  0  0  0
  -29.8147  -17.2587   20.8292 C   0  0  0  0  0  0
  -28.8246  -17.9884   21.5628 C   0  0  0  0  0  0
  -28.0106  -23.8484   20.9386 C   0  0  0  0  0  0
  -29.5779  -24.1110   19.7136 C   0  0  0  0  0  0
  -28.2642  -24.9399   19.8466 C   0  0  2  0  0  0
  -26.5538  -17.7531   22.4356 C   0  0  0  0  0  0
  -28.4973  -16.7381   23.6046 C   0  0  0  0  0  0
  -29.7138  -21.8392   20.9771 C   0  0  0  0  0  0
  -29.7787  -15.7756   20.8937 N   0  0  0  0  0  0
  -27.9243  -17.2535   22.3625 N   0  0  0  0  0  0
  -28.8830  -22.8785   20.2007 N   0  3  1  0  0  0
  -31.4816  -12.5986   19.1587 H   0  0  0  0  0  0
  -30.4094  -11.4623   19.9277 H   0  0  0  0  0  0
  -29.7888  -11.7470   17.5129 H   0  0  0  0  0  0
  -29.6372  -13.4730   17.7284 H   0  0  0  0  0  0
  -27.8893  -11.2877   18.8980 H   0  0  0  0  0  0
  -27.3789  -12.5464   17.8059 H   0  0  0  0  0  0
  -27.6585  -14.2542   19.5097 H   0  0  0  0  0  0
  -28.7276  -12.0974   21.3959 H   0  0  0  0  0  0
  -28.4223  -13.7522   21.8386 H   0  0  0  0  0  0
  -25.2762   -9.5684   22.4759 H   0  0  0  0  0  0
  -24.0000   -7.4635   22.7479 H   0  0  0  0  0  0
  -21.0844   -8.8762   19.8949 H   0  0  0  0  0  0
  -22.3687  -10.9669   19.6167 H   0  0  0  0  0  0
  -21.2002   -7.6146   23.9708 H   0  0  0  0  0  0
  -21.1483   -6.0523   25.9073 H   0  0  0  0  0  0
  -22.0602   -2.7606   23.2841 H   0  0  0  0  0  0
  -22.4112  -11.9843   22.4762 H   0  0  0  0  0  0
  -21.1122  -13.1234   22.2664 H   0  0  0  0  0  0
  -24.6549  -15.8416   20.5129 H   0  0  0  0  0  0
  -26.2920  -15.6360   20.1506 H   0  0  0  0  0  0
  -26.7170  -32.5397   23.1051 H   0  0  0  0  0  0
  -25.0028  -33.9708   25.0364 H   0  0  0  0  0  0
  -22.7221  -31.2997   21.3938 H   0  0  0  0  0  0
  -23.3750  -35.9606   23.3300 H   0  0  0  0  0  0
  -24.3583  -36.8905   22.2066 H   0  0  0  0  0  0
  -23.7258  -37.6479   23.6677 H   0  0  0  0  0  0
  -26.1087  -31.5360   20.6086 H   0  0  0  0  0  0
  -26.8492  -30.8216   22.0085 H   0  0  0  0  0  0
  -28.1208  -28.9365   21.1986 H   0  0  0  0  0  0
  -25.9289  -25.8903   19.0417 H   0  0  0  0  0  0
  -23.9701  -27.2911   19.0291 H   0  0  0  0  0  0
  -23.7759  -30.5891   19.4007 H   0  0  0  0  0  0
  -22.7641  -29.2505   19.8449 H   0  0  0  0  0  0
  -25.1309  -36.1880   25.0821 H   0  0  0  0  0  0
  -20.9977  -28.3235   24.1407 H   0  0  0  0  0  0
  -20.5688  -26.2292   23.3612 H   0  0  0  0  0  0
  -21.6642  -26.7446   22.1203 H   0  0  0  0  0  0
  -19.6919  -25.6298   21.1245 H   0  0  0  0  0  0
  -19.6686  -27.3200   20.6759 H   0  0  0  0  0  0
  -17.4205  -26.6682   21.4022 H   0  0  0  0  0  0
  -18.0312  -26.0101   22.9034 H   0  0  0  0  0  0
  -19.7963  -30.7287   24.2224 H   0  0  0  0  0  0
  -17.5055  -31.6281   24.5169 H   0  0  0  0  0  0
  -15.5376  -30.3014   23.7703 H   0  0  0  0  0  0
  -15.8667  -28.0875   22.7044 H   0  0  0  0  0  0
  -24.5891  -30.7106   25.7769 H   0  0  0  0  0  0
  -24.8908  -32.2960   26.4791 H   0  0  0  0  0  0
  -25.8030  -30.8994   27.0240 H   0  0  0  0  0  0
  -26.2900  -29.6761   24.1196 H   0  0  0  0  0  0
  -27.4018  -29.7253   25.4688 H   0  0  0  0  0  0
  -27.8777  -30.4292   23.9412 H   0  0  0  0  0  0
  -27.2607  -33.3651   26.2022 H   0  0  0  0  0  0
  -28.3849  -32.6890   25.0323 H   0  0  0  0  0  0
  -28.0668  -31.8500   26.5439 H   0  0  0  0  0  0
  -28.2576  -38.0093   24.7504 H   0  0  0  0  0  0
  -28.1078  -36.2624   24.6296 H   0  0  0  0  0  0
  -27.2296  -37.1440   25.8875 H   0  0  0  0  0  0
  -20.9393  -29.8782   21.6896 H   0  0  0  0  0  0
  -26.0140  -38.2826   24.1450 H   0  0  0  0  0  0
  -31.3576  -20.0462   19.4717 H   0  0  0  0  0  0
  -31.4758  -17.5888   19.4759 H   0  0  0  0  0  0
  -28.0230  -19.9274   22.1545 H   0  0  0  0  0  0
  -26.9719  -23.5298   21.0230 H   0  0  0  0  0  0
  -28.4101  -24.1260   21.9164 H   0  0  0  0  0  0
  -30.3633  -24.4574   20.3885 H   0  0  0  0  0  0
  -29.9554  -24.0208   18.6950 H   0  0  0  0  0  0
  -27.6712  -24.7622   18.9490 H   0  0  0  0  0  0
  -26.2138  -18.1294   21.4687 H   0  0  0  0  0  0
  -26.4609  -18.5561   23.1687 H   0  0  0  0  0  0
  -25.8752  -16.9526   22.7338 H   0  0  0  0  0  0
  -29.5830  -16.6333   23.5551 H   0  0  0  0  0  0
  -28.0816  -15.7553   23.8332 H   0  0  0  0  0  0
  -28.2697  -17.3972   24.4441 H   0  0  0  0  0  0
  -30.7597  -22.0992   20.8114 H   0  0  0  0  0  0
  -29.5645  -22.0306   22.0396 H   0  0  0  0  0  0
  -28.9127  -15.4604   21.3079 H   0  0  0  0  0  0
  -28.3746  -22.4427   19.4463 H   0  0  0  0  0  0
  1 25  1  0  0  0
  1 30  2  0  0  0
  1 83  1  0  0  0
  2  3  1  0  0  0
  2 25  1  0  0  0
  2 86  1  0  0  0
  2 87  1  0  0  0
  3  4  1  0  0  0
  3 88  1  0  0  0
  3 89  1  0  0  0
  4  5  1  0  0  0
  4 90  1  0  0  0
  4 91  1  0  0  0
  5  6  1  0  0  0
  5 26  1  0  0  0
  5 92  1  0  0  0
  6 25  1  0  0  0
  6 93  1  0  0  0
  6 94  1  0  0  0
  7  8  2  0  0  0
  7 26  1  0  0  0
  7 29  1  0  0  0
  8  9  1  0  0  0
  8 22  1  0  0  0
  9 10  1  0  0  0
  9 27  2  0  0  0
 10 11  2  0  0  0
 10 15  1  0  0  0
 11 12  1  0  0  0
 11 95  1  0  0  0
 12 13  2  0  0  0
 12 96  1  0  0  0
 13 14  1  0  0  0
 13 31  1  0  0  0
 14 15  2  0  0  0
 14 97  1  0  0  0
 15 98  1  0  0  0
 16 17  2  0  0  0
 16 21  1  0  0  0
 16 31  1  0  0  0
 17 18  1  0  0  0
 17 99  1  0  0  0
 18 19  2  0  0  0
 18100  1  0  0  0
 19 20  1  0  0  0
 19 24  1  0  0  0
 20 21  2  0  0  0
 20101  1  0  0  0
 21 23  1  0  0  0
 22 28  1  0  0  0
 22 32  2  0  0  0
 26 27  1  0  0  0
 28102  1  0  0  0
 28103  1  0  0  0
 29104  1  0  0  0
 29105  1  0  0  0
 33 34  1  0  0  0
 33 66  1  0  0  0
 33 70  2  0  0  0
 34 36  1  0  0  0
 34 59  1  0  0  0
 34106  1  0  0  0
 35 44  2  0  0  0
 35 45  1  0  0  0
 35 68  1  0  0  0
 36 56  1  0  0  0
 36107  1  0  0  0
 37 39  1  0  0  0
 37 47  1  0  0  0
 37 66  1  0  0  0
 37108  1  0  0  0
 38 43  2  0  0  0
 38 46  1  0  0  0
 38 47  1  0  0  0
 39 64  1  0  0  0
 39 67  2  0  0  0
 40 52  1  0  0  0
 40 53  2  0  0  0
 40 58  1  0  0  0
 41109  1  0  0  0
 41110  1  0  0  0
 41111  1  0  0  0
 41 48  1  0  0  0
 42 43  1  0  0  0
 42 66  1  0  0  0
 42112  1  0  0  0
 42113  1  0  0  0
 43 44  1  0  0  0
 44114  1  0  0  0
 45 46  2  0  0  0
 45115  1  0  0  0
 46116  1  0  0  0
 47117  1  0  0  0
 47118  1  0  0  0
 48 56  1  0  0  0
 48 65  1  0  0  0
 48119  1  0  0  0
 49 50  1  0  0  0
 49 53  1  0  0  0
 49 64  1  0  0  0
 49120  1  0  0  0
 50 51  1  0  0  0
 50121  1  0  0  0
 50122  1  0  0  0
 51 52  1  0  0  0
 51123  1  0  0  0
 51124  1  0  0  0
 52125  1  0  0  0
 52126  1  0  0  0
 53 54  1  0  0  0
 54 55  2  0  0  0
 54127  1  0  0  0
 55 57  1  0  0  0
 55128  1  0  0  0
 56 69  2  0  0  0
 57 58  2  0  0  0
 57129  1  0  0  0
 58130  1  0  0  0
 59 60  1  0  0  0
 59 61  1  0  0  0
 59 62  1  0  0  0
 60131  1  0  0  0
 60132  1  0  0  0
 60133  1  0  0  0
 61134  1  0  0  0
 61135  1  0  0  0
 61136  1  0  0  0
 62137  1  0  0  0
 62138  1  0  0  0
 62139  1  0  0  0
 63 65  1  0  0  0
 63140  1  0  0  0
 63141  1  0  0  0
 63142  1  0  0  0
 64143  1  0  0  0
 65144  1  0  0  0
 68 79  1  0  0  0
 71 72  2  0  0  0
 71 74  1  0  0  0
 71145  1  0  0  0
 72 75  1  0  0  0
 72146  1  0  0  0
 73 74  2  0  0  0
 73 76  1  0  0  0
 73147  1  0  0  0
 74 82  1  0  0  0
 75 76  2  0  0  0
 75 83  1  0  0  0
 76 84  1  0  0  0
 77 79  1  0  0  0
 77 85  1  0  0  0
 77148  1  0  0  0
 77149  1  0  0  0
 78 79  1  0  0  0
 78 85  1  0  0  0
 78150  1  0  0  0
 78151  1  0  0  0
 79152  1  0  0  0
 80 84  1  0  0  0
 80153  1  0  0  0
 80154  1  0  0  0
 80155  1  0  0  0
 81 84  1  0  0  0
 81156  1  0  0  0
 81157  1  0  0  0
 81158  1  0  0  0
 82159  1  0  0  0
 82160  1  0  0  0
 82 85  1  0  0  0
 83161  1  0  0  0
 85162  1  0  0  0
M  CHG  1  85   1
M  ISO  4   1 100  68 101  79 101  83 100
M  END
> <chiral flag>
0

> <version>
0

> <s_m_source_file>
/data/baiqing/PycharmProjects/Reinvent-master-3.2/result/LINK_invent/BTK/process_docking_weight1_custom_product_contain_oxygen_bond_distance_aromatic_linkinvent_7_9_3/rearranged_h_0013.sdf

> <i_m_source_file_index>
75

> <r_mmod_Potential_Energy-OPLS-2005>
-76.3297576904297

> <r_mmod_Stretch_Energy-OPLS-2005>
112.83422088623

> <r_mmod_Bend_Energy-OPLS-2005>
208.715957641602

> <r_mmod_Torsional_Energy-OPLS-2005>
231.015594482422

> <r_mmod_Improper_Torsional_Energy-OPLS-2005>
7.95946979522705

> <r_mmod_Van_der_Waal_Energy-OPLS-2005>
142.861190795898

> <r_mmod_Electrostatic_Energy-OPLS-2005>
-375.134429931641

> <r_mmod_Solvation_Energy-OPLS-2005>
-481.540924072266

> <b_mmod_Minimization_Converged-OPLS-2005>
0

> <r_mmod_RMS_Derivative-OPLS-2005>
1.64591526985168

$$$$
76
                    3D
 Structure written by MMmdl.
156165  0  0  1  0            999 V2000
  -30.5503  -14.7830   20.4544 C   0  0  0  0  0  0
  -30.4509  -12.4779   19.4684 C   0  0  0  0  0  0
  -29.5171  -12.5169   18.2357 C   0  0  0  0  0  0
  -28.0428  -12.3289   18.6495 C   0  0  0  0  0  0
  -27.6446  -13.2227   19.8530 C   0  0  2  0  0  0
  -28.6916  -13.1389   20.9859 C   0  0  0  0  0  0
  -25.2526  -13.8165   20.5686 C   0  0  0  0  0  0
  -24.1811  -13.0423   20.9207 C   0  0  0  0  0  0
  -24.6395  -11.6900   20.8748 C   0  0  0  0  0  0
  -23.9068  -10.4284   21.0411 C   0  0  0  0  0  0
  -24.3618   -9.4200   21.9187 C   0  0  0  0  0  0
  -23.6291   -8.2238   22.0756 C   0  0  0  0  0  0
  -22.4272   -8.0279   21.3547 C   0  0  0  0  0  0
  -21.9909   -9.0254   20.4650 C   0  0  0  0  0  0
  -22.7241  -10.2131   20.3059 C   0  0  0  0  0  0
  -21.6850   -6.0736   22.5280 C   0  0  0  0  0  0
  -21.4013   -6.5640   23.8214 C   0  0  0  0  0  0
  -21.3658   -5.6792   24.9175 C   0  0  0  0  0  0
  -21.6043   -4.3055   24.7225 C   0  0  0  0  0  0
  -21.8819   -3.8147   23.4346 C   0  0  0  0  0  0
  -21.9191   -4.6963   22.3402 C   0  0  0  0  0  0
  -22.7835  -13.5215   21.1866 C   0  0  0  0  0  0
  -22.1660   -4.2150   21.0979 F   0  0  0  0  0  0
  -21.5631   -3.4540   25.7739 F   0  0  0  0  0  0
  -29.9898  -13.5227   20.4108 N   0  0  0  0  0  0
  -26.2949  -12.9354   20.3280 N   0  0  0  0  0  0
  -25.9322  -11.6507   20.5746 N   0  0  0  0  0  0
  -22.0477  -12.8210   22.0423 N   0  0  0  0  0  0
  -25.4199  -15.1890   20.4090 N   0  0  0  0  0  0
  -31.7364  -14.9436   20.1470 O   0  0  0  0  0  0
  -21.6636   -6.8878   21.4242 O   0  0  0  0  0  0
  -22.3522  -14.5521   20.6712 O   0  0  0  0  0  0
  -24.6338  -31.8519   23.1948 C   0  0  0  0  0  0
  -25.9152  -32.4738   23.8305 C   0  0  1  0  0  0
  -27.2270  -27.2411   20.1369 C   0  0  0  0  0  0
  -25.5933  -33.8540   24.2227 N   0  0  0  0  0  0
  -23.4318  -30.4723   21.5386 C   0  0  2  0  0  0
  -24.8800  -28.9098   20.1138 C   0  0  0  0  0  0
  -22.7513  -29.4586   22.4904 C   0  0  0  0  0  0
  -18.0294  -28.1391   22.8487 C   0  0  0  0  0  0
  -24.1489  -36.7276   23.2641 C   0  0  0  0  0  0
  -25.9785  -30.7606   21.3750 C   0  0  0  0  0  0
  -26.0529  -29.3801   20.7180 C   0  0  0  0  0  0
  -27.2300  -28.5617   20.7088 C   0  0  0  0  0  0
  -26.0267  -26.8342   19.5174 C   0  0  0  0  0  0
  -24.8732  -27.6461   19.5012 C   0  0  0  0  0  0
  -23.6516  -29.8000   20.1572 C   0  0  0  0  0  0
  -25.4119  -36.3058   24.0319 C   0  0  1  0  0  0
  -20.5899  -28.3703   23.1268 C   0  0  2  0  0  0
  -20.6780  -26.9418   22.5410 C   0  0  0  0  0  0
  -19.5753  -26.6384   21.5217 C   0  0  0  0  0  0
  -18.1934  -26.7932   22.1628 C   0  0  0  0  0  0
  -19.1549  -28.8865   23.2869 C   0  0  0  0  0  0
  -18.9467  -30.1468   23.8885 C   0  0  0  0  0  0
  -17.6465  -30.6589   24.0566 C   0  0  0  0  0  0
  -25.9062  -34.9432   23.5079 C   0  0  0  0  0  0
  -16.5357  -29.9085   23.6335 C   0  0  0  0  0  0
  -16.7282  -28.6505   23.0353 C   0  0  0  0  0  0
  -26.4508  -31.6578   25.0712 C   0  0  0  0  0  0
  -25.3721  -31.3735   26.1426 C   0  0  0  0  0  0
  -27.0365  -30.2993   24.6222 C   0  0  0  0  0  0
  -27.6052  -32.4331   25.7490 C   0  0  0  0  0  0
  -27.5578  -37.1793   24.8464 C   0  0  0  0  0  0
  -21.4217  -29.3043   22.3650 N   0  0  0  0  0  0
  -26.4290  -37.3763   23.9408 N   0  0  0  0  0  0
  -24.7006  -31.0468   22.0927 N   0  0  0  0  0  0
  -23.4201  -28.8136   23.3021 O   0  0  0  0  0  0
  -28.3389  -26.3615   20.1656 O   0  0  0  0  0  0
  -26.5638  -34.8916   22.4652 O   0  0  0  0  0  0
  -23.5485  -32.1346   23.7237 O   0  0  0  0  0  0
  -28.3775  -19.3736   19.7321 C   0  0  0  0  0  0
  -30.3917  -19.6879   20.9493 C   0  0  0  0  0  0
  -28.5522  -17.9499   19.8262 C   0  0  0  0  0  0
  -30.5848  -18.2555   21.0227 C   0  0  0  0  0  0
  -29.2786  -20.3220   20.3030 C   0  0  0  0  0  0
  -29.6604  -17.3200   20.4676 C   0  0  0  0  0  0
  -28.1524  -23.9373   19.0805 C   0  0  0  0  0  0
  -29.3478  -24.1978   21.1674 C   0  0  0  0  0  0
  -28.0354  -22.3708   19.3556 C   0  0  0  0  0  0
  -29.2672  -22.6265   21.4223 C   0  0  0  0  0  0
  -28.1830  -24.8612   20.3486 C   0  0  0  0  0  0
  -29.0915  -21.7782   20.2174 N   0  0  0  0  0  0
  -29.6620  -15.8363   20.6522 N   0  0  0  0  0  0
  -31.4861  -12.6369   19.1615 H   0  0  0  0  0  0
  -30.4249  -11.4966   19.9447 H   0  0  0  0  0  0
  -29.8048  -11.7470   17.5184 H   0  0  0  0  0  0
  -29.6316  -13.4717   17.7201 H   0  0  0  0  0  0
  -27.9053  -11.2787   18.9098 H   0  0  0  0  0  0
  -27.3842  -12.5199   17.8015 H   0  0  0  0  0  0
  -27.6389  -14.2452   19.4756 H   0  0  0  0  0  0
  -28.7388  -12.1287   21.3952 H   0  0  0  0  0  0
  -28.4196  -13.7887   21.8193 H   0  0  0  0  0  0
  -25.2764   -9.5673   22.4760 H   0  0  0  0  0  0
  -24.0001   -7.4627   22.7474 H   0  0  0  0  0  0
  -21.0843   -8.8774   19.8952 H   0  0  0  0  0  0
  -22.3705  -10.9672   19.6168 H   0  0  0  0  0  0
  -21.2004   -7.6148   23.9718 H   0  0  0  0  0  0
  -21.1482   -6.0523   25.9079 H   0  0  0  0  0  0
  -22.0598   -2.7609   23.2849 H   0  0  0  0  0  0
  -22.4092  -11.9871   22.4810 H   0  0  0  0  0  0
  -21.1097  -13.1241   22.2631 H   0  0  0  0  0  0
  -24.6454  -15.8355   20.5140 H   0  0  0  0  0  0
  -26.2531  -15.6298   20.0448 H   0  0  0  0  0  0
  -26.7220  -32.5380   23.1046 H   0  0  0  0  0  0
  -25.0074  -33.9669   25.0368 H   0  0  0  0  0  0
  -22.7298  -31.2951   21.3882 H   0  0  0  0  0  0
  -23.3756  -35.9603   23.3298 H   0  0  0  0  0  0
  -24.3576  -36.8911   22.2056 H   0  0  0  0  0  0
  -23.7239  -37.6470   23.6679 H   0  0  0  0  0  0
  -26.1188  -31.5205   20.6050 H   0  0  0  0  0  0
  -26.8550  -30.8105   22.0096 H   0  0  0  0  0  0
  -28.1321  -28.9218   21.1835 H   0  0  0  0  0  0
  -25.9621  -25.8645   19.0494 H   0  0  0  0  0  0
  -23.9742  -27.2782   19.0258 H   0  0  0  0  0  0
  -23.7777  -30.5729   19.3982 H   0  0  0  0  0  0
  -22.7696  -29.2331   19.8537 H   0  0  0  0  0  0
  -25.1305  -36.1896   25.0811 H   0  0  0  0  0  0
  -20.9992  -28.3286   24.1389 H   0  0  0  0  0  0
  -20.5684  -26.2313   23.3617 H   0  0  0  0  0  0
  -21.6647  -26.7437   22.1204 H   0  0  0  0  0  0
  -19.6913  -25.6294   21.1250 H   0  0  0  0  0  0
  -19.6692  -27.3193   20.6746 H   0  0  0  0  0  0
  -17.4203  -26.6688   21.4029 H   0  0  0  0  0  0
  -18.0328  -26.0074   22.9025 H   0  0  0  0  0  0
  -19.7942  -30.7292   24.2243 H   0  0  0  0  0  0
  -17.5016  -31.6266   24.5173 H   0  0  0  0  0  0
  -15.5356  -30.2982   23.7663 H   0  0  0  0  0  0
  -15.8684  -28.0822   22.7069 H   0  0  0  0  0  0
  -24.5899  -30.7084   25.7748 H   0  0  0  0  0  0
  -24.8912  -32.2908   26.4834 H   0  0  0  0  0  0
  -25.8027  -30.8919   27.0215 H   0  0  0  0  0  0
  -26.2958  -29.6728   24.1239 H   0  0  0  0  0  0
  -27.4029  -29.7271   25.4755 H   0  0  0  0  0  0
  -27.8841  -30.4262   23.9483 H   0  0  0  0  0  0
  -27.2651  -33.3639   26.2041 H   0  0  0  0  0  0
  -28.3874  -32.6879   25.0327 H   0  0  0  0  0  0
  -28.0710  -31.8477   26.5428 H   0  0  0  0  0  0
  -28.2588  -38.0096   24.7516 H   0  0  0  0  0  0
  -28.1080  -36.2627   24.6285 H   0  0  0  0  0  0
  -27.2294  -37.1433   25.8865 H   0  0  0  0  0  0
  -20.9408  -29.8752   21.6840 H   0  0  0  0  0  0
  -26.0163  -38.2831   24.1420 H   0  0  0  0  0  0
  -27.4959  -19.7267   19.2181 H   0  0  0  0  0  0
  -31.1435  -20.3122   21.4093 H   0  0  0  0  0  0
  -27.7849  -17.3273   19.3897 H   0  0  0  0  0  0
  -31.4465  -17.8811   21.5568 H   0  0  0  0  0  0
  -27.3260  -24.2326   18.4355 H   0  0  0  0  0  0
  -29.0521  -24.1202   18.4916 H   0  0  0  0  0  0
  -30.2903  -24.4145   20.6631 H   0  0  0  0  0  0
  -29.4191  -24.6983   22.1337 H   0  0  0  0  0  0
  -28.0374  -21.8543   18.3948 H   0  0  0  0  0  0
  -27.0646  -22.1620   19.8084 H   0  0  0  0  0  0
  -28.4359  -22.4227   22.0994 H   0  0  0  0  0  0
  -30.1666  -22.3158   21.9549 H   0  0  0  0  0  0
  -27.2609  -24.6981   20.9086 H   0  0  0  0  0  0
  -28.7375  -15.4653   20.8059 H   0  0  0  0  0  0
  1 25  1  0  0  0
  1 30  2  0  0  0
  1 83  1  0  0  0
  2  3  1  0  0  0
  2 25  1  0  0  0
  2 84  1  0  0  0
  2 85  1  0  0  0
  3  4  1  0  0  0
  3 86  1  0  0  0
  3 87  1  0  0  0
  4  5  1  0  0  0
  4 88  1  0  0  0
  4 89  1  0  0  0
  5  6  1  0  0  0
  5 26  1  0  0  0
  5 90  1  0  0  0
  6 25  1  0  0  0
  6 91  1  0  0  0
  6 92  1  0  0  0
  7  8  2  0  0  0
  7 26  1  0  0  0
  7 29  1  0  0  0
  8  9  1  0  0  0
  8 22  1  0  0  0
  9 10  1  0  0  0
  9 27  2  0  0  0
 10 11  2  0  0  0
 10 15  1  0  0  0
 11 12  1  0  0  0
 11 93  1  0  0  0
 12 13  2  0  0  0
 12 94  1  0  0  0
 13 14  1  0  0  0
 13 31  1  0  0  0
 14 15  2  0  0  0
 14 95  1  0  0  0
 15 96  1  0  0  0
 16 17  2  0  0  0
 16 21  1  0  0  0
 16 31  1  0  0  0
 17 18  1  0  0  0
 17 97  1  0  0  0
 18 19  2  0  0  0
 18 98  1  0  0  0
 19 20  1  0  0  0
 19 24  1  0  0  0
 20 21  2  0  0  0
 20 99  1  0  0  0
 21 23  1  0  0  0
 22 28  1  0  0  0
 22 32  2  0  0  0
 26 27  1  0  0  0
 28100  1  0  0  0
 28101  1  0  0  0
 29102  1  0  0  0
 29103  1  0  0  0
 33 34  1  0  0  0
 33 66  1  0  0  0
 33 70  2  0  0  0
 34 36  1  0  0  0
 34 59  1  0  0  0
 34104  1  0  0  0
 35 44  2  0  0  0
 35 45  1  0  0  0
 35 68  1  0  0  0
 36 56  1  0  0  0
 36105  1  0  0  0
 37 39  1  0  0  0
 37 47  1  0  0  0
 37 66  1  0  0  0
 37106  1  0  0  0
 38 43  2  0  0  0
 38 46  1  0  0  0
 38 47  1  0  0  0
 39 64  1  0  0  0
 39 67  2  0  0  0
 40 52  1  0  0  0
 40 53  2  0  0  0
 40 58  1  0  0  0
 41107  1  0  0  0
 41108  1  0  0  0
 41109  1  0  0  0
 41 48  1  0  0  0
 42 43  1  0  0  0
 42 66  1  0  0  0
 42110  1  0  0  0
 42111  1  0  0  0
 43 44  1  0  0  0
 44112  1  0  0  0
 45 46  2  0  0  0
 45113  1  0  0  0
 46114  1  0  0  0
 47115  1  0  0  0
 47116  1  0  0  0
 48 56  1  0  0  0
 48 65  1  0  0  0
 48117  1  0  0  0
 49 50  1  0  0  0
 49 53  1  0  0  0
 49 64  1  0  0  0
 49118  1  0  0  0
 50 51  1  0  0  0
 50119  1  0  0  0
 50120  1  0  0  0
 51 52  1  0  0  0
 51121  1  0  0  0
 51122  1  0  0  0
 52123  1  0  0  0
 52124  1  0  0  0
 53 54  1  0  0  0
 54 55  2  0  0  0
 54125  1  0  0  0
 55 57  1  0  0  0
 55126  1  0  0  0
 56 69  2  0  0  0
 57 58  2  0  0  0
 57127  1  0  0  0
 58128  1  0  0  0
 59 60  1  0  0  0
 59 61  1  0  0  0
 59 62  1  0  0  0
 60129  1  0  0  0
 60130  1  0  0  0
 60131  1  0  0  0
 61132  1  0  0  0
 61133  1  0  0  0
 61134  1  0  0  0
 62135  1  0  0  0
 62136  1  0  0  0
 62137  1  0  0  0
 63 65  1  0  0  0
 63138  1  0  0  0
 63139  1  0  0  0
 63140  1  0  0  0
 64141  1  0  0  0
 65142  1  0  0  0
 68 81  1  0  0  0
 71 73  2  0  0  0
 71 75  1  0  0  0
 71143  1  0  0  0
 72 74  1  0  0  0
 72 75  2  0  0  0
 72144  1  0  0  0
 73 76  1  0  0  0
 73145  1  0  0  0
 74 76  2  0  0  0
 74146  1  0  0  0
 75 82  1  0  0  0
 76 83  1  0  0  0
 77 79  1  0  0  0
 77 81  1  0  0  0
 77147  1  0  0  0
 77148  1  0  0  0
 78 80  1  0  0  0
 78 81  1  0  0  0
 78149  1  0  0  0
 78150  1  0  0  0
 79 82  1  0  0  0
 79151  1  0  0  0
 79152  1  0  0  0
 80 82  1  0  0  0
 80153  1  0  0  0
 80154  1  0  0  0
 81155  1  0  0  0
 83156  1  0  0  0
M  ISO  4   1 100  68 101  81 101  83 100
M  END
> <chiral flag>
0

> <version>
0

> <s_m_source_file>
/data/baiqing/PycharmProjects/Reinvent-master-3.2/result/LINK_invent/BTK/process_docking_weight1_custom_product_contain_oxygen_bond_distance_aromatic_linkinvent_7_9_3/rearranged_h_0013.sdf

> <i_m_source_file_index>
76

> <r_mmod_Potential_Energy-OPLS-2005>
190.801544189453

> <r_mmod_Stretch_Energy-OPLS-2005>
124.130180358887

> <r_mmod_Bend_Energy-OPLS-2005>
190.531784057617

> <r_mmod_Torsional_Energy-OPLS-2005>
259.040710449219

> <r_mmod_Improper_Torsional_Energy-OPLS-2005>
9.05308055877686

> <r_mmod_Van_der_Waal_Energy-OPLS-2005>
136.684219360352

> <r_mmod_Electrostatic_Energy-OPLS-2005>
-396.944183349609

> <r_mmod_Solvation_Energy-OPLS-2005>
-230.249862670898

> <b_mmod_Minimization_Converged-OPLS-2005>
0

> <r_mmod_RMS_Derivative-OPLS-2005>
0.348706066608429

$$$$
77
                    3D
 Structure written by MMmdl.
156164  0  0  1  0            999 V2000
  -30.6289  -14.7603   20.5270 C   0  0  0  0  0  0
  -30.4237  -12.4826   19.4735 C   0  0  0  0  0  0
  -29.5010  -12.5469   18.2318 C   0  0  0  0  0  0
  -28.0261  -12.3466   18.6342 C   0  0  0  0  0  0
  -27.6364  -13.2253   19.8510 C   0  0  2  0  0  0
  -28.6790  -13.0756   20.9766 C   0  0  0  0  0  0
  -25.2469  -13.8175   20.5685 C   0  0  0  0  0  0
  -24.1763  -13.0425   20.9197 C   0  0  0  0  0  0
  -24.6354  -11.6897   20.8740 C   0  0  0  0  0  0
  -23.9030  -10.4272   21.0409 C   0  0  0  0  0  0
  -24.3588   -9.4191   21.9185 C   0  0  0  0  0  0
  -23.6281   -8.2223   22.0743 C   0  0  0  0  0  0
  -22.4262   -8.0269   21.3548 C   0  0  0  0  0  0
  -21.9885   -9.0233   20.4647 C   0  0  0  0  0  0
  -22.7205  -10.2114   20.3053 C   0  0  0  0  0  0
  -21.6858   -6.0714   22.5273 C   0  0  0  0  0  0
  -21.4031   -6.5621   23.8210 C   0  0  0  0  0  0
  -21.3659   -5.6774   24.9172 C   0  0  0  0  0  0
  -21.6042   -4.3040   24.7222 C   0  0  0  0  0  0
  -21.8823   -3.8122   23.4347 C   0  0  0  0  0  0
  -21.9197   -4.6939   22.3397 C   0  0  0  0  0  0
  -22.7791  -13.5224   21.1850 C   0  0  0  0  0  0
  -22.1676   -4.2134   21.0972 F   0  0  0  0  0  0
  -21.5609   -3.4516   25.7728 F   0  0  0  0  0  0
  -29.9757  -13.5292   20.4383 N   0  0  0  0  0  0
  -26.2871  -12.9370   20.3232 N   0  0  0  0  0  0
  -25.9280  -11.6519   20.5714 N   0  0  0  0  0  0
  -22.0444  -12.8222   22.0414 N   0  0  0  0  0  0
  -25.4175  -15.1897   20.4156 N   0  0  0  0  0  0
  -31.7678  -14.8050   20.0553 O   0  0  0  0  0  0
  -21.6652   -6.8853   21.4239 O   0  0  0  0  0  0
  -22.3488  -14.5528   20.6680 O   0  0  0  0  0  0
  -24.6293  -31.8569   23.1966 C   0  0  0  0  0  0
  -25.9129  -32.4760   23.8304 C   0  0  1  0  0  0
  -27.2253  -27.2860   20.1299 C   0  0  0  0  0  0
  -25.5945  -33.8555   24.2230 N   0  0  0  0  0  0
  -23.4231  -30.4780   21.5396 C   0  0  2  0  0  0
  -24.8703  -28.9188   20.1158 C   0  0  0  0  0  0
  -22.7478  -29.4611   22.4915 C   0  0  0  0  0  0
  -18.0292  -28.1383   22.8482 C   0  0  0  0  0  0
  -24.1502  -36.7283   23.2628 C   0  0  0  0  0  0
  -25.9653  -30.7794   21.3682 C   0  0  0  0  0  0
  -26.0413  -29.4000   20.7172 C   0  0  0  0  0  0
  -27.2233  -28.5969   20.7094 C   0  0  0  0  0  0
  -26.0338  -26.8581   19.5100 C   0  0  0  0  0  0
  -24.8696  -27.6532   19.5050 C   0  0  0  0  0  0
  -23.6409  -29.8054   20.1583 C   0  0  0  0  0  0
  -25.4127  -36.3062   24.0317 C   0  0  1  0  0  0
  -20.5893  -28.3695   23.1276 C   0  0  2  0  0  0
  -20.6785  -26.9419   22.5404 C   0  0  0  0  0  0
  -19.5757  -26.6385   21.5210 C   0  0  0  0  0  0
  -18.1940  -26.7928   22.1625 C   0  0  0  0  0  0
  -19.1547  -28.8859   23.2875 C   0  0  0  0  0  0
  -18.9467  -30.1456   23.8890 C   0  0  0  0  0  0
  -17.6469  -30.6587   24.0565 C   0  0  0  0  0  0
  -25.9069  -34.9437   23.5079 C   0  0  0  0  0  0
  -16.5356  -29.9087   23.6328 C   0  0  0  0  0  0
  -16.7282  -28.6508   23.0345 C   0  0  0  0  0  0
  -26.4519  -31.6564   25.0666 C   0  0  0  0  0  0
  -25.3769  -31.3713   26.1406 C   0  0  0  0  0  0
  -27.0341  -30.2983   24.6111 C   0  0  0  0  0  0
  -27.6077  -32.4295   25.7437 C   0  0  0  0  0  0
  -27.5585  -37.1782   24.8468 C   0  0  0  0  0  0
  -21.4189  -29.3052   22.3670 N   0  0  0  0  0  0
  -26.4297  -37.3765   23.9414 N   0  0  0  0  0  0
  -24.6911  -31.0555   22.0923 N   0  0  0  0  0  0
  -23.4192  -28.8169   23.3013 O   0  0  0  0  0  0
  -28.3408  -26.4279   20.1130 O   0  0  0  0  0  0
  -26.5624  -34.8918   22.4632 O   0  0  0  0  0  0
  -23.5449  -32.1361   23.7297 O   0  0  0  0  0  0
  -31.2558  -20.1294   20.3420 C   0  0  0  0  0  0
  -32.1686  -19.0995   20.6430 C   0  0  0  0  0  0
  -29.4819  -18.4656   20.3550 C   0  0  0  0  0  0
  -29.8794  -19.8619   20.2048 C   0  0  0  0  0  0
  -30.4080  -17.3660   20.6322 C   0  0  0  0  0  0
  -31.7645  -17.7575   20.8029 C   0  0  0  0  0  0
  -28.9383  -15.9494   21.9582 C   0  0  0  0  0  0
  -28.9409  -21.0738   19.7578 C   0  0  0  0  0  0
  -28.6053  -23.7198   19.7689 C   0  0  0  0  0  0
  -28.2115  -25.0281   20.6374 C   0  0  0  0  0  0
  -29.9748  -15.9586   20.9195 N   0  0  0  0  0  0
  -28.9511  -22.4102   20.5135 N   0  3  0  0  0  0
  -32.7072  -16.8792   21.2169 F   0  0  0  0  0  0
  -31.4647  -12.5984   19.1728 H   0  0  0  0  0  0
  -30.3814  -11.4932   19.9330 H   0  0  0  0  0  0
  -29.7942  -11.8006   17.4923 H   0  0  0  0  0  0
  -29.6079  -13.5164   17.7418 H   0  0  0  0  0  0
  -27.8945  -11.2930   18.8838 H   0  0  0  0  0  0
  -27.3649  -12.5410   17.7889 H   0  0  0  0  0  0
  -27.6463  -14.2594   19.5038 H   0  0  0  0  0  0
  -28.7357  -12.0253   21.2689 H   0  0  0  0  0  0
  -28.3558  -13.5566   21.8905 H   0  0  0  0  0  0
  -25.2738   -9.5677   22.4757 H   0  0  0  0  0  0
  -23.9996   -7.4601   22.7446 H   0  0  0  0  0  0
  -21.0810   -8.8733   19.8962 H   0  0  0  0  0  0
  -22.3658  -10.9637   19.6140 H   0  0  0  0  0  0
  -21.2061   -7.6134   23.9726 H   0  0  0  0  0  0
  -21.1476   -6.0495   25.9076 H   0  0  0  0  0  0
  -22.0612   -2.7584   23.2845 H   0  0  0  0  0  0
  -22.4078  -11.9888   22.4788 H   0  0  0  0  0  0
  -21.1066  -13.1253   22.2628 H   0  0  0  0  0  0
  -24.6546  -15.8459   20.5435 H   0  0  0  0  0  0
  -26.2762  -15.6308   20.1138 H   0  0  0  0  0  0
  -26.7192  -32.5415   23.1037 H   0  0  0  0  0  0
  -25.0131  -33.9701   25.0409 H   0  0  0  0  0  0
  -22.7182  -31.2991   21.3921 H   0  0  0  0  0  0
  -23.3764  -35.9615   23.3270 H   0  0  0  0  0  0
  -24.3613  -36.8919   22.2048 H   0  0  0  0  0  0
  -23.7260  -37.6478   23.6671 H   0  0  0  0  0  0
  -26.0938  -31.5395   20.5959 H   0  0  0  0  0  0
  -26.8465  -30.8346   21.9953 H   0  0  0  0  0  0
  -28.1238  -28.9678   21.1790 H   0  0  0  0  0  0
  -26.0011  -25.8904   19.0275 H   0  0  0  0  0  0
  -23.9732  -27.2788   19.0278 H   0  0  0  0  0  0
  -23.7654  -30.5781   19.3995 H   0  0  0  0  0  0
  -22.7592  -29.2395   19.8535 H   0  0  0  0  0  0
  -25.1309  -36.1882   25.0811 H   0  0  0  0  0  0
  -20.9989  -28.3272   24.1392 H   0  0  0  0  0  0
  -20.5691  -26.2309   23.3605 H   0  0  0  0  0  0
  -21.6655  -26.7452   22.1192 H   0  0  0  0  0  0
  -19.6926  -25.6297   21.1237 H   0  0  0  0  0  0
  -19.6690  -27.3197   20.6740 H   0  0  0  0  0  0
  -17.4208  -26.6661   21.4027 H   0  0  0  0  0  0
  -18.0346  -26.0071   22.9023 H   0  0  0  0  0  0
  -19.7950  -30.7273   24.2244 H   0  0  0  0  0  0
  -17.5033  -31.6267   24.5168 H   0  0  0  0  0  0
  -15.5361  -30.2992   23.7665 H   0  0  0  0  0  0
  -15.8678  -28.0837   22.7044 H   0  0  0  0  0  0
  -24.5940  -30.7057   25.7752 H   0  0  0  0  0  0
  -24.8973  -32.2883   26.4835 H   0  0  0  0  0  0
  -25.8115  -30.8892   27.0171 H   0  0  0  0  0  0
  -26.2878  -29.6719   24.1202 H   0  0  0  0  0  0
  -27.4111  -29.7253   25.4592 H   0  0  0  0  0  0
  -27.8735  -30.4256   23.9268 H   0  0  0  0  0  0
  -27.2686  -33.3594   26.2017 H   0  0  0  0  0  0
  -28.3891  -32.6847   25.0265 H   0  0  0  0  0  0
  -28.0748  -31.8410   26.5344 H   0  0  0  0  0  0
  -28.2590  -38.0091   24.7522 H   0  0  0  0  0  0
  -28.1081  -36.2611   24.6276 H   0  0  0  0  0  0
  -27.2298  -37.1418   25.8871 H   0  0  0  0  0  0
  -20.9366  -29.8778   21.6887 H   0  0  0  0  0  0
  -26.0154  -38.2826   24.1437 H   0  0  0  0  0  0
  -31.6292  -21.1371   20.2143 H   0  0  0  0  0  0
  -33.2111  -19.3474   20.7832 H   0  0  0  0  0  0
  -28.4311  -18.2293   20.2587 H   0  0  0  0  0  0
  -28.8498  -16.9184   22.4553 H   0  0  0  0  0  0
  -29.1873  -15.2637   22.7684 H   0  0  0  0  0  0
  -27.9549  -15.7262   21.5487 H   0  0  0  0  0  0
  -27.9088  -20.7265   19.6989 H   0  0  0  0  0  0
  -29.2268  -21.2939   18.7283 H   0  0  0  0  0  0
  -29.4623  -23.9653   19.1403 H   0  0  0  0  0  0
  -27.7858  -23.5172   19.0776 H   0  0  0  0  0  0
  -28.8407  -25.0183   21.5270 H   0  0  0  0  0  0
  -27.2033  -24.8803   21.0265 H   0  0  0  0  0  0
  -29.8636  -22.5249   20.9208 H   0  0  0  0  0  0
  -28.3091  -22.2971   21.2819 H   0  0  0  0  0  0
  1 25  1  0  0  0
  1 30  2  0  0  0
  1 81  1  0  0  0
  2  3  1  0  0  0
  2 25  1  0  0  0
  2 84  1  0  0  0
  2 85  1  0  0  0
  3  4  1  0  0  0
  3 86  1  0  0  0
  3 87  1  0  0  0
  4  5  1  0  0  0
  4 88  1  0  0  0
  4 89  1  0  0  0
  5  6  1  0  0  0
  5 26  1  0  0  0
  5 90  1  0  0  0
  6 25  1  0  0  0
  6 91  1  0  0  0
  6 92  1  0  0  0
  7  8  2  0  0  0
  7 26  1  0  0  0
  7 29  1  0  0  0
  8  9  1  0  0  0
  8 22  1  0  0  0
  9 10  1  0  0  0
  9 27  2  0  0  0
 10 11  2  0  0  0
 10 15  1  0  0  0
 11 12  1  0  0  0
 11 93  1  0  0  0
 12 13  2  0  0  0
 12 94  1  0  0  0
 13 14  1  0  0  0
 13 31  1  0  0  0
 14 15  2  0  0  0
 14 95  1  0  0  0
 15 96  1  0  0  0
 16 17  2  0  0  0
 16 21  1  0  0  0
 16 31  1  0  0  0
 17 18  1  0  0  0
 17 97  1  0  0  0
 18 19  2  0  0  0
 18 98  1  0  0  0
 19 20  1  0  0  0
 19 24  1  0  0  0
 20 21  2  0  0  0
 20 99  1  0  0  0
 21 23  1  0  0  0
 22 28  1  0  0  0
 22 32  2  0  0  0
 26 27  1  0  0  0
 28100  1  0  0  0
 28101  1  0  0  0
 29102  1  0  0  0
 29103  1  0  0  0
 33 34  1  0  0  0
 33 66  1  0  0  0
 33 70  2  0  0  0
 34 36  1  0  0  0
 34 59  1  0  0  0
 34104  1  0  0  0
 35 44  2  0  0  0
 35 45  1  0  0  0
 35 68  1  0  0  0
 36 56  1  0  0  0
 36105  1  0  0  0
 37 39  1  0  0  0
 37 47  1  0  0  0
 37 66  1  0  0  0
 37106  1  0  0  0
 38 43  2  0  0  0
 38 46  1  0  0  0
 38 47  1  0  0  0
 39 64  1  0  0  0
 39 67  2  0  0  0
 40 52  1  0  0  0
 40 53  2  0  0  0
 40 58  1  0  0  0
 41107  1  0  0  0
 41108  1  0  0  0
 41109  1  0  0  0
 41 48  1  0  0  0
 42 43  1  0  0  0
 42 66  1  0  0  0
 42110  1  0  0  0
 42111  1  0  0  0
 43 44  1  0  0  0
 44112  1  0  0  0
 45 46  2  0  0  0
 45113  1  0  0  0
 46114  1  0  0  0
 47115  1  0  0  0
 47116  1  0  0  0
 48 56  1  0  0  0
 48 65  1  0  0  0
 48117  1  0  0  0
 49 50  1  0  0  0
 49 53  1  0  0  0
 49 64  1  0  0  0
 49118  1  0  0  0
 50 51  1  0  0  0
 50119  1  0  0  0
 50120  1  0  0  0
 51 52  1  0  0  0
 51121  1  0  0  0
 51122  1  0  0  0
 52123  1  0  0  0
 52124  1  0  0  0
 53 54  1  0  0  0
 54 55  2  0  0  0
 54125  1  0  0  0
 55 57  1  0  0  0
 55126  1  0  0  0
 56 69  2  0  0  0
 57 58  2  0  0  0
 57127  1  0  0  0
 58128  1  0  0  0
 59 60  1  0  0  0
 59 61  1  0  0  0
 59 62  1  0  0  0
 60129  1  0  0  0
 60130  1  0  0  0
 60131  1  0  0  0
 61132  1  0  0  0
 61133  1  0  0  0
 61134  1  0  0  0
 62135  1  0  0  0
 62136  1  0  0  0
 62137  1  0  0  0
 63 65  1  0  0  0
 63138  1  0  0  0
 63139  1  0  0  0
 63140  1  0  0  0
 64141  1  0  0  0
 65142  1  0  0  0
 68 80  1  0  0  0
 71 72  2  0  0  0
 71 74  1  0  0  0
 71143  1  0  0  0
 72 76  1  0  0  0
 72144  1  0  0  0
 73 74  2  0  0  0
 73 75  1  0  0  0
 73145  1  0  0  0
 74 78  1  0  0  0
 75 76  2  0  0  0
 75 81  1  0  0  0
 76 83  1  0  0  0
 77 81  1  0  0  0
 77146  1  0  0  0
 77147  1  0  0  0
 77148  1  0  0  0
 78 82  1  0  0  0
 78149  1  0  0  0
 78150  1  0  0  0
 79 80  1  0  0  0
 79 82  1  0  0  0
 79151  1  0  0  0
 79152  1  0  0  0
 80153  1  0  0  0
 80154  1  0  0  0
 82155  1  0  0  0
 82156  1  0  0  0
M  CHG  1  82   1
M  ISO  4   1 100  68 101  80 101  81 100
M  END
> <chiral flag>
0

> <version>
0

> <s_m_source_file>
/data/baiqing/PycharmProjects/Reinvent-master-3.2/result/LINK_invent/BTK/process_docking_weight1_custom_product_contain_oxygen_bond_distance_aromatic_linkinvent_7_9_3/rearranged_h_0013.sdf

> <i_m_source_file_index>
77

> <r_mmod_Potential_Energy-OPLS-2005>
176.230850219727

> <r_mmod_Stretch_Energy-OPLS-2005>
136.807098388672

> <r_mmod_Bend_Energy-OPLS-2005>
186.733871459961

> <r_mmod_Torsional_Energy-OPLS-2005>
296.496002197266

> <r_mmod_Improper_Torsional_Energy-OPLS-2005>
6.80369710922241

> <r_mmod_Van_der_Waal_Energy-OPLS-2005>
155.257293701172

> <r_mmod_Electrostatic_Energy-OPLS-2005>
-206.914825439453

> <r_mmod_Solvation_Energy-OPLS-2005>
-470.072967529297

> <b_mmod_Minimization_Converged-OPLS-2005>
0

> <r_mmod_RMS_Derivative-OPLS-2005>
3.08073115348816

$$$$
78
                    3D
 Structure written by MMmdl.
153162  0  0  1  0            999 V2000
  -30.4139  -15.4288   20.3960 C   0  0  0  0  0  0
  -30.4061  -12.9315   19.5755 C   0  0  0  0  0  0
  -29.5418  -12.6134   18.3249 C   0  0  0  0  0  0
  -28.1028  -12.2779   18.7421 C   0  0  0  0  0  0
  -27.5879  -13.2695   19.8097 C   0  0  2  0  0  0
  -28.5937  -13.5505   20.9442 C   0  0  0  0  0  0
  -25.2308  -13.8085   20.5974 C   0  0  0  0  0  0
  -24.1638  -13.0298   20.9456 C   0  0  0  0  0  0
  -24.6281  -11.6843   20.8740 C   0  0  0  0  0  0
  -23.8975  -10.4234   21.0468 C   0  0  0  0  0  0
  -24.3542   -9.4119   21.9272 C   0  0  0  0  0  0
  -23.6221   -8.2200   22.0834 C   0  0  0  0  0  0
  -22.4252   -8.0216   21.3575 C   0  0  0  0  0  0
  -21.9968   -9.0128   20.4602 C   0  0  0  0  0  0
  -22.7205  -10.2067   20.3098 C   0  0  0  0  0  0
  -21.6787   -6.0753   22.5410 C   0  0  0  0  0  0
  -21.3991   -6.5677   23.8374 C   0  0  0  0  0  0
  -21.3739   -5.6811   24.9339 C   0  0  0  0  0  0
  -21.6061   -4.3051   24.7303 C   0  0  0  0  0  0
  -21.8736   -3.8194   23.4420 C   0  0  0  0  0  0
  -21.9128   -4.7030   22.3505 C   0  0  0  0  0  0
  -22.7664  -13.4980   21.2166 C   0  0  0  0  0  0
  -22.1547   -4.2243   21.1058 F   0  0  0  0  0  0
  -21.5682   -3.4512   25.7825 F   0  0  0  0  0  0
  -29.8007  -14.1214   20.3221 N   0  0  0  0  0  0
  -26.2716  -12.9412   20.3349 N   0  0  0  0  0  0
  -25.9197  -11.6552   20.5575 N   0  0  0  0  0  0
  -22.0191  -12.7981   22.0741 N   0  0  0  0  0  0
  -25.4005  -15.1828   20.4360 N   0  0  0  0  0  0
  -31.6395  -15.2986   20.2244 O   0  0  0  0  0  0
  -21.6607   -6.8850   21.4341 O   0  0  0  0  0  0
  -22.3368  -14.5259   20.7072 O   0  0  0  0  0  0
  -24.6713  -31.8133   23.1560 C   0  0  0  0  0  0
  -25.9363  -32.4528   23.8032 C   0  0  1  0  0  0
  -27.2321  -26.8126   20.2257 C   0  0  0  0  0  0
  -25.5993  -33.8348   24.1963 N   0  0  0  0  0  0
  -23.4929  -30.4151   21.5033 C   0  0  2  0  0  0
  -24.9500  -28.7731   20.1117 C   0  0  0  0  0  0
  -22.7714  -29.4407   22.4707 C   0  0  0  0  0  0
  -18.0345  -28.1410   22.8469 C   0  0  0  0  0  0
  -24.1518  -36.7220   23.2632 C   0  0  0  0  0  0
  -26.0597  -30.5923   21.3950 C   0  0  0  0  0  0
  -26.1318  -29.1653   20.7527 C   0  0  0  0  0  0
  -27.2614  -28.2091   20.7741 C   0  0  0  0  0  0
  -26.0229  -26.5996   19.5247 C   0  0  0  0  0  0
  -24.9279  -27.5154   19.4760 C   0  0  0  0  0  0
  -23.7372  -29.7103   20.1383 C   0  0  0  0  0  0
  -25.4164  -36.2916   24.0255 C   0  0  1  0  0  0
  -20.5949  -28.3772   23.1163 C   0  0  2  0  0  0
  -20.6806  -26.9444   22.5401 C   0  0  0  0  0  0
  -19.5786  -26.6387   21.5215 C   0  0  0  0  0  0
  -18.1965  -26.7954   22.1625 C   0  0  0  0  0  0
  -19.1591  -28.8924   23.2795 C   0  0  0  0  0  0
  -18.9505  -30.1497   23.8858 C   0  0  0  0  0  0
  -17.6497  -30.6592   24.0566 C   0  0  0  0  0  0
  -25.9133  -34.9319   23.4943 C   0  0  0  0  0  0
  -16.5388  -29.9075   23.6317 C   0  0  0  0  0  0
  -16.7330  -28.6482   23.0356 C   0  0  0  0  0  0
  -26.4594  -31.6476   25.0580 C   0  0  0  0  0  0
  -25.3687  -31.3762   26.1204 C   0  0  0  0  0  0
  -27.0483  -30.2826   24.6316 C   0  0  0  0  0  0
  -27.6076  -32.4271   25.7410 C   0  0  0  0  0  0
  -27.5584  -37.1747   24.8454 C   0  0  0  0  0  0
  -21.4360  -29.3075   22.3495 N   0  0  0  0  0  0
  -26.4301  -37.3672   23.9387 N   0  0  0  0  0  0
  -24.7610  -30.9699   22.0736 N   0  0  0  0  0  0
  -23.4206  -28.8016   23.3020 O   0  0  0  0  0  0
  -28.2582  -25.6974   20.3489 O   0  0  0  0  0  0
  -26.5741  -34.8885   22.4537 O   0  0  0  0  0  0
  -23.5758  -32.1156   23.6579 O   0  0  0  0  0  0
  -27.5536  -17.7387   23.1473 C   0  0  0  0  0  0
  -28.5466  -19.5932   21.0799 C   0  0  0  0  0  0
  -29.0147  -18.0147   21.1246 C   0  0  0  0  0  0
  -28.5377  -17.2914   22.2763 C   0  0  0  0  0  0
  -26.9414  -18.9536   22.9335 C   0  0  0  0  0  0
  -27.3995  -19.8015   21.9217 C   0  0  0  0  0  0
  -28.1520  -23.0850   18.9239 C   0  0  0  0  0  0
  -28.0749  -21.4910   19.2600 C   0  0  0  0  0  0
  -28.6417  -22.5352   21.1457 C   0  0  0  0  0  0
  -28.4120  -23.9878   20.1876 C   0  0  2  0  0  0
  -28.8237  -21.0483   20.4703 N   0  0  0  0  0  0
  -29.8418  -16.8510   20.3077 N   0  0  0  0  0  0
  -29.0371  -16.0775   22.6020 F   0  0  0  0  0  0
  -25.8787  -19.3158   23.6948 F   0  0  0  0  0  0
  -26.5851  -20.8647   21.7177 F   0  0  0  0  0  0
  -31.4166  -13.1240   19.2377 H   0  0  0  0  0  0
  -30.4925  -12.0594   20.2256 H   0  0  0  0  0  0
  -29.9792  -11.7775   17.7787 H   0  0  0  0  0  0
  -29.5363  -13.4660   17.6407 H   0  0  0  0  0  0
  -28.1239  -11.2784   19.1724 H   0  0  0  0  0  0
  -27.4391  -12.2442   17.8833 H   0  0  0  0  0  0
  -27.4656  -14.2074   19.2669 H   0  0  0  0  0  0
  -28.8123  -12.6646   21.5320 H   0  0  0  0  0  0
  -28.1117  -14.2461   21.6254 H   0  0  0  0  0  0
  -25.2663   -9.5466   22.4912 H   0  0  0  0  0  0
  -23.9871   -7.4622   22.7628 H   0  0  0  0  0  0
  -21.1027   -8.8716   19.8771 H   0  0  0  0  0  0
  -22.3608  -10.9664   19.6302 H   0  0  0  0  0  0
  -21.1963   -7.6174   23.9964 H   0  0  0  0  0  0
  -21.1645   -6.0499   25.9305 H   0  0  0  0  0  0
  -22.0378   -2.7622   23.2921 H   0  0  0  0  0  0
  -22.3579  -11.9785   22.5643 H   0  0  0  0  0  0
  -21.0660  -13.0946   22.2549 H   0  0  0  0  0  0
  -24.6259  -15.8320   20.5257 H   0  0  0  0  0  0
  -26.2554  -15.5899   20.0905 H   0  0  0  0  0  0
  -26.7449  -32.5063   23.0750 H   0  0  0  0  0  0
  -25.0045  -33.9394   25.0033 H   0  0  0  0  0  0
  -22.8096  -31.2468   21.3200 H   0  0  0  0  0  0
  -23.3774  -35.9552   23.3195 H   0  0  0  0  0  0
  -24.3624  -36.8988   22.2076 H   0  0  0  0  0  0
  -23.7303  -37.6380   23.6784 H   0  0  0  0  0  0
  -26.2298  -31.3248   20.5986 H   0  0  0  0  0  0
  -26.9252  -30.6794   22.0411 H   0  0  0  0  0  0
  -28.1604  -28.5134   21.2942 H   0  0  0  0  0  0
  -25.8911  -25.6405   19.0416 H   0  0  0  0  0  0
  -24.0290  -27.2095   18.9560 H   0  0  0  0  0  0
  -23.8826  -30.4668   19.3654 H   0  0  0  0  0  0
  -22.8458  -29.1558   19.8381 H   0  0  0  0  0  0
  -25.1368  -36.1674   25.0746 H   0  0  0  0  0  0
  -21.0071  -28.3395   24.1269 H   0  0  0  0  0  0
  -20.5670  -26.2409   23.3641 H   0  0  0  0  0  0
  -21.6661  -26.7407   22.1213 H   0  0  0  0  0  0
  -19.6937  -25.6282   21.1269 H   0  0  0  0  0  0
  -19.6704  -27.3160   20.6702 H   0  0  0  0  0  0
  -17.4227  -26.6685   21.4026 H   0  0  0  0  0  0
  -18.0369  -26.0099   22.9030 H   0  0  0  0  0  0
  -19.7971  -30.7326   24.2203 H   0  0  0  0  0  0
  -17.5037  -31.6273   24.5177 H   0  0  0  0  0  0
  -15.5364  -30.2975   23.7681 H   0  0  0  0  0  0
  -15.8721  -28.0807   22.7090 H   0  0  0  0  0  0
  -24.5906  -30.7086   25.7479 H   0  0  0  0  0  0
  -24.8848  -32.2988   26.4417 H   0  0  0  0  0  0
  -25.7894  -30.9045   27.0092 H   0  0  0  0  0  0
  -26.3155  -29.6527   24.1271 H   0  0  0  0  0  0
  -27.3959  -29.7166   25.4966 H   0  0  0  0  0  0
  -27.9108  -30.3983   23.9754 H   0  0  0  0  0  0
  -27.2649  -33.3637   26.1815 H   0  0  0  0  0  0
  -28.3999  -32.6718   25.0322 H   0  0  0  0  0  0
  -28.0608  -31.8482   26.5461 H   0  0  0  0  0  0
  -28.2528  -38.0100   24.7506 H   0  0  0  0  0  0
  -28.1133  -36.2620   24.6253 H   0  0  0  0  0  0
  -27.2283  -37.1347   25.8845 H   0  0  0  0  0  0
  -20.9601  -29.8753   21.6611 H   0  0  0  0  0  0
  -26.0112  -38.2711   24.1400 H   0  0  0  0  0  0
  -27.2150  -17.1086   23.9589 H   0  0  0  0  0  0
  -27.2540  -23.3890   18.3826 H   0  0  0  0  0  0
  -28.9878  -23.2211   18.2291 H   0  0  0  0  0  0
  -28.4104  -20.9137   18.3984 H   0  0  0  0  0  0
  -27.0271  -21.2182   19.3979 H   0  0  0  0  0  0
  -27.8317  -22.5862   21.8656 H   0  0  0  0  0  0
  -29.5076  -22.6801   21.7908 H   0  0  0  0  0  0
  -29.4884  -24.1333   20.0612 H   0  0  0  0  0  0
  -30.4545  -17.3395   19.6762 H   0  0  0  0  0  0
  1 25  1  0  0  0
  1 30  2  0  0  0
  1 82  1  0  0  0
  2  3  1  0  0  0
  2 25  1  0  0  0
  2 86  1  0  0  0
  2 87  1  0  0  0
  3  4  1  0  0  0
  3 88  1  0  0  0
  3 89  1  0  0  0
  4  5  1  0  0  0
  4 90  1  0  0  0
  4 91  1  0  0  0
  5  6  1  0  0  0
  5 26  1  0  0  0
  5 92  1  0  0  0
  6 25  1  0  0  0
  6 93  1  0  0  0
  6 94  1  0  0  0
  7  8  2  0  0  0
  7 26  1  0  0  0
  7 29  1  0  0  0
  8  9  1  0  0  0
  8 22  1  0  0  0
  9 10  1  0  0  0
  9 27  2  0  0  0
 10 11  2  0  0  0
 10 15  1  0  0  0
 11 12  1  0  0  0
 11 95  1  0  0  0
 12 13  2  0  0  0
 12 96  1  0  0  0
 13 14  1  0  0  0
 13 31  1  0  0  0
 14 15  2  0  0  0
 14 97  1  0  0  0
 15 98  1  0  0  0
 16 17  2  0  0  0
 16 21  1  0  0  0
 16 31  1  0  0  0
 17 18  1  0  0  0
 17 99  1  0  0  0
 18 19  2  0  0  0
 18100  1  0  0  0
 19 20  1  0  0  0
 19 24  1  0  0  0
 20 21  2  0  0  0
 20101  1  0  0  0
 21 23  1  0  0  0
 22 28  1  0  0  0
 22 32  2  0  0  0
 26 27  1  0  0  0
 28102  1  0  0  0
 28103  1  0  0  0
 29104  1  0  0  0
 29105  1  0  0  0
 33 34  1  0  0  0
 33 66  1  0  0  0
 33 70  2  0  0  0
 34 36  1  0  0  0
 34 59  1  0  0  0
 34106  1  0  0  0
 35 44  2  0  0  0
 35 45  1  0  0  0
 35 68  1  0  0  0
 36 56  1  0  0  0
 36107  1  0  0  0
 37 39  1  0  0  0
 37 47  1  0  0  0
 37 66  1  0  0  0
 37108  1  0  0  0
 38 43  2  0  0  0
 38 46  1  0  0  0
 38 47  1  0  0  0
 39 64  1  0  0  0
 39 67  2  0  0  0
 40 52  1  0  0  0
 40 53  2  0  0  0
 40 58  1  0  0  0
 41109  1  0  0  0
 41110  1  0  0  0
 41111  1  0  0  0
 41 48  1  0  0  0
 42 43  1  0  0  0
 42 66  1  0  0  0
 42112  1  0  0  0
 42113  1  0  0  0
 43 44  1  0  0  0
 44114  1  0  0  0
 45 46  2  0  0  0
 45115  1  0  0  0
 46116  1  0  0  0
 47117  1  0  0  0
 47118  1  0  0  0
 48 56  1  0  0  0
 48 65  1  0  0  0
 48119  1  0  0  0
 49 50  1  0  0  0
 49 53  1  0  0  0
 49 64  1  0  0  0
 49120  1  0  0  0
 50 51  1  0  0  0
 50121  1  0  0  0
 50122  1  0  0  0
 51 52  1  0  0  0
 51123  1  0  0  0
 51124  1  0  0  0
 52125  1  0  0  0
 52126  1  0  0  0
 53 54  1  0  0  0
 54 55  2  0  0  0
 54127  1  0  0  0
 55 57  1  0  0  0
 55128  1  0  0  0
 56 69  2  0  0  0
 57 58  2  0  0  0
 57129  1  0  0  0
 58130  1  0  0  0
 59 60  1  0  0  0
 59 61  1  0  0  0
 59 62  1  0  0  0
 60131  1  0  0  0
 60132  1  0  0  0
 60133  1  0  0  0
 61134  1  0  0  0
 61135  1  0  0  0
 61136  1  0  0  0
 62137  1  0  0  0
 62138  1  0  0  0
 62139  1  0  0  0
 63 65  1  0  0  0
 63140  1  0  0  0
 63141  1  0  0  0
 63142  1  0  0  0
 64143  1  0  0  0
 65144  1  0  0  0
 68 80  1  0  0  0
 71 74  2  0  0  0
 71 75  1  0  0  0
 71145  1  0  0  0
 72 73  2  0  0  0
 72 76  1  0  0  0
 72 81  1  0  0  0
 73 74  1  0  0  0
 73 82  1  0  0  0
 74 83  1  0  0  0
 75 76  2  0  0  0
 75 84  1  0  0  0
 76 85  1  0  0  0
 77 78  1  0  0  0
 77 80  1  0  0  0
 77146  1  0  0  0
 77147  1  0  0  0
 78 81  1  0  0  0
 78148  1  0  0  0
 78149  1  0  0  0
 79 80  1  0  0  0
 79 81  1  0  0  0
 79150  1  0  0  0
 79151  1  0  0  0
 80152  1  0  0  0
 82153  1  0  0  0
M  ISO  4   1 100  68 101  80 101  82 100
M  END
> <chiral flag>
0

> <version>
0

> <s_m_source_file>
/data/baiqing/PycharmProjects/Reinvent-master-3.2/result/LINK_invent/BTK/process_docking_weight1_custom_product_contain_oxygen_bond_distance_aromatic_linkinvent_7_9_3/rearranged_h_0013.sdf

> <i_m_source_file_index>
78

> <r_mmod_Potential_Energy-OPLS-2005>
2152.98681640625

> <r_mmod_Stretch_Energy-OPLS-2005>
805.42626953125

> <r_mmod_Bend_Energy-OPLS-2005>
811.747680664062

> <r_mmod_Torsional_Energy-OPLS-2005>
355.023834228516

> <r_mmod_Improper_Torsional_Energy-OPLS-2005>
18.4854335784912

> <r_mmod_Van_der_Waal_Energy-OPLS-2005>
154.009048461914

> <r_mmod_Electrostatic_Energy-OPLS-2005>
-401.494995117188

> <r_mmod_Solvation_Energy-OPLS-2005>
-223.0771484375

> <b_mmod_Minimization_Converged-OPLS-2005>
0

> <r_mmod_RMS_Derivative-OPLS-2005>
15.2174644470215

$$$$
79
                    3D
 Structure written by MMmdl.
156164  0  0  1  0            999 V2000
  -30.6432  -14.6169   20.4850 C   0  0  0  0  0  0
  -30.4398  -12.3798   19.4302 C   0  0  0  0  0  0
  -29.4946  -12.4912   18.2139 C   0  0  0  0  0  0
  -28.0223  -12.3355   18.6407 C   0  0  0  0  0  0
  -27.6525  -13.2150   19.8644 C   0  0  2  0  0  0
  -28.7070  -13.0676   20.9867 C   0  0  0  0  0  0
  -25.2552  -13.8182   20.5755 C   0  0  0  0  0  0
  -24.1821  -13.0455   20.9255 C   0  0  0  0  0  0
  -24.6400  -11.6923   20.8801 C   0  0  0  0  0  0
  -23.9078  -10.4310   21.0443 C   0  0  0  0  0  0
  -24.3616   -9.4207   21.9217 C   0  0  0  0  0  0
  -23.6285   -8.2246   22.0756 C   0  0  0  0  0  0
  -22.4259   -8.0292   21.3553 C   0  0  0  0  0  0
  -21.9921   -9.0279   20.4646 C   0  0  0  0  0  0
  -22.7261  -10.2154   20.3074 C   0  0  0  0  0  0
  -21.6838   -6.0732   22.5284 C   0  0  0  0  0  0
  -21.4003   -6.5633   23.8218 C   0  0  0  0  0  0
  -21.3664   -5.6787   24.9191 C   0  0  0  0  0  0
  -21.6055   -4.3056   24.7245 C   0  0  0  0  0  0
  -21.8815   -3.8141   23.4370 C   0  0  0  0  0  0
  -21.9187   -4.6961   22.3413 C   0  0  0  0  0  0
  -22.7836  -13.5230   21.1918 C   0  0  0  0  0  0
  -22.1641   -4.2137   21.0996 F   0  0  0  0  0  0
  -21.5653   -3.4542   25.7763 F   0  0  0  0  0  0
  -30.0259  -13.3965   20.4155 N   0  0  0  0  0  0
  -26.2992  -12.9371   20.3386 N   0  0  0  0  0  0
  -25.9327  -11.6519   20.5813 N   0  0  0  0  0  0
  -22.0458  -12.8205   22.0435 N   0  0  0  0  0  0
  -25.4271  -15.1907   20.4177 N   0  0  0  0  0  0
  -31.8074  -14.7847   20.1132 O   0  0  0  0  0  0
  -21.6625   -6.8887   21.4240 O   0  0  0  0  0  0
  -22.3513  -14.5563   20.6793 O   0  0  0  0  0  0
  -24.6254  -31.8597   23.2078 C   0  0  0  0  0  0
  -25.9121  -32.4790   23.8373 C   0  0  1  0  0  0
  -27.2239  -27.3342   20.1027 C   0  0  0  0  0  0
  -25.5927  -33.8572   24.2297 N   0  0  0  0  0  0
  -23.4175  -30.4879   21.5493 C   0  0  2  0  0  0
  -24.8628  -28.9532   20.1109 C   0  0  0  0  0  0
  -22.7481  -29.4592   22.4908 C   0  0  0  0  0  0
  -18.0232  -28.1379   22.8424 C   0  0  0  0  0  0
  -24.1498  -36.7299   23.2638 C   0  0  0  0  0  0
  -25.9583  -30.8018   21.3713 C   0  0  0  0  0  0
  -26.0359  -29.4274   20.7150 C   0  0  0  0  0  0
  -27.2174  -28.6304   20.7041 C   0  0  0  0  0  0
  -26.0246  -26.9112   19.4832 C   0  0  0  0  0  0
  -24.8603  -27.6988   19.4883 C   0  0  0  0  0  0
  -23.6339  -29.8351   20.1591 C   0  0  0  0  0  0
  -25.4108  -36.3067   24.0329 C   0  0  1  0  0  0
  -20.5850  -28.3664   23.1272 C   0  0  2  0  0  0
  -20.6768  -26.9400   22.5391 C   0  0  0  0  0  0
  -19.5764  -26.6365   21.5173 C   0  0  0  0  0  0
  -18.1910  -26.7904   22.1556 C   0  0  0  0  0  0
  -19.1498  -28.8828   23.2842 C   0  0  0  0  0  0
  -18.9441  -30.1414   23.8879 C   0  0  0  0  0  0
  -17.6470  -30.6594   24.0530 C   0  0  0  0  0  0
  -25.9056  -34.9442   23.5108 C   0  0  0  0  0  0
  -16.5350  -29.9109   23.6326 C   0  0  0  0  0  0
  -16.7221  -28.6538   23.0300 C   0  0  0  0  0  0
  -26.4498  -31.6573   25.0713 C   0  0  0  0  0  0
  -25.3733  -31.3689   26.1438 C   0  0  0  0  0  0
  -27.0288  -30.3001   24.6065 C   0  0  0  0  0  0
  -27.6032  -32.4295   25.7508 C   0  0  0  0  0  0
  -27.5586  -37.1784   24.8455 C   0  0  0  0  0  0
  -21.4183  -29.3032   22.3714 N   0  0  0  0  0  0
  -26.4272  -37.3777   23.9436 N   0  0  0  0  0  0
  -24.6866  -31.0645   22.1004 N   0  0  0  0  0  0
  -23.4230  -28.8005   23.2863 O   0  0  0  0  0  0
  -28.3471  -26.4938   20.1368 O   0  0  0  0  0  0
  -26.5647  -34.8921   22.4691 O   0  0  0  0  0  0
  -23.5414  -32.1326   23.7464 O   0  0  0  0  0  0
  -31.0262  -19.3044   20.4894 C   0  0  0  0  0  0
  -31.0907  -17.8745   20.5203 C   0  0  0  0  0  0
  -28.6291  -19.2233   20.6431 C   0  0  0  0  0  0
  -29.7971  -20.0248   20.5786 C   0  0  0  0  0  0
  -29.9103  -17.0955   20.6381 C   0  0  0  0  0  0
  -28.6866  -17.8061   20.6618 C   0  0  0  0  0  0
  -27.7060  -22.1751   19.4428 C   0  0  0  0  0  0
  -29.7610  -21.5877   20.8002 C   0  0  0  0  0  0
  -29.3352  -24.0290   20.1077 C   0  0  0  0  0  0
  -28.1385  -25.0524   19.8792 C   0  0  0  0  0  0
  -29.8234  -15.6540   20.8078 N   0  0  0  0  0  0
  -29.1101  -22.5388   19.7986 N   0  3  1  0  0  0
  -27.5331  -17.1005   20.7291 F   0  0  0  0  0  0
  -31.4736  -12.5234   19.1072 H   0  0  0  0  0  0
  -30.3974  -11.3822   19.8689 H   0  0  0  0  0  0
  -29.7460  -11.7280   17.4778 H   0  0  0  0  0  0
  -29.6345  -13.4518   17.7121 H   0  0  0  0  0  0
  -27.8688  -11.2832   18.8883 H   0  0  0  0  0  0
  -27.3567  -12.5505   17.8031 H   0  0  0  0  0  0
  -27.6698  -14.2487   19.5198 H   0  0  0  0  0  0
  -28.7155  -12.0507   21.3758 H   0  0  0  0  0  0
  -28.4600  -13.7049   21.8374 H   0  0  0  0  0  0
  -25.2750   -9.5683   22.4811 H   0  0  0  0  0  0
  -24.0002   -7.4620   22.7456 H   0  0  0  0  0  0
  -21.0869   -8.8807   19.8927 H   0  0  0  0  0  0
  -22.3736  -10.9705   19.6189 H   0  0  0  0  0  0
  -21.1958   -7.6130   23.9729 H   0  0  0  0  0  0
  -21.1491   -6.0513   25.9096 H   0  0  0  0  0  0
  -22.0585   -2.7604   23.2877 H   0  0  0  0  0  0
  -22.3991  -11.9793   22.4765 H   0  0  0  0  0  0
  -21.1101  -13.1263   22.2673 H   0  0  0  0  0  0
  -24.6860  -15.8589   20.5976 H   0  0  0  0  0  0
  -26.3052  -15.6472   20.1985 H   0  0  0  0  0  0
  -26.7207  -32.5479   23.1151 H   0  0  0  0  0  0
  -24.9993  -33.9654   25.0388 H   0  0  0  0  0  0
  -22.7104  -31.3088   21.4151 H   0  0  0  0  0  0
  -23.3716  -35.9687   23.3291 H   0  0  0  0  0  0
  -24.3572  -36.8928   22.2047 H   0  0  0  0  0  0
  -23.7303  -37.6516   23.6666 H   0  0  0  0  0  0
  -26.0730  -31.5601   20.5967 H   0  0  0  0  0  0
  -26.8483  -30.8610   21.9857 H   0  0  0  0  0  0
  -28.1170  -28.9933   21.1843 H   0  0  0  0  0  0
  -25.9432  -25.9584   18.9853 H   0  0  0  0  0  0
  -23.9617  -27.3281   19.0147 H   0  0  0  0  0  0
  -23.7757  -30.6236   19.4205 H   0  0  0  0  0  0
  -22.7514  -29.2793   19.8371 H   0  0  0  0  0  0
  -25.1279  -36.1926   25.0821 H   0  0  0  0  0  0
  -20.9886  -28.3247   24.1406 H   0  0  0  0  0  0
  -20.5709  -26.2254   23.3576 H   0  0  0  0  0  0
  -21.6637  -26.7479   22.1169 H   0  0  0  0  0  0
  -19.6999  -25.6273   21.1205 H   0  0  0  0  0  0
  -19.6746  -27.3192   20.6741 H   0  0  0  0  0  0
  -17.4192  -26.6555   21.3973 H   0  0  0  0  0  0
  -18.0345  -26.0083   22.9002 H   0  0  0  0  0  0
  -19.7958  -30.7153   24.2289 H   0  0  0  0  0  0
  -17.5079  -31.6295   24.5102 H   0  0  0  0  0  0
  -15.5375  -30.3029   23.7707 H   0  0  0  0  0  0
  -15.8582  -28.0912   22.7014 H   0  0  0  0  0  0
  -24.5964  -30.6971   25.7783 H   0  0  0  0  0  0
  -24.8839  -32.2830   26.4778 H   0  0  0  0  0  0
  -25.8047  -30.8939   27.0262 H   0  0  0  0  0  0
  -26.2771  -29.6789   24.1180 H   0  0  0  0  0  0
  -27.4096  -29.7229   25.4503 H   0  0  0  0  0  0
  -27.8634  -30.4267   23.9171 H   0  0  0  0  0  0
  -27.2628  -33.3645   26.1974 H   0  0  0  0  0  0
  -28.3915  -32.6762   25.0384 H   0  0  0  0  0  0
  -28.0622  -31.8486   26.5508 H   0  0  0  0  0  0
  -28.2516  -38.0159   24.7521 H   0  0  0  0  0  0
  -28.1144  -36.2656   24.6233 H   0  0  0  0  0  0
  -27.2285  -37.1378   25.8852 H   0  0  0  0  0  0
  -20.9368  -29.8815   21.6970 H   0  0  0  0  0  0
  -26.0134  -38.2828   24.1515 H   0  0  0  0  0  0
  -31.9539  -19.8561   20.4574 H   0  0  0  0  0  0
  -32.0548  -17.3860   20.4961 H   0  0  0  0  0  0
  -27.6601  -19.6892   20.7262 H   0  0  0  0  0  0
  -27.0358  -22.2416   20.3040 H   0  0  0  0  0  0
  -27.6450  -21.1630   19.0479 H   0  0  0  0  0  0
  -27.3004  -22.7908   18.6355 H   0  0  0  0  0  0
  -30.7968  -21.9129   20.9236 H   0  0  0  0  0  0
  -29.3042  -21.7541   21.7782 H   0  0  0  0  0  0
  -29.6810  -24.1392   21.1370 H   0  0  0  0  0  0
  -30.1736  -24.3540   19.4865 H   0  0  0  0  0  0
  -27.2946  -24.7195   20.4889 H   0  0  0  0  0  0
  -27.8393  -24.9643   18.8322 H   0  0  0  0  0  0
  -28.8980  -15.3445   21.0678 H   0  0  0  0  0  0
  -29.6235  -22.3762   18.9437 H   0  0  0  0  0  0
  1 25  1  0  0  0
  1 30  2  0  0  0
  1 81  1  0  0  0
  2  3  1  0  0  0
  2 25  1  0  0  0
  2 84  1  0  0  0
  2 85  1  0  0  0
  3  4  1  0  0  0
  3 86  1  0  0  0
  3 87  1  0  0  0
  4  5  1  0  0  0
  4 88  1  0  0  0
  4 89  1  0  0  0
  5  6  1  0  0  0
  5 26  1  0  0  0
  5 90  1  0  0  0
  6 25  1  0  0  0
  6 91  1  0  0  0
  6 92  1  0  0  0
  7  8  2  0  0  0
  7 26  1  0  0  0
  7 29  1  0  0  0
  8  9  1  0  0  0
  8 22  1  0  0  0
  9 10  1  0  0  0
  9 27  2  0  0  0
 10 11  2  0  0  0
 10 15  1  0  0  0
 11 12  1  0  0  0
 11 93  1  0  0  0
 12 13  2  0  0  0
 12 94  1  0  0  0
 13 14  1  0  0  0
 13 31  1  0  0  0
 14 15  2  0  0  0
 14 95  1  0  0  0
 15 96  1  0  0  0
 16 17  2  0  0  0
 16 21  1  0  0  0
 16 31  1  0  0  0
 17 18  1  0  0  0
 17 97  1  0  0  0
 18 19  2  0  0  0
 18 98  1  0  0  0
 19 20  1  0  0  0
 19 24  1  0  0  0
 20 21  2  0  0  0
 20 99  1  0  0  0
 21 23  1  0  0  0
 22 28  1  0  0  0
 22 32  2  0  0  0
 26 27  1  0  0  0
 28100  1  0  0  0
 28101  1  0  0  0
 29102  1  0  0  0
 29103  1  0  0  0
 33 34  1  0  0  0
 33 66  1  0  0  0
 33 70  2  0  0  0
 34 36  1  0  0  0
 34 59  1  0  0  0
 34104  1  0  0  0
 35 44  2  0  0  0
 35 45  1  0  0  0
 35 68  1  0  0  0
 36 56  1  0  0  0
 36105  1  0  0  0
 37 39  1  0  0  0
 37 47  1  0  0  0
 37 66  1  0  0  0
 37106  1  0  0  0
 38 43  2  0  0  0
 38 46  1  0  0  0
 38 47  1  0  0  0
 39 64  1  0  0  0
 39 67  2  0  0  0
 40 52  1  0  0  0
 40 53  2  0  0  0
 40 58  1  0  0  0
 41107  1  0  0  0
 41108  1  0  0  0
 41109  1  0  0  0
 41 48  1  0  0  0
 42 43  1  0  0  0
 42 66  1  0  0  0
 42110  1  0  0  0
 42111  1  0  0  0
 43 44  1  0  0  0
 44112  1  0  0  0
 45 46  2  0  0  0
 45113  1  0  0  0
 46114  1  0  0  0
 47115  1  0  0  0
 47116  1  0  0  0
 48 56  1  0  0  0
 48 65  1  0  0  0
 48117  1  0  0  0
 49 50  1  0  0  0
 49 53  1  0  0  0
 49 64  1  0  0  0
 49118  1  0  0  0
 50 51  1  0  0  0
 50119  1  0  0  0
 50120  1  0  0  0
 51 52  1  0  0  0
 51121  1  0  0  0
 51122  1  0  0  0
 52123  1  0  0  0
 52124  1  0  0  0
 53 54  1  0  0  0
 54 55  2  0  0  0
 54125  1  0  0  0
 55 57  1  0  0  0
 55126  1  0  0  0
 56 69  2  0  0  0
 57 58  2  0  0  0
 57127  1  0  0  0
 58128  1  0  0  0
 59 60  1  0  0  0
 59 61  1  0  0  0
 59 62  1  0  0  0
 60129  1  0  0  0
 60130  1  0  0  0
 60131  1  0  0  0
 61132  1  0  0  0
 61133  1  0  0  0
 61134  1  0  0  0
 62135  1  0  0  0
 62136  1  0  0  0
 62137  1  0  0  0
 63 65  1  0  0  0
 63138  1  0  0  0
 63139  1  0  0  0
 63140  1  0  0  0
 64141  1  0  0  0
 65142  1  0  0  0
 68 80  1  0  0  0
 71 72  2  0  0  0
 71 74  1  0  0  0
 71143  1  0  0  0
 72 75  1  0  0  0
 72144  1  0  0  0
 73 74  2  0  0  0
 73 76  1  0  0  0
 73145  1  0  0  0
 74 78  1  0  0  0
 75 76  2  0  0  0
 75 81  1  0  0  0
 76 83  1  0  0  0
 77146  1  0  0  0
 77147  1  0  0  0
 77148  1  0  0  0
 77 82  1  0  0  0
 78 82  1  0  0  0
 78149  1  0  0  0
 78150  1  0  0  0
 79 80  1  0  0  0
 79 82  1  0  0  0
 79151  1  0  0  0
 79152  1  0  0  0
 80153  1  0  0  0
 80154  1  0  0  0
 81155  1  0  0  0
 82156  1  0  0  0
M  CHG  1  82   1
M  ISO  4   1 100  68 101  80 101  81 100
M  END
> <chiral flag>
0

> <version>
0

> <s_m_source_file>
/data/baiqing/PycharmProjects/Reinvent-master-3.2/result/LINK_invent/BTK/process_docking_weight1_custom_product_contain_oxygen_bond_distance_aromatic_linkinvent_7_9_3/rearranged_h_0013.sdf

> <i_m_source_file_index>
79

> <r_mmod_Potential_Energy-OPLS-2005>
-78.2039031982422

> <r_mmod_Stretch_Energy-OPLS-2005>
77.7842254638672

> <r_mmod_Bend_Energy-OPLS-2005>
148.004547119141

> <r_mmod_Torsional_Energy-OPLS-2005>
218.020614624023

> <r_mmod_Improper_Torsional_Energy-OPLS-2005>
5.68322610855103

> <r_mmod_Van_der_Waal_Energy-OPLS-2005>
152.313369750977

> <r_mmod_Electrostatic_Energy-OPLS-2005>
-279.912200927734

> <r_mmod_Solvation_Energy-OPLS-2005>
-442.414611816406

> <b_mmod_Minimization_Converged-OPLS-2005>
0

> <r_mmod_RMS_Derivative-OPLS-2005>
5.67423391342163

$$$$
80
                    3D
 Structure written by MMmdl.
147155  0  0  1  0            999 V2000
  -30.3056  -15.5909   20.3155 C   0  0  0  0  0  0
  -30.4390  -13.0438   19.5403 C   0  0  0  0  0  0
  -29.5585  -12.6371   18.3244 C   0  0  0  0  0  0
  -28.1252  -12.2991   18.7648 C   0  0  0  0  0  0
  -27.6040  -13.3026   19.8184 C   0  0  2  0  0  0
  -28.6253  -13.6060   20.9382 C   0  0  0  0  0  0
  -25.2354  -13.8285   20.5784 C   0  0  0  0  0  0
  -24.1724  -13.0453   20.9298 C   0  0  0  0  0  0
  -24.6426  -11.6955   20.8789 C   0  0  0  0  0  0
  -23.9122  -10.4308   21.0434 C   0  0  0  0  0  0
  -24.3650   -9.4215   21.9209 C   0  0  0  0  0  0
  -23.6299   -8.2263   22.0776 C   0  0  0  0  0  0
  -22.4283   -8.0322   21.3573 C   0  0  0  0  0  0
  -21.9935   -9.0302   20.4676 C   0  0  0  0  0  0
  -22.7294  -10.2170   20.3086 C   0  0  0  0  0  0
  -21.6861   -6.0761   22.5290 C   0  0  0  0  0  0
  -21.4022   -6.5655   23.8230 C   0  0  0  0  0  0
  -21.3652   -5.6804   24.9181 C   0  0  0  0  0  0
  -21.6034   -4.3064   24.7228 C   0  0  0  0  0  0
  -21.8812   -3.8162   23.4344 C   0  0  0  0  0  0
  -21.9193   -4.6981   22.3405 C   0  0  0  0  0  0
  -22.7733  -13.5204   21.1909 C   0  0  0  0  0  0
  -22.1652   -4.2169   21.0979 F   0  0  0  0  0  0
  -21.5613   -3.4545   25.7733 F   0  0  0  0  0  0
  -29.8079  -14.2187   20.2893 N   0  0  0  0  0  0
  -26.2811  -12.9609   20.3249 N   0  0  0  0  0  0
  -25.9378  -11.6690   20.5725 N   0  0  0  0  0  0
  -22.0344  -12.8239   22.0461 N   0  0  0  0  0  0
  -25.3933  -15.2024   20.4167 N   0  0  0  0  0  0
  -31.5354  -15.5643   20.1222 O   0  0  0  0  0  0
  -21.6647   -6.8914   21.4261 O   0  0  0  0  0  0
  -22.3441  -14.5504   20.6723 O   0  0  0  0  0  0
  -24.6839  -31.7985   23.1533 C   0  0  0  0  0  0
  -25.9418  -32.4452   23.8076 C   0  0  1  0  0  0
  -27.2302  -26.7089   20.2037 C   0  0  0  0  0  0
  -25.5990  -33.8283   24.1953 N   0  0  0  0  0  0
  -23.5107  -30.4017   21.5058 C   0  0  2  0  0  0
  -24.9690  -28.7449   20.1155 C   0  0  0  0  0  0
  -22.7761  -29.4308   22.4709 C   0  0  0  0  0  0
  -18.0337  -28.1417   22.8454 C   0  0  0  0  0  0
  -24.1504  -36.7158   23.2658 C   0  0  0  0  0  0
  -26.0923  -30.5315   21.4198 C   0  0  0  0  0  0
  -26.1584  -29.0983   20.7649 C   0  0  0  0  0  0
  -27.2729  -28.1087   20.7785 C   0  0  0  0  0  0
  -26.0092  -26.5650   19.4959 C   0  0  0  0  0  0
  -24.9333  -27.5028   19.4577 C   0  0  0  0  0  0
  -23.7644  -29.6994   20.1409 C   0  0  0  0  0  0
  -25.4158  -36.2892   24.0282 C   0  0  1  0  0  0
  -20.5971  -28.3774   23.1133 C   0  0  2  0  0  0
  -20.6816  -26.9435   22.5397 C   0  0  0  0  0  0
  -19.5790  -26.6373   21.5211 C   0  0  0  0  0  0
  -18.1970  -26.7945   22.1620 C   0  0  0  0  0  0
  -19.1605  -28.8924   23.2776 C   0  0  0  0  0  0
  -18.9507  -30.1513   23.8815 C   0  0  0  0  0  0
  -17.6494  -30.6599   24.0546 C   0  0  0  0  0  0
  -25.9131  -34.9274   23.4961 C   0  0  0  0  0  0
  -16.5383  -29.9080   23.6350 C   0  0  0  0  0  0
  -16.7315  -28.6508   23.0361 C   0  0  0  0  0  0
  -26.4583  -31.6501   25.0709 C   0  0  0  0  0  0
  -25.3649  -31.3820   26.1324 C   0  0  0  0  0  0
  -27.0519  -30.2836   24.6635 C   0  0  0  0  0  0
  -27.6031  -32.4367   25.7517 C   0  0  0  0  0  0
  -27.5576  -37.1742   24.8474 C   0  0  0  0  0  0
  -21.4413  -29.3016   22.3443 N   0  0  0  0  0  0
  -26.4290  -37.3647   23.9392 N   0  0  0  0  0  0
  -24.7859  -30.9437   22.0780 N   0  0  0  0  0  0
  -23.4203  -28.7904   23.3049 O   0  0  0  0  0  0
  -28.1815  -25.4836   20.2880 O   0  0  0  0  0  0
  -26.5777  -34.8842   22.4579 O   0  0  0  0  0  0
  -23.5863  -32.1049   23.6491 O   0  0  0  0  0  0
  -28.7204  -21.1038   21.3336 C   0  0  0  0  0  0
  -29.0478  -19.6080   21.3845 C   0  0  0  0  0  0
  -29.0022  -21.0707   19.1329 C   0  0  0  0  0  0
  -28.6464  -22.0646   20.1965 C   0  0  0  0  0  0
  -29.3323  -19.5696   19.1677 C   0  0  0  0  0  0
  -29.4057  -18.6217   20.3208 C   0  0  0  0  0  0
  -29.5456  -18.9220   17.8057 C   0  0  0  0  0  0
  -27.9033  -23.7751   20.0254 C   0  0  0  0  0  0
  -29.4801  -16.9036   20.3974 N   0  0  0  0  0  0
  -31.4334  -13.3074   19.1772 H   0  0  0  0  0  0
  -30.5964  -12.1918   20.2048 H   0  0  0  0  0  0
  -30.0008  -11.7879   17.8020 H   0  0  0  0  0  0
  -29.5330  -13.4595   17.6081 H   0  0  0  0  0  0
  -28.1426  -11.2981   19.1976 H   0  0  0  0  0  0
  -27.4568  -12.2550   17.9043 H   0  0  0  0  0  0
  -27.4777  -14.2321   19.2620 H   0  0  0  0  0  0
  -28.8740  -12.7086   21.5065 H   0  0  0  0  0  0
  -28.2041  -14.3184   21.6495 H   0  0  0  0  0  0
  -25.2791   -9.5672   22.4798 H   0  0  0  0  0  0
  -23.9989   -7.4655   22.7512 H   0  0  0  0  0  0
  -21.0854   -8.8871   19.8997 H   0  0  0  0  0  0
  -22.3768  -10.9726   19.6211 H   0  0  0  0  0  0
  -21.2027   -7.6168   23.9740 H   0  0  0  0  0  0
  -21.1468   -6.0527   25.9087 H   0  0  0  0  0  0
  -22.0586   -2.7625   23.2850 H   0  0  0  0  0  0
  -22.3922  -11.9917   22.4904 H   0  0  0  0  0  0
  -21.0973  -13.1343   22.2641 H   0  0  0  0  0  0
  -24.6122  -15.8406   20.5232 H   0  0  0  0  0  0
  -26.2130  -15.6467   20.0251 H   0  0  0  0  0  0
  -26.7498  -32.4911   23.0790 H   0  0  0  0  0  0
  -25.0017  -33.9305   25.0021 H   0  0  0  0  0  0
  -22.8361  -31.2399   21.3171 H   0  0  0  0  0  0
  -23.3762  -35.9496   23.3299 H   0  0  0  0  0  0
  -24.3565  -36.8833   22.2080 H   0  0  0  0  0  0
  -23.7270  -37.6338   23.6739 H   0  0  0  0  0  0
  -26.3026  -31.2582   20.6342 H   0  0  0  0  0  0
  -26.9417  -30.5929   22.0886 H   0  0  0  0  0  0
  -28.1665  -28.3830   21.3228 H   0  0  0  0  0  0
  -25.8433  -25.6253   18.9879 H   0  0  0  0  0  0
  -24.0371  -27.2234   18.9204 H   0  0  0  0  0  0
  -23.9339  -30.4601   19.3778 H   0  0  0  0  0  0
  -22.8693  -29.1649   19.8197 H   0  0  0  0  0  0
  -25.1362  -36.1677   25.0773 H   0  0  0  0  0  0
  -21.0048  -28.3410   24.1259 H   0  0  0  0  0  0
  -20.5677  -26.2390   23.3655 H   0  0  0  0  0  0
  -21.6679  -26.7385   22.1204 H   0  0  0  0  0  0
  -19.6946  -25.6267   21.1290 H   0  0  0  0  0  0
  -19.6735  -27.3129   20.6700 H   0  0  0  0  0  0
  -17.4229  -26.6656   21.4035 H   0  0  0  0  0  0
  -18.0386  -26.0108   22.9043 H   0  0  0  0  0  0
  -19.7976  -30.7370   24.2137 H   0  0  0  0  0  0
  -17.5032  -31.6267   24.5168 H   0  0  0  0  0  0
  -15.5381  -30.2954   23.7726 H   0  0  0  0  0  0
  -15.8713  -28.0808   22.7112 H   0  0  0  0  0  0
  -24.5804  -30.7217   25.7598 H   0  0  0  0  0  0
  -24.8880  -32.3053   26.4630 H   0  0  0  0  0  0
  -25.7806  -30.9024   27.0196 H   0  0  0  0  0  0
  -26.3242  -29.6438   24.1631 H   0  0  0  0  0  0
  -27.3920  -29.7295   25.5394 H   0  0  0  0  0  0
  -27.9233  -30.3936   24.0179 H   0  0  0  0  0  0
  -27.2550  -33.3704   26.1945 H   0  0  0  0  0  0
  -28.3911  -32.6881   25.0405 H   0  0  0  0  0  0
  -28.0631  -31.8619   26.5565 H   0  0  0  0  0  0
  -28.2583  -38.0043   24.7469 H   0  0  0  0  0  0
  -28.1069  -36.2558   24.6356 H   0  0  0  0  0  0
  -27.2272  -37.1450   25.8871 H   0  0  0  0  0  0
  -20.9713  -29.8651   21.6493 H   0  0  0  0  0  0
  -26.0127  -38.2706   24.1349 H   0  0  0  0  0  0
  -28.4393  -21.5279   22.2890 H   0  0  0  0  0  0
  -28.9662  -19.1779   22.3729 H   0  0  0  0  0  0
  -28.9592  -21.4904   18.1376 H   0  0  0  0  0  0
  -29.8995  -19.6366   17.0579 H   0  0  0  0  0  0
  -28.6105  -18.4870   17.4450 H   0  0  0  0  0  0
  -30.2885  -18.1244   17.8786 H   0  0  0  0  0  0
  -26.9319  -23.6357   20.5010 H   0  0  0  0  0  0
  -27.6642  -23.7756   18.9615 H   0  0  0  0  0  0
  -28.5441  -16.5726   20.5794 H   0  0  0  0  0  0
  1 25  1  0  0  0
  1 30  2  0  0  0
  1 79  1  0  0  0
  2  3  1  0  0  0
  2 25  1  0  0  0
  2 80  1  0  0  0
  2 81  1  0  0  0
  3  4  1  0  0  0
  3 82  1  0  0  0
  3 83  1  0  0  0
  4  5  1  0  0  0
  4 84  1  0  0  0
  4 85  1  0  0  0
  5  6  1  0  0  0
  5 26  1  0  0  0
  5 86  1  0  0  0
  6 25  1  0  0  0
  6 87  1  0  0  0
  6 88  1  0  0  0
  7  8  2  0  0  0
  7 26  1  0  0  0
  7 29  1  0  0  0
  8  9  1  0  0  0
  8 22  1  0  0  0
  9 10  1  0  0  0
  9 27  2  0  0  0
 10 11  2  0  0  0
 10 15  1  0  0  0
 11 12  1  0  0  0
 11 89  1  0  0  0
 12 13  2  0  0  0
 12 90  1  0  0  0
 13 14  1  0  0  0
 13 31  1  0  0  0
 14 15  2  0  0  0
 14 91  1  0  0  0
 15 92  1  0  0  0
 16 17  2  0  0  0
 16 21  1  0  0  0
 16 31  1  0  0  0
 17 18  1  0  0  0
 17 93  1  0  0  0
 18 19  2  0  0  0
 18 94  1  0  0  0
 19 20  1  0  0  0
 19 24  1  0  0  0
 20 21  2  0  0  0
 20 95  1  0  0  0
 21 23  1  0  0  0
 22 28  1  0  0  0
 22 32  2  0  0  0
 26 27  1  0  0  0
 28 96  1  0  0  0
 28 97  1  0  0  0
 29 98  1  0  0  0
 29 99  1  0  0  0
 33 34  1  0  0  0
 33 66  1  0  0  0
 33 70  2  0  0  0
 34 36  1  0  0  0
 34 59  1  0  0  0
 34100  1  0  0  0
 35 44  2  0  0  0
 35 45  1  0  0  0
 35 68  1  0  0  0
 36 56  1  0  0  0
 36101  1  0  0  0
 37 39  1  0  0  0
 37 47  1  0  0  0
 37 66  1  0  0  0
 37102  1  0  0  0
 38 43  2  0  0  0
 38 46  1  0  0  0
 38 47  1  0  0  0
 39 64  1  0  0  0
 39 67  2  0  0  0
 40 52  1  0  0  0
 40 53  2  0  0  0
 40 58  1  0  0  0
 41103  1  0  0  0
 41104  1  0  0  0
 41105  1  0  0  0
 41 48  1  0  0  0
 42 43  1  0  0  0
 42 66  1  0  0  0
 42106  1  0  0  0
 42107  1  0  0  0
 43 44  1  0  0  0
 44108  1  0  0  0
 45 46  2  0  0  0
 45109  1  0  0  0
 46110  1  0  0  0
 47111  1  0  0  0
 47112  1  0  0  0
 48 56  1  0  0  0
 48 65  1  0  0  0
 48113  1  0  0  0
 49 50  1  0  0  0
 49 53  1  0  0  0
 49 64  1  0  0  0
 49114  1  0  0  0
 50 51  1  0  0  0
 50115  1  0  0  0
 50116  1  0  0  0
 51 52  1  0  0  0
 51117  1  0  0  0
 51118  1  0  0  0
 52119  1  0  0  0
 52120  1  0  0  0
 53 54  1  0  0  0
 54 55  2  0  0  0
 54121  1  0  0  0
 55 57  1  0  0  0
 55122  1  0  0  0
 56 69  2  0  0  0
 57 58  2  0  0  0
 57123  1  0  0  0
 58124  1  0  0  0
 59 60  1  0  0  0
 59 61  1  0  0  0
 59 62  1  0  0  0
 60125  1  0  0  0
 60126  1  0  0  0
 60127  1  0  0  0
 61128  1  0  0  0
 61129  1  0  0  0
 61130  1  0  0  0
 62131  1  0  0  0
 62132  1  0  0  0
 62133  1  0  0  0
 63 65  1  0  0  0
 63134  1  0  0  0
 63135  1  0  0  0
 63136  1  0  0  0
 64137  1  0  0  0
 65138  1  0  0  0
 68 78  1  0  0  0
 71 72  2  0  0  0
 71 74  1  0  0  0
 71139  1  0  0  0
 72 76  1  0  0  0
 72140  1  0  0  0
 73 74  2  0  0  0
 73 75  1  0  0  0
 73141  1  0  0  0
 74 78  1  0  0  0
 75 76  2  0  0  0
 75 77  1  0  0  0
 76 79  1  0  0  0
 77142  1  0  0  0
 77143  1  0  0  0
 77144  1  0  0  0
 78145  1  0  0  0
 78146  1  0  0  0
 79147  1  0  0  0
M  ISO  4   1 100  68 101  78 101  79 100
M  END
> <chiral flag>
0

> <version>
0

> <s_m_source_file>
/data/baiqing/PycharmProjects/Reinvent-master-3.2/result/LINK_invent/BTK/process_docking_weight1_custom_product_contain_oxygen_bond_distance_aromatic_linkinvent_7_9_3/rearranged_h_0013.sdf

> <i_m_source_file_index>
80

> <r_mmod_Potential_Energy-OPLS-2005>
2252.31005859375

> <r_mmod_Stretch_Energy-OPLS-2005>
917.401550292969

> <r_mmod_Bend_Energy-OPLS-2005>
649.210205078125

> <r_mmod_Torsional_Energy-OPLS-2005>
259.007171630859

> <r_mmod_Improper_Torsional_Energy-OPLS-2005>
10.5041561126709

> <r_mmod_Van_der_Waal_Energy-OPLS-2005>
130.28239440918

> <r_mmod_Electrostatic_Energy-OPLS-2005>
-365.772888183594

> <r_mmod_Solvation_Energy-OPLS-2005>
-212.011962890625

> <b_mmod_Minimization_Converged-OPLS-2005>
0

> <r_mmod_RMS_Derivative-OPLS-2005>
2.78072738647461

$$$$
81
                    3D
 Structure written by MMmdl.
168177  0  0  1  0            999 V2000
  -30.5662  -14.7119   20.4346 C   0  0  0  0  0  0
  -30.4448  -12.4225   19.4570 C   0  0  0  0  0  0
  -29.5106  -12.4841   18.2265 C   0  0  0  0  0  0
  -28.0345  -12.3143   18.6435 C   0  0  0  0  0  0
  -27.6472  -13.2119   19.8500 C   0  0  2  0  0  0
  -28.6918  -13.0976   20.9811 C   0  0  0  0  0  0
  -25.2543  -13.8158   20.5656 C   0  0  0  0  0  0
  -24.1809  -13.0444   20.9180 C   0  0  0  0  0  0
  -24.6376  -11.6909   20.8761 C   0  0  0  0  0  0
  -23.9050  -10.4292   21.0431 C   0  0  0  0  0  0
  -24.3608   -9.4201   21.9197 C   0  0  0  0  0  0
  -23.6285   -8.2241   22.0768 C   0  0  0  0  0  0
  -22.4268   -8.0277   21.3565 C   0  0  0  0  0  0
  -21.9900   -9.0247   20.4662 C   0  0  0  0  0  0
  -22.7230  -10.2130   20.3069 C   0  0  0  0  0  0
  -21.6850   -6.0740   22.5277 C   0  0  0  0  0  0
  -21.4015   -6.5646   23.8208 C   0  0  0  0  0  0
  -21.3651   -5.6799   24.9174 C   0  0  0  0  0  0
  -21.6041   -4.3058   24.7231 C   0  0  0  0  0  0
  -21.8820   -3.8150   23.4351 C   0  0  0  0  0  0
  -21.9192   -4.6969   22.3404 C   0  0  0  0  0  0
  -22.7831  -13.5238   21.1846 C   0  0  0  0  0  0
  -22.1660   -4.2149   21.0984 F   0  0  0  0  0  0
  -21.5624   -3.4533   25.7744 F   0  0  0  0  0  0
  -29.9984  -13.4610   20.4090 N   0  0  0  0  0  0
  -26.2960  -12.9327   20.3252 N   0  0  0  0  0  0
  -25.9304  -11.6493   20.5766 N   0  0  0  0  0  0
  -22.0472  -12.8261   22.0408 N   0  0  0  0  0  0
  -25.4264  -15.1888   20.4069 N   0  0  0  0  0  0
  -31.7499  -14.8655   20.1174 O   0  0  0  0  0  0
  -21.6639   -6.8879   21.4247 O   0  0  0  0  0  0
  -22.3527  -14.5540   20.6675 O   0  0  0  0  0  0
  -24.6228  -31.8569   23.1960 C   0  0  0  0  0  0
  -25.9084  -32.4743   23.8284 C   0  0  1  0  0  0
  -27.2304  -27.3190   20.1092 C   0  0  0  0  0  0
  -25.5920  -33.8550   24.2226 N   0  0  0  0  0  0
  -23.4148  -30.4728   21.5428 C   0  0  2  0  0  0
  -24.8594  -28.9170   20.1095 C   0  0  0  0  0  0
  -22.7437  -29.4591   22.4996 C   0  0  0  0  0  0
  -18.0263  -28.1366   22.8471 C   0  0  0  0  0  0
  -24.1517  -36.7314   23.2630 C   0  0  0  0  0  0
  -25.9494  -30.7875   21.3589 C   0  0  0  0  0  0
  -26.0239  -29.4108   20.7076 C   0  0  0  0  0  0
  -27.2096  -28.6224   20.6935 C   0  0  0  0  0  0
  -26.0437  -26.8691   19.4885 C   0  0  0  0  0  0
  -24.8713  -27.6534   19.4915 C   0  0  0  0  0  0
  -23.6214  -29.7888   20.1631 C   0  0  0  0  0  0
  -25.4133  -36.3070   24.0306 C   0  0  1  0  0  0
  -20.5856  -28.3664   23.1318 C   0  0  2  0  0  0
  -20.6771  -26.9412   22.5435 C   0  0  0  0  0  0
  -19.5759  -26.6378   21.5223 C   0  0  0  0  0  0
  -18.1918  -26.7894   22.1624 C   0  0  0  0  0  0
  -19.1507  -28.8834   23.2876 C   0  0  0  0  0  0
  -18.9430  -30.1431   23.8900 C   0  0  0  0  0  0
  -17.6441  -30.6580   24.0557 C   0  0  0  0  0  0
  -25.9061  -34.9438   23.5073 C   0  0  0  0  0  0
  -16.5330  -29.9091   23.6319 C   0  0  0  0  0  0
  -16.7238  -28.6498   23.0334 C   0  0  0  0  0  0
  -26.4485  -31.6526   25.0642 C   0  0  0  0  0  0
  -25.3714  -31.3664   26.1361 C   0  0  0  0  0  0
  -27.0288  -30.2933   24.6078 C   0  0  0  0  0  0
  -27.6055  -32.4242   25.7413 C   0  0  0  0  0  0
  -27.5595  -37.1819   24.8449 C   0  0  0  0  0  0
  -21.4155  -29.3009   22.3723 N   0  0  0  0  0  0
  -26.4321  -37.3761   23.9365 N   0  0  0  0  0  0
  -24.6821  -31.0559   22.0911 N   0  0  0  0  0  0
  -23.4167  -28.8195   23.3116 O   0  0  0  0  0  0
  -28.3832  -26.5267   20.1880 O   0  0  0  0  0  0
  -26.5655  -34.8915   22.4655 O   0  0  0  0  0  0
  -23.5414  -32.1378   23.7305 O   0  0  0  0  0  0
  -28.6222  -19.3959   21.1723 C   0  0  0  0  0  0
  -28.8639  -18.0005   21.3651 C   0  0  0  0  0  0
  -29.9963  -19.3261   19.2186 C   0  0  0  0  0  0
  -29.1855  -20.1128   20.0850 C   0  0  0  0  0  0
  -29.6643  -17.2057   20.4928 C   0  0  0  0  0  0
  -30.2257  -17.9161   19.3831 C   0  0  0  0  0  0
  -28.4323  -23.7261   22.8871 C   0  0  0  0  0  0
  -27.3576  -24.3599   21.9848 C   0  0  0  0  0  0
  -29.2332  -22.7693   21.9895 C   0  0  0  0  0  0
  -27.7012  -23.9304   20.5469 C   0  0  2  0  0  0
  -32.2674  -17.7502   18.1450 C   0  0  0  0  0  0
  -30.1021  -17.0574   17.1767 C   0  0  0  0  0  0
  -28.8865  -21.6365   19.7341 C   0  0  0  0  0  0
  -28.4865  -25.0985   19.7836 C   0  0  0  0  0  0
  -29.7019  -15.7468   20.7275 N   0  0  0  0  0  0
  -30.9217  -17.2334   18.3727 N   0  0  0  0  0  0
  -28.3743  -22.5753   20.8071 N   0  3  1  0  0  0
  -31.4815  -12.5744   19.1497 H   0  0  0  0  0  0
  -30.4089  -11.4362   19.9259 H   0  0  0  0  0  0
  -29.7826  -11.7113   17.5080 H   0  0  0  0  0  0
  -29.6370  -13.4392   17.7128 H   0  0  0  0  0  0
  -27.8946  -11.2677   18.9125 H   0  0  0  0  0  0
  -27.3727  -12.5033   17.7970 H   0  0  0  0  0  0
  -27.6525  -14.2374   19.4785 H   0  0  0  0  0  0
  -28.7207  -12.0816   21.3827 H   0  0  0  0  0  0
  -28.4296  -13.7426   21.8220 H   0  0  0  0  0  0
  -25.2763   -9.5675   22.4759 H   0  0  0  0  0  0
  -23.9989   -7.4645   22.7487 H   0  0  0  0  0  0
  -21.0828   -8.8781   19.8962 H   0  0  0  0  0  0
  -22.3702  -10.9679   19.6161 H   0  0  0  0  0  0
  -21.2013   -7.6146   23.9716 H   0  0  0  0  0  0
  -21.1462   -6.0527   25.9081 H   0  0  0  0  0  0
  -22.0610   -2.7604   23.2853 H   0  0  0  0  0  0
  -22.4090  -11.9935   22.4817 H   0  0  0  0  0  0
  -21.1102  -13.1312   22.2604 H   0  0  0  0  0  0
  -24.6552  -15.8410   20.5028 H   0  0  0  0  0  0
  -26.2764  -15.6312   20.0843 H   0  0  0  0  0  0
  -26.7137  -32.5397   23.1015 H   0  0  0  0  0  0
  -24.9962  -33.9693   25.0307 H   0  0  0  0  0  0
  -22.7062  -31.2889   21.3957 H   0  0  0  0  0  0
  -23.3755  -35.9673   23.3275 H   0  0  0  0  0  0
  -24.3617  -36.8959   22.2048 H   0  0  0  0  0  0
  -23.7318  -37.6533   23.6669 H   0  0  0  0  0  0
  -26.0657  -31.5491   20.5864 H   0  0  0  0  0  0
  -26.8359  -30.8470   21.9773 H   0  0  0  0  0  0
  -28.1081  -29.0032   21.1567 H   0  0  0  0  0  0
  -26.0048  -25.9011   19.0112 H   0  0  0  0  0  0
  -23.9755  -27.2772   19.0149 H   0  0  0  0  0  0
  -23.7125  -30.5504   19.3875 H   0  0  0  0  0  0
  -22.7452  -29.1963   19.8913 H   0  0  0  0  0  0
  -25.1339  -36.1901   25.0810 H   0  0  0  0  0  0
  -20.9898  -28.3230   24.1455 H   0  0  0  0  0  0
  -20.5674  -26.2286   23.3626 H   0  0  0  0  0  0
  -21.6642  -26.7462   22.1249 H   0  0  0  0  0  0
  -19.6951  -25.6295   21.1242 H   0  0  0  0  0  0
  -19.6694  -27.3194   20.6755 H   0  0  0  0  0  0
  -17.4211  -26.6586   21.4022 H   0  0  0  0  0  0
  -18.0347  -26.0046   22.9033 H   0  0  0  0  0  0
  -19.7913  -30.7233   24.2286 H   0  0  0  0  0  0
  -17.4998  -31.6255   24.5171 H   0  0  0  0  0  0
  -15.5332  -30.3005   23.7637 H   0  0  0  0  0  0
  -15.8627  -28.0835   22.7049 H   0  0  0  0  0  0
  -24.5930  -30.6973   25.7679 H   0  0  0  0  0  0
  -24.8863  -32.2826   26.4740 H   0  0  0  0  0  0
  -25.8037  -30.8882   27.0152 H   0  0  0  0  0  0
  -26.2834  -29.6708   24.1105 H   0  0  0  0  0  0
  -27.3971  -29.7157   25.4562 H   0  0  0  0  0  0
  -27.8720  -30.4182   23.9271 H   0  0  0  0  0  0
  -27.2678  -33.3531   26.2007 H   0  0  0  0  0  0
  -28.3858  -32.6795   25.0235 H   0  0  0  0  0  0
  -28.0713  -31.8334   26.5313 H   0  0  0  0  0  0
  -28.2614  -38.0119   24.7502 H   0  0  0  0  0  0
  -28.1108  -36.2654   24.6276 H   0  0  0  0  0  0
  -27.2310  -37.1456   25.8856 H   0  0  0  0  0  0
  -20.9344  -29.8676   21.6890 H   0  0  0  0  0  0
  -26.0189  -38.2847   24.1317 H   0  0  0  0  0  0
  -27.9634  -19.8978   21.8672 H   0  0  0  0  0  0
  -28.3775  -17.5222   22.2027 H   0  0  0  0  0  0
  -30.4135  -19.8250   18.3549 H   0  0  0  0  0  0
  -27.9448  -23.1843   23.7013 H   0  0  0  0  0  0
  -29.0886  -24.4760   23.3360 H   0  0  0  0  0  0
  -27.2938  -25.4383   22.1253 H   0  0  0  0  0  0
  -26.3765  -23.9615   22.2517 H   0  0  0  0  0  0
  -29.4718  -21.8333   22.4951 H   0  0  0  0  0  0
  -30.1755  -23.2304   21.6892 H   0  0  0  0  0  0
  -26.7761  -23.7623   19.9931 H   0  0  0  0  0  0
  -32.8246  -17.0926   17.4774 H   0  0  0  0  0  0
  -32.8207  -17.8238   19.0814 H   0  0  0  0  0  0
  -32.2541  -18.7393   17.6842 H   0  0  0  0  0  0
  -29.0552  -16.8686   17.4250 H   0  0  0  0  0  0
  -30.4592  -16.2142   16.5863 H   0  0  0  0  0  0
  -30.1377  -17.9481   16.5457 H   0  0  0  0  0  0
  -28.1391  -21.6327   18.9394 H   0  0  0  0  0  0
  -29.7843  -22.0760   19.2961 H   0  0  0  0  0  0
  -28.2986  -25.0277   18.7125 H   0  0  0  0  0  0
  -29.5501  -24.8766   19.8905 H   0  0  0  0  0  0
  -28.8438  -15.3982   21.1264 H   0  0  0  0  0  0
  -27.6049  -22.0288   21.1657 H   0  0  0  0  0  0
  1 25  1  0  0  0
  1 30  2  0  0  0
  1 85  1  0  0  0
  2  3  1  0  0  0
  2 25  1  0  0  0
  2 88  1  0  0  0
  2 89  1  0  0  0
  3  4  1  0  0  0
  3 90  1  0  0  0
  3 91  1  0  0  0
  4  5  1  0  0  0
  4 92  1  0  0  0
  4 93  1  0  0  0
  5  6  1  0  0  0
  5 26  1  0  0  0
  5 94  1  0  0  0
  6 25  1  0  0  0
  6 95  1  0  0  0
  6 96  1  0  0  0
  7  8  2  0  0  0
  7 26  1  0  0  0
  7 29  1  0  0  0
  8  9  1  0  0  0
  8 22  1  0  0  0
  9 10  1  0  0  0
  9 27  2  0  0  0
 10 11  2  0  0  0
 10 15  1  0  0  0
 11 12  1  0  0  0
 11 97  1  0  0  0
 12 13  2  0  0  0
 12 98  1  0  0  0
 13 14  1  0  0  0
 13 31  1  0  0  0
 14 15  2  0  0  0
 14 99  1  0  0  0
 15100  1  0  0  0
 16 17  2  0  0  0
 16 21  1  0  0  0
 16 31  1  0  0  0
 17 18  1  0  0  0
 17101  1  0  0  0
 18 19  2  0  0  0
 18102  1  0  0  0
 19 20  1  0  0  0
 19 24  1  0  0  0
 20 21  2  0  0  0
 20103  1  0  0  0
 21 23  1  0  0  0
 22 28  1  0  0  0
 22 32  2  0  0  0
 26 27  1  0  0  0
 28104  1  0  0  0
 28105  1  0  0  0
 29106  1  0  0  0
 29107  1  0  0  0
 33 34  1  0  0  0
 33 66  1  0  0  0
 33 70  2  0  0  0
 34 36  1  0  0  0
 34 59  1  0  0  0
 34108  1  0  0  0
 35 44  2  0  0  0
 35 45  1  0  0  0
 35 68  1  0  0  0
 36 56  1  0  0  0
 36109  1  0  0  0
 37 39  1  0  0  0
 37 47  1  0  0  0
 37 66  1  0  0  0
 37110  1  0  0  0
 38 43  2  0  0  0
 38 46  1  0  0  0
 38 47  1  0  0  0
 39 64  1  0  0  0
 39 67  2  0  0  0
 40 52  1  0  0  0
 40 53  2  0  0  0
 40 58  1  0  0  0
 41111  1  0  0  0
 41112  1  0  0  0
 41113  1  0  0  0
 41 48  1  0  0  0
 42 43  1  0  0  0
 42 66  1  0  0  0
 42114  1  0  0  0
 42115  1  0  0  0
 43 44  1  0  0  0
 44116  1  0  0  0
 45 46  2  0  0  0
 45117  1  0  0  0
 46118  1  0  0  0
 47119  1  0  0  0
 47120  1  0  0  0
 48 56  1  0  0  0
 48 65  1  0  0  0
 48121  1  0  0  0
 49 50  1  0  0  0
 49 53  1  0  0  0
 49 64  1  0  0  0
 49122  1  0  0  0
 50 51  1  0  0  0
 50123  1  0  0  0
 50124  1  0  0  0
 51 52  1  0  0  0
 51125  1  0  0  0
 51126  1  0  0  0
 52127  1  0  0  0
 52128  1  0  0  0
 53 54  1  0  0  0
 54 55  2  0  0  0
 54129  1  0  0  0
 55 57  1  0  0  0
 55130  1  0  0  0
 56 69  2  0  0  0
 57 58  2  0  0  0
 57131  1  0  0  0
 58132  1  0  0  0
 59 60  1  0  0  0
 59 61  1  0  0  0
 59 62  1  0  0  0
 60133  1  0  0  0
 60134  1  0  0  0
 60135  1  0  0  0
 61136  1  0  0  0
 61137  1  0  0  0
 61138  1  0  0  0
 62139  1  0  0  0
 62140  1  0  0  0
 62141  1  0  0  0
 63 65  1  0  0  0
 63142  1  0  0  0
 63143  1  0  0  0
 63144  1  0  0  0
 64145  1  0  0  0
 65146  1  0  0  0
 68 84  1  0  0  0
 71 72  2  0  0  0
 71 74  1  0  0  0
 71147  1  0  0  0
 72 75  1  0  0  0
 72148  1  0  0  0
 73 74  2  0  0  0
 73 76  1  0  0  0
 73149  1  0  0  0
 74 83  1  0  0  0
 75 76  2  0  0  0
 75 85  1  0  0  0
 76 86  1  0  0  0
 77 78  1  0  0  0
 77 79  1  0  0  0
 77150  1  0  0  0
 77151  1  0  0  0
 78 80  1  0  0  0
 78152  1  0  0  0
 78153  1  0  0  0
 79 87  1  0  0  0
 79154  1  0  0  0
 79155  1  0  0  0
 80 84  1  0  0  0
 80 87  1  0  0  0
 80156  1  0  0  0
 81 86  1  0  0  0
 81157  1  0  0  0
 81158  1  0  0  0
 81159  1  0  0  0
 82 86  1  0  0  0
 82160  1  0  0  0
 82161  1  0  0  0
 82162  1  0  0  0
 83163  1  0  0  0
 83164  1  0  0  0
 83 87  1  0  0  0
 84165  1  0  0  0
 84166  1  0  0  0
 85167  1  0  0  0
 87168  1  0  0  0
M  CHG  1  87   1
M  ISO  4   1 100  68 101  84 101  85 100
M  END
> <chiral flag>
0

> <version>
0

> <s_m_source_file>
/data/baiqing/PycharmProjects/Reinvent-master-3.2/result/LINK_invent/BTK/process_docking_weight1_custom_product_contain_oxygen_bond_distance_aromatic_linkinvent_7_9_3/rearranged_h_0013.sdf

> <i_m_source_file_index>
81

> <r_mmod_Potential_Energy-OPLS-2005>
119.983032226562

> <r_mmod_Stretch_Energy-OPLS-2005>
93.0556640625

> <r_mmod_Bend_Energy-OPLS-2005>
227.820617675781

> <r_mmod_Torsional_Energy-OPLS-2005>
311.642578125

> <r_mmod_Improper_Torsional_Energy-OPLS-2005>
8.66096782684326

> <r_mmod_Van_der_Waal_Energy-OPLS-2005>
126.917434692383

> <r_mmod_Electrostatic_Energy-OPLS-2005>
-251.166915893555

> <r_mmod_Solvation_Energy-OPLS-2005>
-459.952758789062

> <b_mmod_Minimization_Converged-OPLS-2005>
0

> <r_mmod_RMS_Derivative-OPLS-2005>
3.84761309623718

$$$$
82
                    3D
 Structure written by MMmdl.
159168  0  0  1  0            999 V2000
  -30.6569  -14.6781   20.4982 C   0  0  0  0  0  0
  -30.4179  -12.4234   19.4621 C   0  0  0  0  0  0
  -29.4985  -12.5058   18.2265 C   0  0  0  0  0  0
  -28.0259  -12.3350   18.6432 C   0  0  0  0  0  0
  -27.6398  -13.2288   19.8518 C   0  0  2  0  0  0
  -28.6831  -13.1481   20.9865 C   0  0  0  0  0  0
  -25.2491  -13.8192   20.5689 C   0  0  0  0  0  0
  -24.1788  -13.0437   20.9213 C   0  0  0  0  0  0
  -24.6382  -11.6917   20.8757 C   0  0  0  0  0  0
  -23.9064  -10.4293   21.0413 C   0  0  0  0  0  0
  -24.3617   -9.4208   21.9188 C   0  0  0  0  0  0
  -23.6293   -8.2242   22.0755 C   0  0  0  0  0  0
  -22.4275   -8.0281   21.3544 C   0  0  0  0  0  0
  -21.9912   -9.0255   20.4646 C   0  0  0  0  0  0
  -22.7239  -10.2134   20.3059 C   0  0  0  0  0  0
  -21.6852   -6.0737   22.5279 C   0  0  0  0  0  0
  -21.4013   -6.5640   23.8213 C   0  0  0  0  0  0
  -21.3659   -5.6792   24.9174 C   0  0  0  0  0  0
  -21.6044   -4.3055   24.7225 C   0  0  0  0  0  0
  -21.8819   -3.8149   23.4345 C   0  0  0  0  0  0
  -21.9192   -4.6965   22.3402 C   0  0  0  0  0  0
  -22.7810  -13.5220   21.1870 C   0  0  0  0  0  0
  -22.1661   -4.2152   21.0979 F   0  0  0  0  0  0
  -21.5629   -3.4539   25.7737 F   0  0  0  0  0  0
  -29.9894  -13.4800   20.4064 N   0  0  0  0  0  0
  -26.2919  -12.9399   20.3289 N   0  0  0  0  0  0
  -25.9310  -11.6544   20.5764 N   0  0  0  0  0  0
  -22.0458  -12.8209   22.0426 N   0  0  0  0  0  0
  -25.4150  -15.1913   20.4077 N   0  0  0  0  0  0
  -31.8295  -14.7562   20.1166 O   0  0  0  0  0  0
  -21.6637   -6.8880   21.4241 O   0  0  0  0  0  0
  -22.3497  -14.5526   20.6716 O   0  0  0  0  0  0
  -24.6260  -31.8563   23.1975 C   0  0  0  0  0  0
  -25.9104  -32.4755   23.8313 C   0  0  1  0  0  0
  -27.2296  -27.3013   20.1212 C   0  0  0  0  0  0
  -25.5917  -33.8557   24.2246 N   0  0  0  0  0  0
  -23.4196  -30.4757   21.5404 C   0  0  2  0  0  0
  -24.8648  -28.9175   20.1111 C   0  0  0  0  0  0
  -22.7467  -29.4600   22.4934 C   0  0  0  0  0  0
  -18.0282  -28.1379   22.8485 C   0  0  0  0  0  0
  -24.1488  -36.7285   23.2641 C   0  0  0  0  0  0
  -25.9580  -30.7832   21.3654 C   0  0  0  0  0  0
  -26.0306  -29.4067   20.7103 C   0  0  0  0  0  0
  -27.2108  -28.6098   20.7004 C   0  0  0  0  0  0
  -26.0358  -26.8488   19.5226 C   0  0  0  0  0  0
  -24.8696  -27.6455   19.5102 C   0  0  0  0  0  0
  -23.6335  -29.8012   20.1577 C   0  0  0  0  0  0
  -25.4114  -36.3069   24.0326 C   0  0  1  0  0  0
  -20.5880  -28.3680   23.1290 C   0  0  2  0  0  0
  -20.6769  -26.9403   22.5416 C   0  0  0  0  0  0
  -19.5749  -26.6380   21.5212 C   0  0  0  0  0  0
  -18.1926  -26.7923   22.1620 C   0  0  0  0  0  0
  -19.1534  -28.8847   23.2882 C   0  0  0  0  0  0
  -18.9460  -30.1449   23.8897 C   0  0  0  0  0  0
  -17.6461  -30.6583   24.0561 C   0  0  0  0  0  0
  -25.9054  -34.9440   23.5092 C   0  0  0  0  0  0
  -16.5351  -29.9084   23.6329 C   0  0  0  0  0  0
  -16.7270  -28.6501   23.0351 C   0  0  0  0  0  0
  -26.4493  -31.6578   25.0694 C   0  0  0  0  0  0
  -25.3729  -31.3716   26.1424 C   0  0  0  0  0  0
  -27.0343  -30.3007   24.6149 C   0  0  0  0  0  0
  -27.6048  -32.4321   25.7468 C   0  0  0  0  0  0
  -27.5578  -37.1792   24.8463 C   0  0  0  0  0  0
  -21.4181  -29.3030   22.3684 N   0  0  0  0  0  0
  -26.4287  -37.3770   23.9411 N   0  0  0  0  0  0
  -24.6869  -31.0562   22.0920 N   0  0  0  0  0  0
  -23.4188  -28.8156   23.3030 O   0  0  0  0  0  0
  -28.3985  -26.5299   20.1893 O   0  0  0  0  0  0
  -26.5633  -34.8917   22.4665 O   0  0  0  0  0  0
  -23.5426  -32.1368   23.7307 O   0  0  0  0  0  0
  -28.5877  -19.1262   21.2066 C   0  0  0  0  0  0
  -28.4474  -20.5497   21.0537 C   0  0  0  0  0  0
  -29.4573  -20.3948   18.8949 C   0  0  0  0  0  0
  -29.1540  -18.2899   20.1981 C   0  0  0  0  0  0
  -28.8488  -21.2378   19.8724 C   0  0  0  0  0  0
  -29.6057  -18.9830   19.0449 C   0  0  0  0  0  0
  -28.4496  -24.7067   18.3085 C   0  0  0  0  0  0
  -28.8839  -23.2202   18.2892 C   0  0  0  0  0  0
  -28.2477  -23.7784   20.5306 C   0  0  0  0  0  0
  -28.6281  -25.1180   19.7702 C   0  0  2  0  0  0
  -30.7152  -16.5234   22.0758 C   0  0  0  0  0  0
  -29.0890  -16.6975   20.2207 C   0  0  0  0  0  0
  -28.6467  -22.6562   19.6239 N   0  0  0  0  0  0
  -30.0225  -15.8013   21.0075 N   0  0  0  0  0  0
  -30.1510  -18.2770   18.0251 F   0  0  0  0  0  0
  -31.4610  -12.5271   19.1590 H   0  0  0  0  0  0
  -30.3437  -11.4423   19.9340 H   0  0  0  0  0  0
  -29.7725  -11.7401   17.4992 H   0  0  0  0  0  0
  -29.6323  -13.4665   17.7267 H   0  0  0  0  0  0
  -27.8779  -11.2852   18.8992 H   0  0  0  0  0  0
  -27.3668  -12.5362   17.7978 H   0  0  0  0  0  0
  -27.6382  -14.2520   19.4784 H   0  0  0  0  0  0
  -28.7053  -12.1497   21.4255 H   0  0  0  0  0  0
  -28.4233  -13.8323   21.7958 H   0  0  0  0  0  0
  -25.2761   -9.5686   22.4763 H   0  0  0  0  0  0
  -24.0003   -7.4634   22.7474 H   0  0  0  0  0  0
  -21.0844   -8.8774   19.8949 H   0  0  0  0  0  0
  -22.3699  -10.9675   19.6169 H   0  0  0  0  0  0
  -21.2005   -7.6148   23.9718 H   0  0  0  0  0  0
  -21.1481   -6.0521   25.9077 H   0  0  0  0  0  0
  -22.0598   -2.7611   23.2844 H   0  0  0  0  0  0
  -22.4078  -11.9872   22.4813 H   0  0  0  0  0  0
  -21.1075  -13.1232   22.2631 H   0  0  0  0  0  0
  -24.6423  -15.8398   20.5130 H   0  0  0  0  0  0
  -26.2551  -15.6311   20.0581 H   0  0  0  0  0  0
  -26.7166  -32.5416   23.1053 H   0  0  0  0  0  0
  -25.0055  -33.9696   25.0385 H   0  0  0  0  0  0
  -22.7138  -31.2957   21.3932 H   0  0  0  0  0  0
  -23.3752  -35.9613   23.3293 H   0  0  0  0  0  0
  -24.3579  -36.8923   22.2057 H   0  0  0  0  0  0
  -23.7239  -37.6479   23.6678 H   0  0  0  0  0  0
  -26.0868  -31.5445   20.5948 H   0  0  0  0  0  0
  -26.8395  -30.8356   21.9932 H   0  0  0  0  0  0
  -28.1099  -28.9851   21.1689 H   0  0  0  0  0  0
  -25.9754  -25.8646   19.0889 H   0  0  0  0  0  0
  -23.9695  -27.2592   19.0522 H   0  0  0  0  0  0
  -23.7530  -30.5735   19.3969 H   0  0  0  0  0  0
  -22.7526  -29.2302   19.8587 H   0  0  0  0  0  0
  -25.1294  -36.1913   25.0817 H   0  0  0  0  0  0
  -20.9968  -28.3255   24.1412 H   0  0  0  0  0  0
  -20.5666  -26.2287   23.3614 H   0  0  0  0  0  0
  -21.6639  -26.7431   22.1214 H   0  0  0  0  0  0
  -19.6913  -25.6293   21.1239 H   0  0  0  0  0  0
  -19.6690  -27.3193   20.6743 H   0  0  0  0  0  0
  -17.4198  -26.6673   21.4020 H   0  0  0  0  0  0
  -18.0324  -26.0061   22.9013 H   0  0  0  0  0  0
  -19.7936  -30.7263   24.2270 H   0  0  0  0  0  0
  -17.5017  -31.6266   24.5160 H   0  0  0  0  0  0
  -15.5354  -30.2987   23.7654 H   0  0  0  0  0  0
  -15.8668  -28.0824   22.7065 H   0  0  0  0  0  0
  -24.5909  -30.7057   25.7758 H   0  0  0  0  0  0
  -24.8911  -32.2878   26.4845 H   0  0  0  0  0  0
  -25.8056  -30.8902   27.0203 H   0  0  0  0  0  0
  -26.2912  -29.6744   24.1196 H   0  0  0  0  0  0
  -27.4075  -29.7275   25.4646 H   0  0  0  0  0  0
  -27.8760  -30.4299   23.9342 H   0  0  0  0  0  0
  -27.2659  -33.3632   26.2021 H   0  0  0  0  0  0
  -28.3870  -32.6864   25.0304 H   0  0  0  0  0  0
  -28.0699  -31.8460   26.5405 H   0  0  0  0  0  0
  -28.2582  -38.0102   24.7526 H   0  0  0  0  0  0
  -28.1088  -36.2634   24.6268 H   0  0  0  0  0  0
  -27.2299  -37.1416   25.8866 H   0  0  0  0  0  0
  -20.9362  -29.8746   21.6886 H   0  0  0  0  0  0
  -26.0163  -38.2839   24.1427 H   0  0  0  0  0  0
  -28.1987  -18.6668   22.1040 H   0  0  0  0  0  0
  -27.9777  -21.1078   21.8513 H   0  0  0  0  0  0
  -29.8107  -20.8151   17.9663 H   0  0  0  0  0  0
  -27.4120  -24.7812   17.9921 H   0  0  0  0  0  0
  -29.0457  -25.3146   17.6271 H   0  0  0  0  0  0
  -29.9493  -23.1526   18.0611 H   0  0  0  0  0  0
  -28.3437  -22.6692   17.5173 H   0  0  0  0  0  0
  -27.1742  -23.7340   20.7187 H   0  0  0  0  0  0
  -28.7596  -23.7097   21.4915 H   0  0  0  0  0  0
  -29.7141  -25.1230   19.8816 H   0  0  0  0  0  0
  -30.0035  -17.0509   22.7107 H   0  0  0  0  0  0
  -31.4142  -17.2508   21.6606 H   0  0  0  0  0  0
  -31.2797  -15.8474   22.7209 H   0  0  0  0  0  0
  -29.1019  -16.3583   19.1834 H   0  0  0  0  0  0
  -28.0881  -16.4511   20.5731 H   0  0  0  0  0  0
  1 25  1  0  0  0
  1 30  2  0  0  0
  1 84  1  0  0  0
  2  3  1  0  0  0
  2 25  1  0  0  0
  2 86  1  0  0  0
  2 87  1  0  0  0
  3  4  1  0  0  0
  3 88  1  0  0  0
  3 89  1  0  0  0
  4  5  1  0  0  0
  4 90  1  0  0  0
  4 91  1  0  0  0
  5  6  1  0  0  0
  5 26  1  0  0  0
  5 92  1  0  0  0
  6 25  1  0  0  0
  6 93  1  0  0  0
  6 94  1  0  0  0
  7  8  2  0  0  0
  7 26  1  0  0  0
  7 29  1  0  0  0
  8  9  1  0  0  0
  8 22  1  0  0  0
  9 10  1  0  0  0
  9 27  2  0  0  0
 10 11  2  0  0  0
 10 15  1  0  0  0
 11 12  1  0  0  0
 11 95  1  0  0  0
 12 13  2  0  0  0
 12 96  1  0  0  0
 13 14  1  0  0  0
 13 31  1  0  0  0
 14 15  2  0  0  0
 14 97  1  0  0  0
 15 98  1  0  0  0
 16 17  2  0  0  0
 16 21  1  0  0  0
 16 31  1  0  0  0
 17 18  1  0  0  0
 17 99  1  0  0  0
 18 19  2  0  0  0
 18100  1  0  0  0
 19 20  1  0  0  0
 19 24  1  0  0  0
 20 21  2  0  0  0
 20101  1  0  0  0
 21 23  1  0  0  0
 22 28  1  0  0  0
 22 32  2  0  0  0
 26 27  1  0  0  0
 28102  1  0  0  0
 28103  1  0  0  0
 29104  1  0  0  0
 29105  1  0  0  0
 33 34  1  0  0  0
 33 66  1  0  0  0
 33 70  2  0  0  0
 34 36  1  0  0  0
 34 59  1  0  0  0
 34106  1  0  0  0
 35 44  2  0  0  0
 35 45  1  0  0  0
 35 68  1  0  0  0
 36 56  1  0  0  0
 36107  1  0  0  0
 37 39  1  0  0  0
 37 47  1  0  0  0
 37 66  1  0  0  0
 37108  1  0  0  0
 38 43  2  0  0  0
 38 46  1  0  0  0
 38 47  1  0  0  0
 39 64  1  0  0  0
 39 67  2  0  0  0
 40 52  1  0  0  0
 40 53  2  0  0  0
 40 58  1  0  0  0
 41109  1  0  0  0
 41110  1  0  0  0
 41111  1  0  0  0
 41 48  1  0  0  0
 42 43  1  0  0  0
 42 66  1  0  0  0
 42112  1  0  0  0
 42113  1  0  0  0
 43 44  1  0  0  0
 44114  1  0  0  0
 45 46  2  0  0  0
 45115  1  0  0  0
 46116  1  0  0  0
 47117  1  0  0  0
 47118  1  0  0  0
 48 56  1  0  0  0
 48 65  1  0  0  0
 48119  1  0  0  0
 49 50  1  0  0  0
 49 53  1  0  0  0
 49 64  1  0  0  0
 49120  1  0  0  0
 50 51  1  0  0  0
 50121  1  0  0  0
 50122  1  0  0  0
 51 52  1  0  0  0
 51123  1  0  0  0
 51124  1  0  0  0
 52125  1  0  0  0
 52126  1  0  0  0
 53 54  1  0  0  0
 54 55  2  0  0  0
 54127  1  0  0  0
 55 57  1  0  0  0
 55128  1  0  0  0
 56 69  2  0  0  0
 57 58  2  0  0  0
 57129  1  0  0  0
 58130  1  0  0  0
 59 60  1  0  0  0
 59 61  1  0  0  0
 59 62  1  0  0  0
 60131  1  0  0  0
 60132  1  0  0  0
 60133  1  0  0  0
 61134  1  0  0  0
 61135  1  0  0  0
 61136  1  0  0  0
 62137  1  0  0  0
 62138  1  0  0  0
 62139  1  0  0  0
 63 65  1  0  0  0
 63140  1  0  0  0
 63141  1  0  0  0
 63142  1  0  0  0
 64143  1  0  0  0
 65144  1  0  0  0
 68 80  1  0  0  0
 71 72  2  0  0  0
 71 74  1  0  0  0
 71145  1  0  0  0
 72 75  1  0  0  0
 72146  1  0  0  0
 73 75  2  0  0  0
 73 76  1  0  0  0
 73147  1  0  0  0
 74 76  2  0  0  0
 74 82  1  0  0  0
 75 83  1  0  0  0
 76 85  1  0  0  0
 77 78  1  0  0  0
 77 80  1  0  0  0
 77148  1  0  0  0
 77149  1  0  0  0
 78 83  1  0  0  0
 78150  1  0  0  0
 78151  1  0  0  0
 79 80  1  0  0  0
 79 83  1  0  0  0
 79152  1  0  0  0
 79153  1  0  0  0
 80154  1  0  0  0
 81 84  1  0  0  0
 81155  1  0  0  0
 81156  1  0  0  0
 81157  1  0  0  0
 82 84  1  0  0  0
 82158  1  0  0  0
 82159  1  0  0  0
M  ISO  4   1 100  68 101  80 101  84 100
M  END
> <chiral flag>
0

> <version>
0

> <s_m_source_file>
/data/baiqing/PycharmProjects/Reinvent-master-3.2/result/LINK_invent/BTK/process_docking_weight1_custom_product_contain_oxygen_bond_distance_aromatic_linkinvent_7_9_3/rearranged_h_0013.sdf

> <i_m_source_file_index>
82

> <r_mmod_Potential_Energy-OPLS-2005>
349.136810302734

> <r_mmod_Stretch_Energy-OPLS-2005>
93.2546920776367

> <r_mmod_Bend_Energy-OPLS-2005>
265.135345458984

> <r_mmod_Torsional_Energy-OPLS-2005>
305.751708984375

> <r_mmod_Improper_Torsional_Energy-OPLS-2005>
4.97612810134888

> <r_mmod_Van_der_Waal_Energy-OPLS-2005>
134.080780029297

> <r_mmod_Electrostatic_Energy-OPLS-2005>
-296.380828857422

> <r_mmod_Solvation_Energy-OPLS-2005>
-214.413299560547

> <b_mmod_Minimization_Converged-OPLS-2005>
0

> <r_mmod_RMS_Derivative-OPLS-2005>
0.283560037612915

$$$$
83
                    3D
 Structure written by MMmdl.
171180  0  0  1  0            999 V2000
  -30.8786  -14.3570   20.6388 C   0  0  0  0  0  0
  -30.3910  -12.2550   19.4507 C   0  0  0  0  0  0
  -29.4864  -12.4746   18.2262 C   0  0  0  0  0  0
  -28.0155  -12.3469   18.6491 C   0  0  0  0  0  0
  -27.6652  -13.2320   19.8723 C   0  0  2  0  0  0
  -28.7080  -13.0818   21.0091 C   0  0  0  0  0  0
  -25.2561  -13.8270   20.5697 C   0  0  0  0  0  0
  -24.1827  -13.0506   20.9157 C   0  0  0  0  0  0
  -24.6407  -11.6965   20.8748 C   0  0  0  0  0  0
  -23.9085  -10.4336   21.0409 C   0  0  0  0  0  0
  -24.3623   -9.4211   21.9188 C   0  0  0  0  0  0
  -23.6300   -8.2238   22.0742 C   0  0  0  0  0  0
  -22.4291   -8.0272   21.3518 C   0  0  0  0  0  0
  -21.9923   -9.0257   20.4637 C   0  0  0  0  0  0
  -22.7249  -10.2150   20.3051 C   0  0  0  0  0  0
  -21.6869   -6.0712   22.5259 C   0  0  0  0  0  0
  -21.4037   -6.5614   23.8189 C   0  0  0  0  0  0
  -21.3649   -5.6752   24.9146 C   0  0  0  0  0  0
  -21.6042   -4.3032   24.7195 C   0  0  0  0  0  0
  -21.8843   -3.8123   23.4328 C   0  0  0  0  0  0
  -21.9211   -4.6939   22.3376 C   0  0  0  0  0  0
  -22.7826  -13.5245   21.1808 C   0  0  0  0  0  0
  -22.1678   -4.2106   21.0964 F   0  0  0  0  0  0
  -21.5608   -3.4528   25.7724 F   0  0  0  0  0  0
  -30.0701  -13.2696   20.4712 N   0  0  0  0  0  0
  -26.3060  -12.9498   20.3418 N   0  0  0  0  0  0
  -25.9369  -11.6633   20.5849 N   0  0  0  0  0  0
  -22.0469  -12.8245   22.0375 N   0  0  0  0  0  0
  -25.4259  -15.1996   20.4056 N   0  0  0  0  0  0
  -31.7969  -14.5860   19.8539 O   0  0  0  0  0  0
  -21.6666   -6.8860   21.4210 O   0  0  0  0  0  0
  -22.3475  -14.5518   20.6615 O   0  0  0  0  0  0
  -24.6117  -31.8695   23.2091 C   0  0  0  0  0  0
  -25.9026  -32.4838   23.8406 C   0  0  1  0  0  0
  -27.2646  -27.4763   20.0693 C   0  0  0  0  0  0
  -25.5897  -33.8632   24.2349 N   0  0  0  0  0  0
  -23.4027  -30.4854   21.5494 C   0  0  2  0  0  0
  -24.8570  -28.9537   20.1188 C   0  0  0  0  0  0
  -22.7396  -29.4639   22.5009 C   0  0  0  0  0  0
  -18.0266  -28.1382   22.8503 C   0  0  0  0  0  0
  -24.1484  -36.7328   23.2637 C   0  0  0  0  0  0
  -25.9276  -30.8438   21.3604 C   0  0  0  0  0  0
  -26.0128  -29.4788   20.7107 C   0  0  0  0  0  0
  -27.2202  -28.7455   20.6911 C   0  0  0  0  0  0
  -26.0890  -26.9483   19.5018 C   0  0  0  0  0  0
  -24.8875  -27.6845   19.5135 C   0  0  0  0  0  0
  -23.6113  -29.8081   20.1676 C   0  0  0  0  0  0
  -25.4108  -36.3139   24.0346 C   0  0  1  0  0  0
  -20.5859  -28.3658   23.1343 C   0  0  2  0  0  0
  -20.6763  -26.9400   22.5430 C   0  0  0  0  0  0
  -19.5743  -26.6390   21.5222 C   0  0  0  0  0  0
  -18.1915  -26.7929   22.1633 C   0  0  0  0  0  0
  -19.1508  -28.8837   23.2924 C   0  0  0  0  0  0
  -18.9452  -30.1451   23.8921 C   0  0  0  0  0  0
  -17.6450  -30.6596   24.0572 C   0  0  0  0  0  0
  -25.9029  -34.9498   23.5143 C   0  0  0  0  0  0
  -16.5342  -29.9095   23.6334 C   0  0  0  0  0  0
  -16.7253  -28.6512   23.0350 C   0  0  0  0  0  0
  -26.4478  -31.6591   25.0702 C   0  0  0  0  0  0
  -25.3787  -31.3670   26.1471 C   0  0  0  0  0  0
  -27.0276  -30.3024   24.6057 C   0  0  0  0  0  0
  -27.6061  -32.4299   25.7481 C   0  0  0  0  0  0
  -27.5587  -37.1834   24.8465 C   0  0  0  0  0  0
  -21.4123  -29.3030   22.3754 N   0  0  0  0  0  0
  -26.4307  -37.3819   23.9400 N   0  0  0  0  0  0
  -24.6648  -31.0818   22.0971 N   0  0  0  0  0  0
  -23.4179  -28.8168   23.3026 O   0  0  0  0  0  0
  -28.4016  -26.7019   20.0208 O   0  0  0  0  0  0
  -26.5580  -34.8946   22.4691 O   0  0  0  0  0  0
  -23.5320  -32.1420   23.7506 O   0  0  0  0  0  0
  -31.2827  -22.9583   20.4555 C   0  0  0  0  0  0
  -31.1955  -21.6245   20.9002 C   0  0  0  0  0  0
  -31.4752  -22.1825   18.1541 C   0  0  0  0  0  0
  -31.4132  -23.2467   19.0812 C   0  0  0  0  0  0
  -31.2369  -20.5591   19.9752 C   0  0  0  0  0  0
  -31.3885  -20.8449   18.5976 C   0  0  0  0  0  0
  -32.2337  -17.1516   21.0619 C   0  0  0  0  0  0
  -29.6962  -17.3587   21.1233 C   0  0  0  0  0  0
  -32.3322  -18.6854   21.0106 C   0  0  0  0  0  0
  -29.8796  -18.8878   21.0862 C   0  0  0  0  0  0
  -30.9157  -16.6364   21.7285 C   0  0  0  0  0  0
  -30.8443  -14.5542   23.0453 C   0  0  0  0  0  0
  -31.4700  -24.6941   18.6113 C   0  0  0  0  0  0
  -29.9669  -26.6588   18.1919 C   0  0  0  0  0  0
  -29.6015  -27.3115   19.5377 C   0  0  0  0  0  0
  -31.1249  -19.2273   20.4049 N   0  0  0  0  0  0
  -30.6871  -15.1582   21.7189 N   0  0  0  0  0  0
  -30.1104  -25.1861   18.3023 N   0  3  0  0  0  0
  -31.4460  -19.8391   17.6904 F   0  0  0  0  0  0
  -31.4402  -12.2651   19.1520 H   0  0  0  0  0  0
  -30.2243  -11.2619   19.8718 H   0  0  0  0  0  0
  -29.7146  -11.7369   17.4553 H   0  0  0  0  0  0
  -29.6788  -13.4483   17.7786 H   0  0  0  0  0  0
  -27.8451  -11.3012   18.9097 H   0  0  0  0  0  0
  -27.3517  -12.5635   17.8109 H   0  0  0  0  0  0
  -27.6910  -14.2644   19.5212 H   0  0  0  0  0  0
  -28.6373  -12.0984   21.4707 H   0  0  0  0  0  0
  -28.4791  -13.8075   21.7893 H   0  0  0  0  0  0
  -25.2758   -9.5690   22.4763 H   0  0  0  0  0  0
  -23.9995   -7.4648   22.7480 H   0  0  0  0  0  0
  -21.0821   -8.8777   19.8974 H   0  0  0  0  0  0
  -22.3689  -10.9670   19.6150 H   0  0  0  0  0  0
  -21.2054   -7.6131   23.9675 H   0  0  0  0  0  0
  -21.1439   -6.0494   25.9036 H   0  0  0  0  0  0
  -22.0648   -2.7582   23.2846 H   0  0  0  0  0  0
  -22.4108  -11.9944   22.4824 H   0  0  0  0  0  0
  -21.1070  -13.1244   22.2544 H   0  0  0  0  0  0
  -24.6650  -15.8659   20.4962 H   0  0  0  0  0  0
  -26.2872  -15.6274   20.0918 H   0  0  0  0  0  0
  -26.7086  -32.5569   23.1182 H   0  0  0  0  0  0
  -25.0118  -33.9808   25.0543 H   0  0  0  0  0  0
  -22.6939  -31.3032   21.4039 H   0  0  0  0  0  0
  -23.3747  -35.9662   23.3309 H   0  0  0  0  0  0
  -24.3594  -36.8914   22.2051 H   0  0  0  0  0  0
  -23.7233  -37.6542   23.6623 H   0  0  0  0  0  0
  -26.0372  -31.6089   20.5907 H   0  0  0  0  0  0
  -26.8169  -30.9025   21.9774 H   0  0  0  0  0  0
  -28.1060  -29.1486   21.1641 H   0  0  0  0  0  0
  -26.1127  -25.9688   19.0448 H   0  0  0  0  0  0
  -24.0003  -27.2670   19.0564 H   0  0  0  0  0  0
  -23.7075  -30.5763   19.3997 H   0  0  0  0  0  0
  -22.7465  -29.2078   19.8789 H   0  0  0  0  0  0
  -25.1285  -36.2046   25.0847 H   0  0  0  0  0  0
  -20.9947  -28.3214   24.1467 H   0  0  0  0  0  0
  -20.5690  -26.2246   23.3612 H   0  0  0  0  0  0
  -21.6627  -26.7454   22.1212 H   0  0  0  0  0  0
  -19.6910  -25.6305   21.1236 H   0  0  0  0  0  0
  -19.6699  -27.3211   20.6762 H   0  0  0  0  0  0
  -17.4195  -26.6681   21.4031 H   0  0  0  0  0  0
  -18.0327  -26.0069   22.9023 H   0  0  0  0  0  0
  -19.7922  -30.7263   24.2304 H   0  0  0  0  0  0
  -17.5007  -31.6278   24.5161 H   0  0  0  0  0  0
  -15.5344  -30.3006   23.7670 H   0  0  0  0  0  0
  -15.8649  -28.0852   22.7050 H   0  0  0  0  0  0
  -24.5955  -30.7026   25.7806 H   0  0  0  0  0  0
  -24.8996  -32.2807   26.4983 H   0  0  0  0  0  0
  -25.8176  -30.8798   27.0183 H   0  0  0  0  0  0
  -26.2763  -29.6822   24.1144 H   0  0  0  0  0  0
  -27.4036  -29.7234   25.4503 H   0  0  0  0  0  0
  -27.8624  -30.4293   23.9165 H   0  0  0  0  0  0
  -27.2658  -33.3569   26.2116 H   0  0  0  0  0  0
  -28.3867  -32.6914   25.0318 H   0  0  0  0  0  0
  -28.0744  -31.8393   26.5374 H   0  0  0  0  0  0
  -28.2627  -38.0114   24.7518 H   0  0  0  0  0  0
  -28.1067  -36.2652   24.6294 H   0  0  0  0  0  0
  -27.2302  -37.1484   25.8867 H   0  0  0  0  0  0
  -20.9280  -29.8756   21.6980 H   0  0  0  0  0  0
  -26.0209  -38.2909   24.1372 H   0  0  0  0  0  0
  -31.2440  -23.7549   21.1838 H   0  0  0  0  0  0
  -31.0798  -21.4368   21.9575 H   0  0  0  0  0  0
  -31.5852  -22.3831   17.0968 H   0  0  0  0  0  0
  -33.1105  -16.7426   21.5680 H   0  0  0  0  0  0
  -32.3026  -16.8520   20.0181 H   0  0  0  0  0  0
  -29.5047  -16.9871   20.1160 H   0  0  0  0  0  0
  -28.8124  -17.1160   21.7141 H   0  0  0  0  0  0
  -33.2062  -18.9727   20.4193 H   0  0  0  0  0  0
  -32.4749  -19.0986   22.0099 H   0  0  0  0  0  0
  -29.8913  -19.2834   22.1063 H   0  0  0  0  0  0
  -29.0322  -19.3490   20.5722 H   0  0  0  0  0  0
  -30.9764  -16.9584   22.7686 H   0  0  0  0  0  0
  -30.1821  -15.0212   23.7731 H   0  0  0  0  0  0
  -30.6480  -13.4815   23.0606 H   0  0  0  0  0  0
  -31.8733  -14.6902   23.3760 H   0  0  0  0  0  0
  -32.1184  -24.7929   17.7357 H   0  0  0  0  0  0
  -31.9237  -25.2956   19.3999 H   0  0  0  0  0  0
  -30.8854  -27.0883   17.7904 H   0  0  0  0  0  0
  -29.1795  -26.8771   17.4661 H   0  0  0  0  0  0
  -30.3965  -27.1534   20.2675 H   0  0  0  0  0  0
  -29.5055  -28.3894   19.3925 H   0  0  0  0  0  0
  -29.4636  -24.8504   18.9990 H   0  0  0  0  0  0
  -29.8463  -24.7785   17.4212 H   0  0  0  0  0  0
  1 25  1  0  0  0
  1 30  2  0  0  0
  1 87  1  0  0  0
  2  3  1  0  0  0
  2 25  1  0  0  0
  2 90  1  0  0  0
  2 91  1  0  0  0
  3  4  1  0  0  0
  3 92  1  0  0  0
  3 93  1  0  0  0
  4  5  1  0  0  0
  4 94  1  0  0  0
  4 95  1  0  0  0
  5  6  1  0  0  0
  5 26  1  0  0  0
  5 96  1  0  0  0
  6 25  1  0  0  0
  6 97  1  0  0  0
  6 98  1  0  0  0
  7  8  2  0  0  0
  7 26  1  0  0  0
  7 29  1  0  0  0
  8  9  1  0  0  0
  8 22  1  0  0  0
  9 10  1  0  0  0
  9 27  2  0  0  0
 10 11  2  0  0  0
 10 15  1  0  0  0
 11 12  1  0  0  0
 11 99  1  0  0  0
 12 13  2  0  0  0
 12100  1  0  0  0
 13 14  1  0  0  0
 13 31  1  0  0  0
 14 15  2  0  0  0
 14101  1  0  0  0
 15102  1  0  0  0
 16 17  2  0  0  0
 16 21  1  0  0  0
 16 31  1  0  0  0
 17 18  1  0  0  0
 17103  1  0  0  0
 18 19  2  0  0  0
 18104  1  0  0  0
 19 20  1  0  0  0
 19 24  1  0  0  0
 20 21  2  0  0  0
 20105  1  0  0  0
 21 23  1  0  0  0
 22 28  1  0  0  0
 22 32  2  0  0  0
 26 27  1  0  0  0
 28106  1  0  0  0
 28107  1  0  0  0
 29108  1  0  0  0
 29109  1  0  0  0
 33 34  1  0  0  0
 33 66  1  0  0  0
 33 70  2  0  0  0
 34 36  1  0  0  0
 34 59  1  0  0  0
 34110  1  0  0  0
 35 44  2  0  0  0
 35 45  1  0  0  0
 35 68  1  0  0  0
 36 56  1  0  0  0
 36111  1  0  0  0
 37 39  1  0  0  0
 37 47  1  0  0  0
 37 66  1  0  0  0
 37112  1  0  0  0
 38 43  2  0  0  0
 38 46  1  0  0  0
 38 47  1  0  0  0
 39 64  1  0  0  0
 39 67  2  0  0  0
 40 52  1  0  0  0
 40 53  2  0  0  0
 40 58  1  0  0  0
 41113  1  0  0  0
 41114  1  0  0  0
 41115  1  0  0  0
 41 48  1  0  0  0
 42 43  1  0  0  0
 42 66  1  0  0  0
 42116  1  0  0  0
 42117  1  0  0  0
 43 44  1  0  0  0
 44118  1  0  0  0
 45 46  2  0  0  0
 45119  1  0  0  0
 46120  1  0  0  0
 47121  1  0  0  0
 47122  1  0  0  0
 48 56  1  0  0  0
 48 65  1  0  0  0
 48123  1  0  0  0
 49 50  1  0  0  0
 49 53  1  0  0  0
 49 64  1  0  0  0
 49124  1  0  0  0
 50 51  1  0  0  0
 50125  1  0  0  0
 50126  1  0  0  0
 51 52  1  0  0  0
 51127  1  0  0  0
 51128  1  0  0  0
 52129  1  0  0  0
 52130  1  0  0  0
 53 54  1  0  0  0
 54 55  2  0  0  0
 54131  1  0  0  0
 55 57  1  0  0  0
 55132  1  0  0  0
 56 69  2  0  0  0
 57 58  2  0  0  0
 57133  1  0  0  0
 58134  1  0  0  0
 59 60  1  0  0  0
 59 61  1  0  0  0
 59 62  1  0  0  0
 60135  1  0  0  0
 60136  1  0  0  0
 60137  1  0  0  0
 61138  1  0  0  0
 61139  1  0  0  0
 61140  1  0  0  0
 62141  1  0  0  0
 62142  1  0  0  0
 62143  1  0  0  0
 63 65  1  0  0  0
 63144  1  0  0  0
 63145  1  0  0  0
 63146  1  0  0  0
 64147  1  0  0  0
 65148  1  0  0  0
 68 85  1  0  0  0
 71 72  2  0  0  0
 71 74  1  0  0  0
 71149  1  0  0  0
 72 75  1  0  0  0
 72150  1  0  0  0
 73 74  2  0  0  0
 73 76  1  0  0  0
 73151  1  0  0  0
 74 83  1  0  0  0
 75 76  2  0  0  0
 75 86  1  0  0  0
 76 89  1  0  0  0
 77 79  1  0  0  0
 77 81  1  0  0  0
 77152  1  0  0  0
 77153  1  0  0  0
 78 80  1  0  0  0
 78 81  1  0  0  0
 78154  1  0  0  0
 78155  1  0  0  0
 79 86  1  0  0  0
 79156  1  0  0  0
 79157  1  0  0  0
 80 86  1  0  0  0
 80158  1  0  0  0
 80159  1  0  0  0
 81 87  1  0  0  0
 81160  1  0  0  0
 82 87  1  0  0  0
 82161  1  0  0  0
 82162  1  0  0  0
 82163  1  0  0  0
 83 88  1  0  0  0
 83164  1  0  0  0
 83165  1  0  0  0
 84 85  1  0  0  0
 84 88  1  0  0  0
 84166  1  0  0  0
 84167  1  0  0  0
 85168  1  0  0  0
 85169  1  0  0  0
 88170  1  0  0  0
 88171  1  0  0  0
M  CHG  1  88   1
M  ISO  4   1 100  68 101  85 101  87 100
M  END
> <chiral flag>
0

> <version>
0

> <s_m_source_file>
/data/baiqing/PycharmProjects/Reinvent-master-3.2/result/LINK_invent/BTK/process_docking_weight1_custom_product_contain_oxygen_bond_distance_aromatic_linkinvent_7_9_3/rearranged_h_0013.sdf

> <i_m_source_file_index>
83

> <r_mmod_Potential_Energy-OPLS-2005>
49.23046875

> <r_mmod_Stretch_Energy-OPLS-2005>
40.9502410888672

> <r_mmod_Bend_Energy-OPLS-2005>
108.376861572266

> <r_mmod_Torsional_Energy-OPLS-2005>
339.77197265625

> <r_mmod_Improper_Torsional_Energy-OPLS-2005>
7.47653388977051

> <r_mmod_Van_der_Waal_Energy-OPLS-2005>
161.235260009766

> <r_mmod_Electrostatic_Energy-OPLS-2005>
-177.717803955078

> <r_mmod_Solvation_Energy-OPLS-2005>
-446.859558105469

> <b_mmod_Minimization_Converged-OPLS-2005>
0

> <r_mmod_RMS_Derivative-OPLS-2005>
5.18520784378052

$$$$
84
                    3D
 Structure written by MMmdl.
155163  0  0  1  0            999 V2000
  -30.5145  -14.9098   20.4385 C   0  0  0  0  0  0
  -30.4514  -12.5597   19.4909 C   0  0  0  0  0  0
  -29.5251  -12.5308   18.2512 C   0  0  0  0  0  0
  -28.0540  -12.3235   18.6640 C   0  0  0  0  0  0
  -27.6374  -13.2367   19.8458 C   0  0  2  0  0  0
  -28.6815  -13.2145   20.9836 C   0  0  0  0  0  0
  -25.2498  -13.8194   20.5696 C   0  0  0  0  0  0
  -24.1803  -13.0437   20.9231 C   0  0  0  0  0  0
  -24.6398  -11.6915   20.8755 C   0  0  0  0  0  0
  -23.9073  -10.4293   21.0413 C   0  0  0  0  0  0
  -24.3624   -9.4207   21.9187 C   0  0  0  0  0  0
  -23.6300   -8.2239   22.0751 C   0  0  0  0  0  0
  -22.4281   -8.0283   21.3543 C   0  0  0  0  0  0
  -21.9919   -9.0254   20.4641 C   0  0  0  0  0  0
  -22.7248  -10.2136   20.3055 C   0  0  0  0  0  0
  -21.6854   -6.0739   22.5278 C   0  0  0  0  0  0
  -21.4013   -6.5642   23.8215 C   0  0  0  0  0  0
  -21.3662   -5.6794   24.9176 C   0  0  0  0  0  0
  -21.6044   -4.3055   24.7227 C   0  0  0  0  0  0
  -21.8819   -3.8150   23.4345 C   0  0  0  0  0  0
  -21.9194   -4.6966   22.3405 C   0  0  0  0  0  0
  -22.7822  -13.5216   21.1886 C   0  0  0  0  0  0
  -22.1661   -4.2152   21.0980 F   0  0  0  0  0  0
  -21.5632   -3.4539   25.7739 F   0  0  0  0  0  0
  -29.9651  -13.6317   20.4007 N   0  0  0  0  0  0
  -26.2917  -12.9399   20.3248 N   0  0  0  0  0  0
  -25.9328  -11.6541   20.5732 N   0  0  0  0  0  0
  -22.0468  -12.8197   22.0433 N   0  0  0  0  0  0
  -25.4176  -15.1921   20.4085 N   0  0  0  0  0  0
  -31.7054  -15.0428   20.1335 O   0  0  0  0  0  0
  -21.6641   -6.8882   21.4243 O   0  0  0  0  0  0
  -22.3509  -14.5524   20.6738 O   0  0  0  0  0  0
  -24.6409  -31.8457   23.1871 C   0  0  0  0  0  0
  -25.9185  -32.4704   23.8267 C   0  0  1  0  0  0
  -27.2250  -27.1559   20.1610 C   0  0  0  0  0  0
  -25.5938  -33.8511   24.2187 N   0  0  0  0  0  0
  -23.4442  -30.4638   21.5324 C   0  0  2  0  0  0
  -24.8954  -28.8856   20.1168 C   0  0  0  0  0  0
  -22.7551  -29.4563   22.4867 C   0  0  0  0  0  0
  -18.0304  -28.1395   22.8488 C   0  0  0  0  0  0
  -24.1487  -36.7260   23.2640 C   0  0  0  0  0  0
  -25.9977  -30.7263   21.3819 C   0  0  0  0  0  0
  -26.0715  -29.3360   20.7303 C   0  0  0  0  0  0
  -27.2404  -28.4893   20.7304 C   0  0  0  0  0  0
  -26.0240  -26.7954   19.5152 C   0  0  0  0  0  0
  -24.8820  -27.6270   19.4944 C   0  0  0  0  0  0
  -23.6713  -29.7871   20.1541 C   0  0  0  0  0  0
  -25.4122  -36.3039   24.0316 C   0  0  1  0  0  0
  -20.5916  -28.3714   23.1248 C   0  0  2  0  0  0
  -20.6791  -26.9423   22.5408 C   0  0  0  0  0  0
  -19.5764  -26.6384   21.5216 C   0  0  0  0  0  0
  -18.1943  -26.7939   22.1628 C   0  0  0  0  0  0
  -19.1561  -28.8873   23.2862 C   0  0  0  0  0  0
  -18.9481  -30.1474   23.8884 C   0  0  0  0  0  0
  -17.6478  -30.6598   24.0563 C   0  0  0  0  0  0
  -25.9071  -34.9414   23.5064 C   0  0  0  0  0  0
  -16.5369  -29.9091   23.6338 C   0  0  0  0  0  0
  -16.7289  -28.6509   23.0360 C   0  0  0  0  0  0
  -26.4520  -31.6565   25.0699 C   0  0  0  0  0  0
  -25.3708  -31.3754   26.1396 C   0  0  0  0  0  0
  -27.0374  -30.2961   24.6262 C   0  0  0  0  0  0
  -27.6051  -32.4326   25.7493 C   0  0  0  0  0  0
  -27.5577  -37.1791   24.8468 C   0  0  0  0  0  0
  -21.4246  -29.3053   22.3622 N   0  0  0  0  0  0
  -26.4286  -37.3754   23.9411 N   0  0  0  0  0  0
  -24.7141  -31.0333   22.0894 N   0  0  0  0  0  0
  -23.4201  -28.8121   23.3018 O   0  0  0  0  0  0
  -28.3000  -26.2023   20.1667 O   0  0  0  0  0  0
  -26.5661  -34.8911   22.4644 O   0  0  0  0  0  0
  -23.5535  -32.1319   23.7109 O   0  0  0  0  0  0
  -30.6715  -18.4684   20.3525 C   0  0  0  0  0  0
  -30.4988  -19.9193   20.3709 C   0  0  0  0  0  0
  -28.3615  -18.2339   20.7393 C   0  0  0  0  0  0
  -29.6044  -17.5318   20.5632 C   0  0  0  0  0  0
  -29.2521  -20.6198   20.5884 C   0  0  0  0  0  0
  -28.1849  -19.6745   20.7525 C   0  0  0  0  0  0
  -29.5547  -21.7211   23.3453 C   0  0  0  0  0  0
  -29.9805  -22.4076   22.0386 C   0  0  0  0  0  0
  -28.8299  -23.3273   20.0136 C   0  0  0  0  0  0
  -28.1008  -24.7297   20.6118 C   0  0  0  0  0  0
  -29.6360  -16.0005   20.6425 N   0  0  0  0  0  0
  -29.1114  -22.0767   20.9037 N   0  0  0  0  0  0
  -26.9407  -20.1527   21.0018 F   0  0  0  0  0  0
  -31.4841  -12.7311   19.1826 H   0  0  0  0  0  0
  -30.4465  -11.5939   19.9995 H   0  0  0  0  0  0
  -29.8350  -11.7418   17.5643 H   0  0  0  0  0  0
  -29.6218  -13.4687   17.7026 H   0  0  0  0  0  0
  -27.9368  -11.2776   18.9505 H   0  0  0  0  0  0
  -27.3943  -12.4807   17.8099 H   0  0  0  0  0  0
  -27.6140  -14.2484   19.4408 H   0  0  0  0  0  0
  -28.7574  -12.2194   21.4242 H   0  0  0  0  0  0
  -28.3859  -13.8835   21.7933 H   0  0  0  0  0  0
  -25.2768   -9.5687   22.4764 H   0  0  0  0  0  0
  -24.0011   -7.4631   22.7471 H   0  0  0  0  0  0
  -21.0851   -8.8779   19.8942 H   0  0  0  0  0  0
  -22.3710  -10.9679   19.6167 H   0  0  0  0  0  0
  -21.2000   -7.6150   23.9721 H   0  0  0  0  0  0
  -21.1485   -6.0521   25.9081 H   0  0  0  0  0  0
  -22.0594   -2.7610   23.2845 H   0  0  0  0  0  0
  -22.4084  -11.9858   22.4821 H   0  0  0  0  0  0
  -21.1080  -13.1216   22.2631 H   0  0  0  0  0  0
  -24.6388  -15.8354   20.5002 H   0  0  0  0  0  0
  -26.2336  -15.6192   19.9915 H   0  0  0  0  0  0
  -26.7246  -32.5331   23.0995 H   0  0  0  0  0  0
  -25.0064  -33.9628   25.0321 H   0  0  0  0  0  0
  -22.7462  -31.2889   21.3753 H   0  0  0  0  0  0
  -23.3756  -35.9586   23.3297 H   0  0  0  0  0  0
  -24.3569  -36.8893   22.2054 H   0  0  0  0  0  0
  -23.7238  -37.6454   23.6680 H   0  0  0  0  0  0
  -26.1486  -31.4783   20.6061 H   0  0  0  0  0  0
  -26.8706  -30.7809   22.0210 H   0  0  0  0  0  0
  -28.1419  -28.8364   21.2155 H   0  0  0  0  0  0
  -25.9575  -25.8322   19.0299 H   0  0  0  0  0  0
  -23.9839  -27.2757   19.0049 H   0  0  0  0  0  0
  -23.8086  -30.5587   19.3954 H   0  0  0  0  0  0
  -22.7871  -29.2276   19.8441 H   0  0  0  0  0  0
  -25.1313  -36.1866   25.0811 H   0  0  0  0  0  0
  -21.0016  -28.3298   24.1363 H   0  0  0  0  0  0
  -20.5677  -26.2331   23.3630 H   0  0  0  0  0  0
  -21.6659  -26.7433   22.1212 H   0  0  0  0  0  0
  -19.6922  -25.6286   21.1259 H   0  0  0  0  0  0
  -19.6698  -27.3191   20.6741 H   0  0  0  0  0  0
  -17.4217  -26.6691   21.4026 H   0  0  0  0  0  0
  -18.0335  -26.0090   22.9027 H   0  0  0  0  0  0
  -19.7953  -30.7301   24.2241 H   0  0  0  0  0  0
  -17.5029  -31.6276   24.5170 H   0  0  0  0  0  0
  -15.5367  -30.2989   23.7670 H   0  0  0  0  0  0
  -15.8692  -28.0823   22.7080 H   0  0  0  0  0  0
  -24.5913  -30.7066   25.7732 H   0  0  0  0  0  0
  -24.8870  -32.2934   26.4737 H   0  0  0  0  0  0
  -25.7999  -30.9000   27.0226 H   0  0  0  0  0  0
  -26.2979  -29.6697   24.1264 H   0  0  0  0  0  0
  -27.3983  -29.7249   25.4825 H   0  0  0  0  0  0
  -27.8890  -30.4202   23.9572 H   0  0  0  0  0  0
  -27.2643  -33.3650   26.2008 H   0  0  0  0  0  0
  -28.3904  -32.6841   25.0352 H   0  0  0  0  0  0
  -28.0670  -31.8486   26.5463 H   0  0  0  0  0  0
  -28.2598  -38.0085   24.7519 H   0  0  0  0  0  0
  -28.1065  -36.2618   24.6293 H   0  0  0  0  0  0
  -27.2293  -37.1443   25.8870 H   0  0  0  0  0  0
  -20.9441  -29.8747   21.6802 H   0  0  0  0  0  0
  -26.0147  -38.2821   24.1411 H   0  0  0  0  0  0
  -31.6699  -18.0802   20.2062 H   0  0  0  0  0  0
  -31.3937  -20.5128   20.2572 H   0  0  0  0  0  0
  -27.4722  -17.6459   20.9092 H   0  0  0  0  0  0
  -30.1749  -22.0628   24.1743 H   0  0  0  0  0  0
  -29.6576  -20.6367   23.2954 H   0  0  0  0  0  0
  -28.5196  -21.9527   23.5964 H   0  0  0  0  0  0
  -31.0151  -22.1471   21.8094 H   0  0  0  0  0  0
  -29.9983  -23.4840   22.2063 H   0  0  0  0  0  0
  -29.8001  -23.6249   19.6128 H   0  0  0  0  0  0
  -28.2609  -22.9963   19.1439 H   0  0  0  0  0  0
  -28.3543  -24.7784   21.6697 H   0  0  0  0  0  0
  -27.0300  -24.5264   20.6300 H   0  0  0  0  0  0
  -28.7271  -15.6257   20.8646 H   0  0  0  0  0  0
  1 25  1  0  0  0
  1 30  2  0  0  0
  1 81  1  0  0  0
  2  3  1  0  0  0
  2 25  1  0  0  0
  2 84  1  0  0  0
  2 85  1  0  0  0
  3  4  1  0  0  0
  3 86  1  0  0  0
  3 87  1  0  0  0
  4  5  1  0  0  0
  4 88  1  0  0  0
  4 89  1  0  0  0
  5  6  1  0  0  0
  5 26  1  0  0  0
  5 90  1  0  0  0
  6 25  1  0  0  0
  6 91  1  0  0  0
  6 92  1  0  0  0
  7  8  2  0  0  0
  7 26  1  0  0  0
  7 29  1  0  0  0
  8  9  1  0  0  0
  8 22  1  0  0  0
  9 10  1  0  0  0
  9 27  2  0  0  0
 10 11  2  0  0  0
 10 15  1  0  0  0
 11 12  1  0  0  0
 11 93  1  0  0  0
 12 13  2  0  0  0
 12 94  1  0  0  0
 13 14  1  0  0  0
 13 31  1  0  0  0
 14 15  2  0  0  0
 14 95  1  0  0  0
 15 96  1  0  0  0
 16 17  2  0  0  0
 16 21  1  0  0  0
 16 31  1  0  0  0
 17 18  1  0  0  0
 17 97  1  0  0  0
 18 19  2  0  0  0
 18 98  1  0  0  0
 19 20  1  0  0  0
 19 24  1  0  0  0
 20 21  2  0  0  0
 20 99  1  0  0  0
 21 23  1  0  0  0
 22 28  1  0  0  0
 22 32  2  0  0  0
 26 27  1  0  0  0
 28100  1  0  0  0
 28101  1  0  0  0
 29102  1  0  0  0
 29103  1  0  0  0
 33 34  1  0  0  0
 33 66  1  0  0  0
 33 70  2  0  0  0
 34 36  1  0  0  0
 34 59  1  0  0  0
 34104  1  0  0  0
 35 44  2  0  0  0
 35 45  1  0  0  0
 35 68  1  0  0  0
 36 56  1  0  0  0
 36105  1  0  0  0
 37 39  1  0  0  0
 37 47  1  0  0  0
 37 66  1  0  0  0
 37106  1  0  0  0
 38 43  2  0  0  0
 38 46  1  0  0  0
 38 47  1  0  0  0
 39 64  1  0  0  0
 39 67  2  0  0  0
 40 52  1  0  0  0
 40 53  2  0  0  0
 40 58  1  0  0  0
 41107  1  0  0  0
 41108  1  0  0  0
 41109  1  0  0  0
 41 48  1  0  0  0
 42 43  1  0  0  0
 42 66  1  0  0  0
 42110  1  0  0  0
 42111  1  0  0  0
 43 44  1  0  0  0
 44112  1  0  0  0
 45 46  2  0  0  0
 45113  1  0  0  0
 46114  1  0  0  0
 47115  1  0  0  0
 47116  1  0  0  0
 48 56  1  0  0  0
 48 65  1  0  0  0
 48117  1  0  0  0
 49 50  1  0  0  0
 49 53  1  0  0  0
 49 64  1  0  0  0
 49118  1  0  0  0
 50 51  1  0  0  0
 50119  1  0  0  0
 50120  1  0  0  0
 51 52  1  0  0  0
 51121  1  0  0  0
 51122  1  0  0  0
 52123  1  0  0  0
 52124  1  0  0  0
 53 54  1  0  0  0
 54 55  2  0  0  0
 54125  1  0  0  0
 55 57  1  0  0  0
 55126  1  0  0  0
 56 69  2  0  0  0
 57 58  2  0  0  0
 57127  1  0  0  0
 58128  1  0  0  0
 59 60  1  0  0  0
 59 61  1  0  0  0
 59 62  1  0  0  0
 60129  1  0  0  0
 60130  1  0  0  0
 60131  1  0  0  0
 61132  1  0  0  0
 61133  1  0  0  0
 61134  1  0  0  0
 62135  1  0  0  0
 62136  1  0  0  0
 62137  1  0  0  0
 63 65  1  0  0  0
 63138  1  0  0  0
 63139  1  0  0  0
 63140  1  0  0  0
 64141  1  0  0  0
 65142  1  0  0  0
 68 80  1  0  0  0
 71 72  2  0  0  0
 71 74  1  0  0  0
 71143  1  0  0  0
 72 75  1  0  0  0
 72144  1  0  0  0
 73 74  2  0  0  0
 73 76  1  0  0  0
 73145  1  0  0  0
 74 81  1  0  0  0
 75 76  2  0  0  0
 75 82  1  0  0  0
 76 83  1  0  0  0
 77 78  1  0  0  0
 77146  1  0  0  0
 77147  1  0  0  0
 77148  1  0  0  0
 78 82  1  0  0  0
 78149  1  0  0  0
 78150  1  0  0  0
 79 80  1  0  0  0
 79 82  1  0  0  0
 79151  1  0  0  0
 79152  1  0  0  0
 80153  1  0  0  0
 80154  1  0  0  0
 81155  1  0  0  0
M  ISO  4   1 100  68 101  80 101  81 100
M  END
> <chiral flag>
0

> <version>
0

> <s_m_source_file>
/data/baiqing/PycharmProjects/Reinvent-master-3.2/result/LINK_invent/BTK/process_docking_weight1_custom_product_contain_oxygen_bond_distance_aromatic_linkinvent_7_9_3/rearranged_h_0013.sdf

> <i_m_source_file_index>
84

> <r_mmod_Potential_Energy-OPLS-2005>
514.921813964844

> <r_mmod_Stretch_Energy-OPLS-2005>
219.468643188477

> <r_mmod_Bend_Energy-OPLS-2005>
265.8212890625

> <r_mmod_Torsional_Energy-OPLS-2005>
262.976928710938

> <r_mmod_Improper_Torsional_Energy-OPLS-2005>
9.06395149230957

> <r_mmod_Van_der_Waal_Energy-OPLS-2005>
131.032730102539

> <r_mmod_Electrostatic_Energy-OPLS-2005>
-327.373413085938

> <r_mmod_Solvation_Energy-OPLS-2005>
-213.287063598633

> <b_mmod_Minimization_Converged-OPLS-2005>
0

> <r_mmod_RMS_Derivative-OPLS-2005>
1.07014238834381

$$$$
85
                    3D
 Structure written by MMmdl.
156165  0  0  1  0            999 V2000
  -30.5635  -14.9434   20.5131 C   0  0  0  0  0  0
  -30.4405  -12.5950   19.5201 C   0  0  0  0  0  0
  -29.5319  -12.5586   18.2681 C   0  0  0  0  0  0
  -28.0610  -12.3382   18.6673 C   0  0  0  0  0  0
  -27.6361  -13.2502   19.8459 C   0  0  2  0  0  0
  -28.6667  -13.2411   20.9917 C   0  0  0  0  0  0
  -25.2483  -13.8213   20.5700 C   0  0  0  0  0  0
  -24.1793  -13.0433   20.9189 C   0  0  0  0  0  0
  -24.6412  -11.6920   20.8719 C   0  0  0  0  0  0
  -23.9090  -10.4294   21.0402 C   0  0  0  0  0  0
  -24.3634   -9.4205   21.9183 C   0  0  0  0  0  0
  -23.6298   -8.2244   22.0751 C   0  0  0  0  0  0
  -22.4278   -8.0284   21.3543 C   0  0  0  0  0  0
  -21.9920   -9.0262   20.4649 C   0  0  0  0  0  0
  -22.7255  -10.2138   20.3056 C   0  0  0  0  0  0
  -21.6865   -6.0730   22.5269 C   0  0  0  0  0  0
  -21.4031   -6.5634   23.8202 C   0  0  0  0  0  0
  -21.3659   -5.6785   24.9162 C   0  0  0  0  0  0
  -21.6041   -4.3045   24.7219 C   0  0  0  0  0  0
  -21.8822   -3.8138   23.4341 C   0  0  0  0  0  0
  -21.9195   -4.6955   22.3396 C   0  0  0  0  0  0
  -22.7817  -13.5207   21.1860 C   0  0  0  0  0  0
  -22.1665   -4.2138   21.0975 F   0  0  0  0  0  0
  -21.5622   -3.4531   25.7737 F   0  0  0  0  0  0
  -29.9591  -13.6784   20.4339 N   0  0  0  0  0  0
  -26.2909  -12.9449   20.3218 N   0  0  0  0  0  0
  -25.9342  -11.6572   20.5688 N   0  0  0  0  0  0
  -22.0476  -12.8208   22.0434 N   0  0  0  0  0  0
  -25.4163  -15.1947   20.4207 N   0  0  0  0  0  0
  -31.6923  -15.0471   20.0177 O   0  0  0  0  0  0
  -21.6644   -6.8879   21.4234 O   0  0  0  0  0  0
  -22.3486  -14.5500   20.6693 O   0  0  0  0  0  0
  -24.6438  -31.8431   23.1859 C   0  0  0  0  0  0
  -25.9207  -32.4686   23.8256 C   0  0  1  0  0  0
  -27.2241  -27.1267   20.1546 C   0  0  0  0  0  0
  -25.5958  -33.8491   24.2183 N   0  0  0  0  0  0
  -23.4492  -30.4601   21.5304 C   0  0  2  0  0  0
  -24.9015  -28.8835   20.1079 C   0  0  0  0  0  0
  -22.7574  -29.4532   22.4836 C   0  0  0  0  0  0
  -18.0310  -28.1392   22.8480 C   0  0  0  0  0  0
  -24.1492  -36.7247   23.2639 C   0  0  0  0  0  0
  -26.0045  -30.7123   21.3882 C   0  0  0  0  0  0
  -26.0759  -29.3219   20.7317 C   0  0  0  0  0  0
  -27.2349  -28.4579   20.7402 C   0  0  0  0  0  0
  -26.0289  -26.7992   19.4765 C   0  0  0  0  0  0
  -24.8912  -27.6358   19.4653 C   0  0  0  0  0  0
  -23.6785  -29.7862   20.1505 C   0  0  0  0  0  0
  -25.4123  -36.3024   24.0315 C   0  0  1  0  0  0
  -20.5924  -28.3723   23.1227 C   0  0  2  0  0  0
  -20.6791  -26.9422   22.5404 C   0  0  0  0  0  0
  -19.5766  -26.6378   21.5211 C   0  0  0  0  0  0
  -18.1950  -26.7932   22.1623 C   0  0  0  0  0  0
  -19.1568  -28.8872   23.2848 C   0  0  0  0  0  0
  -18.9483  -30.1471   23.8874 C   0  0  0  0  0  0
  -17.6479  -30.6587   24.0557 C   0  0  0  0  0  0
  -25.9079  -34.9403   23.5054 C   0  0  0  0  0  0
  -16.5370  -29.9087   23.6328 C   0  0  0  0  0  0
  -16.7294  -28.6502   23.0352 C   0  0  0  0  0  0
  -26.4532  -31.6546   25.0692 C   0  0  0  0  0  0
  -25.3718  -31.3743   26.1385 C   0  0  0  0  0  0
  -27.0395  -30.2938   24.6268 C   0  0  0  0  0  0
  -27.6060  -32.4312   25.7483 C   0  0  0  0  0  0
  -27.5576  -37.1776   24.8460 C   0  0  0  0  0  0
  -21.4264  -29.3050   22.3595 N   0  0  0  0  0  0
  -26.4281  -37.3745   23.9415 N   0  0  0  0  0  0
  -24.7185  -31.0280   22.0896 N   0  0  0  0  0  0
  -23.4209  -28.8084   23.2998 O   0  0  0  0  0  0
  -28.2822  -26.1465   20.2547 O   0  0  0  0  0  0
  -26.5656  -34.8904   22.4633 O   0  0  0  0  0  0
  -23.5551  -32.1308   23.7071 O   0  0  0  0  0  0
  -29.4843  -19.6261   19.2872 C   0  0  0  0  0  0
  -29.2200  -19.9993   21.5795 C   0  0  0  0  0  0
  -29.7471  -18.2036   19.5178 C   0  0  0  0  0  0
  -29.4664  -18.5826   21.8091 C   0  0  0  0  0  0
  -29.2017  -20.6276   20.2953 C   0  0  0  0  0  0
  -29.7501  -17.5691   20.8083 C   0  0  0  0  0  0
  -28.6017  -24.1301   18.6476 C   0  0  0  0  0  0
  -28.7260  -22.5625   18.6476 C   0  0  0  0  0  0
  -28.7633  -23.3472   20.8676 C   0  0  0  0  0  0
  -28.1030  -24.6063   20.0259 C   0  0  1  0  0  0
  -29.8445  -15.8114   22.6111 C   0  0  0  0  0  0
  -28.9155  -22.0752   20.0190 N   0  0  0  0  0  0
  -29.9435  -16.0624   21.1609 N   0  0  0  0  0  0
  -31.4789  -12.7408   19.2209 H   0  0  0  0  0  0
  -30.4233  -11.6326   20.0339 H   0  0  0  0  0  0
  -29.8599  -11.7745   17.5848 H   0  0  0  0  0  0
  -29.6258  -13.4989   17.7226 H   0  0  0  0  0  0
  -27.9488  -11.2912   18.9507 H   0  0  0  0  0  0
  -27.4055  -12.4930   17.8095 H   0  0  0  0  0  0
  -27.6123  -14.2648   19.4459 H   0  0  0  0  0  0
  -28.7492  -12.2498   21.4407 H   0  0  0  0  0  0
  -28.3178  -13.8978   21.7851 H   0  0  0  0  0  0
  -25.2783   -9.5677   22.4751 H   0  0  0  0  0  0
  -24.0004   -7.4639   22.7472 H   0  0  0  0  0  0
  -21.0840   -8.8788   19.8969 H   0  0  0  0  0  0
  -22.3709  -10.9676   19.6162 H   0  0  0  0  0  0
  -21.2042   -7.6146   23.9706 H   0  0  0  0  0  0
  -21.1475   -6.0515   25.9064 H   0  0  0  0  0  0
  -22.0606   -2.7600   23.2841 H   0  0  0  0  0  0
  -22.4112  -11.9884   22.4834 H   0  0  0  0  0  0
  -21.1093  -13.1231   22.2644 H   0  0  0  0  0  0
  -24.6541  -15.8496   20.5560 H   0  0  0  0  0  0
  -26.2771  -15.6427   20.1323 H   0  0  0  0  0  0
  -26.7263  -32.5289   23.0979 H   0  0  0  0  0  0
  -25.0109  -33.9605   25.0329 H   0  0  0  0  0  0
  -22.7521  -31.2855   21.3720 H   0  0  0  0  0  0
  -23.3763  -35.9568   23.3280 H   0  0  0  0  0  0
  -24.3583  -36.8900   22.2057 H   0  0  0  0  0  0
  -23.7232  -37.6434   23.6684 H   0  0  0  0  0  0
  -26.1607  -31.4640   20.6135 H   0  0  0  0  0  0
  -26.8746  -30.7643   22.0311 H   0  0  0  0  0  0
  -28.1252  -28.7851   21.2582 H   0  0  0  0  0  0
  -25.9409  -25.8542   18.9625 H   0  0  0  0  0  0
  -23.9976  -27.2986   18.9584 H   0  0  0  0  0  0
  -23.8178  -30.5584   19.3934 H   0  0  0  0  0  0
  -22.7938  -29.2283   19.8381 H   0  0  0  0  0  0
  -25.1309  -36.1851   25.0806 H   0  0  0  0  0  0
  -21.0021  -28.3319   24.1347 H   0  0  0  0  0  0
  -20.5676  -26.2341   23.3632 H   0  0  0  0  0  0
  -21.6657  -26.7421   22.1206 H   0  0  0  0  0  0
  -19.6925  -25.6281   21.1261 H   0  0  0  0  0  0
  -19.6697  -27.3171   20.6729 H   0  0  0  0  0  0
  -17.4216  -26.6674   21.4031 H   0  0  0  0  0  0
  -18.0347  -26.0081   22.9026 H   0  0  0  0  0  0
  -19.7960  -30.7292   24.2233 H   0  0  0  0  0  0
  -17.5032  -31.6264   24.5167 H   0  0  0  0  0  0
  -15.5367  -30.2978   23.7661 H   0  0  0  0  0  0
  -15.8700  -28.0812   22.7076 H   0  0  0  0  0  0
  -24.5907  -30.7076   25.7708 H   0  0  0  0  0  0
  -24.8891  -32.2924   26.4739 H   0  0  0  0  0  0
  -25.8000  -30.8966   27.0205 H   0  0  0  0  0  0
  -26.3006  -29.6664   24.1264 H   0  0  0  0  0  0
  -27.4002  -29.7233   25.4838 H   0  0  0  0  0  0
  -27.8921  -30.4180   23.9588 H   0  0  0  0  0  0
  -27.2649  -33.3630   26.2011 H   0  0  0  0  0  0
  -28.3899  -32.6845   25.0332 H   0  0  0  0  0  0
  -28.0693  -31.8466   26.5443 H   0  0  0  0  0  0
  -28.2566  -38.0101   24.7533 H   0  0  0  0  0  0
  -28.1102  -36.2629   24.6251 H   0  0  0  0  0  0
  -27.2298  -37.1376   25.8864 H   0  0  0  0  0  0
  -20.9472  -29.8778   21.6786 H   0  0  0  0  0  0
  -26.0145  -38.2809   24.1437 H   0  0  0  0  0  0
  -29.5058  -19.9468   18.2567 H   0  0  0  0  0  0
  -29.0179  -20.6167   22.4436 H   0  0  0  0  0  0
  -29.9392  -17.5852   18.6532 H   0  0  0  0  0  0
  -29.4157  -18.2933   22.8471 H   0  0  0  0  0  0
  -27.9575  -24.4807   17.8411 H   0  0  0  0  0  0
  -29.5883  -24.5602   18.4709 H   0  0  0  0  0  0
  -29.5552  -22.2543   18.0090 H   0  0  0  0  0  0
  -27.8195  -22.1146   18.2383 H   0  0  0  0  0  0
  -28.1723  -23.1422   21.7611 H   0  0  0  0  0  0
  -29.7575  -23.6338   21.2149 H   0  0  0  0  0  0
  -27.0349  -24.4027   20.0732 H   0  0  0  0  0  0
  -30.5774  -16.4136   23.1499 H   0  0  0  0  0  0
  -30.0391  -14.7831   22.9213 H   0  0  0  0  0  0
  -28.8486  -16.0675   22.9750 H   0  0  0  0  0  0
  1 25  1  0  0  0
  1 30  2  0  0  0
  1 83  1  0  0  0
  2  3  1  0  0  0
  2 25  1  0  0  0
  2 84  1  0  0  0
  2 85  1  0  0  0
  3  4  1  0  0  0
  3 86  1  0  0  0
  3 87  1  0  0  0
  4  5  1  0  0  0
  4 88  1  0  0  0
  4 89  1  0  0  0
  5  6  1  0  0  0
  5 26  1  0  0  0
  5 90  1  0  0  0
  6 25  1  0  0  0
  6 91  1  0  0  0
  6 92  1  0  0  0
  7  8  2  0  0  0
  7 26  1  0  0  0
  7 29  1  0  0  0
  8  9  1  0  0  0
  8 22  1  0  0  0
  9 10  1  0  0  0
  9 27  2  0  0  0
 10 11  2  0  0  0
 10 15  1  0  0  0
 11 12  1  0  0  0
 11 93  1  0  0  0
 12 13  2  0  0  0
 12 94  1  0  0  0
 13 14  1  0  0  0
 13 31  1  0  0  0
 14 15  2  0  0  0
 14 95  1  0  0  0
 15 96  1  0  0  0
 16 17  2  0  0  0
 16 21  1  0  0  0
 16 31  1  0  0  0
 17 18  1  0  0  0
 17 97  1  0  0  0
 18 19  2  0  0  0
 18 98  1  0  0  0
 19 20  1  0  0  0
 19 24  1  0  0  0
 20 21  2  0  0  0
 20 99  1  0  0  0
 21 23  1  0  0  0
 22 28  1  0  0  0
 22 32  2  0  0  0
 26 27  1  0  0  0
 28100  1  0  0  0
 28101  1  0  0  0
 29102  1  0  0  0
 29103  1  0  0  0
 33 34  1  0  0  0
 33 66  1  0  0  0
 33 70  2  0  0  0
 34 36  1  0  0  0
 34 59  1  0  0  0
 34104  1  0  0  0
 35 44  2  0  0  0
 35 45  1  0  0  0
 35 68  1  0  0  0
 36 56  1  0  0  0
 36105  1  0  0  0
 37 39  1  0  0  0
 37 47  1  0  0  0
 37 66  1  0  0  0
 37106  1  0  0  0
 38 43  2  0  0  0
 38 46  1  0  0  0
 38 47  1  0  0  0
 39 64  1  0  0  0
 39 67  2  0  0  0
 40 52  1  0  0  0
 40 53  2  0  0  0
 40 58  1  0  0  0
 41107  1  0  0  0
 41108  1  0  0  0
 41109  1  0  0  0
 41 48  1  0  0  0
 42 43  1  0  0  0
 42 66  1  0  0  0
 42110  1  0  0  0
 42111  1  0  0  0
 43 44  1  0  0  0
 44112  1  0  0  0
 45 46  2  0  0  0
 45113  1  0  0  0
 46114  1  0  0  0
 47115  1  0  0  0
 47116  1  0  0  0
 48 56  1  0  0  0
 48 65  1  0  0  0
 48117  1  0  0  0
 49 50  1  0  0  0
 49 53  1  0  0  0
 49 64  1  0  0  0
 49118  1  0  0  0
 50 51  1  0  0  0
 50119  1  0  0  0
 50120  1  0  0  0
 51 52  1  0  0  0
 51121  1  0  0  0
 51122  1  0  0  0
 52123  1  0  0  0
 52124  1  0  0  0
 53 54  1  0  0  0
 54 55  2  0  0  0
 54125  1  0  0  0
 55 57  1  0  0  0
 55126  1  0  0  0
 56 69  2  0  0  0
 57 58  2  0  0  0
 57127  1  0  0  0
 58128  1  0  0  0
 59 60  1  0  0  0
 59 61  1  0  0  0
 59 62  1  0  0  0
 60129  1  0  0  0
 60130  1  0  0  0
 60131  1  0  0  0
 61132  1  0  0  0
 61133  1  0  0  0
 61134  1  0  0  0
 62135  1  0  0  0
 62136  1  0  0  0
 62137  1  0  0  0
 63 65  1  0  0  0
 63138  1  0  0  0
 63139  1  0  0  0
 63140  1  0  0  0
 64141  1  0  0  0
 65142  1  0  0  0
 68 80  1  0  0  0
 71 73  2  0  0  0
 71 75  1  0  0  0
 71143  1  0  0  0
 72 74  1  0  0  0
 72 75  2  0  0  0
 72144  1  0  0  0
 73 76  1  0  0  0
 73145  1  0  0  0
 74 76  2  0  0  0
 74146  1  0  0  0
 75 82  1  0  0  0
 76 83  1  0  0  0
 77 78  1  0  0  0
 77 80  1  0  0  0
 77147  1  0  0  0
 77148  1  0  0  0
 78 82  1  0  0  0
 78149  1  0  0  0
 78150  1  0  0  0
 79 80  1  0  0  0
 79 82  1  0  0  0
 79151  1  0  0  0
 79152  1  0  0  0
 80153  1  0  0  0
 81 83  1  0  0  0
 81154  1  0  0  0
 81155  1  0  0  0
 81156  1  0  0  0
M  ISO  4   1 100  68 101  80 101  83 100
M  END
> <chiral flag>
0

> <version>
0

> <s_m_source_file>
/data/baiqing/PycharmProjects/Reinvent-master-3.2/result/LINK_invent/BTK/process_docking_weight1_custom_product_contain_oxygen_bond_distance_aromatic_linkinvent_7_9_3/rearranged_h_0013.sdf

> <i_m_source_file_index>
85

> <r_mmod_Potential_Energy-OPLS-2005>
694.363159179688

> <r_mmod_Stretch_Energy-OPLS-2005>
242.295867919922

> <r_mmod_Bend_Energy-OPLS-2005>
324.988952636719

> <r_mmod_Torsional_Energy-OPLS-2005>
313.762268066406

> <r_mmod_Improper_Torsional_Energy-OPLS-2005>
2.89329361915588

> <r_mmod_Van_der_Waal_Energy-OPLS-2005>
143.555725097656

> <r_mmod_Electrostatic_Energy-OPLS-2005>
-309.01806640625

> <r_mmod_Solvation_Energy-OPLS-2005>
-215.142868041992

> <b_mmod_Minimization_Converged-OPLS-2005>
0

> <r_mmod_RMS_Derivative-OPLS-2005>
1.35108029842377

$$$$
86
                    3D
 Structure written by MMmdl.
154162  0  0  1  0            999 V2000
  -30.5513  -14.7473   20.4394 C   0  0  0  0  0  0
  -30.4661  -12.4408   19.4873 C   0  0  0  0  0  0
  -29.5548  -12.5009   18.2375 C   0  0  0  0  0  0
  -28.0790  -12.3042   18.6471 C   0  0  0  0  0  0
  -27.6654  -13.2107   19.8398 C   0  0  2  0  0  0
  -28.6968  -13.1232   20.9844 C   0  0  0  0  0  0
  -25.2683  -13.8160   20.5711 C   0  0  0  0  0  0
  -24.1995  -13.0504   20.9180 C   0  0  0  0  0  0
  -24.6520  -11.6899   20.8658 C   0  0  0  0  0  0
  -23.9197  -10.4354   21.0321 C   0  0  0  0  0  0
  -24.3731   -9.4260   21.9125 C   0  0  0  0  0  0
  -23.6321   -8.2371   22.0777 C   0  0  0  0  0  0
  -22.4294   -8.0403   21.3581 C   0  0  0  0  0  0
  -21.9945   -9.0379   20.4668 C   0  0  0  0  0  0
  -22.7358  -10.2228   20.2961 C   0  0  0  0  0  0
  -21.6910   -6.0757   22.5256 C   0  0  0  0  0  0
  -21.4144   -6.5688   23.8196 C   0  0  0  0  0  0
  -21.3629   -5.6799   24.9147 C   0  0  0  0  0  0
  -21.6009   -4.3036   24.7189 C   0  0  0  0  0  0
  -21.8817   -3.8194   23.4321 C   0  0  0  0  0  0
  -21.9264   -4.7016   22.3407 C   0  0  0  0  0  0
  -22.7984  -13.5292   21.1774 C   0  0  0  0  0  0
  -22.1677   -4.2237   21.0926 F   0  0  0  0  0  0
  -21.5619   -3.4480   25.7677 F   0  0  0  0  0  0
  -30.0091  -13.4870   20.4267 N   0  0  0  0  0  0
  -26.3122  -12.9365   20.3183 N   0  0  0  0  0  0
  -25.9385  -11.6550   20.5535 N   0  0  0  0  0  0
  -22.0574  -12.8352   22.0235 N   0  0  0  0  0  0
  -25.4269  -15.2005   20.4302 N   0  0  0  0  0  0
  -31.7146  -14.9399   20.0566 O   0  0  0  0  0  0
  -21.6700   -6.8997   21.4230 O   0  0  0  0  0  0
  -22.3744  -14.5632   20.6564 O   0  0  0  0  0  0
  -24.6311  -31.8644   23.1977 C   0  0  0  0  0  0
  -25.9119  -32.4833   23.8340 C   0  0  1  0  0  0
  -27.2196  -27.3315   20.0872 C   0  0  0  0  0  0
  -25.5861  -33.8600   24.2244 N   0  0  0  0  0  0
  -23.4332  -30.4781   21.5475 C   0  0  2  0  0  0
  -24.8744  -28.9472   20.1223 C   0  0  0  0  0  0
  -22.7609  -29.4519   22.4959 C   0  0  0  0  0  0
  -18.0399  -28.1335   22.8354 C   0  0  0  0  0  0
  -24.1517  -36.7255   23.2622 C   0  0  0  0  0  0
  -25.9690  -30.7949   21.3825 C   0  0  0  0  0  0
  -26.0459  -29.4277   20.7149 C   0  0  0  0  0  0
  -27.2239  -28.6189   20.7043 C   0  0  0  0  0  0
  -26.0152  -26.9131   19.4722 C   0  0  0  0  0  0
  -24.8496  -27.6879   19.5119 C   0  0  0  0  0  0
  -23.6514  -29.8259   20.1646 C   0  0  0  0  0  0
  -25.4110  -36.3042   24.0335 C   0  0  1  0  0  0
  -20.5999  -28.3656   23.1258 C   0  0  2  0  0  0
  -20.7174  -26.9451   22.5148 C   0  0  0  0  0  0
  -19.6067  -26.6257   21.5002 C   0  0  0  0  0  0
  -18.2275  -26.7851   22.1500 C   0  0  0  0  0  0
  -19.1590  -28.8758   23.2888 C   0  0  0  0  0  0
  -18.9485  -30.1201   23.9239 C   0  0  0  0  0  0
  -17.6480  -30.6354   24.0891 C   0  0  0  0  0  0
  -25.9036  -34.9433   23.5084 C   0  0  0  0  0  0
  -16.5442  -29.8854   23.6351 C   0  0  0  0  0  0
  -16.7399  -28.6353   23.0138 C   0  0  0  0  0  0
  -26.4532  -31.6638   25.0743 C   0  0  0  0  0  0
  -25.3749  -31.3749   26.1447 C   0  0  0  0  0  0
  -27.0382  -30.3036   24.6295 C   0  0  0  0  0  0
  -27.6136  -32.4363   25.7497 C   0  0  0  0  0  0
  -27.5570  -37.1768   24.8449 C   0  0  0  0  0  0
  -21.4288  -29.3259   22.4047 N   0  0  0  0  0  0
  -26.4283  -37.3727   23.9409 N   0  0  0  0  0  0
  -24.6958  -31.0549   22.1054 N   0  0  0  0  0  0
  -23.4388  -28.7874   23.2817 O   0  0  0  0  0  0
  -28.3341  -26.4790   20.0970 O   0  0  0  0  0  0
  -26.5569  -34.8920   22.4646 O   0  0  0  0  0  0
  -23.5466  -32.1386   23.7271 O   0  0  0  0  0  0
  -28.9062  -19.4933   21.2975 C   0  0  0  0  0  0
  -29.1670  -18.1144   21.5576 C   0  0  0  0  0  0
  -29.1779  -19.0704   18.9604 C   0  0  0  0  0  0
  -28.9456  -20.0359   19.9800 C   0  0  0  0  0  0
  -29.5355  -17.1858   20.5371 C   0  0  0  0  0  0
  -29.5182  -17.7096   19.2196 C   0  0  0  0  0  0
  -28.8323  -21.5227   19.5383 C   0  0  0  0  0  0
  -28.3366  -22.5394   21.7806 C   0  0  0  0  0  0
  -29.2599  -24.0072   19.8917 C   0  0  0  0  0  0
  -28.1944  -25.1243   19.5308 C   0  0  0  0  0  0
  -29.7064  -15.7586   20.8625 N   0  0  0  0  0  0
  -28.7834  -22.6268   20.3669 N   0  0  0  0  0  0
  -28.8868  -21.6983   18.3159 O   0  0  0  0  0  0
  -29.8401  -16.9064   18.1829 F   0  0  0  0  0  0
  -31.5146  -12.5739   19.2060 H   0  0  0  0  0  0
  -30.4150  -11.4578   19.9641 H   0  0  0  0  0  0
  -29.8583  -11.7406   17.5221 H   0  0  0  0  0  0
  -29.6793  -13.4634   17.7267 H   0  0  0  0  0  0
  -27.9621  -11.2562   18.9327 H   0  0  0  0  0  0
  -27.4334  -12.4746   17.7867 H   0  0  0  0  0  0
  -27.6775  -14.2358   19.4611 H   0  0  0  0  0  0
  -28.7442  -12.1192   21.4064 H   0  0  0  0  0  0
  -28.4219  -13.7740   21.8111 H   0  0  0  0  0  0
  -25.2909   -9.5825   22.4606 H   0  0  0  0  0  0
  -24.0036   -7.4857   22.7538 H   0  0  0  0  0  0
  -21.0874   -8.8963   19.9012 H   0  0  0  0  0  0
  -22.3841  -10.9742   19.6047 H   0  0  0  0  0  0
  -21.2168   -7.6191   23.9761 H   0  0  0  0  0  0
  -21.1380   -6.0473   25.9043 H   0  0  0  0  0  0
  -22.0608   -2.7636   23.2735 H   0  0  0  0  0  0
  -22.4178  -12.0008   22.4766 H   0  0  0  0  0  0
  -21.1197  -13.1419   22.2365 H   0  0  0  0  0  0
  -24.6159  -15.8033   20.5194 H   0  0  0  0  0  0
  -26.2496  -15.6935   20.1074 H   0  0  0  0  0  0
  -26.7215  -32.5566   23.1106 H   0  0  0  0  0  0
  -25.0111  -33.9873   25.0438 H   0  0  0  0  0  0
  -22.7406  -31.2987   21.3796 H   0  0  0  0  0  0
  -23.3826  -35.9562   23.3295 H   0  0  0  0  0  0
  -24.3521  -36.8876   22.2033 H   0  0  0  0  0  0
  -23.7329  -37.6481   23.6632 H   0  0  0  0  0  0
  -26.1102  -31.5843   20.6409 H   0  0  0  0  0  0
  -26.8493  -30.8165   22.0183 H   0  0  0  0  0  0
  -28.1356  -28.9602   21.1840 H   0  0  0  0  0  0
  -25.9199  -25.9797   18.9431 H   0  0  0  0  0  0
  -23.9446  -27.2948   19.0807 H   0  0  0  0  0  0
  -23.8036  -30.5874   19.3987 H   0  0  0  0  0  0
  -22.7860  -29.2451   19.8584 H   0  0  0  0  0  0
  -25.1333  -36.1876   25.0845 H   0  0  0  0  0  0
  -21.0113  -28.3060   24.1322 H   0  0  0  0  0  0
  -20.6774  -26.2112   23.3291 H   0  0  0  0  0  0
  -21.7028  -26.8250   22.0615 H   0  0  0  0  0  0
  -19.7362  -25.6147   21.0994 H   0  0  0  0  0  0
  -19.6907  -27.3004   20.6425 H   0  0  0  0  0  0
  -17.4553  -26.6693   21.3867 H   0  0  0  0  0  0
  -18.0647  -25.9942   22.8912 H   0  0  0  0  0  0
  -19.7857  -30.6765   24.3047 H   0  0  0  0  0  0
  -17.4938  -31.5854   24.5923 H   0  0  0  0  0  0
  -15.5334  -30.2708   23.7424 H   0  0  0  0  0  0
  -15.8913  -28.0667   22.6418 H   0  0  0  0  0  0
  -24.5992  -30.7071   25.7675 H   0  0  0  0  0  0
  -24.8927  -32.2938   26.4811 H   0  0  0  0  0  0
  -25.8101  -30.8943   27.0231 H   0  0  0  0  0  0
  -26.2976  -29.6770   24.1374 H   0  0  0  0  0  0
  -27.4010  -29.7347   25.4856 H   0  0  0  0  0  0
  -27.8872  -30.4226   23.9571 H   0  0  0  0  0  0
  -27.2803  -33.3672   26.2098 H   0  0  0  0  0  0
  -28.3967  -32.6935   25.0327 H   0  0  0  0  0  0
  -28.0823  -31.8488   26.5422 H   0  0  0  0  0  0
  -28.2547  -38.0098   24.7457 H   0  0  0  0  0  0
  -28.1142  -36.2608   24.6361 H   0  0  0  0  0  0
  -27.2218  -37.1463   25.8833 H   0  0  0  0  0  0
  -20.9268  -29.9878   21.8433 H   0  0  0  0  0  0
  -26.0184  -38.2818   24.1440 H   0  0  0  0  0  0
  -28.6796  -20.0790   22.1636 H   0  0  0  0  0  0
  -29.0955  -17.7910   22.5837 H   0  0  0  0  0  0
  -29.1338  -19.3829   17.9296 H   0  0  0  0  0  0
  -27.6834  -21.6930   21.9505 H   0  0  0  0  0  0
  -27.6707  -23.3467   22.0891 H   0  0  0  0  0  0
  -29.1465  -22.4455   22.5234 H   0  0  0  0  0  0
  -30.0603  -24.3973   20.5126 H   0  0  0  0  0  0
  -29.8086  -23.8769   18.9514 H   0  0  0  0  0  0
  -27.2417  -24.6781   19.8223 H   0  0  0  0  0  0
  -28.1779  -25.2820   18.4398 H   0  0  0  0  0  0
  -28.9460  -15.3735   21.4074 H   0  0  0  0  0  0
  1 25  1  0  0  0
  1 30  2  0  0  0
  1 81  1  0  0  0
  2  3  1  0  0  0
  2 25  1  0  0  0
  2 85  1  0  0  0
  2 86  1  0  0  0
  3  4  1  0  0  0
  3 87  1  0  0  0
  3 88  1  0  0  0
  4  5  1  0  0  0
  4 89  1  0  0  0
  4 90  1  0  0  0
  5  6  1  0  0  0
  5 26  1  0  0  0
  5 91  1  0  0  0
  6 25  1  0  0  0
  6 92  1  0  0  0
  6 93  1  0  0  0
  7  8  2  0  0  0
  7 26  1  0  0  0
  7 29  1  0  0  0
  8  9  1  0  0  0
  8 22  1  0  0  0
  9 10  1  0  0  0
  9 27  2  0  0  0
 10 11  2  0  0  0
 10 15  1  0  0  0
 11 12  1  0  0  0
 11 94  1  0  0  0
 12 13  2  0  0  0
 12 95  1  0  0  0
 13 14  1  0  0  0
 13 31  1  0  0  0
 14 15  2  0  0  0
 14 96  1  0  0  0
 15 97  1  0  0  0
 16 17  2  0  0  0
 16 21  1  0  0  0
 16 31  1  0  0  0
 17 18  1  0  0  0
 17 98  1  0  0  0
 18 19  2  0  0  0
 18 99  1  0  0  0
 19 20  1  0  0  0
 19 24  1  0  0  0
 20 21  2  0  0  0
 20100  1  0  0  0
 21 23  1  0  0  0
 22 28  1  0  0  0
 22 32  2  0  0  0
 26 27  1  0  0  0
 28101  1  0  0  0
 28102  1  0  0  0
 29103  1  0  0  0
 29104  1  0  0  0
 33 34  1  0  0  0
 33 66  1  0  0  0
 33 70  2  0  0  0
 34 36  1  0  0  0
 34 59  1  0  0  0
 34105  1  0  0  0
 35 44  2  0  0  0
 35 45  1  0  0  0
 35 68  1  0  0  0
 36 56  1  0  0  0
 36106  1  0  0  0
 37 39  1  0  0  0
 37 47  1  0  0  0
 37 66  1  0  0  0
 37107  1  0  0  0
 38 43  2  0  0  0
 38 46  1  0  0  0
 38 47  1  0  0  0
 39 64  1  0  0  0
 39 67  2  0  0  0
 40 52  1  0  0  0
 40 53  2  0  0  0
 40 58  1  0  0  0
 41108  1  0  0  0
 41109  1  0  0  0
 41110  1  0  0  0
 41 48  1  0  0  0
 42 43  1  0  0  0
 42 66  1  0  0  0
 42111  1  0  0  0
 42112  1  0  0  0
 43 44  1  0  0  0
 44113  1  0  0  0
 45 46  2  0  0  0
 45114  1  0  0  0
 46115  1  0  0  0
 47116  1  0  0  0
 47117  1  0  0  0
 48 56  1  0  0  0
 48 65  1  0  0  0
 48118  1  0  0  0
 49 50  1  0  0  0
 49 53  1  0  0  0
 49 64  1  0  0  0
 49119  1  0  0  0
 50 51  1  0  0  0
 50120  1  0  0  0
 50121  1  0  0  0
 51 52  1  0  0  0
 51122  1  0  0  0
 51123  1  0  0  0
 52124  1  0  0  0
 52125  1  0  0  0
 53 54  1  0  0  0
 54 55  2  0  0  0
 54126  1  0  0  0
 55 57  1  0  0  0
 55127  1  0  0  0
 56 69  2  0  0  0
 57 58  2  0  0  0
 57128  1  0  0  0
 58129  1  0  0  0
 59 60  1  0  0  0
 59 61  1  0  0  0
 59 62  1  0  0  0
 60130  1  0  0  0
 60131  1  0  0  0
 60132  1  0  0  0
 61133  1  0  0  0
 61134  1  0  0  0
 61135  1  0  0  0
 62136  1  0  0  0
 62137  1  0  0  0
 62138  1  0  0  0
 63 65  1  0  0  0
 63139  1  0  0  0
 63140  1  0  0  0
 63141  1  0  0  0
 64142  1  0  0  0
 65143  1  0  0  0
 68 80  1  0  0  0
 71 72  2  0  0  0
 71 74  1  0  0  0
 71144  1  0  0  0
 72 75  1  0  0  0
 72145  1  0  0  0
 73 74  2  0  0  0
 73 76  1  0  0  0
 73146  1  0  0  0
 74 77  1  0  0  0
 75 76  2  0  0  0
 75 81  1  0  0  0
 76 84  1  0  0  0
 77 82  1  0  0  0
 77 83  2  0  0  0
 78 82  1  0  0  0
 78147  1  0  0  0
 78148  1  0  0  0
 78149  1  0  0  0
 79 80  1  0  0  0
 79 82  1  0  0  0
 79150  1  0  0  0
 79151  1  0  0  0
 80152  1  0  0  0
 80153  1  0  0  0
 81154  1  0  0  0
M  ISO  4   1 100  68 101  80 101  81 100
M  END
> <chiral flag>
0

> <version>
0

> <s_m_source_file>
/data/baiqing/PycharmProjects/Reinvent-master-3.2/result/LINK_invent/BTK/process_docking_weight1_custom_product_contain_oxygen_bond_distance_aromatic_linkinvent_7_9_3/rearranged_h_0013.sdf

> <i_m_source_file_index>
86

> <r_mmod_Potential_Energy-OPLS-2005>
168.647201538086

> <r_mmod_Stretch_Energy-OPLS-2005>
92.8263626098633

> <r_mmod_Bend_Energy-OPLS-2005>
182.324859619141

> <r_mmod_Torsional_Energy-OPLS-2005>
286.087768554688

> <r_mmod_Improper_Torsional_Energy-OPLS-2005>
4.82303237915039

> <r_mmod_Van_der_Waal_Energy-OPLS-2005>
173.190353393555

> <r_mmod_Electrostatic_Energy-OPLS-2005>
-414.171295166016

> <r_mmod_Solvation_Energy-OPLS-2005>
-232.857192993164

> <b_mmod_Minimization_Converged-OPLS-2005>
0

> <r_mmod_RMS_Derivative-OPLS-2005>
22.5955505371094

$$$$
87
                    3D
 Structure written by MMmdl.
157165  0  0  1  0            999 V2000
  -30.6986  -14.4540   20.6236 C   0  0  0  0  0  0
  -30.4407  -12.3109   19.4136 C   0  0  0  0  0  0
  -29.5070  -12.5229   18.2063 C   0  0  0  0  0  0
  -28.0234  -12.3937   18.6061 C   0  0  0  0  0  0
  -27.6695  -13.2048   19.8821 C   0  0  2  0  0  0
  -28.7062  -12.9544   20.9965 C   0  0  0  0  0  0
  -25.2642  -13.8166   20.5601 C   0  0  0  0  0  0
  -24.1888  -13.0499   20.9103 C   0  0  0  0  0  0
  -24.6449  -11.6951   20.8780 C   0  0  0  0  0  0
  -23.9140  -10.4327   21.0465 C   0  0  0  0  0  0
  -24.3686   -9.4217   21.9193 C   0  0  0  0  0  0
  -23.6333   -8.2275   22.0760 C   0  0  0  0  0  0
  -22.4310   -8.0339   21.3564 C   0  0  0  0  0  0
  -21.9986   -9.0350   20.4664 C   0  0  0  0  0  0
  -22.7366  -10.2197   20.3079 C   0  0  0  0  0  0
  -21.6857   -6.0797   22.5277 C   0  0  0  0  0  0
  -21.4029   -6.5668   23.8242 C   0  0  0  0  0  0
  -21.3636   -5.6787   24.9175 C   0  0  0  0  0  0
  -21.6033   -4.3063   24.7187 C   0  0  0  0  0  0
  -21.8832   -3.8199   23.4302 C   0  0  0  0  0  0
  -21.9192   -4.7023   22.3390 C   0  0  0  0  0  0
  -22.7911  -13.5293   21.1733 C   0  0  0  0  0  0
  -22.1616   -4.2222   21.0944 F   0  0  0  0  0  0
  -21.5657   -3.4520   25.7694 F   0  0  0  0  0  0
  -30.0500  -13.2658   20.4658 N   0  0  0  0  0  0
  -26.3074  -12.9313   20.3363 N   0  0  0  0  0  0
  -25.9344  -11.6478   20.5798 N   0  0  0  0  0  0
  -22.0523  -12.8347   22.0294 N   0  0  0  0  0  0
  -25.4391  -15.1855   20.3869 N   0  0  0  0  0  0
  -31.7756  -14.7131   20.0722 O   0  0  0  0  0  0
  -21.6671   -6.8939   21.4260 O   0  0  0  0  0  0
  -22.3611  -14.5587   20.6518 O   0  0  0  0  0  0
  -24.6254  -31.8632   23.2110 C   0  0  0  0  0  0
  -25.9111  -32.4873   23.8386 C   0  0  1  0  0  0
  -27.2114  -27.3783   20.1055 C   0  0  0  0  0  0
  -25.5940  -33.8683   24.2391 N   0  0  0  0  0  0
  -23.4170  -30.4893   21.5561 C   0  0  2  0  0  0
  -24.8601  -28.9617   20.1023 C   0  0  0  0  0  0
  -22.7424  -29.4672   22.5069 C   0  0  0  0  0  0
  -18.0289  -28.1337   22.8584 C   0  0  0  0  0  0
  -24.1479  -36.7309   23.2660 C   0  0  0  0  0  0
  -25.9482  -30.8233   21.3704 C   0  0  0  0  0  0
  -26.0217  -29.4565   20.7088 C   0  0  0  0  0  0
  -27.2079  -28.6764   20.6926 C   0  0  0  0  0  0
  -26.0230  -26.9140   19.4928 C   0  0  0  0  0  0
  -24.8683  -27.7117   19.4629 C   0  0  0  0  0  0
  -23.6193  -29.8272   20.1643 C   0  0  0  0  0  0
  -25.4115  -36.3201   24.0396 C   0  0  1  0  0  0
  -20.5901  -28.3605   23.1351 C   0  0  2  0  0  0
  -20.6818  -26.9336   22.5321 C   0  0  0  0  0  0
  -19.5726  -26.6325   21.5215 C   0  0  0  0  0  0
  -18.1911  -26.7974   22.1555 C   0  0  0  0  0  0
  -19.1528  -28.8782   23.2994 C   0  0  0  0  0  0
  -18.9415  -30.1477   23.8904 C   0  0  0  0  0  0
  -17.6342  -30.6568   24.0524 C   0  0  0  0  0  0
  -25.8994  -34.9548   23.5190 C   0  0  0  0  0  0
  -16.5267  -29.9011   23.6327 C   0  0  0  0  0  0
  -16.7260  -28.6459   23.0356 C   0  0  0  0  0  0
  -26.4445  -31.6628   25.0692 C   0  0  0  0  0  0
  -25.3657  -31.3768   26.1371 C   0  0  0  0  0  0
  -27.0253  -30.3097   24.6051 C   0  0  0  0  0  0
  -27.6060  -32.4287   25.7410 C   0  0  0  0  0  0
  -27.5622  -37.1810   24.8476 C   0  0  0  0  0  0
  -21.4135  -29.3066   22.3803 N   0  0  0  0  0  0
  -26.4323  -37.3858   23.9434 N   0  0  0  0  0  0
  -24.6862  -31.0586   22.1122 N   0  0  0  0  0  0
  -23.4152  -28.8154   23.3088 O   0  0  0  0  0  0
  -28.3528  -26.5898   20.1387 O   0  0  0  0  0  0
  -26.5456  -34.8940   22.4701 O   0  0  0  0  0  0
  -23.5396  -32.1452   23.7391 O   0  0  0  0  0  0
  -28.9593  -18.7936   22.3357 C   0  0  0  0  0  0
  -29.3145  -17.4258   22.4101 C   0  0  0  0  0  0
  -30.0050  -17.4778   20.0922 C   0  0  0  0  0  0
  -29.1048  -19.5552   21.1384 C   0  0  0  0  0  0
  -29.8489  -16.7443   21.2993 C   0  0  0  0  0  0
  -29.6331  -18.8545   20.0110 C   0  0  0  0  0  0
  -28.8392  -21.0787   21.1755 C   0  0  0  0  0  0
  -27.6961  -21.7251   19.0626 C   0  0  0  0  0  0
  -29.4659  -24.3672   20.4338 C   0  0  0  0  0  0
  -29.7368  -22.9539   19.8008 C   0  0  0  0  0  0
  -28.1754  -25.1453   20.0473 C   0  0  0  0  0  0
  -30.0736  -15.3278   21.4374 N   0  0  0  0  0  0
  -28.8044  -21.8130   20.0233 N   0  0  0  0  0  0
  -28.7665  -21.6679   22.2668 O   0  0  0  0  0  0
  -29.8068  -19.4919   18.8260 F   0  0  0  0  0  0
  -31.4781  -12.4370   19.0973 H   0  0  0  0  0  0
  -30.3718  -11.2875   19.7906 H   0  0  0  0  0  0
  -29.7413  -11.8129   17.4111 H   0  0  0  0  0  0
  -29.6844  -13.5148   17.7834 H   0  0  0  0  0  0
  -27.7990  -11.3386   18.7599 H   0  0  0  0  0  0
  -27.3967  -12.7194   17.7763 H   0  0  0  0  0  0
  -27.7204  -14.2612   19.6155 H   0  0  0  0  0  0
  -28.6707  -11.9090   21.3138 H   0  0  0  0  0  0
  -28.4456  -13.5264   21.8853 H   0  0  0  0  0  0
  -25.2794   -9.5731   22.4793 H   0  0  0  0  0  0
  -24.0068   -7.4659   22.7437 H   0  0  0  0  0  0
  -21.0943   -8.8969   19.8884 H   0  0  0  0  0  0
  -22.3884  -10.9821   19.6247 H   0  0  0  0  0  0
  -21.2028   -7.6165   23.9790 H   0  0  0  0  0  0
  -21.1406   -6.0463   25.9080 H   0  0  0  0  0  0
  -22.0630   -2.7660   23.2759 H   0  0  0  0  0  0
  -22.4169  -12.0046   22.4727 H   0  0  0  0  0  0
  -21.1167  -13.1439   22.2514 H   0  0  0  0  0  0
  -24.6583  -15.8296   20.4167 H   0  0  0  0  0  0
  -26.2761  -15.6014   19.9998 H   0  0  0  0  0  0
  -26.7166  -32.5543   23.1115 H   0  0  0  0  0  0
  -25.0177  -33.9849   25.0588 H   0  0  0  0  0  0
  -22.7372  -31.3339   21.4318 H   0  0  0  0  0  0
  -23.3828  -35.9538   23.3297 H   0  0  0  0  0  0
  -24.3620  -36.8835   22.2065 H   0  0  0  0  0  0
  -23.7015  -37.6474   23.6563 H   0  0  0  0  0  0
  -26.0416  -31.6026   20.6100 H   0  0  0  0  0  0
  -26.8494  -30.8828   21.9668 H   0  0  0  0  0  0
  -28.1087  -29.0554   21.1512 H   0  0  0  0  0  0
  -25.9673  -25.9483   19.0004 H   0  0  0  0  0  0
  -23.9861  -27.3735   18.9347 H   0  0  0  0  0  0
  -23.6761  -30.6052   19.3990 H   0  0  0  0  0  0
  -22.7585  -29.2152   19.8953 H   0  0  0  0  0  0
  -25.1274  -36.2162   25.0882 H   0  0  0  0  0  0
  -21.0037  -28.3040   24.1465 H   0  0  0  0  0  0
  -20.6016  -26.2038   23.3427 H   0  0  0  0  0  0
  -21.6625  -26.7510   22.0867 H   0  0  0  0  0  0
  -19.6719  -27.3106   20.6735 H   0  0  0  0  0  0
  -19.6711  -25.6223   21.1250 H   0  0  0  0  0  0
  -17.9923  -25.9998   22.8731 H   0  0  0  0  0  0
  -17.4351  -26.7110   21.3760 H   0  0  0  0  0  0
  -19.7804  -30.7476   24.2167 H   0  0  0  0  0  0
  -17.4789  -31.6308   24.4964 H   0  0  0  0  0  0
  -15.5229  -30.2829   23.7611 H   0  0  0  0  0  0
  -15.8728  -28.0762   22.6908 H   0  0  0  0  0  0
  -24.5807  -30.7188   25.7615 H   0  0  0  0  0  0
  -24.8847  -32.2925   26.4841 H   0  0  0  0  0  0
  -25.7880  -30.8845   27.0126 H   0  0  0  0  0  0
  -26.2810  -29.6911   24.1005 H   0  0  0  0  0  0
  -27.3956  -29.7274   25.4495 H   0  0  0  0  0  0
  -27.8662  -30.4505   23.9251 H   0  0  0  0  0  0
  -27.2807  -33.3593   26.2077 H   0  0  0  0  0  0
  -28.3777  -32.6814   25.0138 H   0  0  0  0  0  0
  -28.0787  -31.8309   26.5188 H   0  0  0  0  0  0
  -28.2664  -38.0099   24.7628 H   0  0  0  0  0  0
  -28.1110  -36.2660   24.6239 H   0  0  0  0  0  0
  -27.2340  -37.1348   25.8866 H   0  0  0  0  0  0
  -20.9246  -29.8876   21.7153 H   0  0  0  0  0  0
  -26.0298  -38.2975   24.1404 H   0  0  0  0  0  0
  -28.5856  -19.2634   23.2373 H   0  0  0  0  0  0
  -29.1705  -16.8998   23.3473 H   0  0  0  0  0  0
  -30.3968  -16.9936   19.2081 H   0  0  0  0  0  0
  -26.9168  -22.4271   19.3660 H   0  0  0  0  0  0
  -27.2617  -20.7253   19.0249 H   0  0  0  0  0  0
  -27.9849  -21.9956   18.0416 H   0  0  0  0  0  0
  -30.3004  -24.9788   20.0776 H   0  0  0  0  0  0
  -29.5598  -24.3375   21.5220 H   0  0  0  0  0  0
  -30.7106  -22.6175   20.1612 H   0  0  0  0  0  0
  -29.8831  -23.0953   18.7295 H   0  0  0  0  0  0
  -27.3724  -24.8138   20.7111 H   0  0  0  0  0  0
  -27.8682  -24.8685   19.0376 H   0  0  0  0  0  0
  -29.4287  -14.8651   22.0596 H   0  0  0  0  0  0
  1 25  1  0  0  0
  1 30  2  0  0  0
  1 82  1  0  0  0
  2  3  1  0  0  0
  2 25  1  0  0  0
  2 86  1  0  0  0
  2 87  1  0  0  0
  3  4  1  0  0  0
  3 88  1  0  0  0
  3 89  1  0  0  0
  4  5  1  0  0  0
  4 90  1  0  0  0
  4 91  1  0  0  0
  5  6  1  0  0  0
  5 26  1  0  0  0
  5 92  1  0  0  0
  6 25  1  0  0  0
  6 93  1  0  0  0
  6 94  1  0  0  0
  7  8  2  0  0  0
  7 26  1  0  0  0
  7 29  1  0  0  0
  8  9  1  0  0  0
  8 22  1  0  0  0
  9 10  1  0  0  0
  9 27  2  0  0  0
 10 11  2  0  0  0
 10 15  1  0  0  0
 11 12  1  0  0  0
 11 95  1  0  0  0
 12 13  2  0  0  0
 12 96  1  0  0  0
 13 14  1  0  0  0
 13 31  1  0  0  0
 14 15  2  0  0  0
 14 97  1  0  0  0
 15 98  1  0  0  0
 16 17  2  0  0  0
 16 21  1  0  0  0
 16 31  1  0  0  0
 17 18  1  0  0  0
 17 99  1  0  0  0
 18 19  2  0  0  0
 18100  1  0  0  0
 19 20  1  0  0  0
 19 24  1  0  0  0
 20 21  2  0  0  0
 20101  1  0  0  0
 21 23  1  0  0  0
 22 28  1  0  0  0
 22 32  2  0  0  0
 26 27  1  0  0  0
 28102  1  0  0  0
 28103  1  0  0  0
 29104  1  0  0  0
 29105  1  0  0  0
 33 34  1  0  0  0
 33 66  1  0  0  0
 33 70  2  0  0  0
 34 36  1  0  0  0
 34 59  1  0  0  0
 34106  1  0  0  0
 35 44  2  0  0  0
 35 45  1  0  0  0
 35 68  1  0  0  0
 36 56  1  0  0  0
 36107  1  0  0  0
 37 39  1  0  0  0
 37 47  1  0  0  0
 37 66  1  0  0  0
 37108  1  0  0  0
 38 43  2  0  0  0
 38 46  1  0  0  0
 38 47  1  0  0  0
 39 64  1  0  0  0
 39 67  2  0  0  0
 40 52  1  0  0  0
 40 53  2  0  0  0
 40 58  1  0  0  0
 41109  1  0  0  0
 41110  1  0  0  0
 41111  1  0  0  0
 41 48  1  0  0  0
 42 43  1  0  0  0
 42 66  1  0  0  0
 42112  1  0  0  0
 42113  1  0  0  0
 43 44  1  0  0  0
 44114  1  0  0  0
 45 46  2  0  0  0
 45115  1  0  0  0
 46116  1  0  0  0
 47117  1  0  0  0
 47118  1  0  0  0
 48 56  1  0  0  0
 48 65  1  0  0  0
 48119  1  0  0  0
 49 50  1  0  0  0
 49 53  1  0  0  0
 49 64  1  0  0  0
 49120  1  0  0  0
 50 51  1  0  0  0
 50121  1  0  0  0
 50122  1  0  0  0
 51 52  1  0  0  0
 51123  1  0  0  0
 51124  1  0  0  0
 52125  1  0  0  0
 52126  1  0  0  0
 53 54  1  0  0  0
 54 55  2  0  0  0
 54127  1  0  0  0
 55 57  1  0  0  0
 55128  1  0  0  0
 56 69  2  0  0  0
 57 58  2  0  0  0
 57129  1  0  0  0
 58130  1  0  0  0
 59 60  1  0  0  0
 59 61  1  0  0  0
 59 62  1  0  0  0
 60131  1  0  0  0
 60132  1  0  0  0
 60133  1  0  0  0
 61134  1  0  0  0
 61135  1  0  0  0
 61136  1  0  0  0
 62137  1  0  0  0
 62138  1  0  0  0
 62139  1  0  0  0
 63 65  1  0  0  0
 63140  1  0  0  0
 63141  1  0  0  0
 63142  1  0  0  0
 64143  1  0  0  0
 65144  1  0  0  0
 68 81  1  0  0  0
 71 72  2  0  0  0
 71 74  1  0  0  0
 71145  1  0  0  0
 72 75  1  0  0  0
 72146  1  0  0  0
 73 75  2  0  0  0
 73 76  1  0  0  0
 73147  1  0  0  0
 74 76  2  0  0  0
 74 77  1  0  0  0
 75 82  1  0  0  0
 76 85  1  0  0  0
 77 83  1  0  0  0
 77 84  2  0  0  0
 78 83  1  0  0  0
 78148  1  0  0  0
 78149  1  0  0  0
 78150  1  0  0  0
 79 80  1  0  0  0
 79 81  1  0  0  0
 79151  1  0  0  0
 79152  1  0  0  0
 80 83  1  0  0  0
 80153  1  0  0  0
 80154  1  0  0  0
 81155  1  0  0  0
 81156  1  0  0  0
 82157  1  0  0  0
M  ISO  4   1 100  68 101  81 101  82 100
M  END
> <chiral flag>
0

> <version>
0

> <s_m_source_file>
/data/baiqing/PycharmProjects/Reinvent-master-3.2/result/LINK_invent/BTK/process_docking_weight1_custom_product_contain_oxygen_bond_distance_aromatic_linkinvent_7_9_3/rearranged_h_0013.sdf

> <i_m_source_file_index>
87

> <r_mmod_Potential_Energy-OPLS-2005>
134.144409179688

> <r_mmod_Stretch_Energy-OPLS-2005>
58.4510307312012

> <r_mmod_Bend_Energy-OPLS-2005>
125.974166870117

> <r_mmod_Torsional_Energy-OPLS-2005>
320.513519287109

> <r_mmod_Improper_Torsional_Energy-OPLS-2005>
6.23197269439697

> <r_mmod_Van_der_Waal_Energy-OPLS-2005>
150.039184570312

> <r_mmod_Electrostatic_Energy-OPLS-2005>
-329.090850830078

> <r_mmod_Solvation_Energy-OPLS-2005>
-215.523254394531

> <b_mmod_Minimization_Converged-OPLS-2005>
0

> <r_mmod_RMS_Derivative-OPLS-2005>
10.8173112869263

$$$$
88
                    3D
 Structure written by MMmdl.
159168  0  0  1  0            999 V2000
  -30.6247  -14.6368   20.5373 C   0  0  0  0  0  0
  -30.4448  -12.3973   19.4548 C   0  0  0  0  0  0
  -29.5126  -12.5196   18.2284 C   0  0  0  0  0  0
  -28.0344  -12.3579   18.6349 C   0  0  0  0  0  0
  -27.6588  -13.2165   19.8723 C   0  0  2  0  0  0
  -28.7031  -13.0519   20.9998 C   0  0  0  0  0  0
  -25.2574  -13.8177   20.5666 C   0  0  0  0  0  0
  -24.1840  -13.0447   20.9187 C   0  0  0  0  0  0
  -24.6414  -11.6916   20.8757 C   0  0  0  0  0  0
  -23.9070  -10.4302   21.0421 C   0  0  0  0  0  0
  -24.3624   -9.4207   21.9195 C   0  0  0  0  0  0
  -23.6292   -8.2244   22.0764 C   0  0  0  0  0  0
  -22.4269   -8.0290   21.3547 C   0  0  0  0  0  0
  -21.9905   -9.0272   20.4654 C   0  0  0  0  0  0
  -22.7249  -10.2145   20.3067 C   0  0  0  0  0  0
  -21.6853   -6.0738   22.5275 C   0  0  0  0  0  0
  -21.4022   -6.5639   23.8216 C   0  0  0  0  0  0
  -21.3657   -5.6787   24.9174 C   0  0  0  0  0  0
  -21.6034   -4.3049   24.7221 C   0  0  0  0  0  0
  -21.8820   -3.8144   23.4347 C   0  0  0  0  0  0
  -21.9190   -4.6962   22.3398 C   0  0  0  0  0  0
  -22.7861  -13.5250   21.1838 C   0  0  0  0  0  0
  -22.1655   -4.2148   21.0976 F   0  0  0  0  0  0
  -21.5617   -3.4530   25.7733 F   0  0  0  0  0  0
  -30.0211  -13.4077   20.4470 N   0  0  0  0  0  0
  -26.3019  -12.9355   20.3347 N   0  0  0  0  0  0
  -25.9346  -11.6514   20.5781 N   0  0  0  0  0  0
  -22.0473  -12.8266   22.0387 N   0  0  0  0  0  0
  -25.4271  -15.1894   20.4053 N   0  0  0  0  0  0
  -31.7655  -14.8213   20.1001 O   0  0  0  0  0  0
  -21.6637   -6.8885   21.4241 O   0  0  0  0  0  0
  -22.3551  -14.5555   20.6678 O   0  0  0  0  0  0
  -24.6242  -31.8590   23.2036 C   0  0  0  0  0  0
  -25.9086  -32.4776   23.8367 C   0  0  1  0  0  0
  -27.2274  -27.3218   20.1365 C   0  0  0  0  0  0
  -25.5903  -33.8577   24.2297 N   0  0  0  0  0  0
  -23.4202  -30.4803   21.5446 C   0  0  2  0  0  0
  -24.8708  -28.9369   20.1120 C   0  0  0  0  0  0
  -22.7482  -29.4599   22.4937 C   0  0  0  0  0  0
  -18.0291  -28.1378   22.8484 C   0  0  0  0  0  0
  -24.1486  -36.7300   23.2643 C   0  0  0  0  0  0
  -25.9599  -30.7934   21.3733 C   0  0  0  0  0  0
  -26.0379  -29.4201   20.7187 C   0  0  0  0  0  0
  -27.2216  -28.6244   20.7206 C   0  0  0  0  0  0
  -26.0461  -26.8973   19.4890 C   0  0  0  0  0  0
  -24.8772  -27.6814   19.4844 C   0  0  0  0  0  0
  -23.6368  -29.8140   20.1601 C   0  0  0  0  0  0
  -25.4104  -36.3081   24.0336 C   0  0  1  0  0  0
  -20.5891  -28.3677   23.1283 C   0  0  2  0  0  0
  -20.6783  -26.9404   22.5408 C   0  0  0  0  0  0
  -19.5759  -26.6371   21.5213 C   0  0  0  0  0  0
  -18.1936  -26.7924   22.1617 C   0  0  0  0  0  0
  -19.1544  -28.8846   23.2878 C   0  0  0  0  0  0
  -18.9466  -30.1449   23.8900 C   0  0  0  0  0  0
  -17.6463  -30.6575   24.0562 C   0  0  0  0  0  0
  -25.9025  -34.9448   23.5115 C   0  0  0  0  0  0
  -16.5353  -29.9075   23.6326 C   0  0  0  0  0  0
  -16.7278  -28.6490   23.0352 C   0  0  0  0  0  0
  -26.4482  -31.6581   25.0727 C   0  0  0  0  0  0
  -25.3731  -31.3725   26.1470 C   0  0  0  0  0  0
  -27.0321  -30.3013   24.6161 C   0  0  0  0  0  0
  -27.6058  -32.4311   25.7470 C   0  0  0  0  0  0
  -27.5568  -37.1812   24.8466 C   0  0  0  0  0  0
  -21.4196  -29.3027   22.3678 N   0  0  0  0  0  0
  -26.4295  -37.3760   23.9386 N   0  0  0  0  0  0
  -24.6865  -31.0607   22.0978 N   0  0  0  0  0  0
  -23.4203  -28.8138   23.3016 O   0  0  0  0  0  0
  -28.3310  -26.4583   20.1809 O   0  0  0  0  0  0
  -26.5597  -34.8905   22.4681 O   0  0  0  0  0  0
  -23.5404  -32.1381   23.7364 O   0  0  0  0  0  0
  -30.7860  -19.2972   20.1808 C   0  0  0  0  0  0
  -30.8615  -17.8736   20.2792 C   0  0  0  0  0  0
  -28.6753  -19.2889   21.3116 C   0  0  0  0  0  0
  -28.7543  -17.8663   21.4483 C   0  0  0  0  0  0
  -29.6883  -20.0527   20.6780 C   0  0  0  0  0  0
  -29.8441  -17.1102   20.9118 C   0  0  0  0  0  0
  -30.3862  -23.7742   20.8369 C   0  0  0  0  0  0
  -30.8477  -22.3064   20.6481 C   0  0  0  0  0  0
  -28.4634  -22.3934   20.5846 C   0  0  0  0  0  0
  -28.9723  -23.8521   20.2404 C   0  0  1  0  0  0
  -27.6384  -17.1786   22.2248 C   0  0  0  0  0  0
  -28.0840  -25.0928   20.7089 C   0  0  0  0  0  0
  -29.6392  -21.4899   20.5621 N   0  0  0  0  0  0
  -29.8420  -15.6472   21.0359 N   0  0  0  0  0  0
  -31.4856  -12.5271   19.1526 H   0  0  0  0  0  0
  -30.3829  -11.3976   19.8880 H   0  0  0  0  0  0
  -29.7748  -11.7721   17.4781 H   0  0  0  0  0  0
  -29.6584  -13.4933   17.7556 H   0  0  0  0  0  0
  -27.8647  -11.3025   18.8535 H   0  0  0  0  0  0
  -27.3849  -12.6048   17.7943 H   0  0  0  0  0  0
  -27.6823  -14.2568   19.5466 H   0  0  0  0  0  0
  -28.7156  -12.0215   21.3592 H   0  0  0  0  0  0
  -28.4443  -13.6592   21.8677 H   0  0  0  0  0  0
  -25.2787   -9.5669   22.4759 H   0  0  0  0  0  0
  -23.9992   -7.4633   22.7488 H   0  0  0  0  0  0
  -21.0831   -8.8820   19.8964 H   0  0  0  0  0  0
  -22.3739  -10.9692   19.6166 H   0  0  0  0  0  0
  -21.2029   -7.6148   23.9722 H   0  0  0  0  0  0
  -21.1469   -6.0515   25.9076 H   0  0  0  0  0  0
  -22.0602   -2.7601   23.2851 H   0  0  0  0  0  0
  -22.4073  -11.9937   22.4806 H   0  0  0  0  0  0
  -21.1091  -13.1319   22.2562 H   0  0  0  0  0  0
  -24.6653  -15.8474   20.5323 H   0  0  0  0  0  0
  -26.2744  -15.6268   20.0685 H   0  0  0  0  0  0
  -26.7153  -32.5457   23.1116 H   0  0  0  0  0  0
  -25.0065  -33.9727   25.0455 H   0  0  0  0  0  0
  -22.7130  -31.2993   21.3999 H   0  0  0  0  0  0
  -23.3716  -35.9669   23.3350 H   0  0  0  0  0  0
  -24.3578  -36.8868   22.2050 H   0  0  0  0  0  0
  -23.7284  -37.6537   23.6629 H   0  0  0  0  0  0
  -26.0870  -31.5562   20.6035 H   0  0  0  0  0  0
  -26.8414  -30.8474   22.0008 H   0  0  0  0  0  0
  -28.1158  -28.9882   21.2075 H   0  0  0  0  0  0
  -26.0157  -25.9396   18.9896 H   0  0  0  0  0  0
  -23.9867  -27.3093   18.9967 H   0  0  0  0  0  0
  -23.7523  -30.5888   19.4014 H   0  0  0  0  0  0
  -22.7598  -29.2382   19.8602 H   0  0  0  0  0  0
  -25.1289  -36.1951   25.0834 H   0  0  0  0  0  0
  -20.9984  -28.3254   24.1404 H   0  0  0  0  0  0
  -20.5684  -26.2291   23.3604 H   0  0  0  0  0  0
  -21.6650  -26.7427   22.1205 H   0  0  0  0  0  0
  -19.6916  -25.6281   21.1244 H   0  0  0  0  0  0
  -19.6695  -27.3182   20.6744 H   0  0  0  0  0  0
  -17.4211  -26.6685   21.4014 H   0  0  0  0  0  0
  -18.0317  -26.0059   22.9000 H   0  0  0  0  0  0
  -19.7941  -30.7272   24.2267 H   0  0  0  0  0  0
  -17.5009  -31.6264   24.5150 H   0  0  0  0  0  0
  -15.5352  -30.2975   23.7634 H   0  0  0  0  0  0
  -15.8683  -28.0794   22.7076 H   0  0  0  0  0  0
  -24.5894  -30.7077   25.7815 H   0  0  0  0  0  0
  -24.8934  -32.2896   26.4907 H   0  0  0  0  0  0
  -25.8067  -30.8900   27.0237 H   0  0  0  0  0  0
  -26.2892  -29.6757   24.1200 H   0  0  0  0  0  0
  -27.4055  -29.7273   25.4649 H   0  0  0  0  0  0
  -27.8742  -30.4320   23.9363 H   0  0  0  0  0  0
  -27.2687  -33.3609   26.2060 H   0  0  0  0  0  0
  -28.3842  -32.6866   25.0270 H   0  0  0  0  0  0
  -28.0746  -31.8428   26.5365 H   0  0  0  0  0  0
  -28.2629  -38.0062   24.7433 H   0  0  0  0  0  0
  -28.1018  -36.2594   24.6384 H   0  0  0  0  0  0
  -27.2280  -37.1577   25.8871 H   0  0  0  0  0  0
  -20.9378  -29.8758   21.6895 H   0  0  0  0  0  0
  -26.0183  -38.2848   24.1336 H   0  0  0  0  0  0
  -31.5962  -19.8098   19.6847 H   0  0  0  0  0  0
  -31.7234  -17.3793   19.8567 H   0  0  0  0  0  0
  -27.8271  -19.8067   21.7372 H   0  0  0  0  0  0
  -31.0748  -24.4874   20.3807 H   0  0  0  0  0  0
  -30.3429  -24.0047   21.9029 H   0  0  0  0  0  0
  -31.4802  -21.9867   21.4790 H   0  0  0  0  0  0
  -31.4257  -22.2009   19.7295 H   0  0  0  0  0  0
  -27.7074  -22.0651   19.8688 H   0  0  0  0  0  0
  -28.0059  -22.3735   21.5746 H   0  0  0  0  0  0
  -29.0677  -23.9087   19.1553 H   0  0  0  0  0  0
  -27.8399  -17.2357   23.2952 H   0  0  0  0  0  0
  -27.5167  -16.1287   21.9652 H   0  0  0  0  0  0
  -26.6807  -17.6676   22.0409 H   0  0  0  0  0  0
  -28.1610  -25.1671   21.7948 H   0  0  0  0  0  0
  -27.0494  -24.7975   20.5411 H   0  0  0  0  0  0
  -28.9980  -15.2834   21.4484 H   0  0  0  0  0  0
  1 25  1  0  0  0
  1 30  2  0  0  0
  1 84  1  0  0  0
  2  3  1  0  0  0
  2 25  1  0  0  0
  2 85  1  0  0  0
  2 86  1  0  0  0
  3  4  1  0  0  0
  3 87  1  0  0  0
  3 88  1  0  0  0
  4  5  1  0  0  0
  4 89  1  0  0  0
  4 90  1  0  0  0
  5  6  1  0  0  0
  5 26  1  0  0  0
  5 91  1  0  0  0
  6 25  1  0  0  0
  6 92  1  0  0  0
  6 93  1  0  0  0
  7  8  2  0  0  0
  7 26  1  0  0  0
  7 29  1  0  0  0
  8  9  1  0  0  0
  8 22  1  0  0  0
  9 10  1  0  0  0
  9 27  2  0  0  0
 10 11  2  0  0  0
 10 15  1  0  0  0
 11 12  1  0  0  0
 11 94  1  0  0  0
 12 13  2  0  0  0
 12 95  1  0  0  0
 13 14  1  0  0  0
 13 31  1  0  0  0
 14 15  2  0  0  0
 14 96  1  0  0  0
 15 97  1  0  0  0
 16 17  2  0  0  0
 16 21  1  0  0  0
 16 31  1  0  0  0
 17 18  1  0  0  0
 17 98  1  0  0  0
 18 19  2  0  0  0
 18 99  1  0  0  0
 19 20  1  0  0  0
 19 24  1  0  0  0
 20 21  2  0  0  0
 20100  1  0  0  0
 21 23  1  0  0  0
 22 28  1  0  0  0
 22 32  2  0  0  0
 26 27  1  0  0  0
 28101  1  0  0  0
 28102  1  0  0  0
 29103  1  0  0  0
 29104  1  0  0  0
 33 34  1  0  0  0
 33 66  1  0  0  0
 33 70  2  0  0  0
 34 36  1  0  0  0
 34 59  1  0  0  0
 34105  1  0  0  0
 35 44  2  0  0  0
 35 45  1  0  0  0
 35 68  1  0  0  0
 36 56  1  0  0  0
 36106  1  0  0  0
 37 39  1  0  0  0
 37 47  1  0  0  0
 37 66  1  0  0  0
 37107  1  0  0  0
 38 43  2  0  0  0
 38 46  1  0  0  0
 38 47  1  0  0  0
 39 64  1  0  0  0
 39 67  2  0  0  0
 40 52  1  0  0  0
 40 53  2  0  0  0
 40 58  1  0  0  0
 41108  1  0  0  0
 41109  1  0  0  0
 41110  1  0  0  0
 41 48  1  0  0  0
 42 43  1  0  0  0
 42 66  1  0  0  0
 42111  1  0  0  0
 42112  1  0  0  0
 43 44  1  0  0  0
 44113  1  0  0  0
 45 46  2  0  0  0
 45114  1  0  0  0
 46115  1  0  0  0
 47116  1  0  0  0
 47117  1  0  0  0
 48 56  1  0  0  0
 48 65  1  0  0  0
 48118  1  0  0  0
 49 50  1  0  0  0
 49 53  1  0  0  0
 49 64  1  0  0  0
 49119  1  0  0  0
 50 51  1  0  0  0
 50120  1  0  0  0
 50121  1  0  0  0
 51 52  1  0  0  0
 51122  1  0  0  0
 51123  1  0  0  0
 52124  1  0  0  0
 52125  1  0  0  0
 53 54  1  0  0  0
 54 55  2  0  0  0
 54126  1  0  0  0
 55 57  1  0  0  0
 55127  1  0  0  0
 56 69  2  0  0  0
 57 58  2  0  0  0
 57128  1  0  0  0
 58129  1  0  0  0
 59 60  1  0  0  0
 59 61  1  0  0  0
 59 62  1  0  0  0
 60130  1  0  0  0
 60131  1  0  0  0
 60132  1  0  0  0
 61133  1  0  0  0
 61134  1  0  0  0
 61135  1  0  0  0
 62136  1  0  0  0
 62137  1  0  0  0
 62138  1  0  0  0
 63 65  1  0  0  0
 63139  1  0  0  0
 63140  1  0  0  0
 63141  1  0  0  0
 64142  1  0  0  0
 65143  1  0  0  0
 68 82  1  0  0  0
 71 72  2  0  0  0
 71 75  1  0  0  0
 71144  1  0  0  0
 72 76  1  0  0  0
 72145  1  0  0  0
 73 74  1  0  0  0
 73 75  2  0  0  0
 73146  1  0  0  0
 74 76  2  0  0  0
 74 81  1  0  0  0
 75 83  1  0  0  0
 76 84  1  0  0  0
 77 78  1  0  0  0
 77 80  1  0  0  0
 77147  1  0  0  0
 77148  1  0  0  0
 78 83  1  0  0  0
 78149  1  0  0  0
 78150  1  0  0  0
 79 80  1  0  0  0
 79 83  1  0  0  0
 79151  1  0  0  0
 79152  1  0  0  0
 80 82  1  0  0  0
 80153  1  0  0  0
 81154  1  0  0  0
 81155  1  0  0  0
 81156  1  0  0  0
 82157  1  0  0  0
 82158  1  0  0  0
 84159  1  0  0  0
M  ISO  4   1 100  68 101  82 101  84 100
M  END
> <chiral flag>
0

> <version>
0

> <s_m_source_file>
/data/baiqing/PycharmProjects/Reinvent-master-3.2/result/LINK_invent/BTK/process_docking_weight1_custom_product_contain_oxygen_bond_distance_aromatic_linkinvent_7_9_3/rearranged_h_0013.sdf

> <i_m_source_file_index>
88

> <r_mmod_Potential_Energy-OPLS-2005>
114.989028930664

> <r_mmod_Stretch_Energy-OPLS-2005>
78.1378173828125

> <r_mmod_Bend_Energy-OPLS-2005>
184.276489257812

> <r_mmod_Torsional_Energy-OPLS-2005>
282.204895019531

> <r_mmod_Improper_Torsional_Energy-OPLS-2005>
3.49180173873901

> <r_mmod_Van_der_Waal_Energy-OPLS-2005>
139.311248779297

> <r_mmod_Electrostatic_Energy-OPLS-2005>
-397.050201416016

> <r_mmod_Solvation_Energy-OPLS-2005>
-223.042617797852

> <b_mmod_Minimization_Converged-OPLS-2005>
0

> <r_mmod_RMS_Derivative-OPLS-2005>
2.11954736709595

$$$$
89
                    3D
 Structure written by MMmdl.
157165  0  0  1  0            999 V2000
  -30.6898  -14.4729   20.6136 C   0  0  0  0  0  0
  -30.4327  -12.3181   19.4168 C   0  0  0  0  0  0
  -29.4965  -12.5179   18.2068 C   0  0  0  0  0  0
  -28.0185  -12.3758   18.6210 C   0  0  0  0  0  0
  -27.6672  -13.2051   19.8851 C   0  0  2  0  0  0
  -28.7116  -12.9598   20.9974 C   0  0  0  0  0  0
  -25.2603  -13.8166   20.5718 C   0  0  0  0  0  0
  -24.1848  -13.0442   20.9186 C   0  0  0  0  0  0
  -24.6401  -11.6902   20.8740 C   0  0  0  0  0  0
  -23.9067  -10.4290   21.0412 C   0  0  0  0  0  0
  -24.3623   -9.4209   21.9198 C   0  0  0  0  0  0
  -23.6300   -8.2237   22.0764 C   0  0  0  0  0  0
  -22.4279   -8.0283   21.3548 C   0  0  0  0  0  0
  -21.9914   -9.0258   20.4648 C   0  0  0  0  0  0
  -22.7237  -10.2137   20.3066 C   0  0  0  0  0  0
  -21.6852   -6.0740   22.5282 C   0  0  0  0  0  0
  -21.4009   -6.5643   23.8216 C   0  0  0  0  0  0
  -21.3659   -5.6803   24.9184 C   0  0  0  0  0  0
  -21.6039   -4.3063   24.7227 C   0  0  0  0  0  0
  -21.8824   -3.8150   23.4351 C   0  0  0  0  0  0
  -21.9195   -4.6967   22.3409 C   0  0  0  0  0  0
  -22.7871  -13.5237   21.1864 C   0  0  0  0  0  0
  -22.1671   -4.2151   21.0989 F   0  0  0  0  0  0
  -21.5625   -3.4548   25.7736 F   0  0  0  0  0  0
  -30.0375  -13.2872   20.4494 N   0  0  0  0  0  0
  -26.3058  -12.9339   20.3437 N   0  0  0  0  0  0
  -25.9329  -11.6494   20.5779 N   0  0  0  0  0  0
  -22.0513  -12.8223   22.0408 N   0  0  0  0  0  0
  -25.4328  -15.1887   20.4132 N   0  0  0  0  0  0
  -31.7849  -14.6873   20.0837 O   0  0  0  0  0  0
  -21.6631   -6.8886   21.4245 O   0  0  0  0  0  0
  -22.3555  -14.5540   20.6709 O   0  0  0  0  0  0
  -24.6164  -31.8677   23.2108 C   0  0  0  0  0  0
  -25.9045  -32.4826   23.8403 C   0  0  1  0  0  0
  -27.2278  -27.4111   20.0918 C   0  0  0  0  0  0
  -25.5888  -33.8625   24.2327 N   0  0  0  0  0  0
  -23.4042  -30.4941   21.5531 C   0  0  2  0  0  0
  -24.8489  -28.9667   20.1118 C   0  0  0  0  0  0
  -22.7422  -29.4651   22.4988 C   0  0  0  0  0  0
  -18.0274  -28.1374   22.8489 C   0  0  0  0  0  0
  -24.1477  -36.7316   23.2639 C   0  0  0  0  0  0
  -25.9379  -30.8269   21.3697 C   0  0  0  0  0  0
  -26.0124  -29.4613   20.7133 C   0  0  0  0  0  0
  -27.2017  -28.6906   20.7034 C   0  0  0  0  0  0
  -26.0407  -26.9522   19.4673 C   0  0  0  0  0  0
  -24.8600  -27.7125   19.4852 C   0  0  0  0  0  0
  -23.6122  -29.8335   20.1656 C   0  0  0  0  0  0
  -25.4100  -36.3118   24.0344 C   0  0  1  0  0  0
  -20.5866  -28.3658   23.1319 C   0  0  2  0  0  0
  -20.6752  -26.9386   22.5437 C   0  0  0  0  0  0
  -19.5742  -26.6376   21.5214 C   0  0  0  0  0  0
  -18.1911  -26.7928   22.1605 C   0  0  0  0  0  0
  -19.1524  -28.8831   23.2907 C   0  0  0  0  0  0
  -18.9452  -30.1440   23.8917 C   0  0  0  0  0  0
  -17.6451  -30.6579   24.0569 C   0  0  0  0  0  0
  -25.9036  -34.9483   23.5138 C   0  0  0  0  0  0
  -16.5345  -29.9081   23.6320 C   0  0  0  0  0  0
  -16.7267  -28.6499   23.0347 C   0  0  0  0  0  0
  -26.4453  -31.6605   25.0738 C   0  0  0  0  0  0
  -25.3698  -31.3724   26.1473 C   0  0  0  0  0  0
  -27.0275  -30.3035   24.6137 C   0  0  0  0  0  0
  -27.6032  -32.4319   25.7496 C   0  0  0  0  0  0
  -27.5593  -37.1798   24.8451 C   0  0  0  0  0  0
  -21.4148  -29.3023   22.3722 N   0  0  0  0  0  0
  -26.4283  -37.3808   23.9425 N   0  0  0  0  0  0
  -24.6712  -31.0771   22.1022 N   0  0  0  0  0  0
  -23.4194  -28.8194   23.3033 O   0  0  0  0  0  0
  -28.3883  -26.6472   20.1350 O   0  0  0  0  0  0
  -26.5612  -34.8931   22.4707 O   0  0  0  0  0  0
  -23.5352  -32.1433   23.7493 O   0  0  0  0  0  0
  -30.1525  -21.3935   20.3821 C   0  0  0  0  0  0
  -30.2758  -19.9886   20.5393 C   0  0  0  0  0  0
  -28.7673  -21.4968   22.3660 C   0  0  0  0  0  0
  -29.3869  -22.1678   21.2912 C   0  0  0  0  0  0
  -29.6363  -19.3223   21.6141 C   0  0  0  0  0  0
  -28.8886  -20.1003   22.5245 C   0  0  0  0  0  0
  -30.8540  -25.0603   20.0966 C   0  0  0  0  0  0
  -30.0280  -15.6180   21.4217 C   0  0  0  0  0  0
  -30.3622  -17.0651   20.9650 C   0  0  0  0  0  0
  -28.3284  -25.3040   19.6096 C   0  0  0  0  0  0
  -29.4984  -24.3505   19.9868 C   0  0  2  0  0  0
  -29.2108  -23.5679   21.1947 N   0  0  0  0  0  0
  -29.6798  -17.9578   21.8534 O   0  0  0  0  0  0
  -28.2719  -19.4966   23.5698 F   0  0  0  0  0  0
  -31.4751  -12.4279   19.1137 H   0  0  0  0  0  0
  -30.3465  -11.3025   19.8072 H   0  0  0  0  0  0
  -29.7337  -11.7988   17.4228 H   0  0  0  0  0  0
  -29.6634  -13.5062   17.7742 H   0  0  0  0  0  0
  -27.8291  -11.3189   18.8127 H   0  0  0  0  0  0
  -27.3676  -12.6565   17.7925 H   0  0  0  0  0  0
  -27.7178  -14.2561   19.6033 H   0  0  0  0  0  0
  -28.6922  -11.9132   21.3032 H   0  0  0  0  0  0
  -28.4747  -13.5165   21.9032 H   0  0  0  0  0  0
  -25.2782   -9.5681   22.4756 H   0  0  0  0  0  0
  -24.0021   -7.4627   22.7475 H   0  0  0  0  0  0
  -21.0851   -8.8774   19.8940 H   0  0  0  0  0  0
  -22.3716  -10.9680   19.6165 H   0  0  0  0  0  0
  -21.1997   -7.6150   23.9718 H   0  0  0  0  0  0
  -21.1477   -6.0535   25.9088 H   0  0  0  0  0  0
  -22.0597   -2.7609   23.2854 H   0  0  0  0  0  0
  -22.4137  -11.9874   22.4773 H   0  0  0  0  0  0
  -21.1119  -13.1223   22.2622 H   0  0  0  0  0  0
  -24.6677  -15.8476   20.5146 H   0  0  0  0  0  0
  -26.2932  -15.6267   20.1089 H   0  0  0  0  0  0
  -26.7122  -32.5536   23.1176 H   0  0  0  0  0  0
  -24.9989  -33.9778   25.0440 H   0  0  0  0  0  0
  -22.6933  -31.3120   21.4178 H   0  0  0  0  0  0
  -23.3750  -35.9635   23.3276 H   0  0  0  0  0  0
  -24.3582  -36.8962   22.2059 H   0  0  0  0  0  0
  -23.7203  -37.6502   23.6674 H   0  0  0  0  0  0
  -26.0548  -31.5939   20.6018 H   0  0  0  0  0  0
  -26.8247  -30.8772   21.9897 H   0  0  0  0  0  0
  -28.0970  -29.0696   21.1771 H   0  0  0  0  0  0
  -25.9845  -26.0051   18.9533 H   0  0  0  0  0  0
  -23.9695  -27.3289   19.0063 H   0  0  0  0  0  0
  -23.7171  -30.6109   19.4076 H   0  0  0  0  0  0
  -22.7353  -29.2547   19.8713 H   0  0  0  0  0  0
  -25.1262  -36.1985   25.0837 H   0  0  0  0  0  0
  -20.9961  -28.3227   24.1439 H   0  0  0  0  0  0
  -20.5609  -26.2272   23.3628 H   0  0  0  0  0  0
  -21.6631  -26.7392   22.1269 H   0  0  0  0  0  0
  -19.6895  -25.6290   21.1234 H   0  0  0  0  0  0
  -19.6693  -27.3192   20.6751 H   0  0  0  0  0  0
  -17.4197  -26.6720   21.3983 H   0  0  0  0  0  0
  -18.0267  -26.0054   22.8972 H   0  0  0  0  0  0
  -19.7929  -30.7245   24.2301 H   0  0  0  0  0  0
  -17.5009  -31.6258   24.5174 H   0  0  0  0  0  0
  -15.5345  -30.2991   23.7629 H   0  0  0  0  0  0
  -15.8668  -28.0824   22.7045 H   0  0  0  0  0  0
  -24.5961  -30.6945   25.7846 H   0  0  0  0  0  0
  -24.8758  -32.2865   26.4782 H   0  0  0  0  0  0
  -25.8050  -30.9047   27.0313 H   0  0  0  0  0  0
  -26.2830  -29.6819   24.1143 H   0  0  0  0  0  0
  -27.3968  -29.7256   25.4620 H   0  0  0  0  0  0
  -27.8703  -30.4335   23.9342 H   0  0  0  0  0  0
  -27.2648  -33.3594   26.2129 H   0  0  0  0  0  0
  -28.3801  -32.6920   25.0294 H   0  0  0  0  0  0
  -28.0746  -31.8406   26.5357 H   0  0  0  0  0  0
  -28.2590  -38.0119   24.7548 H   0  0  0  0  0  0
  -28.1109  -36.2657   24.6194 H   0  0  0  0  0  0
  -27.2339  -37.1365   25.8861 H   0  0  0  0  0  0
  -20.9304  -29.8763   21.6958 H   0  0  0  0  0  0
  -26.0174  -38.2881   24.1462 H   0  0  0  0  0  0
  -30.6654  -21.8579   19.5522 H   0  0  0  0  0  0
  -30.8694  -19.4393   19.8249 H   0  0  0  0  0  0
  -28.1833  -22.0449   23.0892 H   0  0  0  0  0  0
  -31.0665  -25.6374   19.1959 H   0  0  0  0  0  0
  -31.6658  -24.3446   20.2302 H   0  0  0  0  0  0
  -30.8735  -25.7490   20.9417 H   0  0  0  0  0  0
  -28.9441  -15.5336   21.3806 H   0  0  0  0  0  0
  -30.3136  -15.4920   22.4650 H   0  0  0  0  0  0
  -30.0245  -17.2191   19.9387 H   0  0  0  0  0  0
  -31.4371  -17.2494   20.9993 H   0  0  0  0  0  0
  -27.4095  -24.7986   19.9106 H   0  0  0  0  0  0
  -28.2969  -25.3938   18.5223 H   0  0  0  0  0  0
  -29.5607  -23.6488   19.1548 H   0  0  0  0  0  0
  -28.6072  -24.0191   21.8776 H   0  0  0  0  0  0
  1 25  1  0  0  0
  1 30  2  0  0  0
  1 78  1  0  0  0
  2  3  1  0  0  0
  2 25  1  0  0  0
  2 85  1  0  0  0
  2 86  1  0  0  0
  3  4  1  0  0  0
  3 87  1  0  0  0
  3 88  1  0  0  0
  4  5  1  0  0  0
  4 89  1  0  0  0
  4 90  1  0  0  0
  5  6  1  0  0  0
  5 26  1  0  0  0
  5 91  1  0  0  0
  6 25  1  0  0  0
  6 92  1  0  0  0
  6 93  1  0  0  0
  7  8  2  0  0  0
  7 26  1  0  0  0
  7 29  1  0  0  0
  8  9  1  0  0  0
  8 22  1  0  0  0
  9 10  1  0  0  0
  9 27  2  0  0  0
 10 11  2  0  0  0
 10 15  1  0  0  0
 11 12  1  0  0  0
 11 94  1  0  0  0
 12 13  2  0  0  0
 12 95  1  0  0  0
 13 14  1  0  0  0
 13 31  1  0  0  0
 14 15  2  0  0  0
 14 96  1  0  0  0
 15 97  1  0  0  0
 16 17  2  0  0  0
 16 21  1  0  0  0
 16 31  1  0  0  0
 17 18  1  0  0  0
 17 98  1  0  0  0
 18 19  2  0  0  0
 18 99  1  0  0  0
 19 20  1  0  0  0
 19 24  1  0  0  0
 20 21  2  0  0  0
 20100  1  0  0  0
 21 23  1  0  0  0
 22 28  1  0  0  0
 22 32  2  0  0  0
 26 27  1  0  0  0
 28101  1  0  0  0
 28102  1  0  0  0
 29103  1  0  0  0
 29104  1  0  0  0
 33 34  1  0  0  0
 33 66  1  0  0  0
 33 70  2  0  0  0
 34 36  1  0  0  0
 34 59  1  0  0  0
 34105  1  0  0  0
 35 44  2  0  0  0
 35 45  1  0  0  0
 35 68  1  0  0  0
 36 56  1  0  0  0
 36106  1  0  0  0
 37 39  1  0  0  0
 37 47  1  0  0  0
 37 66  1  0  0  0
 37107  1  0  0  0
 38 43  2  0  0  0
 38 46  1  0  0  0
 38 47  1  0  0  0
 39 64  1  0  0  0
 39 67  2  0  0  0
 40 52  1  0  0  0
 40 53  2  0  0  0
 40 58  1  0  0  0
 41108  1  0  0  0
 41109  1  0  0  0
 41110  1  0  0  0
 41 48  1  0  0  0
 42 43  1  0  0  0
 42 66  1  0  0  0
 42111  1  0  0  0
 42112  1  0  0  0
 43 44  1  0  0  0
 44113  1  0  0  0
 45 46  2  0  0  0
 45114  1  0  0  0
 46115  1  0  0  0
 47116  1  0  0  0
 47117  1  0  0  0
 48 56  1  0  0  0
 48 65  1  0  0  0
 48118  1  0  0  0
 49 50  1  0  0  0
 49 53  1  0  0  0
 49 64  1  0  0  0
 49119  1  0  0  0
 50 51  1  0  0  0
 50120  1  0  0  0
 50121  1  0  0  0
 51 52  1  0  0  0
 51122  1  0  0  0
 51123  1  0  0  0
 52124  1  0  0  0
 52125  1  0  0  0
 53 54  1  0  0  0
 54 55  2  0  0  0
 54126  1  0  0  0
 55 57  1  0  0  0
 55127  1  0  0  0
 56 69  2  0  0  0
 57 58  2  0  0  0
 57128  1  0  0  0
 58129  1  0  0  0
 59 60  1  0  0  0
 59 61  1  0  0  0
 59 62  1  0  0  0
 60130  1  0  0  0
 60131  1  0  0  0
 60132  1  0  0  0
 61133  1  0  0  0
 61134  1  0  0  0
 61135  1  0  0  0
 62136  1  0  0  0
 62137  1  0  0  0
 62138  1  0  0  0
 63 65  1  0  0  0
 63139  1  0  0  0
 63140  1  0  0  0
 63141  1  0  0  0
 64142  1  0  0  0
 65143  1  0  0  0
 68 80  1  0  0  0
 71 72  2  0  0  0
 71 74  1  0  0  0
 71144  1  0  0  0
 72 75  1  0  0  0
 72145  1  0  0  0
 73 74  2  0  0  0
 73 76  1  0  0  0
 73146  1  0  0  0
 74 82  1  0  0  0
 75 76  2  0  0  0
 75 83  1  0  0  0
 76 84  1  0  0  0
 77147  1  0  0  0
 77148  1  0  0  0
 77149  1  0  0  0
 77 81  1  0  0  0
 78 79  1  0  0  0
 78150  1  0  0  0
 78151  1  0  0  0
 79 83  1  0  0  0
 79152  1  0  0  0
 79153  1  0  0  0
 80 81  1  0  0  0
 80154  1  0  0  0
 80155  1  0  0  0
 81 82  1  0  0  0
 81156  1  0  0  0
 82157  1  0  0  0
M  ISO  4   1 100  68 101  78 100  80 101
M  END
> <chiral flag>
0

> <version>
0

> <s_m_source_file>
/data/baiqing/PycharmProjects/Reinvent-master-3.2/result/LINK_invent/BTK/process_docking_weight1_custom_product_contain_oxygen_bond_distance_aromatic_linkinvent_7_9_3/rearranged_h_0013.sdf

> <i_m_source_file_index>
89

> <r_mmod_Potential_Energy-OPLS-2005>
-29.0475635528564

> <r_mmod_Stretch_Energy-OPLS-2005>
41.4351348876953

> <r_mmod_Bend_Energy-OPLS-2005>
125.686378479004

> <r_mmod_Torsional_Energy-OPLS-2005>
167.063140869141

> <r_mmod_Improper_Torsional_Energy-OPLS-2005>
2.87840723991394

> <r_mmod_Van_der_Waal_Energy-OPLS-2005>
158.681457519531

> <r_mmod_Electrostatic_Energy-OPLS-2005>
-338.072479248047

> <r_mmod_Solvation_Energy-OPLS-2005>
-201.178771972656

> <b_mmod_Minimization_Converged-OPLS-2005>
0

> <r_mmod_RMS_Derivative-OPLS-2005>
1.73572766780853

$$$$
90
                    3D
 Structure written by MMmdl.
155163  0  0  1  0            999 V2000
  -30.5350  -14.9169   20.4930 C   0  0  0  0  0  0
  -30.4332  -12.5796   19.4894 C   0  0  0  0  0  0
  -29.5060  -12.5235   18.2494 C   0  0  0  0  0  0
  -28.0391  -12.3100   18.6689 C   0  0  0  0  0  0
  -27.6283  -13.2366   19.8411 C   0  0  2  0  0  0
  -28.6657  -13.2120   20.9811 C   0  0  0  0  0  0
  -25.2439  -13.8221   20.5725 C   0  0  0  0  0  0
  -24.1744  -13.0426   20.9265 C   0  0  0  0  0  0
  -24.6382  -11.6928   20.8772 C   0  0  0  0  0  0
  -23.9092  -10.4274   21.0405 C   0  0  0  0  0  0
  -24.3658   -9.4196   21.9173 C   0  0  0  0  0  0
  -23.6332   -8.2216   22.0749 C   0  0  0  0  0  0
  -22.4291   -8.0266   21.3532 C   0  0  0  0  0  0
  -21.9920   -9.0249   20.4623 C   0  0  0  0  0  0
  -22.7271  -10.2128   20.3043 C   0  0  0  0  0  0
  -21.6843   -6.0746   22.5282 C   0  0  0  0  0  0
  -21.4010   -6.5656   23.8216 C   0  0  0  0  0  0
  -21.3656   -5.6811   24.9165 C   0  0  0  0  0  0
  -21.6054   -4.3066   24.7222 C   0  0  0  0  0  0
  -21.8834   -3.8158   23.4332 C   0  0  0  0  0  0
  -21.9193   -4.6980   22.3395 C   0  0  0  0  0  0
  -22.7757  -13.5165   21.1953 C   0  0  0  0  0  0
  -22.1654   -4.2160   21.0975 F   0  0  0  0  0  0
  -21.5638   -3.4569   25.7734 F   0  0  0  0  0  0
  -29.9510  -13.6496   20.4134 N   0  0  0  0  0  0
  -26.2845  -12.9442   20.3237 N   0  0  0  0  0  0
  -25.9300  -11.6573   20.5780 N   0  0  0  0  0  0
  -22.0466  -12.8087   22.0516 N   0  0  0  0  0  0
  -25.4128  -15.1954   20.4181 N   0  0  0  0  0  0
  -31.6602  -15.0433   19.9956 O   0  0  0  0  0  0
  -21.6640   -6.8870   21.4220 O   0  0  0  0  0  0
  -22.3380  -14.5444   20.6807 O   0  0  0  0  0  0
  -24.6416  -31.8431   23.1857 C   0  0  0  0  0  0
  -25.9195  -32.4685   23.8253 C   0  0  1  0  0  0
  -27.2173  -27.1406   20.1677 C   0  0  0  0  0  0
  -25.5930  -33.8496   24.2182 N   0  0  0  0  0  0
  -23.4465  -30.4598   21.5278 C   0  0  2  0  0  0
  -24.9007  -28.8919   20.0982 C   0  0  0  0  0  0
  -22.7582  -29.4546   22.4815 C   0  0  0  0  0  0
  -18.0374  -28.1361   22.8521 C   0  0  0  0  0  0
  -24.1500  -36.7273   23.2651 C   0  0  0  0  0  0
  -25.9985  -30.7183   21.3848 C   0  0  0  0  0  0
  -26.0693  -29.3287   20.7311 C   0  0  0  0  0  0
  -27.2256  -28.4660   20.7556 C   0  0  0  0  0  0
  -26.0287  -26.8107   19.4754 C   0  0  0  0  0  0
  -24.8945  -27.6484   19.4512 C   0  0  0  0  0  0
  -23.6700  -29.7805   20.1486 C   0  0  0  0  0  0
  -25.4136  -36.3033   24.0317 C   0  0  1  0  0  0
  -20.5972  -28.3681   23.1220 C   0  0  2  0  0  0
  -20.6838  -26.9392   22.5384 C   0  0  0  0  0  0
  -19.5749  -26.6385   21.5226 C   0  0  0  0  0  0
  -18.2011  -26.7857   22.1759 C   0  0  0  0  0  0
  -19.1636  -28.8829   23.2836 C   0  0  0  0  0  0
  -18.9571  -30.1441   23.8832 C   0  0  0  0  0  0
  -17.6591  -30.6581   24.0588 C   0  0  0  0  0  0
  -25.9073  -34.9407   23.5064 C   0  0  0  0  0  0
  -16.5484  -29.9055   23.6437 C   0  0  0  0  0  0
  -16.7371  -28.6500   23.0408 C   0  0  0  0  0  0
  -26.4530  -31.6549   25.0704 C   0  0  0  0  0  0
  -25.3707  -31.3725   26.1390 C   0  0  0  0  0  0
  -27.0365  -30.2930   24.6288 C   0  0  0  0  0  0
  -27.6021  -32.4339   25.7492 C   0  0  0  0  0  0
  -27.5581  -37.1778   24.8454 C   0  0  0  0  0  0
  -21.4273  -29.3028   22.3585 N   0  0  0  0  0  0
  -26.4307  -37.3731   23.9387 N   0  0  0  0  0  0
  -24.7150  -31.0289   22.0891 N   0  0  0  0  0  0
  -23.4276  -28.8166   23.2987 O   0  0  0  0  0  0
  -28.2682  -26.1634   20.2875 O   0  0  0  0  0  0
  -26.5698  -34.8886   22.4669 O   0  0  0  0  0  0
  -23.5548  -32.1325   23.7071 O   0  0  0  0  0  0
  -29.7508  -19.6138   19.4509 C   0  0  0  0  0  0
  -30.0126  -18.1992   19.6990 C   0  0  0  0  0  0
  -28.6042  -19.7981   21.4804 C   0  0  0  0  0  0
  -28.8160  -18.3779   21.7298 C   0  0  0  0  0  0
  -29.0471  -20.5085   20.3310 C   0  0  0  0  0  0
  -29.5876  -17.4771   20.8682 C   0  0  0  0  0  0
  -28.0608  -17.8726   22.9538 C   0  0  0  0  0  0
  -30.0878  -15.7178   22.6422 C   0  0  0  0  0  0
  -28.8454  -23.3029   20.5966 C   0  0  0  0  0  0
  -28.0563  -24.6557   19.9697 C   0  0  0  0  0  0
  -28.6254  -21.8910   19.9772 N   0  0  0  0  0  0
  -29.9121  -15.9899   21.2029 N   0  0  0  0  0  0
  -31.4633  -12.7425   19.1692 H   0  0  0  0  0  0
  -30.4383  -11.6164   19.9979 H   0  0  0  0  0  0
  -29.8172  -11.7189   17.5790 H   0  0  0  0  0  0
  -29.5899  -13.4505   17.6795 H   0  0  0  0  0  0
  -27.9325  -11.2660   18.9703 H   0  0  0  0  0  0
  -27.3680  -12.4461   17.8210 H   0  0  0  0  0  0
  -27.6106  -14.2510   19.4375 H   0  0  0  0  0  0
  -28.7487  -12.2123   21.4169 H   0  0  0  0  0  0
  -28.3370  -13.8589   21.7937 H   0  0  0  0  0  0
  -25.2817   -9.5697   22.4703 H   0  0  0  0  0  0
  -24.0076   -7.4611   22.7458 H   0  0  0  0  0  0
  -21.0852   -8.8790   19.8906 H   0  0  0  0  0  0
  -22.3759  -10.9679   19.6142 H   0  0  0  0  0  0
  -21.1997   -7.6183   23.9728 H   0  0  0  0  0  0
  -21.1452   -6.0530   25.9073 H   0  0  0  0  0  0
  -22.0604   -2.7624   23.2846 H   0  0  0  0  0  0
  -22.4169  -11.9750   22.4816 H   0  0  0  0  0  0
  -21.1048  -13.0975   22.2724 H   0  0  0  0  0  0
  -24.6432  -15.8479   20.5303 H   0  0  0  0  0  0
  -26.2752  -15.6448   20.1278 H   0  0  0  0  0  0
  -26.7275  -32.5303   23.0984 H   0  0  0  0  0  0
  -24.9877  -33.9594   25.0192 H   0  0  0  0  0  0
  -22.7482  -31.2840   21.3660 H   0  0  0  0  0  0
  -23.3732  -35.9621   23.3300 H   0  0  0  0  0  0
  -24.3580  -36.8944   22.2060 H   0  0  0  0  0  0
  -23.7262  -37.6474   23.6709 H   0  0  0  0  0  0
  -26.1562  -31.4629   20.6042 H   0  0  0  0  0  0
  -26.8713  -30.7771   22.0215 H   0  0  0  0  0  0
  -28.1061  -28.7853   21.2945 H   0  0  0  0  0  0
  -25.9306  -25.8643   18.9667 H   0  0  0  0  0  0
  -24.0055  -27.3159   18.9367 H   0  0  0  0  0  0
  -23.7733  -30.5416   19.3705 H   0  0  0  0  0  0
  -22.7904  -29.1947   19.8719 H   0  0  0  0  0  0
  -25.1314  -36.1863   25.0807 H   0  0  0  0  0  0
  -21.0113  -28.3262   24.1308 H   0  0  0  0  0  0
  -20.5798  -26.2275   23.3594 H   0  0  0  0  0  0
  -21.6654  -26.7360   22.1114 H   0  0  0  0  0  0
  -19.6932  -25.6314   21.1204 H   0  0  0  0  0  0
  -19.6648  -27.3241   20.6773 H   0  0  0  0  0  0
  -18.0584  -26.0111   22.9292 H   0  0  0  0  0  0
  -17.4195  -26.6454   21.4293 H   0  0  0  0  0  0
  -19.8073  -30.7273   24.2112 H   0  0  0  0  0  0
  -17.5209  -31.6277   24.5192 H   0  0  0  0  0  0
  -15.5505  -30.2969   23.7771 H   0  0  0  0  0  0
  -15.8757  -28.0837   22.7093 H   0  0  0  0  0  0
  -24.5888  -30.7097   25.7694 H   0  0  0  0  0  0
  -24.8912  -32.2905   26.4787 H   0  0  0  0  0  0
  -25.8008  -30.8898   27.0174 H   0  0  0  0  0  0
  -26.2950  -29.6640   24.1360 H   0  0  0  0  0  0
  -27.4007  -29.7266   25.4864 H   0  0  0  0  0  0
  -27.8866  -30.4123   23.9567 H   0  0  0  0  0  0
  -27.2574  -33.3631   26.2025 H   0  0  0  0  0  0
  -28.3852  -32.6937   25.0363 H   0  0  0  0  0  0
  -28.0676  -31.8521   26.5450 H   0  0  0  0  0  0
  -28.2582  -38.0087   24.7490 H   0  0  0  0  0  0
  -28.1100  -36.2609   24.6295 H   0  0  0  0  0  0
  -27.2299  -37.1447   25.8860 H   0  0  0  0  0  0
  -20.9481  -29.8641   21.6683 H   0  0  0  0  0  0
  -26.0176  -38.2812   24.1339 H   0  0  0  0  0  0
  -30.1061  -20.0131   18.5149 H   0  0  0  0  0  0
  -30.5578  -17.6617   18.9367 H   0  0  0  0  0  0
  -28.0054  -20.3640   22.1790 H   0  0  0  0  0  0
  -28.7152  -17.7456   23.8140 H   0  0  0  0  0  0
  -27.5431  -16.9428   22.7330 H   0  0  0  0  0  0
  -27.2828  -18.5700   23.2650 H   0  0  0  0  0  0
  -29.1564  -15.4242   23.1219 H   0  0  0  0  0  0
  -30.8201  -14.9389   22.8748 H   0  0  0  0  0  0
  -30.4794  -16.5972   23.1491 H   0  0  0  0  0  0
  -28.5723  -23.2183   21.6521 H   0  0  0  0  0  0
  -29.9208  -23.5020   20.5964 H   0  0  0  0  0  0
  -28.1762  -24.6037   18.8860 H   0  0  0  0  0  0
  -27.0072  -24.4331   20.1505 H   0  0  0  0  0  0
  -27.7257  -21.8733   19.4951 H   0  0  0  0  0  0
  1 25  1  0  0  0
  1 30  2  0  0  0
  1 82  1  0  0  0
  2  3  1  0  0  0
  2 25  1  0  0  0
  2 83  1  0  0  0
  2 84  1  0  0  0
  3  4  1  0  0  0
  3 85  1  0  0  0
  3 86  1  0  0  0
  4  5  1  0  0  0
  4 87  1  0  0  0
  4 88  1  0  0  0
  5  6  1  0  0  0
  5 26  1  0  0  0
  5 89  1  0  0  0
  6 25  1  0  0  0
  6 90  1  0  0  0
  6 91  1  0  0  0
  7  8  2  0  0  0
  7 26  1  0  0  0
  7 29  1  0  0  0
  8  9  1  0  0  0
  8 22  1  0  0  0
  9 10  1  0  0  0
  9 27  2  0  0  0
 10 11  2  0  0  0
 10 15  1  0  0  0
 11 12  1  0  0  0
 11 92  1  0  0  0
 12 13  2  0  0  0
 12 93  1  0  0  0
 13 14  1  0  0  0
 13 31  1  0  0  0
 14 15  2  0  0  0
 14 94  1  0  0  0
 15 95  1  0  0  0
 16 17  2  0  0  0
 16 21  1  0  0  0
 16 31  1  0  0  0
 17 18  1  0  0  0
 17 96  1  0  0  0
 18 19  2  0  0  0
 18 97  1  0  0  0
 19 20  1  0  0  0
 19 24  1  0  0  0
 20 21  2  0  0  0
 20 98  1  0  0  0
 21 23  1  0  0  0
 22 28  1  0  0  0
 22 32  2  0  0  0
 26 27  1  0  0  0
 28 99  1  0  0  0
 28100  1  0  0  0
 29101  1  0  0  0
 29102  1  0  0  0
 33 34  1  0  0  0
 33 66  1  0  0  0
 33 70  2  0  0  0
 34 36  1  0  0  0
 34 59  1  0  0  0
 34103  1  0  0  0
 35 44  2  0  0  0
 35 45  1  0  0  0
 35 68  1  0  0  0
 36 56  1  0  0  0
 36104  1  0  0  0
 37 39  1  0  0  0
 37 47  1  0  0  0
 37 66  1  0  0  0
 37105  1  0  0  0
 38 43  2  0  0  0
 38 46  1  0  0  0
 38 47  1  0  0  0
 39 64  1  0  0  0
 39 67  2  0  0  0
 40 52  1  0  0  0
 40 53  2  0  0  0
 40 58  1  0  0  0
 41106  1  0  0  0
 41107  1  0  0  0
 41108  1  0  0  0
 41 48  1  0  0  0
 42 43  1  0  0  0
 42 66  1  0  0  0
 42109  1  0  0  0
 42110  1  0  0  0
 43 44  1  0  0  0
 44111  1  0  0  0
 45 46  2  0  0  0
 45112  1  0  0  0
 46113  1  0  0  0
 47114  1  0  0  0
 47115  1  0  0  0
 48 56  1  0  0  0
 48 65  1  0  0  0
 48116  1  0  0  0
 49 50  1  0  0  0
 49 53  1  0  0  0
 49 64  1  0  0  0
 49117  1  0  0  0
 50 51  1  0  0  0
 50118  1  0  0  0
 50119  1  0  0  0
 51 52  1  0  0  0
 51120  1  0  0  0
 51121  1  0  0  0
 52122  1  0  0  0
 52123  1  0  0  0
 53 54  1  0  0  0
 54 55  2  0  0  0
 54124  1  0  0  0
 55 57  1  0  0  0
 55125  1  0  0  0
 56 69  2  0  0  0
 57 58  2  0  0  0
 57126  1  0  0  0
 58127  1  0  0  0
 59 60  1  0  0  0
 59 61  1  0  0  0
 59 62  1  0  0  0
 60128  1  0  0  0
 60129  1  0  0  0
 60130  1  0  0  0
 61131  1  0  0  0
 61132  1  0  0  0
 61133  1  0  0  0
 62134  1  0  0  0
 62135  1  0  0  0
 62136  1  0  0  0
 63 65  1  0  0  0
 63137  1  0  0  0
 63138  1  0  0  0
 63139  1  0  0  0
 64140  1  0  0  0
 65141  1  0  0  0
 68 80  1  0  0  0
 71 72  2  0  0  0
 71 75  1  0  0  0
 71142  1  0  0  0
 72 76  1  0  0  0
 72143  1  0  0  0
 73 74  1  0  0  0
 73 75  2  0  0  0
 73144  1  0  0  0
 74 76  2  0  0  0
 74 77  1  0  0  0
 75 81  1  0  0  0
 76 82  1  0  0  0
 77145  1  0  0  0
 77146  1  0  0  0
 77147  1  0  0  0
 78 82  1  0  0  0
 78148  1  0  0  0
 78149  1  0  0  0
 78150  1  0  0  0
 79 80  1  0  0  0
 79 81  1  0  0  0
 79151  1  0  0  0
 79152  1  0  0  0
 80153  1  0  0  0
 80154  1  0  0  0
 81155  1  0  0  0
M  ISO  4   1 100  68 101  80 101  82 100
M  END
> <chiral flag>
0

> <version>
0

> <s_m_source_file>
/data/baiqing/PycharmProjects/Reinvent-master-3.2/result/LINK_invent/BTK/process_docking_weight1_custom_product_contain_oxygen_bond_distance_aromatic_linkinvent_7_9_3/rearranged_h_0013.sdf

> <i_m_source_file_index>
90

> <r_mmod_Potential_Energy-OPLS-2005>
649.271728515625

> <r_mmod_Stretch_Energy-OPLS-2005>
238.918319702148

> <r_mmod_Bend_Energy-OPLS-2005>
280.30859375

> <r_mmod_Torsional_Energy-OPLS-2005>
306.377075195312

> <r_mmod_Improper_Torsional_Energy-OPLS-2005>
7.72972106933594

> <r_mmod_Van_der_Waal_Energy-OPLS-2005>
150.599716186523

> <r_mmod_Electrostatic_Energy-OPLS-2005>
-312.903289794922

> <r_mmod_Solvation_Energy-OPLS-2005>
-203.92724609375

> <b_mmod_Minimization_Converged-OPLS-2005>
0

> <r_mmod_RMS_Derivative-OPLS-2005>
6.65946006774902

$$$$
91
                    3D
 Structure written by MMmdl.
151159  0  0  1  0            999 V2000
  -30.6215  -14.6467   20.4927 C   0  0  0  0  0  0
  -30.4407  -12.3957   19.4503 C   0  0  0  0  0  0
  -29.5080  -12.5074   18.2234 C   0  0  0  0  0  0
  -28.0310  -12.3448   18.6369 C   0  0  0  0  0  0
  -27.6531  -13.2179   19.8634 C   0  0  2  0  0  0
  -28.7004  -13.0767   20.9916 C   0  0  0  0  0  0
  -25.2552  -13.8167   20.5692 C   0  0  0  0  0  0
  -24.1817  -13.0425   20.9166 C   0  0  0  0  0  0
  -24.6396  -11.6902   20.8726 C   0  0  0  0  0  0
  -23.9065  -10.4286   21.0398 C   0  0  0  0  0  0
  -24.3615   -9.4205   21.9181 C   0  0  0  0  0  0
  -23.6291   -8.2241   22.0754 C   0  0  0  0  0  0
  -22.4273   -8.0278   21.3545 C   0  0  0  0  0  0
  -21.9906   -9.0250   20.4646 C   0  0  0  0  0  0
  -22.7236  -10.2128   20.3050 C   0  0  0  0  0  0
  -21.6852   -6.0733   22.5280 C   0  0  0  0  0  0
  -21.4013   -6.5637   23.8213 C   0  0  0  0  0  0
  -21.3660   -5.6791   24.9175 C   0  0  0  0  0  0
  -21.6045   -4.3053   24.7225 C   0  0  0  0  0  0
  -21.8819   -3.8144   23.4346 C   0  0  0  0  0  0
  -21.9192   -4.6961   22.3403 C   0  0  0  0  0  0
  -22.7841  -13.5220   21.1842 C   0  0  0  0  0  0
  -22.1662   -4.2147   21.0981 F   0  0  0  0  0  0
  -21.5630   -3.4537   25.7739 F   0  0  0  0  0  0
  -30.0151  -13.4189   20.4251 N   0  0  0  0  0  0
  -26.2995  -12.9359   20.3338 N   0  0  0  0  0  0
  -25.9330  -11.6508   20.5761 N   0  0  0  0  0  0
  -22.0489  -12.8217   22.0407 N   0  0  0  0  0  0
  -25.4214  -15.1896   20.4180 N   0  0  0  0  0  0
  -31.7915  -14.8056   20.1326 O   0  0  0  0  0  0
  -21.6637   -6.8876   21.4242 O   0  0  0  0  0  0
  -22.3520  -14.5528   20.6698 O   0  0  0  0  0  0
  -24.6266  -31.8601   23.2031 C   0  0  0  0  0  0
  -25.9113  -32.4780   23.8358 C   0  0  1  0  0  0
  -27.2236  -27.3176   20.1118 C   0  0  0  0  0  0
  -25.5926  -33.8581   24.2283 N   0  0  0  0  0  0
  -23.4199  -30.4850   21.5463 C   0  0  2  0  0  0
  -24.8656  -28.9422   20.1113 C   0  0  0  0  0  0
  -22.7476  -29.4628   22.4939 C   0  0  0  0  0  0
  -18.0286  -28.1384   22.8487 C   0  0  0  0  0  0
  -24.1489  -36.7296   23.2639 C   0  0  0  0  0  0
  -25.9621  -30.7907   21.3744 C   0  0  0  0  0  0
  -26.0362  -29.4188   20.7147 C   0  0  0  0  0  0
  -27.2183  -28.6189   20.7045 C   0  0  0  0  0  0
  -26.0260  -26.8968   19.4857 C   0  0  0  0  0  0
  -24.8626  -27.6866   19.4884 C   0  0  0  0  0  0
  -23.6342  -29.8222   20.1610 C   0  0  0  0  0  0
  -25.4113  -36.3085   24.0330 C   0  0  1  0  0  0
  -20.5886  -28.3689   23.1283 C   0  0  2  0  0  0
  -20.6775  -26.9414   22.5408 C   0  0  0  0  0  0
  -19.5750  -26.6385   21.5212 C   0  0  0  0  0  0
  -18.1931  -26.7926   22.1626 C   0  0  0  0  0  0
  -19.1538  -28.8853   23.2880 C   0  0  0  0  0  0
  -18.9460  -30.1455   23.8897 C   0  0  0  0  0  0
  -17.6461  -30.6587   24.0563 C   0  0  0  0  0  0
  -25.9051  -34.9454   23.5107 C   0  0  0  0  0  0
  -16.5352  -29.9086   23.6329 C   0  0  0  0  0  0
  -16.7273  -28.6503   23.0352 C   0  0  0  0  0  0
  -26.4494  -31.6587   25.0728 C   0  0  0  0  0  0
  -25.3727  -31.3725   26.1454 C   0  0  0  0  0  0
  -27.0334  -30.3010   24.6182 C   0  0  0  0  0  0
  -27.6054  -32.4320   25.7498 C   0  0  0  0  0  0
  -27.5580  -37.1804   24.8465 C   0  0  0  0  0  0
  -21.4189  -29.3045   22.3680 N   0  0  0  0  0  0
  -26.4293  -37.3779   23.9407 N   0  0  0  0  0  0
  -24.6885  -31.0614   22.0981 N   0  0  0  0  0  0
  -23.4201  -28.8163   23.3014 O   0  0  0  0  0  0
  -28.3403  -26.4633   20.1602 O   0  0  0  0  0  0
  -26.5620  -34.8919   22.4674 O   0  0  0  0  0  0
  -23.5429  -32.1399   23.7358 O   0  0  0  0  0  0
  -31.1180  -17.8849   20.6034 C   0  0  0  0  0  0
  -31.1123  -19.3107   20.5262 C   0  0  0  0  0  0
  -28.7106  -19.3389   20.5192 C   0  0  0  0  0  0
  -29.9083  -17.1463   20.6525 C   0  0  0  0  0  0
  -29.9190  -20.0843   20.4854 C   0  0  0  0  0  0
  -28.7114  -17.9126   20.6067 C   0  0  0  0  0  0
  -29.2528  -23.9564   20.3436 C   0  0  0  0  0  0
  -28.1015  -25.0048   20.0220 C   0  0  0  0  0  0
  -28.8904  -22.3990   20.2827 C   0  0  0  0  0  0
  -29.7931  -15.6941   20.7921 N   0  0  0  0  0  0
  -30.0305  -21.4919   20.4337 O   0  0  0  0  0  0
  -27.5271  -17.2553   20.6481 F   0  0  0  0  0  0
  -31.4812  -12.5238   19.1468 H   0  0  0  0  0  0
  -30.3783  -11.4007   19.8940 H   0  0  0  0  0  0
  -29.7724  -11.7555   17.4787 H   0  0  0  0  0  0
  -29.6485  -13.4764   17.7417 H   0  0  0  0  0  0
  -27.8691  -11.2920   18.8707 H   0  0  0  0  0  0
  -27.3755  -12.5722   17.7955 H   0  0  0  0  0  0
  -27.6666  -14.2522   19.5190 H   0  0  0  0  0  0
  -28.7131  -12.0565   21.3781 H   0  0  0  0  0  0
  -28.4480  -13.7124   21.8419 H   0  0  0  0  0  0
  -25.2760   -9.5683   22.4755 H   0  0  0  0  0  0
  -23.9999   -7.4633   22.7474 H   0  0  0  0  0  0
  -21.0836   -8.8767   19.8954 H   0  0  0  0  0  0
  -22.3693  -10.9665   19.6157 H   0  0  0  0  0  0
  -21.2003   -7.6146   23.9716 H   0  0  0  0  0  0
  -21.1485   -6.0521   25.9079 H   0  0  0  0  0  0
  -22.0598   -2.7606   23.2846 H   0  0  0  0  0  0
  -22.4103  -11.9877   22.4793 H   0  0  0  0  0  0
  -21.1112  -13.1253   22.2622 H   0  0  0  0  0  0
  -24.6550  -15.8367   20.5619 H   0  0  0  0  0  0
  -26.2902  -15.6637   20.1983 H   0  0  0  0  0  0
  -26.7180  -32.5450   23.1107 H   0  0  0  0  0  0
  -25.0065  -33.9725   25.0423 H   0  0  0  0  0  0
  -22.7139  -31.3059   21.4047 H   0  0  0  0  0  0
  -23.3749  -35.9632   23.3306 H   0  0  0  0  0  0
  -24.3580  -36.8912   22.2052 H   0  0  0  0  0  0
  -23.7246  -37.6502   23.6657 H   0  0  0  0  0  0
  -26.0942  -31.5552   20.6075 H   0  0  0  0  0  0
  -26.8423  -30.8379   22.0041 H   0  0  0  0  0  0
  -28.1158  -28.9808   21.1864 H   0  0  0  0  0  0
  -25.9527  -25.9397   18.9927 H   0  0  0  0  0  0
  -23.9657  -27.3159   19.0113 H   0  0  0  0  0  0
  -23.7534  -30.5997   19.4055 H   0  0  0  0  0  0
  -22.7537  -29.2525   19.8581 H   0  0  0  0  0  0
  -25.1293  -36.1940   25.0823 H   0  0  0  0  0  0
  -20.9979  -28.3261   24.1404 H   0  0  0  0  0  0
  -20.5679  -26.2299   23.3607 H   0  0  0  0  0  0
  -21.6643  -26.7445   22.1199 H   0  0  0  0  0  0
  -19.6913  -25.6296   21.1242 H   0  0  0  0  0  0
  -19.6686  -27.3195   20.6741 H   0  0  0  0  0  0
  -17.4200  -26.6671   21.4030 H   0  0  0  0  0  0
  -18.0335  -26.0069   22.9023 H   0  0  0  0  0  0
  -19.7937  -30.7270   24.2269 H   0  0  0  0  0  0
  -17.5016  -31.6267   24.5164 H   0  0  0  0  0  0
  -15.5352  -30.2988   23.7651 H   0  0  0  0  0  0
  -15.8672  -28.0822   22.7068 H   0  0  0  0  0  0
  -24.5898  -30.7080   25.7780 H   0  0  0  0  0  0
  -24.8923  -32.2892   26.4885 H   0  0  0  0  0  0
  -25.8050  -30.8895   27.0226 H   0  0  0  0  0  0
  -26.2907  -29.6762   24.1207 H   0  0  0  0  0  0
  -27.4029  -29.7264   25.4687 H   0  0  0  0  0  0
  -27.8779  -30.4291   23.9407 H   0  0  0  0  0  0
  -27.2666  -33.3618   26.2077 H   0  0  0  0  0  0
  -28.3864  -32.6881   25.0327 H   0  0  0  0  0  0
  -28.0722  -31.8443   26.5414 H   0  0  0  0  0  0
  -28.2599  -38.0100   24.7509 H   0  0  0  0  0  0
  -28.1073  -36.2631   24.6294 H   0  0  0  0  0  0
  -27.2298  -37.1456   25.8868 H   0  0  0  0  0  0
  -20.9367  -29.8773   21.6895 H   0  0  0  0  0  0
  -26.0176  -38.2855   24.1401 H   0  0  0  0  0  0
  -32.0671  -17.3700   20.6429 H   0  0  0  0  0  0
  -32.0626  -19.8258   20.5039 H   0  0  0  0  0  0
  -27.7601  -19.8494   20.4918 H   0  0  0  0  0  0
  -29.6470  -24.1729   21.3364 H   0  0  0  0  0  0
  -30.0761  -24.1424   19.6539 H   0  0  0  0  0  0
  -27.2506  -24.7435   20.6531 H   0  0  0  0  0  0
  -27.7948  -24.8125   18.9934 H   0  0  0  0  0  0
  -28.4094  -22.1808   19.3285 H   0  0  0  0  0  0
  -28.1566  -22.1770   21.0583 H   0  0  0  0  0  0
  -28.8555  -15.3945   21.0126 H   0  0  0  0  0  0
  1 25  1  0  0  0
  1 30  2  0  0  0
  1 80  1  0  0  0
  2  3  1  0  0  0
  2 25  1  0  0  0
  2 83  1  0  0  0
  2 84  1  0  0  0
  3  4  1  0  0  0
  3 85  1  0  0  0
  3 86  1  0  0  0
  4  5  1  0  0  0
  4 87  1  0  0  0
  4 88  1  0  0  0
  5  6  1  0  0  0
  5 26  1  0  0  0
  5 89  1  0  0  0
  6 25  1  0  0  0
  6 90  1  0  0  0
  6 91  1  0  0  0
  7  8  2  0  0  0
  7 26  1  0  0  0
  7 29  1  0  0  0
  8  9  1  0  0  0
  8 22  1  0  0  0
  9 10  1  0  0  0
  9 27  2  0  0  0
 10 11  2  0  0  0
 10 15  1  0  0  0
 11 12  1  0  0  0
 11 92  1  0  0  0
 12 13  2  0  0  0
 12 93  1  0  0  0
 13 14  1  0  0  0
 13 31  1  0  0  0
 14 15  2  0  0  0
 14 94  1  0  0  0
 15 95  1  0  0  0
 16 17  2  0  0  0
 16 21  1  0  0  0
 16 31  1  0  0  0
 17 18  1  0  0  0
 17 96  1  0  0  0
 18 19  2  0  0  0
 18 97  1  0  0  0
 19 20  1  0  0  0
 19 24  1  0  0  0
 20 21  2  0  0  0
 20 98  1  0  0  0
 21 23  1  0  0  0
 22 28  1  0  0  0
 22 32  2  0  0  0
 26 27  1  0  0  0
 28 99  1  0  0  0
 28100  1  0  0  0
 29101  1  0  0  0
 29102  1  0  0  0
 33 34  1  0  0  0
 33 66  1  0  0  0
 33 70  2  0  0  0
 34 36  1  0  0  0
 34 59  1  0  0  0
 34103  1  0  0  0
 35 44  2  0  0  0
 35 45  1  0  0  0
 35 68  1  0  0  0
 36 56  1  0  0  0
 36104  1  0  0  0
 37 39  1  0  0  0
 37 47  1  0  0  0
 37 66  1  0  0  0
 37105  1  0  0  0
 38 43  2  0  0  0
 38 46  1  0  0  0
 38 47  1  0  0  0
 39 64  1  0  0  0
 39 67  2  0  0  0
 40 52  1  0  0  0
 40 53  2  0  0  0
 40 58  1  0  0  0
 41106  1  0  0  0
 41107  1  0  0  0
 41108  1  0  0  0
 41 48  1  0  0  0
 42 43  1  0  0  0
 42 66  1  0  0  0
 42109  1  0  0  0
 42110  1  0  0  0
 43 44  1  0  0  0
 44111  1  0  0  0
 45 46  2  0  0  0
 45112  1  0  0  0
 46113  1  0  0  0
 47114  1  0  0  0
 47115  1  0  0  0
 48 56  1  0  0  0
 48 65  1  0  0  0
 48116  1  0  0  0
 49 50  1  0  0  0
 49 53  1  0  0  0
 49 64  1  0  0  0
 49117  1  0  0  0
 50 51  1  0  0  0
 50118  1  0  0  0
 50119  1  0  0  0
 51 52  1  0  0  0
 51120  1  0  0  0
 51121  1  0  0  0
 52122  1  0  0  0
 52123  1  0  0  0
 53 54  1  0  0  0
 54 55  2  0  0  0
 54124  1  0  0  0
 55 57  1  0  0  0
 55125  1  0  0  0
 56 69  2  0  0  0
 57 58  2  0  0  0
 57126  1  0  0  0
 58127  1  0  0  0
 59 60  1  0  0  0
 59 61  1  0  0  0
 59 62  1  0  0  0
 60128  1  0  0  0
 60129  1  0  0  0
 60130  1  0  0  0
 61131  1  0  0  0
 61132  1  0  0  0
 61133  1  0  0  0
 62134  1  0  0  0
 62135  1  0  0  0
 62136  1  0  0  0
 63 65  1  0  0  0
 63137  1  0  0  0
 63138  1  0  0  0
 63139  1  0  0  0
 64140  1  0  0  0
 65141  1  0  0  0
 68 78  1  0  0  0
 71 72  2  0  0  0
 71 74  1  0  0  0
 71142  1  0  0  0
 72 75  1  0  0  0
 72143  1  0  0  0
 73 75  2  0  0  0
 73 76  1  0  0  0
 73144  1  0  0  0
 74 76  2  0  0  0
 74 80  1  0  0  0
 75 81  1  0  0  0
 76 82  1  0  0  0
 77 78  1  0  0  0
 77 79  1  0  0  0
 77145  1  0  0  0
 77146  1  0  0  0
 78147  1  0  0  0
 78148  1  0  0  0
 79 81  1  0  0  0
 79149  1  0  0  0
 79150  1  0  0  0
 80151  1  0  0  0
M  ISO  4   1 100  68 101  78 101  80 100
M  END
> <chiral flag>
0

> <version>
0

> <s_m_source_file>
/data/baiqing/PycharmProjects/Reinvent-master-3.2/result/LINK_invent/BTK/process_docking_weight1_custom_product_contain_oxygen_bond_distance_aromatic_linkinvent_7_9_3/rearranged_h_0013.sdf

> <i_m_source_file_index>
91

> <r_mmod_Potential_Energy-OPLS-2005>
8.48562717437744

> <r_mmod_Stretch_Energy-OPLS-2005>
78.0414810180664

> <r_mmod_Bend_Energy-OPLS-2005>
145.352081298828

> <r_mmod_Torsional_Energy-OPLS-2005>
209.226409912109

> <r_mmod_Improper_Torsional_Energy-OPLS-2005>
4.5839262008667

> <r_mmod_Van_der_Waal_Energy-OPLS-2005>
144.377670288086

> <r_mmod_Electrostatic_Energy-OPLS-2005>
-422.268218994141

> <r_mmod_Solvation_Energy-OPLS-2005>
-201.274765014648

> <b_mmod_Minimization_Converged-OPLS-2005>
0

> <r_mmod_RMS_Derivative-OPLS-2005>
0.238112762570381

$$$$
92
                    3D
 Structure written by MMmdl.
163172  0  0  1  0            999 V2000
  -30.7558  -14.4053   20.6304 C   0  0  0  0  0  0
  -30.4137  -12.2979   19.3945 C   0  0  0  0  0  0
  -29.4785  -12.5058   18.1891 C   0  0  0  0  0  0
  -28.0045  -12.3546   18.6122 C   0  0  0  0  0  0
  -27.6560  -13.1930   19.8696 C   0  0  2  0  0  0
  -28.7024  -12.9793   20.9849 C   0  0  0  0  0  0
  -25.2595  -13.8132   20.5693 C   0  0  0  0  0  0
  -24.1826  -13.0428   20.9172 C   0  0  0  0  0  0
  -24.6360  -11.6887   20.8738 C   0  0  0  0  0  0
  -23.9028  -10.4282   21.0410 C   0  0  0  0  0  0
  -24.3592   -9.4202   21.9186 C   0  0  0  0  0  0
  -23.6273   -8.2236   22.0755 C   0  0  0  0  0  0
  -22.4257   -8.0272   21.3542 C   0  0  0  0  0  0
  -21.9883   -9.0243   20.4647 C   0  0  0  0  0  0
  -22.7204  -10.2125   20.3057 C   0  0  0  0  0  0
  -21.6849   -6.0726   22.5278 C   0  0  0  0  0  0
  -21.4009   -6.5634   23.8209 C   0  0  0  0  0  0
  -21.3659   -5.6792   24.9175 C   0  0  0  0  0  0
  -21.6045   -4.3054   24.7229 C   0  0  0  0  0  0
  -21.8819   -3.8141   23.4352 C   0  0  0  0  0  0
  -21.9191   -4.6953   22.3405 C   0  0  0  0  0  0
  -22.7859  -13.5246   21.1842 C   0  0  0  0  0  0
  -22.1662   -4.2140   21.0982 F   0  0  0  0  0  0
  -21.5631   -3.4540   25.7742 F   0  0  0  0  0  0
  -30.0326  -13.2732   20.4241 N   0  0  0  0  0  0
  -26.2998  -12.9259   20.3370 N   0  0  0  0  0  0
  -25.9278  -11.6434   20.5770 N   0  0  0  0  0  0
  -22.0495  -12.8244   22.0400 N   0  0  0  0  0  0
  -25.4365  -15.1845   20.4134 N   0  0  0  0  0  0
  -31.8662  -14.6040   20.1331 O   0  0  0  0  0  0
  -21.6631   -6.8865   21.4237 O   0  0  0  0  0  0
  -22.3550  -14.5556   20.6696 O   0  0  0  0  0  0
  -24.6128  -31.8698   23.2121 C   0  0  0  0  0  0
  -25.9032  -32.4831   23.8409 C   0  0  1  0  0  0
  -27.2317  -27.4602   20.0864 C   0  0  0  0  0  0
  -25.5902  -33.8630   24.2344 N   0  0  0  0  0  0
  -23.3991  -30.4942   21.5528 C   0  0  2  0  0  0
  -24.8432  -28.9644   20.1155 C   0  0  0  0  0  0
  -22.7407  -29.4663   22.5005 C   0  0  0  0  0  0
  -18.0274  -28.1375   22.8500 C   0  0  0  0  0  0
  -24.1489  -36.7322   23.2638 C   0  0  0  0  0  0
  -25.9252  -30.8446   21.3596 C   0  0  0  0  0  0
  -26.0035  -29.4821   20.7042 C   0  0  0  0  0  0
  -27.2037  -28.7395   20.6813 C   0  0  0  0  0  0
  -26.0521  -26.9473   19.5023 C   0  0  0  0  0  0
  -24.8607  -27.6949   19.5126 C   0  0  0  0  0  0
  -23.6050  -29.8285   20.1663 C   0  0  0  0  0  0
  -25.4107  -36.3118   24.0340 C   0  0  1  0  0  0
  -20.5867  -28.3648   23.1322 C   0  0  2  0  0  0
  -20.6765  -26.9392   22.5406 C   0  0  0  0  0  0
  -19.5733  -26.6377   21.5213 C   0  0  0  0  0  0
  -18.1923  -26.7918   22.1642 C   0  0  0  0  0  0
  -19.1528  -28.8827   23.2913 C   0  0  0  0  0  0
  -18.9465  -30.1431   23.8930 C   0  0  0  0  0  0
  -17.6471  -30.6578   24.0585 C   0  0  0  0  0  0
  -25.9032  -34.9482   23.5137 C   0  0  0  0  0  0
  -16.5357  -29.9093   23.6335 C   0  0  0  0  0  0
  -16.7266  -28.6511   23.0351 C   0  0  0  0  0  0
  -26.4470  -31.6598   25.0725 C   0  0  0  0  0  0
  -25.3750  -31.3689   26.1484 C   0  0  0  0  0  0
  -27.0298  -30.3050   24.6073 C   0  0  0  0  0  0
  -27.6058  -32.4305   25.7476 C   0  0  0  0  0  0
  -27.5581  -37.1816   24.8465 C   0  0  0  0  0  0
  -21.4139  -29.3021   22.3738 N   0  0  0  0  0  0
  -26.4299  -37.3797   23.9405 N   0  0  0  0  0  0
  -24.6642  -31.0827   22.1005 N   0  0  0  0  0  0
  -23.4193  -28.8211   23.3041 O   0  0  0  0  0  0
  -28.4019  -26.7370   20.0875 O   0  0  0  0  0  0
  -26.5587  -34.8927   22.4693 O   0  0  0  0  0  0
  -23.5330  -32.1433   23.7538 O   0  0  0  0  0  0
  -28.2040  -17.5490   18.9879 C   0  0  0  0  0  0
  -27.9908  -18.3925   21.2552 C   0  0  0  0  0  0
  -29.0175  -16.4984   19.4511 C   0  0  0  0  0  0
  -28.7983  -17.3369   21.7231 C   0  0  0  0  0  0
  -27.6911  -18.5162   19.8778 C   0  0  0  0  0  0
  -29.3206  -16.3808   20.8292 C   0  0  0  0  0  0
  -27.4942  -21.9965   19.2769 C   0  0  0  0  0  0
  -24.7163  -20.3412   18.7630 C   0  0  0  0  0  0
  -25.2175  -21.1142   19.9826 C   0  0  0  0  0  0
  -25.6334  -19.1189   18.7221 C   0  0  0  0  0  0
  -26.7344  -20.8572   19.9917 C   0  0  1  0  0  0
  -28.3220  -24.3328   19.5042 C   0  0  0  0  0  0
  -28.2913  -25.4092   20.6047 C   0  0  0  0  0  0
  -26.8778  -19.5409   19.3577 N   0  0  0  0  0  0
  -30.1656  -15.3647   21.3556 N   0  0  0  0  0  0
  -27.7431  -23.0894   20.0045 N   0  0  0  0  0  0
  -27.8178  -21.9056   18.0900 O   0  0  0  0  0  0
  -31.4561  -12.3964   19.0851 H   0  0  0  0  0  0
  -30.3154  -11.2849   19.7881 H   0  0  0  0  0  0
  -29.7151  -11.7891   17.4017 H   0  0  0  0  0  0
  -29.6403  -13.4959   17.7602 H   0  0  0  0  0  0
  -27.8241  -11.2981   18.8124 H   0  0  0  0  0  0
  -27.3454  -12.6232   17.7857 H   0  0  0  0  0  0
  -27.6897  -14.2350   19.5657 H   0  0  0  0  0  0
  -28.6774  -11.9478   21.3383 H   0  0  0  0  0  0
  -28.4633  -13.5920   21.8549 H   0  0  0  0  0  0
  -25.2740   -9.5682   22.4755 H   0  0  0  0  0  0
  -23.9986   -7.4628   22.7473 H   0  0  0  0  0  0
  -21.0815   -8.8753   19.8953 H   0  0  0  0  0  0
  -22.3659  -10.9661   19.6166 H   0  0  0  0  0  0
  -21.1997   -7.6141   23.9710 H   0  0  0  0  0  0
  -21.1484   -6.0524   25.9078 H   0  0  0  0  0  0
  -22.0598   -2.7602   23.2859 H   0  0  0  0  0  0
  -22.4102  -11.9899   22.4782 H   0  0  0  0  0  0
  -21.1122  -13.1287   22.2617 H   0  0  0  0  0  0
  -24.6822  -15.8472   20.5501 H   0  0  0  0  0  0
  -26.3138  -15.6215   20.1604 H   0  0  0  0  0  0
  -26.7100  -32.5550   23.1176 H   0  0  0  0  0  0
  -25.0075  -33.9796   25.0505 H   0  0  0  0  0  0
  -22.6865  -31.3100   21.4171 H   0  0  0  0  0  0
  -23.3746  -35.9662   23.3316 H   0  0  0  0  0  0
  -24.3586  -36.8919   22.2050 H   0  0  0  0  0  0
  -23.7248  -37.6536   23.6635 H   0  0  0  0  0  0
  -26.0333  -31.6135   20.5931 H   0  0  0  0  0  0
  -26.8144  -30.8965   21.9761 H   0  0  0  0  0  0
  -28.1019  -29.1372   21.1328 H   0  0  0  0  0  0
  -26.0400  -25.9741   19.0359 H   0  0  0  0  0  0
  -23.9668  -27.2890   19.0593 H   0  0  0  0  0  0
  -23.7123  -30.6047   19.4074 H   0  0  0  0  0  0
  -22.7293  -29.2484   19.8697 H   0  0  0  0  0  0
  -25.1282  -36.1993   25.0833 H   0  0  0  0  0  0
  -20.9969  -28.3202   24.1438 H   0  0  0  0  0  0
  -20.5683  -26.2256   23.3587 H   0  0  0  0  0  0
  -21.6632  -26.7444   22.1181 H   0  0  0  0  0  0
  -19.6885  -25.6288   21.1238 H   0  0  0  0  0  0
  -19.6661  -27.3189   20.6743 H   0  0  0  0  0  0
  -17.4176  -26.6645   21.4061 H   0  0  0  0  0  0
  -18.0363  -26.0066   22.9052 H   0  0  0  0  0  0
  -19.7948  -30.7227   24.2317 H   0  0  0  0  0  0
  -17.5035  -31.6252   24.5204 H   0  0  0  0  0  0
  -15.5363  -30.3009   23.7649 H   0  0  0  0  0  0
  -15.8659  -28.0848   22.7053 H   0  0  0  0  0  0
  -24.5921  -30.7037   25.7822 H   0  0  0  0  0  0
  -24.8945  -32.2839   26.4955 H   0  0  0  0  0  0
  -25.8123  -30.8843   27.0223 H   0  0  0  0  0  0
  -26.2835  -29.6812   24.1140 H   0  0  0  0  0  0
  -27.4105  -29.7279   25.4509 H   0  0  0  0  0  0
  -27.8650  -30.4391   23.9194 H   0  0  0  0  0  0
  -27.2691  -33.3589   26.2100 H   0  0  0  0  0  0
  -28.3838  -32.6888   25.0279 H   0  0  0  0  0  0
  -28.0758  -31.8399   26.5350 H   0  0  0  0  0  0
  -28.2608  -38.0102   24.7499 H   0  0  0  0  0  0
  -28.1067  -36.2636   24.6303 H   0  0  0  0  0  0
  -27.2300  -37.1482   25.8869 H   0  0  0  0  0  0
  -20.9297  -29.8738   21.6960 H   0  0  0  0  0  0
  -26.0195  -38.2881   24.1394 H   0  0  0  0  0  0
  -27.9915  -17.6177   17.9303 H   0  0  0  0  0  0
  -27.5966  -19.0807   21.9859 H   0  0  0  0  0  0
  -29.4058  -15.7982   18.7257 H   0  0  0  0  0  0
  -29.0103  -17.2694   22.7809 H   0  0  0  0  0  0
  -24.8554  -20.9408   17.8619 H   0  0  0  0  0  0
  -23.6603  -20.0764   18.8284 H   0  0  0  0  0  0
  -24.7721  -20.7005   20.8887 H   0  0  0  0  0  0
  -24.9487  -22.1713   19.9452 H   0  0  0  0  0  0
  -25.7965  -18.7787   17.6981 H   0  0  0  0  0  0
  -25.1872  -18.2930   19.2808 H   0  0  0  0  0  0
  -27.0770  -20.8604   21.0246 H   0  0  0  0  0  0
  -29.3460  -24.1654   19.1678 H   0  0  0  0  0  0
  -27.7584  -24.6580   18.6296 H   0  0  0  0  0  0
  -29.1227  -25.2428   21.2906 H   0  0  0  0  0  0
  -27.3906  -25.3076   21.2149 H   0  0  0  0  0  0
  -30.7494  -15.6978   22.1089 H   0  0  0  0  0  0
  -27.4536  -23.0737   20.9734 H   0  0  0  0  0  0
  1 25  1  0  0  0
  1 30  2  0  0  0
  1 85  1  0  0  0
  2  3  1  0  0  0
  2 25  1  0  0  0
  2 88  1  0  0  0
  2 89  1  0  0  0
  3  4  1  0  0  0
  3 90  1  0  0  0
  3 91  1  0  0  0
  4  5  1  0  0  0
  4 92  1  0  0  0
  4 93  1  0  0  0
  5  6  1  0  0  0
  5 26  1  0  0  0
  5 94  1  0  0  0
  6 25  1  0  0  0
  6 95  1  0  0  0
  6 96  1  0  0  0
  7  8  2  0  0  0
  7 26  1  0  0  0
  7 29  1  0  0  0
  8  9  1  0  0  0
  8 22  1  0  0  0
  9 10  1  0  0  0
  9 27  2  0  0  0
 10 11  2  0  0  0
 10 15  1  0  0  0
 11 12  1  0  0  0
 11 97  1  0  0  0
 12 13  2  0  0  0
 12 98  1  0  0  0
 13 14  1  0  0  0
 13 31  1  0  0  0
 14 15  2  0  0  0
 14 99  1  0  0  0
 15100  1  0  0  0
 16 17  2  0  0  0
 16 21  1  0  0  0
 16 31  1  0  0  0
 17 18  1  0  0  0
 17101  1  0  0  0
 18 19  2  0  0  0
 18102  1  0  0  0
 19 20  1  0  0  0
 19 24  1  0  0  0
 20 21  2  0  0  0
 20103  1  0  0  0
 21 23  1  0  0  0
 22 28  1  0  0  0
 22 32  2  0  0  0
 26 27  1  0  0  0
 28104  1  0  0  0
 28105  1  0  0  0
 29106  1  0  0  0
 29107  1  0  0  0
 33 34  1  0  0  0
 33 66  1  0  0  0
 33 70  2  0  0  0
 34 36  1  0  0  0
 34 59  1  0  0  0
 34108  1  0  0  0
 35 44  2  0  0  0
 35 45  1  0  0  0
 35 68  1  0  0  0
 36 56  1  0  0  0
 36109  1  0  0  0
 37 39  1  0  0  0
 37 47  1  0  0  0
 37 66  1  0  0  0
 37110  1  0  0  0
 38 43  2  0  0  0
 38 46  1  0  0  0
 38 47  1  0  0  0
 39 64  1  0  0  0
 39 67  2  0  0  0
 40 52  1  0  0  0
 40 53  2  0  0  0
 40 58  1  0  0  0
 41111  1  0  0  0
 41112  1  0  0  0
 41113  1  0  0  0
 41 48  1  0  0  0
 42 43  1  0  0  0
 42 66  1  0  0  0
 42114  1  0  0  0
 42115  1  0  0  0
 43 44  1  0  0  0
 44116  1  0  0  0
 45 46  2  0  0  0
 45117  1  0  0  0
 46118  1  0  0  0
 47119  1  0  0  0
 47120  1  0  0  0
 48 56  1  0  0  0
 48 65  1  0  0  0
 48121  1  0  0  0
 49 50  1  0  0  0
 49 53  1  0  0  0
 49 64  1  0  0  0
 49122  1  0  0  0
 50 51  1  0  0  0
 50123  1  0  0  0
 50124  1  0  0  0
 51 52  1  0  0  0
 51125  1  0  0  0
 51126  1  0  0  0
 52127  1  0  0  0
 52128  1  0  0  0
 53 54  1  0  0  0
 54 55  2  0  0  0
 54129  1  0  0  0
 55 57  1  0  0  0
 55130  1  0  0  0
 56 69  2  0  0  0
 57 58  2  0  0  0
 57131  1  0  0  0
 58132  1  0  0  0
 59 60  1  0  0  0
 59 61  1  0  0  0
 59 62  1  0  0  0
 60133  1  0  0  0
 60134  1  0  0  0
 60135  1  0  0  0
 61136  1  0  0  0
 61137  1  0  0  0
 61138  1  0  0  0
 62139  1  0  0  0
 62140  1  0  0  0
 62141  1  0  0  0
 63 65  1  0  0  0
 63142  1  0  0  0
 63143  1  0  0  0
 63144  1  0  0  0
 64145  1  0  0  0
 65146  1  0  0  0
 68 83  1  0  0  0
 71 73  2  0  0  0
 71 75  1  0  0  0
 71147  1  0  0  0
 72 74  1  0  0  0
 72 75  2  0  0  0
 72148  1  0  0  0
 73 76  1  0  0  0
 73149  1  0  0  0
 74 76  2  0  0  0
 74150  1  0  0  0
 75 84  1  0  0  0
 76 85  1  0  0  0
 77 86  1  0  0  0
 77 87  2  0  0  0
 77 81  1  0  0  0
 78 79  1  0  0  0
 78 80  1  0  0  0
 78151  1  0  0  0
 78152  1  0  0  0
 79 81  1  0  0  0
 79153  1  0  0  0
 79154  1  0  0  0
 80 84  1  0  0  0
 80155  1  0  0  0
 80156  1  0  0  0
 81 84  1  0  0  0
 81157  1  0  0  0
 82 83  1  0  0  0
 82 86  1  0  0  0
 82158  1  0  0  0
 82159  1  0  0  0
 83160  1  0  0  0
 83161  1  0  0  0
 85162  1  0  0  0
 86163  1  0  0  0
M  ISO  4   1 100  68 101  83 101  85 100
M  END
> <chiral flag>
0

> <version>
0

> <s_m_source_file>
/data/baiqing/PycharmProjects/Reinvent-master-3.2/result/LINK_invent/BTK/process_docking_weight1_custom_product_contain_oxygen_bond_distance_aromatic_linkinvent_7_9_3/rearranged_h_0013.sdf

> <i_m_source_file_index>
92

> <r_mmod_Potential_Energy-OPLS-2005>
-19.3436794281006

> <r_mmod_Stretch_Energy-OPLS-2005>
33.2300033569336

> <r_mmod_Bend_Energy-OPLS-2005>
129.836624145508

> <r_mmod_Torsional_Energy-OPLS-2005>
335.847106933594

> <r_mmod_Improper_Torsional_Energy-OPLS-2005>
7.847327709198

> <r_mmod_Van_der_Waal_Energy-OPLS-2005>
148.365509033203

> <r_mmod_Electrostatic_Energy-OPLS-2005>
-443.460693359375

> <r_mmod_Solvation_Energy-OPLS-2005>
-241.273742675781

> <b_mmod_Minimization_Converged-OPLS-2005>
0

> <r_mmod_RMS_Derivative-OPLS-2005>
0.676194429397583

$$$$
93
                    3D
 Structure written by MMmdl.
155163  0  0  1  0            999 V2000
  -30.6072  -14.7100   20.4419 C   0  0  0  0  0  0
  -30.4284  -12.4347   19.4538 C   0  0  0  0  0  0
  -29.5048  -12.4892   18.2197 C   0  0  0  0  0  0
  -28.0227  -12.3304   18.6190 C   0  0  0  0  0  0
  -27.6245  -13.2321   19.8198 C   0  0  2  0  0  0
  -28.6700  -13.1488   20.9540 C   0  0  0  0  0  0
  -25.2333  -13.8179   20.5550 C   0  0  0  0  0  0
  -24.1672  -13.0396   20.9159 C   0  0  0  0  0  0
  -24.6264  -11.6902   20.8610 C   0  0  0  0  0  0
  -23.8912  -10.4287   21.0297 C   0  0  0  0  0  0
  -24.3504   -9.4223   21.9056 C   0  0  0  0  0  0
  -23.6204   -8.2247   22.0674 C   0  0  0  0  0  0
  -22.4165   -8.0248   21.3504 C   0  0  0  0  0  0
  -21.9750   -9.0233   20.4644 C   0  0  0  0  0  0
  -22.7037  -10.2137   20.3003 C   0  0  0  0  0  0
  -21.6822   -6.0692   22.5296 C   0  0  0  0  0  0
  -21.3978   -6.5578   23.8240 C   0  0  0  0  0  0
  -21.3678   -5.6748   24.9218 C   0  0  0  0  0  0
  -21.6052   -4.3017   24.7269 C   0  0  0  0  0  0
  -21.8791   -3.8082   23.4397 C   0  0  0  0  0  0
  -21.9182   -4.6915   22.3452 C   0  0  0  0  0  0
  -22.7668  -13.5149   21.1854 C   0  0  0  0  0  0
  -22.1671   -4.2090   21.1033 F   0  0  0  0  0  0
  -21.5636   -3.4493   25.7796 F   0  0  0  0  0  0
  -29.9749  -13.4936   20.3752 N   0  0  0  0  0  0
  -26.2766  -12.9384   20.3021 N   0  0  0  0  0  0
  -25.9184  -11.6539   20.5577 N   0  0  0  0  0  0
  -22.0381  -12.8230   22.0555 N   0  0  0  0  0  0
  -25.3872  -15.1914   20.3976 N   0  0  0  0  0  0
  -31.8135  -14.7756   20.1805 O   0  0  0  0  0  0
  -21.6550   -6.8836   21.4260 O   0  0  0  0  0  0
  -22.3281  -14.5341   20.6585 O   0  0  0  0  0  0
  -24.6281  -31.8615   23.2102 C   0  0  0  0  0  0
  -25.9132  -32.4772   23.8429 C   0  0  1  0  0  0
  -27.2259  -27.2816   20.1281 C   0  0  0  0  0  0
  -25.5983  -33.8577   24.2388 N   0  0  0  0  0  0
  -23.4239  -30.4888   21.5522 C   0  0  2  0  0  0
  -24.8745  -28.9426   20.1142 C   0  0  0  0  0  0
  -22.7474  -29.4661   22.4949 C   0  0  0  0  0  0
  -18.0292  -28.1397   22.8479 C   0  0  0  0  0  0
  -24.1475  -36.7200   23.2650 C   0  0  0  0  0  0
  -25.9722  -30.7836   21.3899 C   0  0  0  0  0  0
  -26.0449  -29.4088   20.7265 C   0  0  0  0  0  0
  -27.2149  -28.5842   20.7358 C   0  0  0  0  0  0
  -26.0412  -26.9056   19.4534 C   0  0  0  0  0  0
  -24.8780  -27.6971   19.4730 C   0  0  0  0  0  0
  -23.6454  -29.8315   20.1661 C   0  0  0  0  0  0
  -25.4100  -36.3057   24.0388 C   0  0  1  0  0  0
  -20.5900  -28.3736   23.1262 C   0  0  2  0  0  0
  -20.6795  -26.9452   22.5421 C   0  0  0  0  0  0
  -19.5769  -26.6415   21.5232 C   0  0  0  0  0  0
  -18.1940  -26.7944   22.1624 C   0  0  0  0  0  0
  -19.1540  -28.8884   23.2875 C   0  0  0  0  0  0
  -18.9465  -30.1470   23.8927 C   0  0  0  0  0  0
  -17.6463  -30.6608   24.0553 C   0  0  0  0  0  0
  -25.9048  -34.9422   23.5180 C   0  0  0  0  0  0
  -16.5356  -29.9100   23.6312 C   0  0  0  0  0  0
  -16.7285  -28.6499   23.0378 C   0  0  0  0  0  0
  -26.4534  -31.6537   25.0754 C   0  0  0  0  0  0
  -25.3783  -31.3632   26.1480 C   0  0  0  0  0  0
  -27.0398  -30.2965   24.6189 C   0  0  0  0  0  0
  -27.6132  -32.4233   25.7490 C   0  0  0  0  0  0
  -27.5581  -37.1752   24.8501 C   0  0  0  0  0  0
  -21.4211  -29.3057   22.3627 N   0  0  0  0  0  0
  -26.4277  -37.3751   23.9459 N   0  0  0  0  0  0
  -24.6940  -31.0590   22.1089 N   0  0  0  0  0  0
  -23.4153  -28.8184   23.3056 O   0  0  0  0  0  0
  -28.3350  -26.4017   20.2211 O   0  0  0  0  0  0
  -26.5555  -34.8879   22.4701 O   0  0  0  0  0  0
  -23.5440  -32.1459   23.7414 O   0  0  0  0  0  0
  -31.4652  -17.5590   21.2896 C   0  0  0  0  0  0
  -31.8559  -18.8787   21.5635 C   0  0  0  0  0  0
  -29.3950  -18.4363   20.3480 C   0  0  0  0  0  0
  -30.2172  -17.2799   20.6901 C   0  0  0  0  0  0
  -29.7528  -19.8296   20.6374 C   0  0  0  0  0  0
  -31.0200  -19.9842   21.2857 C   0  0  0  0  0  0
  -27.4783  -20.7650   20.1185 C   0  0  0  0  0  0
  -28.8676  -23.7266   20.6312 C   0  0  0  0  0  0
  -29.3296  -22.3619   19.8827 C   0  0  0  0  0  0
  -28.2684  -24.9629   19.7747 C   0  0  0  0  0  0
  -29.8281  -15.8551   20.5288 N   0  0  0  0  0  0
  -28.8949  -21.0008   20.4061 N   0  0  0  0  0  0
  -31.5572  -21.5150   21.8871 Cl  0  0  0  0  0  0
  -31.4625  -12.5796   19.1442 H   0  0  0  0  0  0
  -30.4021  -11.4584   19.9420 H   0  0  0  0  0  0
  -29.7824  -11.7173   17.5029 H   0  0  0  0  0  0
  -29.6369  -13.4439   17.7058 H   0  0  0  0  0  0
  -27.8456  -11.2803   18.8652 H   0  0  0  0  0  0
  -27.3956  -12.5518   17.7551 H   0  0  0  0  0  0
  -27.6162  -14.2547   19.4366 H   0  0  0  0  0  0
  -28.6915  -12.1446   21.3813 H   0  0  0  0  0  0
  -28.4170  -13.8285   21.7680 H   0  0  0  0  0  0
  -25.2709   -9.5682   22.4530 H   0  0  0  0  0  0
  -23.9957   -7.4697   22.7416 H   0  0  0  0  0  0
  -21.0647   -8.8775   19.8990 H   0  0  0  0  0  0
  -22.3442  -10.9631   19.6084 H   0  0  0  0  0  0
  -21.1885   -7.6078   23.9750 H   0  0  0  0  0  0
  -21.1519   -6.0456   25.9129 H   0  0  0  0  0  0
  -22.0504   -2.7508   23.2949 H   0  0  0  0  0  0
  -22.3984  -12.0058   22.5211 H   0  0  0  0  0  0
  -21.1012  -13.1334   22.2781 H   0  0  0  0  0  0
  -24.6073  -15.8337   20.5031 H   0  0  0  0  0  0
  -26.2234  -15.6417   20.0487 H   0  0  0  0  0  0
  -26.7175  -32.5454   23.1152 H   0  0  0  0  0  0
  -25.0252  -33.9708   25.0624 H   0  0  0  0  0  0
  -22.7190  -31.3148   21.4135 H   0  0  0  0  0  0
  -23.3783  -35.9480   23.3314 H   0  0  0  0  0  0
  -24.3583  -36.8772   22.2056 H   0  0  0  0  0  0
  -23.7123  -37.6382   23.6619 H   0  0  0  0  0  0
  -26.1069  -31.5584   20.6337 H   0  0  0  0  0  0
  -26.8485  -30.8300   22.0272 H   0  0  0  0  0  0
  -28.1009  -28.9377   21.2469 H   0  0  0  0  0  0
  -25.9670  -25.9873   18.8971 H   0  0  0  0  0  0
  -23.9823  -27.3408   18.9838 H   0  0  0  0  0  0
  -23.7774  -30.6224   19.4257 H   0  0  0  0  0  0
  -22.7604  -29.2777   19.8458 H   0  0  0  0  0  0
  -25.1237  -36.1949   25.0880 H   0  0  0  0  0  0
  -21.0008  -28.3365   24.1380 H   0  0  0  0  0  0
  -20.5771  -26.2352   23.3642 H   0  0  0  0  0  0
  -21.6652  -26.7531   22.1163 H   0  0  0  0  0  0
  -19.6966  -25.6343   21.1248 H   0  0  0  0  0  0
  -19.6695  -27.3255   20.6784 H   0  0  0  0  0  0
  -17.4222  -26.6742   21.4007 H   0  0  0  0  0  0
  -18.0280  -26.0104   22.9026 H   0  0  0  0  0  0
  -19.7959  -30.7264   24.2331 H   0  0  0  0  0  0
  -17.5035  -31.6299   24.5139 H   0  0  0  0  0  0
  -15.5357  -30.3005   23.7663 H   0  0  0  0  0  0
  -15.8678  -28.0811   22.7121 H   0  0  0  0  0  0
  -24.6043  -30.6858   25.7835 H   0  0  0  0  0  0
  -24.8856  -32.2755   26.4847 H   0  0  0  0  0  0
  -25.8159  -30.8896   27.0272 H   0  0  0  0  0  0
  -26.2982  -29.6644   24.1274 H   0  0  0  0  0  0
  -27.4188  -29.7249   25.4670 H   0  0  0  0  0  0
  -27.8797  -30.4257   23.9360 H   0  0  0  0  0  0
  -27.2825  -33.3576   26.2019 H   0  0  0  0  0  0
  -28.3960  -32.6686   25.0303 H   0  0  0  0  0  0
  -28.0751  -31.8341   26.5416 H   0  0  0  0  0  0
  -28.2602  -38.0049   24.7551 H   0  0  0  0  0  0
  -28.1077  -36.2574   24.6326 H   0  0  0  0  0  0
  -27.2300  -37.1378   25.8908 H   0  0  0  0  0  0
  -20.9448  -29.8613   21.6663 H   0  0  0  0  0  0
  -26.0175  -38.2827   24.1490 H   0  0  0  0  0  0
  -32.1309  -16.7606   21.5940 H   0  0  0  0  0  0
  -32.8098  -19.0246   22.0566 H   0  0  0  0  0  0
  -28.4549  -18.2371   19.8504 H   0  0  0  0  0  0
  -27.3101  -20.9119   19.0471 H   0  0  0  0  0  0
  -26.8398  -21.4560   20.6794 H   0  0  0  0  0  0
  -27.1216  -19.7676   20.3564 H   0  0  0  0  0  0
  -29.7095  -24.0843   21.2258 H   0  0  0  0  0  0
  -28.1165  -23.4559   21.3707 H   0  0  0  0  0  0
  -30.4059  -22.3803   19.7076 H   0  0  0  0  0  0
  -28.9239  -22.4310   18.8746 H   0  0  0  0  0  0
  -27.2390  -24.6435   19.6477 H   0  0  0  0  0  0
  -28.6988  -24.9382   18.7725 H   0  0  0  0  0  0
  -28.8352  -15.6791   20.4964 H   0  0  0  0  0  0
  1 25  1  0  0  0
  1 30  2  0  0  0
  1 81  1  0  0  0
  2  3  1  0  0  0
  2 25  1  0  0  0
  2 84  1  0  0  0
  2 85  1  0  0  0
  3  4  1  0  0  0
  3 86  1  0  0  0
  3 87  1  0  0  0
  4  5  1  0  0  0
  4 88  1  0  0  0
  4 89  1  0  0  0
  5  6  1  0  0  0
  5 26  1  0  0  0
  5 90  1  0  0  0
  6 25  1  0  0  0
  6 91  1  0  0  0
  6 92  1  0  0  0
  7  8  2  0  0  0
  7 26  1  0  0  0
  7 29  1  0  0  0
  8  9  1  0  0  0
  8 22  1  0  0  0
  9 10  1  0  0  0
  9 27  2  0  0  0
 10 11  2  0  0  0
 10 15  1  0  0  0
 11 12  1  0  0  0
 11 93  1  0  0  0
 12 13  2  0  0  0
 12 94  1  0  0  0
 13 14  1  0  0  0
 13 31  1  0  0  0
 14 15  2  0  0  0
 14 95  1  0  0  0
 15 96  1  0  0  0
 16 17  2  0  0  0
 16 21  1  0  0  0
 16 31  1  0  0  0
 17 18  1  0  0  0
 17 97  1  0  0  0
 18 19  2  0  0  0
 18 98  1  0  0  0
 19 20  1  0  0  0
 19 24  1  0  0  0
 20 21  2  0  0  0
 20 99  1  0  0  0
 21 23  1  0  0  0
 22 28  1  0  0  0
 22 32  2  0  0  0
 26 27  1  0  0  0
 28100  1  0  0  0
 28101  1  0  0  0
 29102  1  0  0  0
 29103  1  0  0  0
 33 34  1  0  0  0
 33 66  1  0  0  0
 33 70  2  0  0  0
 34 36  1  0  0  0
 34 59  1  0  0  0
 34104  1  0  0  0
 35 44  2  0  0  0
 35 45  1  0  0  0
 35 68  1  0  0  0
 36 56  1  0  0  0
 36105  1  0  0  0
 37 39  1  0  0  0
 37 47  1  0  0  0
 37 66  1  0  0  0
 37106  1  0  0  0
 38 43  2  0  0  0
 38 46  1  0  0  0
 38 47  1  0  0  0
 39 64  1  0  0  0
 39 67  2  0  0  0
 40 52  1  0  0  0
 40 53  2  0  0  0
 40 58  1  0  0  0
 41107  1  0  0  0
 41108  1  0  0  0
 41109  1  0  0  0
 41 48  1  0  0  0
 42 43  1  0  0  0
 42 66  1  0  0  0
 42110  1  0  0  0
 42111  1  0  0  0
 43 44  1  0  0  0
 44112  1  0  0  0
 45 46  2  0  0  0
 45113  1  0  0  0
 46114  1  0  0  0
 47115  1  0  0  0
 47116  1  0  0  0
 48 56  1  0  0  0
 48 65  1  0  0  0
 48117  1  0  0  0
 49 50  1  0  0  0
 49 53  1  0  0  0
 49 64  1  0  0  0
 49118  1  0  0  0
 50 51  1  0  0  0
 50119  1  0  0  0
 50120  1  0  0  0
 51 52  1  0  0  0
 51121  1  0  0  0
 51122  1  0  0  0
 52123  1  0  0  0
 52124  1  0  0  0
 53 54  1  0  0  0
 54 55  2  0  0  0
 54125  1  0  0  0
 55 57  1  0  0  0
 55126  1  0  0  0
 56 69  2  0  0  0
 57 58  2  0  0  0
 57127  1  0  0  0
 58128  1  0  0  0
 59 60  1  0  0  0
 59 61  1  0  0  0
 59 62  1  0  0  0
 60129  1  0  0  0
 60130  1  0  0  0
 60131  1  0  0  0
 61132  1  0  0  0
 61133  1  0  0  0
 61134  1  0  0  0
 62135  1  0  0  0
 62136  1  0  0  0
 62137  1  0  0  0
 63 65  1  0  0  0
 63138  1  0  0  0
 63139  1  0  0  0
 63140  1  0  0  0
 64141  1  0  0  0
 65142  1  0  0  0
 68 80  1  0  0  0
 71 72  2  0  0  0
 71 74  1  0  0  0
 71143  1  0  0  0
 72 76  1  0  0  0
 72144  1  0  0  0
 73 74  2  0  0  0
 73 75  1  0  0  0
 73145  1  0  0  0
 74 81  1  0  0  0
 75 76  2  0  0  0
 75 82  1  0  0  0
 76 83  1  0  0  0
 77 82  1  0  0  0
 77146  1  0  0  0
 77147  1  0  0  0
 77148  1  0  0  0
 78 79  1  0  0  0
 78 80  1  0  0  0
 78149  1  0  0  0
 78150  1  0  0  0
 79 82  1  0  0  0
 79151  1  0  0  0
 79152  1  0  0  0
 80153  1  0  0  0
 80154  1  0  0  0
 81155  1  0  0  0
M  ISO  4   1 100  68 101  80 101  81 100
M  END
> <chiral flag>
0

> <version>
0

> <s_m_source_file>
/data/baiqing/PycharmProjects/Reinvent-master-3.2/result/LINK_invent/BTK/process_docking_weight1_custom_product_contain_oxygen_bond_distance_aromatic_linkinvent_7_9_3/rearranged_h_0013.sdf

> <i_m_source_file_index>
93

> <r_mmod_Potential_Energy-OPLS-2005>
262.037872314453

> <r_mmod_Stretch_Energy-OPLS-2005>
129.903686523438

> <r_mmod_Bend_Energy-OPLS-2005>
185.851455688477

> <r_mmod_Torsional_Energy-OPLS-2005>
234.219314575195

> <r_mmod_Improper_Torsional_Energy-OPLS-2005>
8.84329795837402

> <r_mmod_Van_der_Waal_Energy-OPLS-2005>
157.030822753906

> <r_mmod_Electrostatic_Energy-OPLS-2005>
-305.929718017578

> <r_mmod_Solvation_Energy-OPLS-2005>
-225.380966186523

> <b_mmod_Minimization_Converged-OPLS-2005>
0

> <r_mmod_RMS_Derivative-OPLS-2005>
7.44603538513184

$$$$
94
                    3D
 Structure written by MMmdl.
152160  0  0  1  0            999 V2000
  -30.5241  -14.9140   20.4248 C   0  0  0  0  0  0
  -30.4496  -12.5628   19.4915 C   0  0  0  0  0  0
  -29.5227  -12.5333   18.2527 C   0  0  0  0  0  0
  -28.0560  -12.3214   18.6719 C   0  0  0  0  0  0
  -27.6396  -13.2411   19.8490 C   0  0  2  0  0  0
  -28.6832  -13.2337   20.9874 C   0  0  0  0  0  0
  -25.2509  -13.8204   20.5718 C   0  0  0  0  0  0
  -24.1804  -13.0440   20.9192 C   0  0  0  0  0  0
  -24.6419  -11.6924   20.8756 C   0  0  0  0  0  0
  -23.9099  -10.4292   21.0419 C   0  0  0  0  0  0
  -24.3644   -9.4207   21.9195 C   0  0  0  0  0  0
  -23.6311   -8.2248   22.0767 C   0  0  0  0  0  0
  -22.4285   -8.0296   21.3551 C   0  0  0  0  0  0
  -21.9934   -9.0269   20.4650 C   0  0  0  0  0  0
  -22.7274  -10.2145   20.3063 C   0  0  0  0  0  0
  -21.6855   -6.0751   22.5276 C   0  0  0  0  0  0
  -21.4016   -6.5654   23.8211 C   0  0  0  0  0  0
  -21.3653   -5.6803   24.9166 C   0  0  0  0  0  0
  -21.6049   -4.3067   24.7215 C   0  0  0  0  0  0
  -21.8819   -3.8162   23.4332 C   0  0  0  0  0  0
  -21.9192   -4.6982   22.3394 C   0  0  0  0  0  0
  -22.7820  -13.5225   21.1845 C   0  0  0  0  0  0
  -22.1661   -4.2174   21.0967 F   0  0  0  0  0  0
  -21.5625   -3.4549   25.7723 F   0  0  0  0  0  0
  -29.9668  -13.6399   20.3991 N   0  0  0  0  0  0
  -26.2944  -12.9430   20.3294 N   0  0  0  0  0  0
  -25.9355  -11.6565   20.5763 N   0  0  0  0  0  0
  -22.0473  -12.8204   22.0406 N   0  0  0  0  0  0
  -25.4188  -15.1937   20.4193 N   0  0  0  0  0  0
  -31.7125  -15.0319   20.1071 O   0  0  0  0  0  0
  -21.6640   -6.8900   21.4244 O   0  0  0  0  0  0
  -22.3507  -14.5526   20.6698 O   0  0  0  0  0  0
  -24.6410  -31.8434   23.1899 C   0  0  0  0  0  0
  -25.9190  -32.4692   23.8273 C   0  0  1  0  0  0
  -27.2235  -27.1559   20.1377 C   0  0  0  0  0  0
  -25.5950  -33.8501   24.2198 N   0  0  0  0  0  0
  -23.4431  -30.4661   21.5326 C   0  0  2  0  0  0
  -24.8925  -28.8947   20.1080 C   0  0  0  0  0  0
  -22.7568  -29.4546   22.4842 C   0  0  0  0  0  0
  -18.0303  -28.1390   22.8441 C   0  0  0  0  0  0
  -24.1493  -36.7256   23.2649 C   0  0  0  0  0  0
  -25.9968  -30.7269   21.3834 C   0  0  0  0  0  0
  -26.0679  -29.3397   20.7232 C   0  0  0  0  0  0
  -27.2286  -28.4837   20.7265 C   0  0  0  0  0  0
  -26.0165  -26.8038   19.4929 C   0  0  0  0  0  0
  -24.8778  -27.6379   19.4845 C   0  0  0  0  0  0
  -23.6701  -29.7971   20.1507 C   0  0  0  0  0  0
  -25.4115  -36.3037   24.0337 C   0  0  1  0  0  0
  -20.5912  -28.3706   23.1228 C   0  0  2  0  0  0
  -20.6779  -26.9408   22.5404 C   0  0  0  0  0  0
  -19.5764  -26.6367   21.5200 C   0  0  0  0  0  0
  -18.1942  -26.7921   22.1598 C   0  0  0  0  0  0
  -19.1561  -28.8860   23.2822 C   0  0  0  0  0  0
  -18.9487  -30.1448   23.8855 C   0  0  0  0  0  0
  -17.6493  -30.6575   24.0548 C   0  0  0  0  0  0
  -25.9074  -34.9412   23.5078 C   0  0  0  0  0  0
  -16.5376  -29.9071   23.6335 C   0  0  0  0  0  0
  -16.7294  -28.6505   23.0324 C   0  0  0  0  0  0
  -26.4525  -31.6549   25.0703 C   0  0  0  0  0  0
  -25.3723  -31.3745   26.1416 C   0  0  0  0  0  0
  -27.0406  -30.2956   24.6267 C   0  0  0  0  0  0
  -27.6042  -32.4319   25.7482 C   0  0  0  0  0  0
  -27.5575  -37.1770   24.8464 C   0  0  0  0  0  0
  -21.4263  -29.3048   22.3617 N   0  0  0  0  0  0
  -26.4266  -37.3756   23.9437 N   0  0  0  0  0  0
  -24.7134  -31.0326   22.0915 N   0  0  0  0  0  0
  -23.4229  -28.8117   23.2993 O   0  0  0  0  0  0
  -28.3041  -26.2109   20.2404 O   0  0  0  0  0  0
  -26.5653  -34.8913   22.4653 O   0  0  0  0  0  0
  -23.5534  -32.1276   23.7151 O   0  0  0  0  0  0
  -30.6158  -19.7982   19.7829 C   0  0  0  0  0  0
  -30.7261  -18.3596   19.9412 C   0  0  0  0  0  0
  -28.4713  -19.8011   20.7349 C   0  0  0  0  0  0
  -29.4918  -20.6363   20.1646 C   0  0  0  0  0  0
  -29.6947  -17.5436   20.4909 C   0  0  0  0  0  0
  -28.5644  -18.3508   20.8766 C   0  0  0  0  0  0
  -30.7553  -22.6115   19.4647 C   0  0  0  0  0  0
  -28.5881  -23.2981   20.4998 C   0  0  0  0  0  0
  -28.3524  -24.7628   19.6801 C   0  0  0  0  0  0
  -29.6754  -16.0219   20.6532 N   0  0  0  0  0  0
  -29.4558  -22.1237   19.9374 N   0  0  0  0  0  0
  -27.5001  -17.6990   21.4040 F   0  0  0  0  0  0
  -31.4820  -12.7272   19.1778 H   0  0  0  0  0  0
  -30.4427  -11.5993   20.0035 H   0  0  0  0  0  0
  -29.8331  -11.7462   17.5643 H   0  0  0  0  0  0
  -29.6136  -13.4725   17.7048 H   0  0  0  0  0  0
  -27.9457  -11.2778   18.9673 H   0  0  0  0  0  0
  -27.3909  -12.4692   17.8207 H   0  0  0  0  0  0
  -27.6135  -14.2503   19.4376 H   0  0  0  0  0  0
  -28.7592  -12.2489   21.4506 H   0  0  0  0  0  0
  -28.3880  -13.9219   21.7811 H   0  0  0  0  0  0
  -25.2794   -9.5677   22.4765 H   0  0  0  0  0  0
  -24.0017   -7.4643   22.7494 H   0  0  0  0  0  0
  -21.0866   -8.8806   19.8952 H   0  0  0  0  0  0
  -22.3752  -10.9692   19.6175 H   0  0  0  0  0  0
  -21.2013   -7.6162   23.9723 H   0  0  0  0  0  0
  -21.1474   -6.0526   25.9070 H   0  0  0  0  0  0
  -22.0604   -2.7630   23.2818 H   0  0  0  0  0  0
  -22.4100  -11.9858   22.4759 H   0  0  0  0  0  0
  -21.1101  -13.1239   22.2635 H   0  0  0  0  0  0
  -24.6603  -15.8487   20.5679 H   0  0  0  0  0  0
  -26.2797  -15.6509   20.1507 H   0  0  0  0  0  0
  -26.7253  -32.5304   23.0996 H   0  0  0  0  0  0
  -25.0092  -33.9610   25.0344 H   0  0  0  0  0  0
  -22.7433  -31.2913   21.3798 H   0  0  0  0  0  0
  -23.3767  -35.9569   23.3270 H   0  0  0  0  0  0
  -24.3593  -36.8919   22.2074 H   0  0  0  0  0  0
  -23.7234  -37.6443   23.6695 H   0  0  0  0  0  0
  -26.1493  -31.4857   20.6145 H   0  0  0  0  0  0
  -26.8688  -30.7764   22.0242 H   0  0  0  0  0  0
  -28.1218  -28.8202   21.2351 H   0  0  0  0  0  0
  -25.8984  -25.8420   19.0229 H   0  0  0  0  0  0
  -23.9760  -27.2853   19.0034 H   0  0  0  0  0  0
  -23.8116  -30.5730   19.3972 H   0  0  0  0  0  0
  -22.7844  -29.2439   19.8351 H   0  0  0  0  0  0
  -25.1294  -36.1855   25.0826 H   0  0  0  0  0  0
  -20.9972  -28.3284   24.1360 H   0  0  0  0  0  0
  -20.5644  -26.2328   23.3626 H   0  0  0  0  0  0
  -21.6648  -26.7397   22.1223 H   0  0  0  0  0  0
  -19.6935  -25.6281   21.1228 H   0  0  0  0  0  0
  -19.6705  -27.3163   20.6722 H   0  0  0  0  0  0
  -17.4217  -26.6652   21.4003 H   0  0  0  0  0  0
  -18.0328  -26.0074   22.9004 H   0  0  0  0  0  0
  -19.7981  -30.7246   24.2205 H   0  0  0  0  0  0
  -17.5069  -31.6251   24.5158 H   0  0  0  0  0  0
  -15.5378  -30.2961   23.7693 H   0  0  0  0  0  0
  -15.8695  -28.0825   22.7034 H   0  0  0  0  0  0
  -24.5914  -30.7070   25.7761 H   0  0  0  0  0  0
  -24.8898  -32.2932   26.4760 H   0  0  0  0  0  0
  -25.8011  -30.8990   27.0245 H   0  0  0  0  0  0
  -26.3033  -29.6659   24.1277 H   0  0  0  0  0  0
  -27.4067  -29.7281   25.4835 H   0  0  0  0  0  0
  -27.8907  -30.4235   23.9560 H   0  0  0  0  0  0
  -27.2638  -33.3661   26.1966 H   0  0  0  0  0  0
  -28.3886  -32.6804   25.0319 H   0  0  0  0  0  0
  -28.0664  -31.8506   26.5477 H   0  0  0  0  0  0
  -28.2547  -38.0110   24.7542 H   0  0  0  0  0  0
  -28.1118  -36.2638   24.6221 H   0  0  0  0  0  0
  -27.2311  -37.1329   25.8872 H   0  0  0  0  0  0
  -20.9470  -29.8823   21.6854 H   0  0  0  0  0  0
  -26.0140  -38.2821   24.1454 H   0  0  0  0  0  0
  -31.4802  -20.2467   19.3186 H   0  0  0  0  0  0
  -31.6352  -17.8786   19.6103 H   0  0  0  0  0  0
  -27.5568  -20.2699   21.0671 H   0  0  0  0  0  0
  -30.9828  -22.2250   18.4702 H   0  0  0  0  0  0
  -31.5522  -22.3130   20.1473 H   0  0  0  0  0  0
  -30.8206  -23.6948   19.4033 H   0  0  0  0  0  0
  -27.6016  -22.8949   20.7344 H   0  0  0  0  0  0
  -29.0175  -23.5435   21.4710 H   0  0  0  0  0  0
  -27.5102  -24.5937   19.0169 H   0  0  0  0  0  0
  -29.1656  -24.8529   18.9647 H   0  0  0  0  0  0
  -28.7695  -15.7009   20.9602 H   0  0  0  0  0  0
  1 25  1  0  0  0
  1 30  2  0  0  0
  1 80  1  0  0  0
  2  3  1  0  0  0
  2 25  1  0  0  0
  2 83  1  0  0  0
  2 84  1  0  0  0
  3  4  1  0  0  0
  3 85  1  0  0  0
  3 86  1  0  0  0
  4  5  1  0  0  0
  4 87  1  0  0  0
  4 88  1  0  0  0
  5  6  1  0  0  0
  5 26  1  0  0  0
  5 89  1  0  0  0
  6 25  1  0  0  0
  6 90  1  0  0  0
  6 91  1  0  0  0
  7  8  2  0  0  0
  7 26  1  0  0  0
  7 29  1  0  0  0
  8  9  1  0  0  0
  8 22  1  0  0  0
  9 10  1  0  0  0
  9 27  2  0  0  0
 10 11  2  0  0  0
 10 15  1  0  0  0
 11 12  1  0  0  0
 11 92  1  0  0  0
 12 13  2  0  0  0
 12 93  1  0  0  0
 13 14  1  0  0  0
 13 31  1  0  0  0
 14 15  2  0  0  0
 14 94  1  0  0  0
 15 95  1  0  0  0
 16 17  2  0  0  0
 16 21  1  0  0  0
 16 31  1  0  0  0
 17 18  1  0  0  0
 17 96  1  0  0  0
 18 19  2  0  0  0
 18 97  1  0  0  0
 19 20  1  0  0  0
 19 24  1  0  0  0
 20 21  2  0  0  0
 20 98  1  0  0  0
 21 23  1  0  0  0
 22 28  1  0  0  0
 22 32  2  0  0  0
 26 27  1  0  0  0
 28 99  1  0  0  0
 28100  1  0  0  0
 29101  1  0  0  0
 29102  1  0  0  0
 33 34  1  0  0  0
 33 66  1  0  0  0
 33 70  2  0  0  0
 34 36  1  0  0  0
 34 59  1  0  0  0
 34103  1  0  0  0
 35 44  2  0  0  0
 35 45  1  0  0  0
 35 68  1  0  0  0
 36 56  1  0  0  0
 36104  1  0  0  0
 37 39  1  0  0  0
 37 47  1  0  0  0
 37 66  1  0  0  0
 37105  1  0  0  0
 38 43  2  0  0  0
 38 46  1  0  0  0
 38 47  1  0  0  0
 39 64  1  0  0  0
 39 67  2  0  0  0
 40 52  1  0  0  0
 40 53  2  0  0  0
 40 58  1  0  0  0
 41106  1  0  0  0
 41107  1  0  0  0
 41108  1  0  0  0
 41 48  1  0  0  0
 42 43  1  0  0  0
 42 66  1  0  0  0
 42109  1  0  0  0
 42110  1  0  0  0
 43 44  1  0  0  0
 44111  1  0  0  0
 45 46  2  0  0  0
 45112  1  0  0  0
 46113  1  0  0  0
 47114  1  0  0  0
 47115  1  0  0  0
 48 56  1  0  0  0
 48 65  1  0  0  0
 48116  1  0  0  0
 49 50  1  0  0  0
 49 53  1  0  0  0
 49 64  1  0  0  0
 49117  1  0  0  0
 50 51  1  0  0  0
 50118  1  0  0  0
 50119  1  0  0  0
 51 52  1  0  0  0
 51120  1  0  0  0
 51121  1  0  0  0
 52122  1  0  0  0
 52123  1  0  0  0
 53 54  1  0  0  0
 54 55  2  0  0  0
 54124  1  0  0  0
 55 57  1  0  0  0
 55125  1  0  0  0
 56 69  2  0  0  0
 57 58  2  0  0  0
 57126  1  0  0  0
 58127  1  0  0  0
 59 60  1  0  0  0
 59 61  1  0  0  0
 59 62  1  0  0  0
 60128  1  0  0  0
 60129  1  0  0  0
 60130  1  0  0  0
 61131  1  0  0  0
 61132  1  0  0  0
 61133  1  0  0  0
 62134  1  0  0  0
 62135  1  0  0  0
 62136  1  0  0  0
 63 65  1  0  0  0
 63137  1  0  0  0
 63138  1  0  0  0
 63139  1  0  0  0
 64140  1  0  0  0
 65141  1  0  0  0
 68 79  1  0  0  0
 71 72  2  0  0  0
 71 74  1  0  0  0
 71142  1  0  0  0
 72 75  1  0  0  0
 72143  1  0  0  0
 73 74  2  0  0  0
 73 76  1  0  0  0
 73144  1  0  0  0
 74 81  1  0  0  0
 75 76  2  0  0  0
 75 80  1  0  0  0
 76 82  1  0  0  0
 77 81  1  0  0  0
 77145  1  0  0  0
 77146  1  0  0  0
 77147  1  0  0  0
 78 79  1  0  0  0
 78 81  1  0  0  0
 78148  1  0  0  0
 78149  1  0  0  0
 79150  1  0  0  0
 79151  1  0  0  0
 80152  1  0  0  0
M  ISO  4   1 100  68 101  79 101  80 100
M  END
> <chiral flag>
0

> <version>
0

> <s_m_source_file>
/data/baiqing/PycharmProjects/Reinvent-master-3.2/result/LINK_invent/BTK/process_docking_weight1_custom_product_contain_oxygen_bond_distance_aromatic_linkinvent_7_9_3/rearranged_h_0013.sdf

> <i_m_source_file_index>
94

> <r_mmod_Potential_Energy-OPLS-2005>
422.703674316406

> <r_mmod_Stretch_Energy-OPLS-2005>
226.532485961914

> <r_mmod_Bend_Energy-OPLS-2005>
287.821533203125

> <r_mmod_Torsional_Energy-OPLS-2005>
202.968505859375

> <r_mmod_Improper_Torsional_Energy-OPLS-2005>
4.99595546722412

> <r_mmod_Van_der_Waal_Energy-OPLS-2005>
146.032180786133

> <r_mmod_Electrostatic_Energy-OPLS-2005>
-393.502685546875

> <r_mmod_Solvation_Energy-OPLS-2005>
-222.135986328125

> <b_mmod_Minimization_Converged-OPLS-2005>
0

> <r_mmod_RMS_Derivative-OPLS-2005>
2.36566257476807

$$$$
95
                    3D
 Structure written by MMmdl.
158166  0  0  1  0            999 V2000
  -30.6679  -14.6316   20.5770 C   0  0  0  0  0  0
  -30.4300  -12.4118   19.4530 C   0  0  0  0  0  0
  -29.5039  -12.5224   18.2228 C   0  0  0  0  0  0
  -28.0284  -12.3520   18.6319 C   0  0  0  0  0  0
  -27.6504  -13.2210   19.8592 C   0  0  2  0  0  0
  -28.6881  -13.0714   20.9883 C   0  0  0  0  0  0
  -25.2548  -13.8180   20.5676 C   0  0  0  0  0  0
  -24.1818  -13.0440   20.9176 C   0  0  0  0  0  0
  -24.6394  -11.6912   20.8726 C   0  0  0  0  0  0
  -23.9066  -10.4293   21.0401 C   0  0  0  0  0  0
  -24.3617   -9.4211   21.9181 C   0  0  0  0  0  0
  -23.6292   -8.2247   22.0755 C   0  0  0  0  0  0
  -22.4275   -8.0283   21.3545 C   0  0  0  0  0  0
  -21.9909   -9.0255   20.4647 C   0  0  0  0  0  0
  -22.7237  -10.2134   20.3053 C   0  0  0  0  0  0
  -21.6855   -6.0735   22.5278 C   0  0  0  0  0  0
  -21.4014   -6.5639   23.8210 C   0  0  0  0  0  0
  -21.3658   -5.6792   24.9173 C   0  0  0  0  0  0
  -21.6045   -4.3056   24.7224 C   0  0  0  0  0  0
  -21.8820   -3.8147   23.4345 C   0  0  0  0  0  0
  -21.9193   -4.6963   22.3401 C   0  0  0  0  0  0
  -22.7842  -13.5231   21.1851 C   0  0  0  0  0  0
  -22.1663   -4.2149   21.0979 F   0  0  0  0  0  0
  -21.5629   -3.4540   25.7738 F   0  0  0  0  0  0
  -30.0070  -13.4306   20.4408 N   0  0  0  0  0  0
  -26.2969  -12.9369   20.3283 N   0  0  0  0  0  0
  -25.9319  -11.6518   20.5725 N   0  0  0  0  0  0
  -22.0491  -12.8220   22.0410 N   0  0  0  0  0  0
  -25.4271  -15.1901   20.4123 N   0  0  0  0  0  0
  -31.7785  -14.7900   20.0593 O   0  0  0  0  0  0
  -21.6641   -6.8878   21.4240 O   0  0  0  0  0  0
  -22.3524  -14.5538   20.6706 O   0  0  0  0  0  0
  -24.6259  -31.8589   23.2021 C   0  0  0  0  0  0
  -25.9109  -32.4773   23.8349 C   0  0  1  0  0  0
  -27.2220  -27.3195   20.1249 C   0  0  0  0  0  0
  -25.5925  -33.8574   24.2274 N   0  0  0  0  0  0
  -23.4196  -30.4817   21.5444 C   0  0  2  0  0  0
  -24.8663  -28.9336   20.1126 C   0  0  0  0  0  0
  -22.7473  -29.4618   22.4940 C   0  0  0  0  0  0
  -18.0284  -28.1384   22.8485 C   0  0  0  0  0  0
  -24.1486  -36.7290   23.2640 C   0  0  0  0  0  0
  -25.9597  -30.7907   21.3720 C   0  0  0  0  0  0
  -26.0345  -29.4174   20.7160 C   0  0  0  0  0  0
  -27.2186  -28.6229   20.7086 C   0  0  0  0  0  0
  -26.0360  -26.8855   19.4966 C   0  0  0  0  0  0
  -24.8685  -27.6732   19.4929 C   0  0  0  0  0  0
  -23.6344  -29.8144   20.1602 C   0  0  0  0  0  0
  -25.4112  -36.3080   24.0328 C   0  0  1  0  0  0
  -20.5884  -28.3685   23.1287 C   0  0  2  0  0  0
  -20.6774  -26.9409   22.5413 C   0  0  0  0  0  0
  -19.5750  -26.6383   21.5213 C   0  0  0  0  0  0
  -18.1928  -26.7927   22.1622 C   0  0  0  0  0  0
  -19.1536  -28.8851   23.2880 C   0  0  0  0  0  0
  -18.9462  -30.1454   23.8897 C   0  0  0  0  0  0
  -17.6462  -30.6585   24.0565 C   0  0  0  0  0  0
  -25.9050  -34.9449   23.5102 C   0  0  0  0  0  0
  -16.5353  -29.9085   23.6331 C   0  0  0  0  0  0
  -16.7272  -28.6504   23.0349 C   0  0  0  0  0  0
  -26.4497  -31.6587   25.0721 C   0  0  0  0  0  0
  -25.3734  -31.3723   26.1449 C   0  0  0  0  0  0
  -27.0345  -30.3014   24.6173 C   0  0  0  0  0  0
  -27.6050  -32.4329   25.7495 C   0  0  0  0  0  0
  -27.5576  -37.1800   24.8465 C   0  0  0  0  0  0
  -21.4187  -29.3038   22.3684 N   0  0  0  0  0  0
  -26.4288  -37.3775   23.9410 N   0  0  0  0  0  0
  -24.6872  -31.0605   22.0967 N   0  0  0  0  0  0
  -23.4198  -28.8160   23.3020 O   0  0  0  0  0  0
  -28.3385  -26.4743   20.1385 O   0  0  0  0  0  0
  -26.5618  -34.8918   22.4668 O   0  0  0  0  0  0
  -23.5425  -32.1385   23.7354 O   0  0  0  0  0  0
  -30.1806  -18.9126   19.1744 C   0  0  0  0  0  0
  -30.3433  -17.5543   19.5787 C   0  0  0  0  0  0
  -28.9799  -19.4002   21.1722 C   0  0  0  0  0  0
  -29.4932  -19.9000   19.9479 C   0  0  0  0  0  0
  -29.8476  -17.0578   20.8137 C   0  0  0  0  0  0
  -29.1383  -18.0398   21.5871 C   0  0  0  0  0  0
  -30.0620  -15.4410   22.7383 C   0  0  0  0  0  0
  -28.8309  -23.8916   19.7773 C   0  0  0  0  0  0
  -28.6645  -22.3713   20.2883 C   0  0  0  0  0  0
  -28.1537  -25.0751   20.5990 C   0  0  0  0  0  0
  -29.3172  -21.4119   18.0294 C   0  0  0  0  0  0
  -30.0660  -15.6590   21.2808 N   0  0  0  0  0  0
  -29.3216  -21.2709   19.4910 N   0  0  0  0  0  0
  -28.5628  -17.7001   22.7653 F   0  0  0  0  0  0
  -28.3220  -20.6911   17.5115 F   0  0  0  0  0  0
  -31.4713  -12.5309   19.1492 H   0  0  0  0  0  0
  -30.3666  -11.4147   19.8916 H   0  0  0  0  0  0
  -29.7736  -11.7717   17.4787 H   0  0  0  0  0  0
  -29.6429  -13.4927   17.7431 H   0  0  0  0  0  0
  -27.8698  -11.2980   18.8634 H   0  0  0  0  0  0
  -27.3728  -12.5796   17.7906 H   0  0  0  0  0  0
  -27.6727  -14.2592   19.5271 H   0  0  0  0  0  0
  -28.7048  -12.0467   21.3622 H   0  0  0  0  0  0
  -28.3939  -13.6850   21.8357 H   0  0  0  0  0  0
  -25.2763   -9.5688   22.4754 H   0  0  0  0  0  0
  -24.0002   -7.4639   22.7475 H   0  0  0  0  0  0
  -21.0840   -8.8773   19.8953 H   0  0  0  0  0  0
  -22.3697  -10.9672   19.6161 H   0  0  0  0  0  0
  -21.2007   -7.6147   23.9713 H   0  0  0  0  0  0
  -21.1479   -6.0523   25.9075 H   0  0  0  0  0  0
  -22.0600   -2.7609   23.2846 H   0  0  0  0  0  0
  -22.4111  -11.9880   22.4791 H   0  0  0  0  0  0
  -21.1111  -13.1245   22.2625 H   0  0  0  0  0  0
  -24.6673  -15.8498   20.5367 H   0  0  0  0  0  0
  -26.2917  -15.6304   20.1243 H   0  0  0  0  0  0
  -26.7178  -32.5443   23.1097 H   0  0  0  0  0  0
  -25.0080  -33.9719   25.0425 H   0  0  0  0  0  0
  -22.7132  -31.3020   21.4006 H   0  0  0  0  0  0
  -23.3748  -35.9622   23.3303 H   0  0  0  0  0  0
  -24.3575  -36.8911   22.2053 H   0  0  0  0  0  0
  -23.7240  -37.6492   23.6661 H   0  0  0  0  0  0
  -26.0898  -31.5536   20.6032 H   0  0  0  0  0  0
  -26.8409  -30.8404   22.0003 H   0  0  0  0  0  0
  -28.1179  -28.9901   21.1831 H   0  0  0  0  0  0
  -26.0053  -25.9205   19.0107 H   0  0  0  0  0  0
  -23.9743  -27.2986   19.0140 H   0  0  0  0  0  0
  -23.7539  -30.5901   19.4030 H   0  0  0  0  0  0
  -22.7543  -29.2439   19.8579 H   0  0  0  0  0  0
  -25.1293  -36.1930   25.0821 H   0  0  0  0  0  0
  -20.9973  -28.3258   24.1408 H   0  0  0  0  0  0
  -20.5678  -26.2293   23.3610 H   0  0  0  0  0  0
  -21.6641  -26.7440   22.1202 H   0  0  0  0  0  0
  -19.6913  -25.6295   21.1238 H   0  0  0  0  0  0
  -19.6690  -27.3197   20.6747 H   0  0  0  0  0  0
  -17.4200  -26.6676   21.4022 H   0  0  0  0  0  0
  -18.0326  -26.0067   22.9016 H   0  0  0  0  0  0
  -19.7938  -30.7269   24.2263 H   0  0  0  0  0  0
  -17.5017  -31.6264   24.5168 H   0  0  0  0  0  0
  -15.5353  -30.2987   23.7658 H   0  0  0  0  0  0
  -15.8670  -28.0827   22.7061 H   0  0  0  0  0  0
  -24.5909  -30.7071   25.7781 H   0  0  0  0  0  0
  -24.8926  -32.2888   26.4877 H   0  0  0  0  0  0
  -25.8061  -30.8900   27.0223 H   0  0  0  0  0  0
  -26.2919  -29.6761   24.1204 H   0  0  0  0  0  0
  -27.4057  -29.7275   25.4674 H   0  0  0  0  0  0
  -27.8779  -30.4306   23.9386 H   0  0  0  0  0  0
  -27.2650  -33.3628   26.2066 H   0  0  0  0  0  0
  -28.3863  -32.6894   25.0329 H   0  0  0  0  0  0
  -28.0713  -31.8463   26.5420 H   0  0  0  0  0  0
  -28.2594  -38.0097   24.7509 H   0  0  0  0  0  0
  -28.1071  -36.2627   24.6293 H   0  0  0  0  0  0
  -27.2293  -37.1453   25.8868 H   0  0  0  0  0  0
  -20.9366  -29.8763   21.6895 H   0  0  0  0  0  0
  -26.0168  -38.2849   24.1414 H   0  0  0  0  0  0
  -30.6217  -19.1682   18.2242 H   0  0  0  0  0  0
  -30.8895  -16.9027   18.9131 H   0  0  0  0  0  0
  -28.4278  -20.0599   21.8236 H   0  0  0  0  0  0
  -30.5969  -16.2442   23.2467 H   0  0  0  0  0  0
  -30.5446  -14.5099   23.0460 H   0  0  0  0  0  0
  -29.0445  -15.4110   23.1274 H   0  0  0  0  0  0
  -28.4130  -23.9824   18.7769 H   0  0  0  0  0  0
  -29.8947  -24.1098   19.6823 H   0  0  0  0  0  0
  -27.6004  -22.1411   20.3585 H   0  0  0  0  0  0
  -29.0469  -22.3160   21.3083 H   0  0  0  0  0  0
  -28.5530  -25.0401   21.6130 H   0  0  0  0  0  0
  -27.0965  -24.8381   20.7191 H   0  0  0  0  0  0
  -30.2547  -21.0921   17.5743 H   0  0  0  0  0  0
  -29.1721  -22.4303   17.6797 H   0  0  0  0  0  0
  1 25  1  0  0  0
  1 30  2  0  0  0
  1 82  1  0  0  0
  2  3  1  0  0  0
  2 25  1  0  0  0
  2 86  1  0  0  0
  2 87  1  0  0  0
  3  4  1  0  0  0
  3 88  1  0  0  0
  3 89  1  0  0  0
  4  5  1  0  0  0
  4 90  1  0  0  0
  4 91  1  0  0  0
  5  6  1  0  0  0
  5 26  1  0  0  0
  5 92  1  0  0  0
  6 25  1  0  0  0
  6 93  1  0  0  0
  6 94  1  0  0  0
  7  8  2  0  0  0
  7 26  1  0  0  0
  7 29  1  0  0  0
  8  9  1  0  0  0
  8 22  1  0  0  0
  9 10  1  0  0  0
  9 27  2  0  0  0
 10 11  2  0  0  0
 10 15  1  0  0  0
 11 12  1  0  0  0
 11 95  1  0  0  0
 12 13  2  0  0  0
 12 96  1  0  0  0
 13 14  1  0  0  0
 13 31  1  0  0  0
 14 15  2  0  0  0
 14 97  1  0  0  0
 15 98  1  0  0  0
 16 17  2  0  0  0
 16 21  1  0  0  0
 16 31  1  0  0  0
 17 18  1  0  0  0
 17 99  1  0  0  0
 18 19  2  0  0  0
 18100  1  0  0  0
 19 20  1  0  0  0
 19 24  1  0  0  0
 20 21  2  0  0  0
 20101  1  0  0  0
 21 23  1  0  0  0
 22 28  1  0  0  0
 22 32  2  0  0  0
 26 27  1  0  0  0
 28102  1  0  0  0
 28103  1  0  0  0
 29104  1  0  0  0
 29105  1  0  0  0
 33 34  1  0  0  0
 33 66  1  0  0  0
 33 70  2  0  0  0
 34 36  1  0  0  0
 34 59  1  0  0  0
 34106  1  0  0  0
 35 44  2  0  0  0
 35 45  1  0  0  0
 35 68  1  0  0  0
 36 56  1  0  0  0
 36107  1  0  0  0
 37 39  1  0  0  0
 37 47  1  0  0  0
 37 66  1  0  0  0
 37108  1  0  0  0
 38 43  2  0  0  0
 38 46  1  0  0  0
 38 47  1  0  0  0
 39 64  1  0  0  0
 39 67  2  0  0  0
 40 52  1  0  0  0
 40 53  2  0  0  0
 40 58  1  0  0  0
 41109  1  0  0  0
 41110  1  0  0  0
 41111  1  0  0  0
 41 48  1  0  0  0
 42 43  1  0  0  0
 42 66  1  0  0  0
 42112  1  0  0  0
 42113  1  0  0  0
 43 44  1  0  0  0
 44114  1  0  0  0
 45 46  2  0  0  0
 45115  1  0  0  0
 46116  1  0  0  0
 47117  1  0  0  0
 47118  1  0  0  0
 48 56  1  0  0  0
 48 65  1  0  0  0
 48119  1  0  0  0
 49 50  1  0  0  0
 49 53  1  0  0  0
 49 64  1  0  0  0
 49120  1  0  0  0
 50 51  1  0  0  0
 50121  1  0  0  0
 50122  1  0  0  0
 51 52  1  0  0  0
 51123  1  0  0  0
 51124  1  0  0  0
 52125  1  0  0  0
 52126  1  0  0  0
 53 54  1  0  0  0
 54 55  2  0  0  0
 54127  1  0  0  0
 55 57  1  0  0  0
 55128  1  0  0  0
 56 69  2  0  0  0
 57 58  2  0  0  0
 57129  1  0  0  0
 58130  1  0  0  0
 59 60  1  0  0  0
 59 61  1  0  0  0
 59 62  1  0  0  0
 60131  1  0  0  0
 60132  1  0  0  0
 60133  1  0  0  0
 61134  1  0  0  0
 61135  1  0  0  0
 61136  1  0  0  0
 62137  1  0  0  0
 62138  1  0  0  0
 62139  1  0  0  0
 63 65  1  0  0  0
 63140  1  0  0  0
 63141  1  0  0  0
 63142  1  0  0  0
 64143  1  0  0  0
 65144  1  0  0  0
 68 80  1  0  0  0
 71 72  2  0  0  0
 71 74  1  0  0  0
 71145  1  0  0  0
 72 75  1  0  0  0
 72146  1  0  0  0
 73 74  2  0  0  0
 73 76  1  0  0  0
 73147  1  0  0  0
 74 83  1  0  0  0
 75 76  2  0  0  0
 75 82  1  0  0  0
 76 84  1  0  0  0
 77 82  1  0  0  0
 77148  1  0  0  0
 77149  1  0  0  0
 77150  1  0  0  0
 78 79  1  0  0  0
 78 80  1  0  0  0
 78151  1  0  0  0
 78152  1  0  0  0
 79 83  1  0  0  0
 79153  1  0  0  0
 79154  1  0  0  0
 80155  1  0  0  0
 80156  1  0  0  0
 81 83  1  0  0  0
 81 85  1  0  0  0
 81157  1  0  0  0
 81158  1  0  0  0
M  ISO  4   1 100  68 101  80 101  82 100
M  END
> <chiral flag>
0

> <version>
0

> <s_m_source_file>
/data/baiqing/PycharmProjects/Reinvent-master-3.2/result/LINK_invent/BTK/process_docking_weight1_custom_product_contain_oxygen_bond_distance_aromatic_linkinvent_7_9_3/rearranged_h_0013.sdf

> <i_m_source_file_index>
95

> <r_mmod_Potential_Energy-OPLS-2005>
229.957092285156

> <r_mmod_Stretch_Energy-OPLS-2005>
98.2901382446289

> <r_mmod_Bend_Energy-OPLS-2005>
156.153106689453

> <r_mmod_Torsional_Energy-OPLS-2005>
279.135437011719

> <r_mmod_Improper_Torsional_Energy-OPLS-2005>
4.10430717468262

> <r_mmod_Van_der_Waal_Energy-OPLS-2005>
166.609878540039

> <r_mmod_Electrostatic_Energy-OPLS-2005>
-321.233245849609

> <r_mmod_Solvation_Energy-OPLS-2005>
-197.75341796875

> <b_mmod_Minimization_Converged-OPLS-2005>
0

> <r_mmod_RMS_Derivative-OPLS-2005>
0.304334193468094

$$$$
96
                    3D
 Structure written by MMmdl.
151159  0  0  1  0            999 V2000
  -30.6207  -14.6404   20.5017 C   0  0  0  0  0  0
  -30.4366  -12.3919   19.4535 C   0  0  0  0  0  0
  -29.5098  -12.5192   18.2233 C   0  0  0  0  0  0
  -28.0301  -12.3614   18.6287 C   0  0  0  0  0  0
  -27.6546  -13.2197   19.8662 C   0  0  2  0  0  0
  -28.6989  -13.0661   20.9954 C   0  0  0  0  0  0
  -25.2562  -13.8176   20.5677 C   0  0  0  0  0  0
  -24.1832  -13.0437   20.9184 C   0  0  0  0  0  0
  -24.6408  -11.6909   20.8734 C   0  0  0  0  0  0
  -23.9071  -10.4294   21.0403 C   0  0  0  0  0  0
  -24.3624   -9.4210   21.9184 C   0  0  0  0  0  0
  -23.6305   -8.2243   22.0754 C   0  0  0  0  0  0
  -22.4286   -8.0284   21.3541 C   0  0  0  0  0  0
  -21.9914   -9.0260   20.4646 C   0  0  0  0  0  0
  -22.7240  -10.2138   20.3055 C   0  0  0  0  0  0
  -21.6857   -6.0737   22.5278 C   0  0  0  0  0  0
  -21.4014   -6.5640   23.8212 C   0  0  0  0  0  0
  -21.3660   -5.6793   24.9175 C   0  0  0  0  0  0
  -21.6046   -4.3057   24.7221 C   0  0  0  0  0  0
  -21.8818   -3.8145   23.4342 C   0  0  0  0  0  0
  -21.9192   -4.6963   22.3399 C   0  0  0  0  0  0
  -22.7853  -13.5234   21.1843 C   0  0  0  0  0  0
  -22.1661   -4.2148   21.0977 F   0  0  0  0  0  0
  -21.5634   -3.4541   25.7733 F   0  0  0  0  0  0
  -30.0151  -13.4116   20.4353 N   0  0  0  0  0  0
  -26.2997  -12.9363   20.3319 N   0  0  0  0  0  0
  -25.9335  -11.6512   20.5749 N   0  0  0  0  0  0
  -22.0486  -12.8240   22.0403 N   0  0  0  0  0  0
  -25.4262  -15.1899   20.4079 N   0  0  0  0  0  0
  -31.7816  -14.8007   20.1137 O   0  0  0  0  0  0
  -21.6645   -6.8881   21.4242 O   0  0  0  0  0  0
  -22.3545  -14.5541   20.6689 O   0  0  0  0  0  0
  -24.6261  -31.8609   23.2045 C   0  0  0  0  0  0
  -25.9106  -32.4786   23.8370 C   0  0  1  0  0  0
  -27.2208  -27.3184   20.1168 C   0  0  0  0  0  0
  -25.5922  -33.8588   24.2296 N   0  0  0  0  0  0
  -23.4191  -30.4865   21.5481 C   0  0  2  0  0  0
  -24.8644  -28.9431   20.1147 C   0  0  0  0  0  0
  -22.7475  -29.4631   22.4947 C   0  0  0  0  0  0
  -18.0285  -28.1384   22.8493 C   0  0  0  0  0  0
  -24.1484  -36.7305   23.2639 C   0  0  0  0  0  0
  -25.9610  -30.7917   21.3754 C   0  0  0  0  0  0
  -26.0348  -29.4188   20.7191 C   0  0  0  0  0  0
  -27.2166  -28.6186   20.7108 C   0  0  0  0  0  0
  -26.0277  -26.9035   19.4793 C   0  0  0  0  0  0
  -24.8629  -27.6902   19.4870 C   0  0  0  0  0  0
  -23.6338  -29.8253   20.1625 C   0  0  0  0  0  0
  -25.4108  -36.3093   24.0334 C   0  0  1  0  0  0
  -20.5887  -28.3687   23.1297 C   0  0  2  0  0  0
  -20.6778  -26.9412   22.5417 C   0  0  0  0  0  0
  -19.5748  -26.6383   21.5224 C   0  0  0  0  0  0
  -18.1930  -26.7927   22.1635 C   0  0  0  0  0  0
  -19.1538  -28.8852   23.2889 C   0  0  0  0  0  0
  -18.9458  -30.1459   23.8898 C   0  0  0  0  0  0
  -17.6457  -30.6586   24.0566 C   0  0  0  0  0  0
  -25.9048  -34.9459   23.5116 C   0  0  0  0  0  0
  -16.5350  -29.9089   23.6324 C   0  0  0  0  0  0
  -16.7273  -28.6507   23.0345 C   0  0  0  0  0  0
  -26.4484  -31.6584   25.0734 C   0  0  0  0  0  0
  -25.3716  -31.3731   26.1462 C   0  0  0  0  0  0
  -27.0320  -30.3006   24.6178 C   0  0  0  0  0  0
  -27.6040  -32.4319   25.7509 C   0  0  0  0  0  0
  -27.5581  -37.1809   24.8464 C   0  0  0  0  0  0
  -21.4188  -29.3042   22.3692 N   0  0  0  0  0  0
  -26.4287  -37.3788   23.9414 N   0  0  0  0  0  0
  -24.6878  -31.0628   22.0996 N   0  0  0  0  0  0
  -23.4204  -28.8162   23.3016 O   0  0  0  0  0  0
  -28.3380  -26.4663   20.1474 O   0  0  0  0  0  0
  -26.5621  -34.8920   22.4686 O   0  0  0  0  0  0
  -23.5426  -32.1409   23.7376 O   0  0  0  0  0  0
  -30.9863  -17.8445   20.1353 C   0  0  0  0  0  0
  -30.9685  -19.2641   19.9932 C   0  0  0  0  0  0
  -28.7959  -17.9532   21.1125 C   0  0  0  0  0  0
  -29.8921  -17.1406   20.7028 C   0  0  0  0  0  0
  -29.8751  -20.0780   20.4000 C   0  0  0  0  0  0
  -28.7766  -19.3749   20.9706 C   0  0  0  0  0  0
  -29.2657  -23.9632   20.2182 C   0  0  0  0  0  0
  -28.0896  -25.0186   20.3689 C   0  0  0  0  0  0
  -28.9132  -22.4303   20.4994 C   0  0  0  0  0  0
  -29.8096  -15.6840   20.8721 N   0  0  0  0  0  0
  -29.9850  -21.4758   20.2123 O   0  0  0  0  0  0
  -27.6825  -20.0505   21.3985 F   0  0  0  0  0  0
  -31.4800  -12.5130   19.1578 H   0  0  0  0  0  0
  -30.3636  -11.3933   19.8877 H   0  0  0  0  0  0
  -29.7745  -11.7737   17.4721 H   0  0  0  0  0  0
  -29.6578  -13.4925   17.7514 H   0  0  0  0  0  0
  -27.8564  -11.3069   18.8449 H   0  0  0  0  0  0
  -27.3814  -12.6100   17.7878 H   0  0  0  0  0  0
  -27.6751  -14.2577   19.5349 H   0  0  0  0  0  0
  -28.7070  -12.0412   21.3704 H   0  0  0  0  0  0
  -28.4466  -13.6905   21.8533 H   0  0  0  0  0  0
  -25.2762   -9.5698   22.4766 H   0  0  0  0  0  0
  -24.0009   -7.4636   22.7478 H   0  0  0  0  0  0
  -21.0837   -8.8783   19.8964 H   0  0  0  0  0  0
  -22.3691  -10.9683   19.6175 H   0  0  0  0  0  0
  -21.2008   -7.6150   23.9716 H   0  0  0  0  0  0
  -21.1488   -6.0523   25.9081 H   0  0  0  0  0  0
  -22.0595   -2.7607   23.2840 H   0  0  0  0  0  0
  -22.4089  -11.9910   22.4815 H   0  0  0  0  0  0
  -21.1103  -13.1286   22.2588 H   0  0  0  0  0  0
  -24.6535  -15.8392   20.5078 H   0  0  0  0  0  0
  -26.2659  -15.6258   20.0488 H   0  0  0  0  0  0
  -26.7176  -32.5454   23.1120 H   0  0  0  0  0  0
  -25.0041  -33.9736   25.0421 H   0  0  0  0  0  0
  -22.7122  -31.3072   21.4089 H   0  0  0  0  0  0
  -23.3742  -35.9641   23.3296 H   0  0  0  0  0  0
  -24.3581  -36.8930   22.2055 H   0  0  0  0  0  0
  -23.7231  -37.6505   23.6659 H   0  0  0  0  0  0
  -26.0901  -31.5536   20.6055 H   0  0  0  0  0  0
  -26.8432  -30.8433   22.0018 H   0  0  0  0  0  0
  -28.1141  -28.9809   21.1926 H   0  0  0  0  0  0
  -25.9631  -25.9651   18.9527 H   0  0  0  0  0  0
  -23.9688  -27.3238   19.0015 H   0  0  0  0  0  0
  -23.7580  -30.6052   19.4102 H   0  0  0  0  0  0
  -22.7510  -29.2610   19.8558 H   0  0  0  0  0  0
  -25.1278  -36.1954   25.0826 H   0  0  0  0  0  0
  -20.9986  -28.3259   24.1416 H   0  0  0  0  0  0
  -20.5700  -26.2292   23.3614 H   0  0  0  0  0  0
  -21.6645  -26.7453   22.1199 H   0  0  0  0  0  0
  -19.6912  -25.6297   21.1248 H   0  0  0  0  0  0
  -19.6681  -27.3198   20.6759 H   0  0  0  0  0  0
  -17.4202  -26.6681   21.4034 H   0  0  0  0  0  0
  -18.0319  -26.0066   22.9030 H   0  0  0  0  0  0
  -19.7934  -30.7281   24.2258 H   0  0  0  0  0  0
  -17.5009  -31.6264   24.5173 H   0  0  0  0  0  0
  -15.5352  -30.2993   23.7638 H   0  0  0  0  0  0
  -15.8675  -28.0836   22.7043 H   0  0  0  0  0  0
  -24.5875  -30.7096   25.7793 H   0  0  0  0  0  0
  -24.8922  -32.2904   26.4894 H   0  0  0  0  0  0
  -25.8038  -30.8898   27.0234 H   0  0  0  0  0  0
  -26.2896  -29.6772   24.1177 H   0  0  0  0  0  0
  -27.3990  -29.7243   25.4681 H   0  0  0  0  0  0
  -27.8778  -30.4287   23.9419 H   0  0  0  0  0  0
  -27.2638  -33.3610   26.2096 H   0  0  0  0  0  0
  -28.3847  -32.6897   25.0339 H   0  0  0  0  0  0
  -28.0707  -31.8436   26.5420 H   0  0  0  0  0  0
  -28.2592  -38.0112   24.7515 H   0  0  0  0  0  0
  -28.1081  -36.2644   24.6274 H   0  0  0  0  0  0
  -27.2308  -37.1443   25.8869 H   0  0  0  0  0  0
  -20.9359  -29.8783   21.6922 H   0  0  0  0  0  0
  -26.0170  -38.2865   24.1414 H   0  0  0  0  0  0
  -31.8602  -17.3082   19.7940 H   0  0  0  0  0  0
  -31.8306  -19.7434   19.5523 H   0  0  0  0  0  0
  -27.9270  -17.4854   21.5514 H   0  0  0  0  0  0
  -30.0869  -24.2585   20.8705 H   0  0  0  0  0  0
  -29.6558  -24.0408   19.2037 H   0  0  0  0  0  0
  -27.6780  -24.9194   21.3744 H   0  0  0  0  0  0
  -27.3178  -24.6505   19.6997 H   0  0  0  0  0  0
  -28.0446  -22.1532   19.9005 H   0  0  0  0  0  0
  -28.6236  -22.3281   21.5461 H   0  0  0  0  0  0
  -28.9203  -15.3590   21.2197 H   0  0  0  0  0  0
  1 25  1  0  0  0
  1 30  2  0  0  0
  1 80  1  0  0  0
  2  3  1  0  0  0
  2 25  1  0  0  0
  2 83  1  0  0  0
  2 84  1  0  0  0
  3  4  1  0  0  0
  3 85  1  0  0  0
  3 86  1  0  0  0
  4  5  1  0  0  0
  4 87  1  0  0  0
  4 88  1  0  0  0
  5  6  1  0  0  0
  5 26  1  0  0  0
  5 89  1  0  0  0
  6 25  1  0  0  0
  6 90  1  0  0  0
  6 91  1  0  0  0
  7  8  2  0  0  0
  7 26  1  0  0  0
  7 29  1  0  0  0
  8  9  1  0  0  0
  8 22  1  0  0  0
  9 10  1  0  0  0
  9 27  2  0  0  0
 10 11  2  0  0  0
 10 15  1  0  0  0
 11 12  1  0  0  0
 11 92  1  0  0  0
 12 13  2  0  0  0
 12 93  1  0  0  0
 13 14  1  0  0  0
 13 31  1  0  0  0
 14 15  2  0  0  0
 14 94  1  0  0  0
 15 95  1  0  0  0
 16 17  2  0  0  0
 16 21  1  0  0  0
 16 31  1  0  0  0
 17 18  1  0  0  0
 17 96  1  0  0  0
 18 19  2  0  0  0
 18 97  1  0  0  0
 19 20  1  0  0  0
 19 24  1  0  0  0
 20 21  2  0  0  0
 20 98  1  0  0  0
 21 23  1  0  0  0
 22 28  1  0  0  0
 22 32  2  0  0  0
 26 27  1  0  0  0
 28 99  1  0  0  0
 28100  1  0  0  0
 29101  1  0  0  0
 29102  1  0  0  0
 33 34  1  0  0  0
 33 66  1  0  0  0
 33 70  2  0  0  0
 34 36  1  0  0  0
 34 59  1  0  0  0
 34103  1  0  0  0
 35 44  2  0  0  0
 35 45  1  0  0  0
 35 68  1  0  0  0
 36 56  1  0  0  0
 36104  1  0  0  0
 37 39  1  0  0  0
 37 47  1  0  0  0
 37 66  1  0  0  0
 37105  1  0  0  0
 38 43  2  0  0  0
 38 46  1  0  0  0
 38 47  1  0  0  0
 39 64  1  0  0  0
 39 67  2  0  0  0
 40 52  1  0  0  0
 40 53  2  0  0  0
 40 58  1  0  0  0
 41106  1  0  0  0
 41107  1  0  0  0
 41108  1  0  0  0
 41 48  1  0  0  0
 42 43  1  0  0  0
 42 66  1  0  0  0
 42109  1  0  0  0
 42110  1  0  0  0
 43 44  1  0  0  0
 44111  1  0  0  0
 45 46  2  0  0  0
 45112  1  0  0  0
 46113  1  0  0  0
 47114  1  0  0  0
 47115  1  0  0  0
 48 56  1  0  0  0
 48 65  1  0  0  0
 48116  1  0  0  0
 49 50  1  0  0  0
 49 53  1  0  0  0
 49 64  1  0  0  0
 49117  1  0  0  0
 50 51  1  0  0  0
 50118  1  0  0  0
 50119  1  0  0  0
 51 52  1  0  0  0
 51120  1  0  0  0
 51121  1  0  0  0
 52122  1  0  0  0
 52123  1  0  0  0
 53 54  1  0  0  0
 54 55  2  0  0  0
 54124  1  0  0  0
 55 57  1  0  0  0
 55125  1  0  0  0
 56 69  2  0  0  0
 57 58  2  0  0  0
 57126  1  0  0  0
 58127  1  0  0  0
 59 60  1  0  0  0
 59 61  1  0  0  0
 59 62  1  0  0  0
 60128  1  0  0  0
 60129  1  0  0  0
 60130  1  0  0  0
 61131  1  0  0  0
 61132  1  0  0  0
 61133  1  0  0  0
 62134  1  0  0  0
 62135  1  0  0  0
 62136  1  0  0  0
 63 65  1  0  0  0
 63137  1  0  0  0
 63138  1  0  0  0
 63139  1  0  0  0
 64140  1  0  0  0
 65141  1  0  0  0
 68 78  1  0  0  0
 71 72  2  0  0  0
 71 74  1  0  0  0
 71142  1  0  0  0
 72 75  1  0  0  0
 72143  1  0  0  0
 73 74  2  0  0  0
 73 76  1  0  0  0
 73144  1  0  0  0
 74 80  1  0  0  0
 75 76  2  0  0  0
 75 81  1  0  0  0
 76 82  1  0  0  0
 77 78  1  0  0  0
 77 79  1  0  0  0
 77145  1  0  0  0
 77146  1  0  0  0
 78147  1  0  0  0
 78148  1  0  0  0
 79 81  1  0  0  0
 79149  1  0  0  0
 79150  1  0  0  0
 80151  1  0  0  0
M  ISO  4   1 100  68 101  78 101  80 100
M  END
> <chiral flag>
0

> <version>
0

> <s_m_source_file>
/data/baiqing/PycharmProjects/Reinvent-master-3.2/result/LINK_invent/BTK/process_docking_weight1_custom_product_contain_oxygen_bond_distance_aromatic_linkinvent_7_9_3/rearranged_h_0013.sdf

> <i_m_source_file_index>
96

> <r_mmod_Potential_Energy-OPLS-2005>
74.7860946655273

> <r_mmod_Stretch_Energy-OPLS-2005>
79.5826568603516

> <r_mmod_Bend_Energy-OPLS-2005>
147.580917358398

> <r_mmod_Torsional_Energy-OPLS-2005>
214.559097290039

> <r_mmod_Improper_Torsional_Energy-OPLS-2005>
3.90157985687256

> <r_mmod_Van_der_Waal_Energy-OPLS-2005>
146.884353637695

> <r_mmod_Electrostatic_Energy-OPLS-2005>
-358.382598876953

> <r_mmod_Solvation_Energy-OPLS-2005>
-207.118133544922

> <b_mmod_Minimization_Converged-OPLS-2005>
0

> <r_mmod_RMS_Derivative-OPLS-2005>
1.06894218921661

$$$$
97
                    3D
 Structure written by MMmdl.
157165  0  0  1  0            999 V2000
  -30.7104  -14.4241   20.6218 C   0  0  0  0  0  0
  -30.4263  -12.2938   19.4132 C   0  0  0  0  0  0
  -29.4936  -12.5303   18.2072 C   0  0  0  0  0  0
  -28.0150  -12.3840   18.6167 C   0  0  0  0  0  0
  -27.6676  -13.2055   19.8855 C   0  0  2  0  0  0
  -28.7046  -12.9442   20.9991 C   0  0  0  0  0  0
  -25.2599  -13.8167   20.5700 C   0  0  0  0  0  0
  -24.1827  -13.0452   20.9151 C   0  0  0  0  0  0
  -24.6379  -11.6923   20.8726 C   0  0  0  0  0  0
  -23.9051  -10.4297   21.0395 C   0  0  0  0  0  0
  -24.3600   -9.4211   21.9173 C   0  0  0  0  0  0
  -23.6272   -8.2246   22.0744 C   0  0  0  0  0  0
  -22.4252   -8.0277   21.3539 C   0  0  0  0  0  0
  -21.9894   -9.0255   20.4646 C   0  0  0  0  0  0
  -22.7223  -10.2131   20.3048 C   0  0  0  0  0  0
  -21.6855   -6.0722   22.5265 C   0  0  0  0  0  0
  -21.4027   -6.5630   23.8200 C   0  0  0  0  0  0
  -21.3665   -5.6783   24.9165 C   0  0  0  0  0  0
  -21.6038   -4.3041   24.7223 C   0  0  0  0  0  0
  -21.8822   -3.8133   23.4342 C   0  0  0  0  0  0
  -21.9194   -4.6950   22.3397 C   0  0  0  0  0  0
  -22.7850  -13.5249   21.1830 C   0  0  0  0  0  0
  -22.1658   -4.2132   21.0973 F   0  0  0  0  0  0
  -21.5628   -3.4527   25.7736 F   0  0  0  0  0  0
  -30.0520  -13.2430   20.4719 N   0  0  0  0  0  0
  -26.3044  -12.9343   20.3413 N   0  0  0  0  0  0
  -25.9307  -11.6508   20.5765 N   0  0  0  0  0  0
  -22.0492  -12.8246   22.0394 N   0  0  0  0  0  0
  -25.4346  -15.1888   20.4164 N   0  0  0  0  0  0
  -31.7513  -14.7064   20.0204 O   0  0  0  0  0  0
  -21.6634   -6.8862   21.4225 O   0  0  0  0  0  0
  -22.3536  -14.5556   20.6674 O   0  0  0  0  0  0
  -24.6132  -31.8699   23.2112 C   0  0  0  0  0  0
  -25.9027  -32.4835   23.8404 C   0  0  1  0  0  0
  -27.2388  -27.4676   20.0822 C   0  0  0  0  0  0
  -25.5903  -33.8635   24.2348 N   0  0  0  0  0  0
  -23.3995  -30.4906   21.5524 C   0  0  2  0  0  0
  -24.8475  -28.9595   20.1134 C   0  0  0  0  0  0
  -22.7402  -29.4664   22.5028 C   0  0  0  0  0  0
  -18.0285  -28.1340   22.8472 C   0  0  0  0  0  0
  -24.1482  -36.7325   23.2629 C   0  0  0  0  0  0
  -25.9244  -30.8445   21.3587 C   0  0  0  0  0  0
  -26.0049  -29.4797   20.7073 C   0  0  0  0  0  0
  -27.2070  -28.7403   20.6897 C   0  0  0  0  0  0
  -26.0705  -26.9519   19.4842 C   0  0  0  0  0  0
  -24.8742  -27.6945   19.4992 C   0  0  0  0  0  0
  -23.6055  -29.8195   20.1669 C   0  0  0  0  0  0
  -25.4102  -36.3129   24.0340 C   0  0  1  0  0  0
  -20.5857  -28.3670   23.1368 C   0  0  2  0  0  0
  -20.6781  -26.9403   22.5494 C   0  0  0  0  0  0
  -19.5823  -26.6395   21.5224 C   0  0  0  0  0  0
  -18.1970  -26.7897   22.1572 C   0  0  0  0  0  0
  -19.1512  -28.8819   23.2901 C   0  0  0  0  0  0
  -18.9418  -30.1425   23.8909 C   0  0  0  0  0  0
  -17.6410  -30.6553   24.0522 C   0  0  0  0  0  0
  -25.9029  -34.9488   23.5140 C   0  0  0  0  0  0
  -16.5322  -29.9034   23.6284 C   0  0  0  0  0  0
  -16.7262  -28.6449   23.0317 C   0  0  0  0  0  0
  -26.4463  -31.6603   25.0720 C   0  0  0  0  0  0
  -25.3739  -31.3708   26.1487 C   0  0  0  0  0  0
  -27.0275  -30.3050   24.6052 C   0  0  0  0  0  0
  -27.6050  -32.4313   25.7478 C   0  0  0  0  0  0
  -27.5580  -37.1819   24.8461 C   0  0  0  0  0  0
  -21.4134  -29.3043   22.3789 N   0  0  0  0  0  0
  -26.4291  -37.3811   23.9408 N   0  0  0  0  0  0
  -24.6640  -31.0815   22.0997 N   0  0  0  0  0  0
  -23.4179  -28.8189   23.3049 O   0  0  0  0  0  0
  -28.3935  -26.7265   20.0689 O   0  0  0  0  0  0
  -26.5582  -34.8930   22.4693 O   0  0  0  0  0  0
  -23.5337  -32.1450   23.7527 O   0  0  0  0  0  0
  -28.6566  -18.5792   22.2584 C   0  0  0  0  0  0
  -29.5905  -18.7017   20.0159 C   0  0  0  0  0  0
  -29.1338  -17.2615   22.3906 C   0  0  0  0  0  0
  -30.0866  -17.3822   20.1545 C   0  0  0  0  0  0
  -28.8496  -19.3002   21.0608 C   0  0  0  0  0  0
  -29.8304  -16.6387   21.3355 C   0  0  0  0  0  0
  -28.1452  -20.6459   20.8857 C   0  0  0  0  0  0
  -28.3749  -23.0896   21.0963 C   0  0  0  0  0  0
  -28.3767  -25.6316   20.9874 C   0  0  0  0  0  0
  -28.8853  -24.3291   20.3259 C   0  0  1  0  0  0
  -30.1539  -15.2618   21.5092 N   0  0  0  0  0  0
  -29.0256  -21.8194   20.6949 N   0  3  0  0  0  0
  -30.3051  -24.3394   20.3232 O   0  0  0  0  0  0
  -31.4710  -12.3984   19.1159 H   0  0  0  0  0  0
  -30.3248  -11.2730   19.7847 H   0  0  0  0  0  0
  -29.7296  -11.8383   17.3984 H   0  0  0  0  0  0
  -29.6594  -13.5344   17.8124 H   0  0  0  0  0  0
  -27.8184  -11.3257   18.7953 H   0  0  0  0  0  0
  -27.3618  -12.6782   17.7936 H   0  0  0  0  0  0
  -27.7257  -14.2605   19.6168 H   0  0  0  0  0  0
  -28.6676  -11.8993   21.3123 H   0  0  0  0  0  0
  -28.4477  -13.5154   21.8916 H   0  0  0  0  0  0
  -25.2752   -9.5677   22.4751 H   0  0  0  0  0  0
  -23.9977   -7.4636   22.7466 H   0  0  0  0  0  0
  -21.0820   -8.8776   19.8960 H   0  0  0  0  0  0
  -22.3677  -10.9667   19.6149 H   0  0  0  0  0  0
  -21.2031   -7.6140   23.9696 H   0  0  0  0  0  0
  -21.1484   -6.0517   25.9065 H   0  0  0  0  0  0
  -22.0598   -2.7596   23.2845 H   0  0  0  0  0  0
  -22.4124  -11.9917   22.4785 H   0  0  0  0  0  0
  -21.1110  -13.1271   22.2618 H   0  0  0  0  0  0
  -24.6784  -15.8536   20.5429 H   0  0  0  0  0  0
  -26.3083  -15.6282   20.1515 H   0  0  0  0  0  0
  -26.7096  -32.5544   23.1173 H   0  0  0  0  0  0
  -25.0097  -33.9807   25.0525 H   0  0  0  0  0  0
  -22.6851  -31.3047   21.4135 H   0  0  0  0  0  0
  -23.3739  -35.9664   23.3305 H   0  0  0  0  0  0
  -24.3568  -36.8929   22.2039 H   0  0  0  0  0  0
  -23.7245  -37.6540   23.6630 H   0  0  0  0  0  0
  -26.0249  -31.6086   20.5857 H   0  0  0  0  0  0
  -26.8159  -30.9033   21.9716 H   0  0  0  0  0  0
  -28.1034  -29.1363   21.1480 H   0  0  0  0  0  0
  -26.0881  -25.9812   19.0087 H   0  0  0  0  0  0
  -23.9872  -27.2911   19.0317 H   0  0  0  0  0  0
  -23.7010  -30.5914   19.4015 H   0  0  0  0  0  0
  -22.7340  -29.2290   19.8808 H   0  0  0  0  0  0
  -25.1273  -36.2001   25.0836 H   0  0  0  0  0  0
  -20.9896  -28.3250   24.1505 H   0  0  0  0  0  0
  -20.5636  -26.2273   23.3679 H   0  0  0  0  0  0
  -21.6672  -26.7457   22.1329 H   0  0  0  0  0  0
  -19.7055  -25.6340   21.1195 H   0  0  0  0  0  0
  -19.6816  -27.3276   20.6816 H   0  0  0  0  0  0
  -17.4285  -26.6665   21.3921 H   0  0  0  0  0  0
  -18.0356  -26.0006   22.8928 H   0  0  0  0  0  0
  -19.7870  -30.7250   24.2306 H   0  0  0  0  0  0
  -17.4951  -31.6247   24.5083 H   0  0  0  0  0  0
  -15.5319  -30.2931   23.7576 H   0  0  0  0  0  0
  -15.8671  -28.0762   22.7013 H   0  0  0  0  0  0
  -24.5905  -30.7057   25.7832 H   0  0  0  0  0  0
  -24.8934  -32.2869   26.4941 H   0  0  0  0  0  0
  -25.8113  -30.8882   27.0237 H   0  0  0  0  0  0
  -26.2811  -29.6843   24.1086 H   0  0  0  0  0  0
  -27.4041  -29.7252   25.4481 H   0  0  0  0  0  0
  -27.8642  -30.4375   23.9187 H   0  0  0  0  0  0
  -27.2674  -33.3600   26.2095 H   0  0  0  0  0  0
  -28.3842  -32.6907   25.0292 H   0  0  0  0  0  0
  -28.0733  -31.8412   26.5368 H   0  0  0  0  0  0
  -28.2615  -38.0099   24.7506 H   0  0  0  0  0  0
  -28.1064  -36.2640   24.6292 H   0  0  0  0  0  0
  -27.2294  -37.1477   25.8862 H   0  0  0  0  0  0
  -20.9286  -29.8802   21.7053 H   0  0  0  0  0  0
  -26.0188  -38.2895   24.1401 H   0  0  0  0  0  0
  -28.0910  -19.0101   23.0725 H   0  0  0  0  0  0
  -29.7483  -19.2316   19.0858 H   0  0  0  0  0  0
  -28.9224  -16.7170   23.3010 H   0  0  0  0  0  0
  -30.6153  -16.9436   19.3203 H   0  0  0  0  0  0
  -27.5404  -20.8094   21.7787 H   0  0  0  0  0  0
  -27.4403  -20.5810   20.0561 H   0  0  0  0  0  0
  -27.2990  -23.0139   20.9274 H   0  0  0  0  0  0
  -28.5068  -23.2212   22.1720 H   0  0  0  0  0  0
  -28.9785  -25.8917   21.8596 H   0  0  0  0  0  0
  -27.3680  -25.4604   21.3748 H   0  0  0  0  0  0
  -28.5262  -24.2847   19.2963 H   0  0  0  0  0  0
  -29.5787  -14.7828   22.1853 H   0  0  0  0  0  0
  -29.2996  -21.8811   19.7290 H   0  0  0  0  0  0
  -29.8674  -21.7214   21.2389 H   0  0  0  0  0  0
  -30.5726  -25.1361   19.8705 H   0  0  0  0  0  0
  1 25  1  0  0  0
  1 30  2  0  0  0
  1 81  1  0  0  0
  2  3  1  0  0  0
  2 25  1  0  0  0
  2 84  1  0  0  0
  2 85  1  0  0  0
  3  4  1  0  0  0
  3 86  1  0  0  0
  3 87  1  0  0  0
  4  5  1  0  0  0
  4 88  1  0  0  0
  4 89  1  0  0  0
  5  6  1  0  0  0
  5 26  1  0  0  0
  5 90  1  0  0  0
  6 25  1  0  0  0
  6 91  1  0  0  0
  6 92  1  0  0  0
  7  8  2  0  0  0
  7 26  1  0  0  0
  7 29  1  0  0  0
  8  9  1  0  0  0
  8 22  1  0  0  0
  9 10  1  0  0  0
  9 27  2  0  0  0
 10 11  2  0  0  0
 10 15  1  0  0  0
 11 12  1  0  0  0
 11 93  1  0  0  0
 12 13  2  0  0  0
 12 94  1  0  0  0
 13 14  1  0  0  0
 13 31  1  0  0  0
 14 15  2  0  0  0
 14 95  1  0  0  0
 15 96  1  0  0  0
 16 17  2  0  0  0
 16 21  1  0  0  0
 16 31  1  0  0  0
 17 18  1  0  0  0
 17 97  1  0  0  0
 18 19  2  0  0  0
 18 98  1  0  0  0
 19 20  1  0  0  0
 19 24  1  0  0  0
 20 21  2  0  0  0
 20 99  1  0  0  0
 21 23  1  0  0  0
 22 28  1  0  0  0
 22 32  2  0  0  0
 26 27  1  0  0  0
 28100  1  0  0  0
 28101  1  0  0  0
 29102  1  0  0  0
 29103  1  0  0  0
 33 34  1  0  0  0
 33 66  1  0  0  0
 33 70  2  0  0  0
 34 36  1  0  0  0
 34 59  1  0  0  0
 34104  1  0  0  0
 35 44  2  0  0  0
 35 45  1  0  0  0
 35 68  1  0  0  0
 36 56  1  0  0  0
 36105  1  0  0  0
 37 39  1  0  0  0
 37 47  1  0  0  0
 37 66  1  0  0  0
 37106  1  0  0  0
 38 43  2  0  0  0
 38 46  1  0  0  0
 38 47  1  0  0  0
 39 64  1  0  0  0
 39 67  2  0  0  0
 40 52  1  0  0  0
 40 53  2  0  0  0
 40 58  1  0  0  0
 41107  1  0  0  0
 41108  1  0  0  0
 41109  1  0  0  0
 41 48  1  0  0  0
 42 43  1  0  0  0
 42 66  1  0  0  0
 42110  1  0  0  0
 42111  1  0  0  0
 43 44  1  0  0  0
 44112  1  0  0  0
 45 46  2  0  0  0
 45113  1  0  0  0
 46114  1  0  0  0
 47115  1  0  0  0
 47116  1  0  0  0
 48 56  1  0  0  0
 48 65  1  0  0  0
 48117  1  0  0  0
 49 50  1  0  0  0
 49 53  1  0  0  0
 49 64  1  0  0  0
 49118  1  0  0  0
 50 51  1  0  0  0
 50119  1  0  0  0
 50120  1  0  0  0
 51 52  1  0  0  0
 51121  1  0  0  0
 51122  1  0  0  0
 52123  1  0  0  0
 52124  1  0  0  0
 53 54  1  0  0  0
 54 55  2  0  0  0
 54125  1  0  0  0
 55 57  1  0  0  0
 55126  1  0  0  0
 56 69  2  0  0  0
 57 58  2  0  0  0
 57127  1  0  0  0
 58128  1  0  0  0
 59 60  1  0  0  0
 59 61  1  0  0  0
 59 62  1  0  0  0
 60129  1  0  0  0
 60130  1  0  0  0
 60131  1  0  0  0
 61132  1  0  0  0
 61133  1  0  0  0
 61134  1  0  0  0
 62135  1  0  0  0
 62136  1  0  0  0
 62137  1  0  0  0
 63 65  1  0  0  0
 63138  1  0  0  0
 63139  1  0  0  0
 63140  1  0  0  0
 64141  1  0  0  0
 65142  1  0  0  0
 68 79  1  0  0  0
 71 73  2  0  0  0
 71 75  1  0  0  0
 71143  1  0  0  0
 72 74  1  0  0  0
 72 75  2  0  0  0
 72144  1  0  0  0
 73 76  1  0  0  0
 73145  1  0  0  0
 74 76  2  0  0  0
 74146  1  0  0  0
 75 77  1  0  0  0
 76 81  1  0  0  0
 77 82  1  0  0  0
 77147  1  0  0  0
 77148  1  0  0  0
 78 80  1  0  0  0
 78 82  1  0  0  0
 78149  1  0  0  0
 78150  1  0  0  0
 79 80  1  0  0  0
 79151  1  0  0  0
 79152  1  0  0  0
 80 83  1  0  0  0
 80153  1  0  0  0
 81154  1  0  0  0
 82155  1  0  0  0
 82156  1  0  0  0
 83157  1  0  0  0
M  CHG  1  82   1
M  ISO  4   1 100  68 101  79 101  81 100
M  END
> <chiral flag>
0

> <version>
0

> <s_m_source_file>
/data/baiqing/PycharmProjects/Reinvent-master-3.2/result/LINK_invent/BTK/process_docking_weight1_custom_product_contain_oxygen_bond_distance_aromatic_linkinvent_7_9_3/rearranged_h_0013.sdf

> <i_m_source_file_index>
97

> <r_mmod_Potential_Energy-OPLS-2005>
-287.6806640625

> <r_mmod_Stretch_Energy-OPLS-2005>
34.2831077575684

> <r_mmod_Bend_Energy-OPLS-2005>
92.3402481079102

> <r_mmod_Torsional_Energy-OPLS-2005>
262.582702636719

> <r_mmod_Improper_Torsional_Energy-OPLS-2005>
4.40110063552856

> <r_mmod_Van_der_Waal_Energy-OPLS-2005>
152.991744995117

> <r_mmod_Electrostatic_Energy-OPLS-2005>
-370.222778320312

> <r_mmod_Solvation_Energy-OPLS-2005>
-472.357086181641

> <b_mmod_Minimization_Converged-OPLS-2005>
0

> <r_mmod_RMS_Derivative-OPLS-2005>
2.78668618202209

$$$$
