0
                    3D
 Structure written by MMmdl.
157165  0  0  1  0            999 V2000
  -30.6093  -14.7362   20.4017 C   0  0  0  0  0  0
  -30.4317  -12.4140   19.4729 C   0  0  0  0  0  0
  -29.5087  -12.4413   18.2327 C   0  0  0  0  0  0
  -28.0266  -12.3133   18.6437 C   0  0  0  0  0  0
  -27.6427  -13.2296   19.8372 C   0  0  2  0  0  0
  -28.6937  -13.1714   20.9660 C   0  0  0  0  0  0
  -25.2491  -13.8223   20.5664 C   0  0  0  0  0  0
  -24.1773  -13.0403   20.9213 C   0  0  0  0  0  0
  -24.6415  -11.6956   20.8811 C   0  0  0  0  0  0
  -23.9092  -10.4307   21.0443 C   0  0  0  0  0  0
  -24.3620   -9.4191   21.9186 C   0  0  0  0  0  0
  -23.6265   -8.2239   22.0763 C   0  0  0  0  0  0
  -22.4233   -8.0313   21.3576 C   0  0  0  0  0  0
  -21.9912   -9.0297   20.4683 C   0  0  0  0  0  0
  -22.7276  -10.2141   20.3057 C   0  0  0  0  0  0
  -21.6853   -6.0711   22.5264 C   0  0  0  0  0  0
  -21.4039   -6.5622   23.8209 C   0  0  0  0  0  0
  -21.3658   -5.6766   24.9171 C   0  0  0  0  0  0
  -21.6036   -4.3053   24.7207 C   0  0  0  0  0  0
  -21.8849   -3.8118   23.4354 C   0  0  0  0  0  0
  -21.9186   -4.6931   22.3383 C   0  0  0  0  0  0
  -22.7803  -13.5209   21.1842 C   0  0  0  0  0  0
  -22.1641   -4.2103   21.0984 F   0  0  0  0  0  0
  -21.5615   -3.4543   25.7757 F   0  0  0  0  0  0
  -29.9831  -13.5098   20.3618 N   0  0  0  0  0  0
  -26.2973  -12.9413   20.3293 N   0  0  0  0  0  0
  -25.9373  -11.6582   20.5885 N   0  0  0  0  0  0
  -22.0423  -12.8184   22.0418 N   0  0  0  0  0  0
  -25.4134  -15.1914   20.4176 N   0  0  0  0  0  0
  -31.8322  -14.7817   20.2541 O   0  0  0  0  0  0
  -21.6612   -6.8887   21.4228 O   0  0  0  0  0  0
  -22.3433  -14.5441   20.6722 O   0  0  0  0  0  0
  -24.6328  -31.8555   23.1833 C   0  0  0  0  0  0
  -25.9134  -32.4778   23.8256 C   0  0  1  0  0  0
  -27.2384  -27.2217   20.1037 C   0  0  0  0  0  0
  -25.5931  -33.8578   24.2206 N   0  0  0  0  0  0
  -23.4234  -30.4809   21.5354 C   0  0  2  0  0  0
  -24.8582  -28.8918   20.1184 C   0  0  0  0  0  0
  -22.7471  -29.4669   22.4917 C   0  0  0  0  0  0
  -18.0321  -28.1383   22.8474 C   0  0  0  0  0  0
  -24.1503  -36.7285   23.2632 C   0  0  0  0  0  0
  -25.9702  -30.7483   21.3628 C   0  0  0  0  0  0
  -26.0331  -29.3578   20.7171 C   0  0  0  0  0  0
  -27.2129  -28.5391   20.6936 C   0  0  0  0  0  0
  -26.0177  -26.7956   19.5341 C   0  0  0  0  0  0
  -24.8542  -27.6158   19.5270 C   0  0  0  0  0  0
  -23.6352  -29.7998   20.1550 C   0  0  0  0  0  0
  -25.4113  -36.3073   24.0318 C   0  0  1  0  0  0
  -20.5857  -28.3660   23.1242 C   0  0  2  0  0  0
  -20.6790  -26.9397   22.5363 C   0  0  0  0  0  0
  -19.5759  -26.6358   21.5197 C   0  0  0  0  0  0
  -18.1938  -26.7898   22.1614 C   0  0  0  0  0  0
  -19.1548  -28.8835   23.2874 C   0  0  0  0  0  0
  -18.9471  -30.1436   23.8889 C   0  0  0  0  0  0
  -17.6468  -30.6565   24.0566 C   0  0  0  0  0  0
  -25.9053  -34.9476   23.5068 C   0  0  0  0  0  0
  -16.5364  -29.9069   23.6340 C   0  0  0  0  0  0
  -16.7309  -28.6495   23.0355 C   0  0  0  0  0  0
  -26.4491  -31.6593   25.0656 C   0  0  0  0  0  0
  -25.3758  -31.3736   26.1402 C   0  0  0  0  0  0
  -27.0314  -30.3013   24.6161 C   0  0  0  0  0  0
  -27.6043  -32.4338   25.7478 C   0  0  0  0  0  0
  -27.5586  -37.1808   24.8461 C   0  0  0  0  0  0
  -21.4158  -29.3038   22.3652 N   0  0  0  0  0  0
  -26.4263  -37.3780   23.9409 N   0  0  0  0  0  0
  -24.6999  -31.0466   22.0838 N   0  0  0  0  0  0
  -23.4246  -28.8251   23.3017 O   0  0  0  0  0  0
  -28.4361  -26.4720   19.9257 O   0  0  0  0  0  0
  -26.5651  -34.8981   22.4682 O   0  0  0  0  0  0
  -23.5509  -32.1363   23.7198 O   0  0  0  0  0  0
  -29.0616  -19.6189   20.5874 C   0  0  0  0  0  0
  -27.7522  -18.0326   19.2962 C   0  0  0  0  0  0
  -27.2815  -20.4341   19.1310 C   0  0  0  0  0  0
  -28.8391  -18.2297   20.1824 C   0  0  0  0  0  0
  -28.2871  -20.7472   20.0748 C   0  0  0  0  0  0
  -27.0172  -19.1075   18.7479 C   0  0  0  0  0  0
  -29.6163  -16.9849   20.7542 C   0  0  0  0  0  0
  -29.8679  -15.9877   18.5136 C   0  0  0  0  0  0
  -28.4202  -22.2631   20.5994 C   0  0  0  0  0  0
  -28.1904  -23.6025   19.6904 C   0  0  0  0  0  0
  -28.7666  -25.0241   20.2751 C   0  0  0  0  0  0
  -25.9974  -18.8449   17.8393 N   0  0  0  0  0  0
  -29.8578  -15.8394   19.9885 N   0  0  0  0  0  0
  -29.9925  -17.0660   21.9300 O   0  0  0  0  0  0
  -31.4712  -12.5446   19.1684 H   0  0  0  0  0  0
  -30.3837  -11.4436   19.9814 H   0  0  0  0  0  0
  -29.7798  -11.6284   17.5610 H   0  0  0  0  0  0
  -29.6529  -13.3584   17.6600 H   0  0  0  0  0  0
  -27.8881  -11.2789   18.9333 H   0  0  0  0  0  0
  -27.3674  -12.4836   17.7848 H   0  0  0  0  0  0
  -27.6279  -14.2455   19.4397 H   0  0  0  0  0  0
  -28.7342  -12.1869   21.4433 H   0  0  0  0  0  0
  -28.4512  -13.8859   21.7507 H   0  0  0  0  0  0
  -25.2786   -9.5612   22.4768 H   0  0  0  0  0  0
  -23.9995   -7.4625   22.7502 H   0  0  0  0  0  0
  -21.0846   -8.8869   19.8982 H   0  0  0  0  0  0
  -22.3824  -10.9701   19.6178 H   0  0  0  0  0  0
  -21.2072   -7.6139   23.9703 H   0  0  0  0  0  0
  -21.1438   -6.0485   25.9055 H   0  0  0  0  0  0
  -22.0624   -2.7588   23.2835 H   0  0  0  0  0  0
  -22.3998  -11.9910   22.4879 H   0  0  0  0  0  0
  -21.1074  -13.1323   22.2647 H   0  0  0  0  0  0
  -24.6428  -15.8420   20.5297 H   0  0  0  0  0  0
  -26.2669  -15.6359   20.1066 H   0  0  0  0  0  0
  -26.7235  -32.5445   23.1034 H   0  0  0  0  0  0
  -25.0076  -33.9699   25.0372 H   0  0  0  0  0  0
  -22.7157  -31.3066   21.3905 H   0  0  0  0  0  0
  -23.3784  -35.9623   23.3302 H   0  0  0  0  0  0
  -24.3546  -36.8899   22.2035 H   0  0  0  0  0  0
  -23.7289  -37.6503   23.6664 H   0  0  0  0  0  0
  -26.0977  -31.5089   20.5946 H   0  0  0  0  0  0
  -26.8464  -30.7998   21.9944 H   0  0  0  0  0  0
  -28.1325  -28.9269   21.1056 H   0  0  0  0  0  0
  -25.9578  -25.8462   19.0238 H   0  0  0  0  0  0
  -23.9414  -27.2717   19.0525 H   0  0  0  0  0  0
  -23.7614  -30.5753   19.3981 H   0  0  0  0  0  0
  -22.7425  -29.2564   19.8509 H   0  0  0  0  0  0
  -25.1336  -36.1882   25.0806 H   0  0  0  0  0  0
  -20.9998  -28.3252   24.1387 H   0  0  0  0  0  0
  -20.5628  -26.2345   23.3570 H   0  0  0  0  0  0
  -21.6687  -26.7399   22.1216 H   0  0  0  0  0  0
  -19.6894  -25.6293   21.1242 H   0  0  0  0  0  0
  -19.6644  -27.3226   20.6748 H   0  0  0  0  0  0
  -17.4190  -26.6697   21.4012 H   0  0  0  0  0  0
  -18.0323  -26.0021   22.8960 H   0  0  0  0  0  0
  -19.7962  -30.7230   24.2302 H   0  0  0  0  0  0
  -17.5038  -31.6237   24.5195 H   0  0  0  0  0  0
  -15.5368  -30.2998   23.7590 H   0  0  0  0  0  0
  -15.8701  -28.0785   22.7095 H   0  0  0  0  0  0
  -24.5939  -30.7027   25.7766 H   0  0  0  0  0  0
  -24.8925  -32.2896   26.4814 H   0  0  0  0  0  0
  -25.8088  -30.8939   27.0202 H   0  0  0  0  0  0
  -26.2839  -29.6773   24.1199 H   0  0  0  0  0  0
  -27.3989  -29.7214   25.4647 H   0  0  0  0  0  0
  -27.8781  -30.4211   23.9379 H   0  0  0  0  0  0
  -27.2615  -33.3642   26.2030 H   0  0  0  0  0  0
  -28.3931  -32.6897   25.0372 H   0  0  0  0  0  0
  -28.0684  -31.8483   26.5432 H   0  0  0  0  0  0
  -28.2634  -38.0067   24.7521 H   0  0  0  0  0  0
  -28.1051  -36.2630   24.6315 H   0  0  0  0  0  0
  -27.2285  -37.1493   25.8842 H   0  0  0  0  0  0
  -20.9300  -29.8826   21.6935 H   0  0  0  0  0  0
  -26.0163  -38.2885   24.1372 H   0  0  0  0  0  0
  -29.8086  -19.8376   21.3400 H   0  0  0  0  0  0
  -27.4767  -17.0351   19.0043 H   0  0  0  0  0  0
  -26.6582  -21.2225   18.7276 H   0  0  0  0  0  0
  -30.6795  -15.4207   18.0462 H   0  0  0  0  0  0
  -28.9239  -15.6386   18.0898 H   0  0  0  0  0  0
  -30.0174  -17.0057   18.1456 H   0  0  0  0  0  0
  -29.4072  -22.3581   21.0693 H   0  0  0  0  0  0
  -27.7155  -22.3343   21.4392 H   0  0  0  0  0  0
  -27.1254  -23.7145   19.4771 H   0  0  0  0  0  0
  -28.6305  -23.3902   18.7151 H   0  0  0  0  0  0
  -29.8421  -24.9231   20.0256 H   0  0  0  0  0  0
  -28.7915  -24.9659   21.3572 H   0  0  0  0  0  0
  -25.6746  -19.5772   17.2116 H   0  0  0  0  0  0
  -25.9591  -17.9236   17.4229 H   0  0  0  0  0  0
  1 25  1  0  0  0
  1 30  2  0  0  0
  1 83  1  0  0  0
  2  3  1  0  0  0
  2 25  1  0  0  0
  2 85  1  0  0  0
  2 86  1  0  0  0
  3  4  1  0  0  0
  3 87  1  0  0  0
  3 88  1  0  0  0
  4  5  1  0  0  0
  4 89  1  0  0  0
  4 90  1  0  0  0
  5  6  1  0  0  0
  5 26  1  0  0  0
  5 91  1  0  0  0
  6 25  1  0  0  0
  6 92  1  0  0  0
  6 93  1  0  0  0
  7  8  2  0  0  0
  7 26  1  0  0  0
  7 29  1  0  0  0
  8  9  1  0  0  0
  8 22  1  0  0  0
  9 10  1  0  0  0
  9 27  2  0  0  0
 10 11  2  0  0  0
 10 15  1  0  0  0
 11 12  1  0  0  0
 11 94  1  0  0  0
 12 13  2  0  0  0
 12 95  1  0  0  0
 13 14  1  0  0  0
 13 31  1  0  0  0
 14 15  2  0  0  0
 14 96  1  0  0  0
 15 97  1  0  0  0
 16 17  2  0  0  0
 16 21  1  0  0  0
 16 31  1  0  0  0
 17 18  1  0  0  0
 17 98  1  0  0  0
 18 19  2  0  0  0
 18 99  1  0  0  0
 19 20  1  0  0  0
 19 24  1  0  0  0
 20 21  2  0  0  0
 20100  1  0  0  0
 21 23  1  0  0  0
 22 28  1  0  0  0
 22 32  2  0  0  0
 26 27  1  0  0  0
 28101  1  0  0  0
 28102  1  0  0  0
 29103  1  0  0  0
 29104  1  0  0  0
 33 34  1  0  0  0
 33 66  1  0  0  0
 33 70  2  0  0  0
 34 36  1  0  0  0
 34 59  1  0  0  0
 34105  1  0  0  0
 35 44  2  0  0  0
 35 45  1  0  0  0
 35 68  1  0  0  0
 36 56  1  0  0  0
 36106  1  0  0  0
 37 39  1  0  0  0
 37 47  1  0  0  0
 37 66  1  0  0  0
 37107  1  0  0  0
 38 43  2  0  0  0
 38 46  1  0  0  0
 38 47  1  0  0  0
 39 64  1  0  0  0
 39 67  2  0  0  0
 40 52  1  0  0  0
 40 53  2  0  0  0
 40 58  1  0  0  0
 41108  1  0  0  0
 41109  1  0  0  0
 41110  1  0  0  0
 41 48  1  0  0  0
 42 43  1  0  0  0
 42 66  1  0  0  0
 42111  1  0  0  0
 42112  1  0  0  0
 43 44  1  0  0  0
 44113  1  0  0  0
 45 46  2  0  0  0
 45114  1  0  0  0
 46115  1  0  0  0
 47116  1  0  0  0
 47117  1  0  0  0
 48 56  1  0  0  0
 48 65  1  0  0  0
 48118  1  0  0  0
 49 50  1  0  0  0
 49 53  1  0  0  0
 49 64  1  0  0  0
 49119  1  0  0  0
 50 51  1  0  0  0
 50120  1  0  0  0
 50121  1  0  0  0
 51 52  1  0  0  0
 51122  1  0  0  0
 51123  1  0  0  0
 52124  1  0  0  0
 52125  1  0  0  0
 53 54  1  0  0  0
 54 55  2  0  0  0
 54126  1  0  0  0
 55 57  1  0  0  0
 55127  1  0  0  0
 56 69  2  0  0  0
 57 58  2  0  0  0
 57128  1  0  0  0
 58129  1  0  0  0
 59 60  1  0  0  0
 59 61  1  0  0  0
 59 62  1  0  0  0
 60130  1  0  0  0
 60131  1  0  0  0
 60132  1  0  0  0
 61133  1  0  0  0
 61134  1  0  0  0
 61135  1  0  0  0
 62136  1  0  0  0
 62137  1  0  0  0
 62138  1  0  0  0
 63 65  1  0  0  0
 63139  1  0  0  0
 63140  1  0  0  0
 63141  1  0  0  0
 64142  1  0  0  0
 65143  1  0  0  0
 68 81  1  0  0  0
 71 74  2  0  0  0
 71 75  1  0  0  0
 71144  1  0  0  0
 72 74  1  0  0  0
 72 76  2  0  0  0
 72145  1  0  0  0
 73 75  2  0  0  0
 73 76  1  0  0  0
 73146  1  0  0  0
 74 77  1  0  0  0
 75 79  1  0  0  0
 76 82  1  0  0  0
 77 83  1  0  0  0
 77 84  2  0  0  0
 78 83  1  0  0  0
 78147  1  0  0  0
 78148  1  0  0  0
 78149  1  0  0  0
 79 80  1  0  0  0
 79150  1  0  0  0
 79151  1  0  0  0
 80 81  1  0  0  0
 80152  1  0  0  0
 80153  1  0  0  0
 81154  1  0  0  0
 81155  1  0  0  0
 82156  1  0  0  0
 82157  1  0  0  0
M  ISO  4   1 100  68 101  81 101  83 100
M  END
> <chiral flag>
0

> <version>
0

> <s_m_source_file>
/data/baiqing/PycharmProjects/Reinvent-master-3.2/result/LINK_invent/BTK/process_docking_weight1_custom_product_contain_oxygen_bond_distance_aromatic_linkinvent_7_9_3/rearranged_h_0097.sdf

> <i_m_source_file_index>
1

> <r_mmod_Potential_Energy-OPLS-2005>
388.249877929688

> <r_mmod_Stretch_Energy-OPLS-2005>
154.657928466797

> <r_mmod_Bend_Energy-OPLS-2005>
225.902862548828

> <r_mmod_Torsional_Energy-OPLS-2005>
343.560302734375

> <r_mmod_Improper_Torsional_Energy-OPLS-2005>
28.0940971374512

> <r_mmod_Van_der_Waal_Energy-OPLS-2005>
132.981842041016

> <r_mmod_Electrostatic_Energy-OPLS-2005>
-380.142608642578

> <r_mmod_Solvation_Energy-OPLS-2005>
-204.318237304688

> <b_mmod_Minimization_Converged-OPLS-2005>
0

> <r_mmod_RMS_Derivative-OPLS-2005>
16.5291328430176

$$$$
1
                    3D
 Structure written by MMmdl.
161170  0  0  1  0            999 V2000
  -30.7112  -14.5613   20.5266 C   0  0  0  0  0  0
  -30.4231  -12.3492   19.4495 C   0  0  0  0  0  0
  -29.4994  -12.4680   18.2210 C   0  0  0  0  0  0
  -28.0252  -12.2963   18.6375 C   0  0  0  0  0  0
  -27.6388  -13.1796   19.8503 C   0  0  2  0  0  0
  -28.6890  -13.0899   20.9829 C   0  0  0  0  0  0
  -25.2537  -13.8030   20.5677 C   0  0  0  0  0  0
  -24.1789  -13.0355   20.9214 C   0  0  0  0  0  0
  -24.6310  -11.6811   20.8757 C   0  0  0  0  0  0
  -23.8975  -10.4233   21.0414 C   0  0  0  0  0  0
  -24.3551   -9.4162   21.9190 C   0  0  0  0  0  0
  -23.6255   -8.2184   22.0743 C   0  0  0  0  0  0
  -22.4245   -8.0214   21.3522 C   0  0  0  0  0  0
  -21.9863   -9.0174   20.4627 C   0  0  0  0  0  0
  -22.7156  -10.2072   20.3057 C   0  0  0  0  0  0
  -21.6833   -6.0695   22.5278 C   0  0  0  0  0  0
  -21.3987   -6.5610   23.8204 C   0  0  0  0  0  0
  -21.3679   -5.6782   24.9180 C   0  0  0  0  0  0
  -21.6062   -4.3042   24.7241 C   0  0  0  0  0  0
  -21.8810   -3.8116   23.4366 C   0  0  0  0  0  0
  -21.9177   -4.6924   22.3416 C   0  0  0  0  0  0
  -22.7830  -13.5187   21.1893 C   0  0  0  0  0  0
  -22.1653   -4.2105   21.0998 F   0  0  0  0  0  0
  -21.5665   -3.4539   25.7764 F   0  0  0  0  0  0
  -30.0117  -13.3894   20.4100 N   0  0  0  0  0  0
  -26.2905  -12.9128   20.3294 N   0  0  0  0  0  0
  -25.9219  -11.6327   20.5773 N   0  0  0  0  0  0
  -22.0463  -12.8198   22.0453 N   0  0  0  0  0  0
  -25.4304  -15.1742   20.4034 N   0  0  0  0  0  0
  -31.8960  -14.6372   20.1929 O   0  0  0  0  0  0
  -21.6611   -6.8818   21.4228 O   0  0  0  0  0  0
  -22.3541  -14.5510   20.6744 O   0  0  0  0  0  0
  -24.6145  -31.8681   23.2101 C   0  0  0  0  0  0
  -25.9035  -32.4820   23.8408 C   0  0  1  0  0  0
  -27.2359  -27.4304   20.1049 C   0  0  0  0  0  0
  -25.5889  -33.8617   24.2341 N   0  0  0  0  0  0
  -23.4050  -30.4908   21.5489 C   0  0  2  0  0  0
  -24.8563  -28.9547   20.1134 C   0  0  0  0  0  0
  -22.7422  -29.4660   22.4974 C   0  0  0  0  0  0
  -18.0275  -28.1387   22.8488 C   0  0  0  0  0  0
  -24.1480  -36.7312   23.2643 C   0  0  0  0  0  0
  -25.9344  -30.8298   21.3683 C   0  0  0  0  0  0
  -26.0145  -29.4637   20.7173 C   0  0  0  0  0  0
  -27.2088  -28.7056   20.7167 C   0  0  0  0  0  0
  -26.0695  -26.9404   19.4862 C   0  0  0  0  0  0
  -24.8785  -27.6917   19.4957 C   0  0  0  0  0  0
  -23.6175  -29.8225   20.1633 C   0  0  0  0  0  0
  -25.4097  -36.3117   24.0355 C   0  0  1  0  0  0
  -20.5867  -28.3679   23.1312 C   0  0  2  0  0  0
  -20.6771  -26.9413   22.5417 C   0  0  0  0  0  0
  -19.5746  -26.6389   21.5216 C   0  0  0  0  0  0
  -18.1924  -26.7930   22.1624 C   0  0  0  0  0  0
  -19.1524  -28.8842   23.2900 C   0  0  0  0  0  0
  -18.9452  -30.1444   23.8919 C   0  0  0  0  0  0
  -17.6458  -30.6589   24.0566 C   0  0  0  0  0  0
  -25.9026  -34.9478   23.5147 C   0  0  0  0  0  0
  -16.5350  -29.9098   23.6320 C   0  0  0  0  0  0
  -16.7266  -28.6513   23.0346 C   0  0  0  0  0  0
  -26.4470  -31.6590   25.0731 C   0  0  0  0  0  0
  -25.3739  -31.3716   26.1484 C   0  0  0  0  0  0
  -27.0308  -30.3025   24.6111 C   0  0  0  0  0  0
  -27.6043  -32.4316   25.7476 C   0  0  0  0  0  0
  -27.5586  -37.1809   24.8466 C   0  0  0  0  0  0
  -21.4147  -29.3048   22.3713 N   0  0  0  0  0  0
  -26.4286  -37.3798   23.9423 N   0  0  0  0  0  0
  -24.6690  -31.0776   22.1008 N   0  0  0  0  0  0
  -23.4182  -28.8201   23.3019 O   0  0  0  0  0  0
  -28.3556  -26.6291   20.1138 O   0  0  0  0  0  0
  -26.5583  -34.8931   22.4708 O   0  0  0  0  0  0
  -23.5336  -32.1436   23.7497 O   0  0  0  0  0  0
  -29.5617  -18.9973   22.3155 C   0  0  0  0  0  0
  -29.4230  -20.3888   22.0730 C   0  0  0  0  0  0
  -31.0109  -20.2165   20.2594 C   0  0  0  0  0  0
  -30.4422  -18.2017   21.5434 C   0  0  0  0  0  0
  -30.1638  -21.0405   21.0508 C   0  0  0  0  0  0
  -31.1565  -18.8342   20.5042 C   0  0  0  0  0  0
  -31.0141  -23.2735   20.2696 C   0  0  0  0  0  0
  -30.6185  -24.7446   20.2902 C   0  0  0  0  0  0
  -28.9554  -23.3290   21.2947 C   0  0  0  0  0  0
  -29.5359  -24.7607   21.3610 C   0  0  2  0  0  0
  -29.0085  -16.2235   19.9848 C   0  0  0  0  0  0
  -30.6376  -16.6908   21.8280 C   0  0  0  0  0  0
  -28.5585  -25.9729   21.3732 C   0  0  0  0  0  0
  -30.0713  -22.4786   20.8333 N   0  0  0  0  0  0
  -30.0314  -15.6887   20.9010 N   0  0  0  0  0  0
  -32.1026  -22.9270   19.8016 O   0  0  0  0  0  0
  -31.9916  -18.1092   19.7235 F   0  0  0  0  0  0
  -31.4682  -12.4428   19.1483 H   0  0  0  0  0  0
  -30.3345  -11.3618   19.9061 H   0  0  0  0  0  0
  -29.7644  -11.7138   17.4793 H   0  0  0  0  0  0
  -29.6425  -13.4358   17.7390 H   0  0  0  0  0  0
  -27.8728  -11.2461   18.8873 H   0  0  0  0  0  0
  -27.3680  -12.5032   17.7930 H   0  0  0  0  0  0
  -27.6082  -14.1832   19.4536 H   0  0  0  0  0  0
  -28.6902  -12.0892   21.4160 H   0  0  0  0  0  0
  -28.4376  -13.7708   21.7977 H   0  0  0  0  0  0
  -25.2686   -9.5659   22.4772 H   0  0  0  0  0  0
  -23.9967   -7.4577   22.7455 H   0  0  0  0  0  0
  -21.0804   -8.8661   19.8941 H   0  0  0  0  0  0
  -22.3582  -10.9605   19.6179 H   0  0  0  0  0  0
  -21.1944   -7.6109   23.9693 H   0  0  0  0  0  0
  -21.1550   -6.0524   25.9091 H   0  0  0  0  0  0
  -22.0579   -2.7573   23.2885 H   0  0  0  0  0  0
  -22.4047  -11.9849   22.4855 H   0  0  0  0  0  0
  -21.1086  -13.1235   22.2655 H   0  0  0  0  0  0
  -24.6670  -15.8362   20.4899 H   0  0  0  0  0  0
  -26.2895  -15.5975   20.0788 H   0  0  0  0  0  0
  -26.7103  -32.5544   23.1171 H   0  0  0  0  0  0
  -25.0064  -33.9770   25.0509 H   0  0  0  0  0  0
  -22.6944  -31.3074   21.4074 H   0  0  0  0  0  0
  -23.3750  -35.9635   23.3299 H   0  0  0  0  0  0
  -24.3587  -36.8921   22.2059 H   0  0  0  0  0  0
  -23.7213  -37.6514   23.6644 H   0  0  0  0  0  0
  -26.0517  -31.5957   20.6001 H   0  0  0  0  0  0
  -26.8196  -30.8819   21.9902 H   0  0  0  0  0  0
  -28.1021  -29.0903   21.1885 H   0  0  0  0  0  0
  -26.0806  -25.9680   19.0132 H   0  0  0  0  0  0
  -23.9877  -27.2960   19.0279 H   0  0  0  0  0  0
  -23.7297  -30.5986   19.4048 H   0  0  0  0  0  0
  -22.7413  -29.2437   19.8639 H   0  0  0  0  0  0
  -25.1263  -36.1999   25.0847 H   0  0  0  0  0  0
  -20.9955  -28.3253   24.1435 H   0  0  0  0  0  0
  -20.5685  -26.2289   23.3610 H   0  0  0  0  0  0
  -21.6643  -26.7464   22.1201 H   0  0  0  0  0  0
  -19.6918  -25.6299   21.1243 H   0  0  0  0  0  0
  -19.6694  -27.3200   20.6744 H   0  0  0  0  0  0
  -17.4201  -26.6680   21.4023 H   0  0  0  0  0  0
  -18.0326  -26.0068   22.9011 H   0  0  0  0  0  0
  -19.7933  -30.7245   24.2312 H   0  0  0  0  0  0
  -17.5022  -31.6274   24.5167 H   0  0  0  0  0  0
  -15.5355  -30.3019   23.7628 H   0  0  0  0  0  0
  -15.8664  -28.0846   22.7056 H   0  0  0  0  0  0
  -24.5868  -30.7115   25.7834 H   0  0  0  0  0  0
  -24.8988  -32.2895   26.4960 H   0  0  0  0  0  0
  -25.8083  -30.8859   27.0227 H   0  0  0  0  0  0
  -26.2867  -29.6787   24.1147 H   0  0  0  0  0  0
  -27.4062  -29.7252   25.4571 H   0  0  0  0  0  0
  -27.8705  -30.4344   23.9282 H   0  0  0  0  0  0
  -27.2634  -33.3589   26.2098 H   0  0  0  0  0  0
  -28.3814  -32.6934   25.0282 H   0  0  0  0  0  0
  -28.0750  -31.8427   26.5356 H   0  0  0  0  0  0
  -28.2597  -38.0116   24.7528 H   0  0  0  0  0  0
  -28.1090  -36.2651   24.6257 H   0  0  0  0  0  0
  -27.2318  -37.1413   25.8873 H   0  0  0  0  0  0
  -20.9312  -29.8772   21.6936 H   0  0  0  0  0  0
  -26.0192  -38.2881   24.1426 H   0  0  0  0  0  0
  -28.9922  -18.5437   23.1153 H   0  0  0  0  0  0
  -28.7498  -20.9421   22.7112 H   0  0  0  0  0  0
  -31.5804  -20.6220   19.4387 H   0  0  0  0  0  0
  -30.2291  -25.0195   19.3095 H   0  0  0  0  0  0
  -31.4615  -25.3923   20.5302 H   0  0  0  0  0  0
  -28.1438  -23.2774   20.5672 H   0  0  0  0  0  0
  -28.5562  -23.0361   22.2646 H   0  0  0  0  0  0
  -30.0553  -24.8101   22.3208 H   0  0  0  0  0  0
  -28.0294  -16.1700   20.4550 H   0  0  0  0  0  0
  -28.9942  -15.6887   19.0340 H   0  0  0  0  0  0
  -29.1535  -17.2566   19.6842 H   0  0  0  0  0  0
  -31.7163  -16.5312   21.8947 H   0  0  0  0  0  0
  -30.2647  -16.4712   22.8292 H   0  0  0  0  0  0
  -28.9464  -26.7255   22.0613 H   0  0  0  0  0  0
  -27.6047  -25.6489   21.7954 H   0  0  0  0  0  0
  1 25  1  0  0  0
  1 30  2  0  0  0
  1 85  1  0  0  0
  2  3  1  0  0  0
  2 25  1  0  0  0
  2 88  1  0  0  0
  2 89  1  0  0  0
  3  4  1  0  0  0
  3 90  1  0  0  0
  3 91  1  0  0  0
  4  5  1  0  0  0
  4 92  1  0  0  0
  4 93  1  0  0  0
  5  6  1  0  0  0
  5 26  1  0  0  0
  5 94  1  0  0  0
  6 25  1  0  0  0
  6 95  1  0  0  0
  6 96  1  0  0  0
  7  8  2  0  0  0
  7 26  1  0  0  0
  7 29  1  0  0  0
  8  9  1  0  0  0
  8 22  1  0  0  0
  9 10  1  0  0  0
  9 27  2  0  0  0
 10 11  2  0  0  0
 10 15  1  0  0  0
 11 12  1  0  0  0
 11 97  1  0  0  0
 12 13  2  0  0  0
 12 98  1  0  0  0
 13 14  1  0  0  0
 13 31  1  0  0  0
 14 15  2  0  0  0
 14 99  1  0  0  0
 15100  1  0  0  0
 16 17  2  0  0  0
 16 21  1  0  0  0
 16 31  1  0  0  0
 17 18  1  0  0  0
 17101  1  0  0  0
 18 19  2  0  0  0
 18102  1  0  0  0
 19 20  1  0  0  0
 19 24  1  0  0  0
 20 21  2  0  0  0
 20103  1  0  0  0
 21 23  1  0  0  0
 22 28  1  0  0  0
 22 32  2  0  0  0
 26 27  1  0  0  0
 28104  1  0  0  0
 28105  1  0  0  0
 29106  1  0  0  0
 29107  1  0  0  0
 33 34  1  0  0  0
 33 66  1  0  0  0
 33 70  2  0  0  0
 34 36  1  0  0  0
 34 59  1  0  0  0
 34108  1  0  0  0
 35 44  2  0  0  0
 35 45  1  0  0  0
 35 68  1  0  0  0
 36 56  1  0  0  0
 36109  1  0  0  0
 37 39  1  0  0  0
 37 47  1  0  0  0
 37 66  1  0  0  0
 37110  1  0  0  0
 38 43  2  0  0  0
 38 46  1  0  0  0
 38 47  1  0  0  0
 39 64  1  0  0  0
 39 67  2  0  0  0
 40 52  1  0  0  0
 40 53  2  0  0  0
 40 58  1  0  0  0
 41111  1  0  0  0
 41112  1  0  0  0
 41113  1  0  0  0
 41 48  1  0  0  0
 42 43  1  0  0  0
 42 66  1  0  0  0
 42114  1  0  0  0
 42115  1  0  0  0
 43 44  1  0  0  0
 44116  1  0  0  0
 45 46  2  0  0  0
 45117  1  0  0  0
 46118  1  0  0  0
 47119  1  0  0  0
 47120  1  0  0  0
 48 56  1  0  0  0
 48 65  1  0  0  0
 48121  1  0  0  0
 49 50  1  0  0  0
 49 53  1  0  0  0
 49 64  1  0  0  0
 49122  1  0  0  0
 50 51  1  0  0  0
 50123  1  0  0  0
 50124  1  0  0  0
 51 52  1  0  0  0
 51125  1  0  0  0
 51126  1  0  0  0
 52127  1  0  0  0
 52128  1  0  0  0
 53 54  1  0  0  0
 54 55  2  0  0  0
 54129  1  0  0  0
 55 57  1  0  0  0
 55130  1  0  0  0
 56 69  2  0  0  0
 57 58  2  0  0  0
 57131  1  0  0  0
 58132  1  0  0  0
 59 60  1  0  0  0
 59 61  1  0  0  0
 59 62  1  0  0  0
 60133  1  0  0  0
 60134  1  0  0  0
 60135  1  0  0  0
 61136  1  0  0  0
 61137  1  0  0  0
 61138  1  0  0  0
 62139  1  0  0  0
 62140  1  0  0  0
 62141  1  0  0  0
 63 65  1  0  0  0
 63142  1  0  0  0
 63143  1  0  0  0
 63144  1  0  0  0
 64145  1  0  0  0
 65146  1  0  0  0
 68 83  1  0  0  0
 71 72  2  0  0  0
 71 74  1  0  0  0
 71147  1  0  0  0
 72 75  1  0  0  0
 72148  1  0  0  0
 73 75  2  0  0  0
 73 76  1  0  0  0
 73149  1  0  0  0
 74 76  2  0  0  0
 74 82  1  0  0  0
 75 84  1  0  0  0
 76 87  1  0  0  0
 77 78  1  0  0  0
 77 84  1  0  0  0
 77 86  2  0  0  0
 78 80  1  0  0  0
 78150  1  0  0  0
 78151  1  0  0  0
 79 80  1  0  0  0
 79 84  1  0  0  0
 79152  1  0  0  0
 79153  1  0  0  0
 80 83  1  0  0  0
 80154  1  0  0  0
 81 85  1  0  0  0
 81155  1  0  0  0
 81156  1  0  0  0
 81157  1  0  0  0
 82 85  1  0  0  0
 82158  1  0  0  0
 82159  1  0  0  0
 83160  1  0  0  0
 83161  1  0  0  0
M  ISO  4   1 100  68 101  83 101  85 100
M  END
> <chiral flag>
0

> <version>
0

> <s_m_source_file>
/data/baiqing/PycharmProjects/Reinvent-master-3.2/result/LINK_invent/BTK/process_docking_weight1_custom_product_contain_oxygen_bond_distance_aromatic_linkinvent_7_9_3/rearranged_h_0097.sdf

> <i_m_source_file_index>
2

> <r_mmod_Potential_Energy-OPLS-2005>
229.52409362793

> <r_mmod_Stretch_Energy-OPLS-2005>
50.3037757873535

> <r_mmod_Bend_Energy-OPLS-2005>
146.437271118164

> <r_mmod_Torsional_Energy-OPLS-2005>
354.768005371094

> <r_mmod_Improper_Torsional_Energy-OPLS-2005>
4.49948835372925

> <r_mmod_Van_der_Waal_Energy-OPLS-2005>
161.918395996094

> <r_mmod_Electrostatic_Energy-OPLS-2005>
-303.792419433594

> <r_mmod_Solvation_Energy-OPLS-2005>
-212.934860229492

> <b_mmod_Minimization_Converged-OPLS-2005>
0

> <r_mmod_RMS_Derivative-OPLS-2005>
2.08531188964844

$$$$
2
                    3D
 Structure written by MMmdl.
158167  0  0  1  0            999 V2000
  -30.6736  -14.6302   20.6259 C   0  0  0  0  0  0
  -30.4393  -12.4229   19.4765 C   0  0  0  0  0  0
  -29.5127  -12.5338   18.2449 C   0  0  0  0  0  0
  -28.0391  -12.3470   18.6466 C   0  0  0  0  0  0
  -27.6563  -13.2164   19.8697 C   0  0  2  0  0  0
  -28.6834  -13.0595   21.0103 C   0  0  0  0  0  0
  -25.2522  -13.8180   20.5603 C   0  0  0  0  0  0
  -24.1817  -13.0423   20.9145 C   0  0  0  0  0  0
  -24.6403  -11.6908   20.8718 C   0  0  0  0  0  0
  -23.9081  -10.4286   21.0426 C   0  0  0  0  0  0
  -24.3628   -9.4191   21.9195 C   0  0  0  0  0  0
  -23.6282   -8.2242   22.0770 C   0  0  0  0  0  0
  -22.4274   -8.0273   21.3544 C   0  0  0  0  0  0
  -21.9921   -9.0261   20.4657 C   0  0  0  0  0  0
  -22.7250  -10.2143   20.3086 C   0  0  0  0  0  0
  -21.6857   -6.0742   22.5287 C   0  0  0  0  0  0
  -21.4021   -6.5643   23.8221 C   0  0  0  0  0  0
  -21.3658   -5.6780   24.9173 C   0  0  0  0  0  0
  -21.6052   -4.3047   24.7222 C   0  0  0  0  0  0
  -21.8826   -3.8157   23.4337 C   0  0  0  0  0  0
  -21.9205   -4.6978   22.3400 C   0  0  0  0  0  0
  -22.7838  -13.5203   21.1856 C   0  0  0  0  0  0
  -22.1645   -4.2164   21.0976 F   0  0  0  0  0  0
  -21.5640   -3.4518   25.7731 F   0  0  0  0  0  0
  -30.0163  -13.4235   20.4861 N   0  0  0  0  0  0
  -26.2985  -12.9367   20.3273 N   0  0  0  0  0  0
  -25.9320  -11.6521   20.5713 N   0  0  0  0  0  0
  -22.0563  -12.8217   22.0512 N   0  0  0  0  0  0
  -25.4164  -15.1905   20.3975 N   0  0  0  0  0  0
  -31.7290  -14.8474   20.0173 O   0  0  0  0  0  0
  -21.6628   -6.8881   21.4247 O   0  0  0  0  0  0
  -22.3465  -14.5474   20.6685 O   0  0  0  0  0  0
  -24.6250  -31.8622   23.2055 C   0  0  0  0  0  0
  -25.9115  -32.4793   23.8362 C   0  0  1  0  0  0
  -27.2145  -27.3103   20.1402 C   0  0  0  0  0  0
  -25.5940  -33.8590   24.2295 N   0  0  0  0  0  0
  -23.4185  -30.4857   21.5487 C   0  0  2  0  0  0
  -24.8661  -28.9386   20.1209 C   0  0  0  0  0  0
  -22.7478  -29.4633   22.4962 C   0  0  0  0  0  0
  -18.0282  -28.1378   22.8483 C   0  0  0  0  0  0
  -24.1491  -36.7297   23.2626 C   0  0  0  0  0  0
  -25.9598  -30.7873   21.3815 C   0  0  0  0  0  0
  -26.0320  -29.4089   20.7387 C   0  0  0  0  0  0
  -27.2099  -28.6018   20.7504 C   0  0  0  0  0  0
  -26.0455  -26.9185   19.4603 C   0  0  0  0  0  0
  -24.8727  -27.6941   19.4755 C   0  0  0  0  0  0
  -23.6354  -29.8210   20.1638 C   0  0  0  0  0  0
  -25.4114  -36.3089   24.0322 C   0  0  1  0  0  0
  -20.5879  -28.3680   23.1291 C   0  0  2  0  0  0
  -20.6774  -26.9407   22.5405 C   0  0  0  0  0  0
  -19.5757  -26.6379   21.5206 C   0  0  0  0  0  0
  -18.1934  -26.7919   22.1616 C   0  0  0  0  0  0
  -19.1531  -28.8849   23.2877 C   0  0  0  0  0  0
  -18.9451  -30.1447   23.8901 C   0  0  0  0  0  0
  -17.6452  -30.6580   24.0558 C   0  0  0  0  0  0
  -25.9051  -34.9459   23.5103 C   0  0  0  0  0  0
  -16.5346  -29.9082   23.6320 C   0  0  0  0  0  0
  -16.7268  -28.6495   23.0352 C   0  0  0  0  0  0
  -26.4496  -31.6589   25.0728 C   0  0  0  0  0  0
  -25.3727  -31.3727   26.1450 C   0  0  0  0  0  0
  -27.0304  -30.3001   24.6164 C   0  0  0  0  0  0
  -27.6063  -32.4307   25.7499 C   0  0  0  0  0  0
  -27.5577  -37.1809   24.8463 C   0  0  0  0  0  0
  -21.4194  -29.3039   22.3695 N   0  0  0  0  0  0
  -26.4294  -37.3781   23.9410 N   0  0  0  0  0  0
  -24.6859  -31.0635   22.1012 N   0  0  0  0  0  0
  -23.4209  -28.8179   23.3040 O   0  0  0  0  0  0
  -28.3159  -26.4436   20.1094 O   0  0  0  0  0  0
  -26.5604  -34.8915   22.4658 O   0  0  0  0  0  0
  -23.5420  -32.1432   23.7384 O   0  0  0  0  0  0
  -29.8458  -17.7178   19.9408 C   0  0  0  0  0  0
  -29.7144  -18.1794   22.2849 C   0  0  0  0  0  0
  -29.4728  -19.0735   19.6712 C   0  0  0  0  0  0
  -29.3337  -19.5275   22.0220 C   0  0  0  0  0  0
  -29.9313  -17.2014   21.2620 C   0  0  0  0  0  0
  -29.1427  -20.0066   20.7020 C   0  0  0  0  0  0
  -27.1633  -21.1117   19.9073 C   0  0  0  0  0  0
  -28.8667  -22.5385   20.8116 C   0  0  0  0  0  0
  -30.1300  -15.7086   21.6411 C   0  0  0  0  0  0
  -26.1843  -22.2764   19.7347 C   0  0  0  0  0  0
  -26.7944  -23.6729   19.7928 C   0  0  0  0  0  0
  -27.8904  -23.8016   20.8381 C   0  0  2  0  0  0
  -28.3935  -25.3217   21.0810 C   0  0  0  0  0  0
  -29.8945  -15.3596   22.8390 N   0  0  0  0  0  0
  -28.4134  -21.2728   20.4429 N   0  0  0  0  0  0
  -26.7203  -20.0111   19.5505 O   0  0  0  0  0  0
  -30.0397  -22.7119   21.1606 O   0  0  0  0  0  0
  -31.4786  -12.5607   19.1723 H   0  0  0  0  0  0
  -30.3920  -11.4217   19.9078 H   0  0  0  0  0  0
  -29.7949  -11.7971   17.4910 H   0  0  0  0  0  0
  -29.6426  -13.5133   17.7824 H   0  0  0  0  0  0
  -27.8868  -11.2912   18.8800 H   0  0  0  0  0  0
  -27.3862  -12.5717   17.8035 H   0  0  0  0  0  0
  -27.6869  -14.2557   19.5397 H   0  0  0  0  0  0
  -28.6922  -12.0350   21.3834 H   0  0  0  0  0  0
  -28.3559  -13.6623   21.8546 H   0  0  0  0  0  0
  -25.2775   -9.5650   22.4761 H   0  0  0  0  0  0
  -23.9968   -7.4624   22.7487 H   0  0  0  0  0  0
  -21.0849   -8.8816   19.8956 H   0  0  0  0  0  0
  -22.3719  -10.9704   19.6215 H   0  0  0  0  0  0
  -21.2010   -7.6155   23.9724 H   0  0  0  0  0  0
  -21.1468   -6.0505   25.9070 H   0  0  0  0  0  0
  -22.0618   -2.7631   23.2826 H   0  0  0  0  0  0
  -22.4296  -12.0025   22.5076 H   0  0  0  0  0  0
  -21.1160  -13.1181   22.2711 H   0  0  0  0  0  0
  -24.6383  -15.8362   20.4845 H   0  0  0  0  0  0
  -26.2623  -15.6371   20.0651 H   0  0  0  0  0  0
  -26.7191  -32.5483   23.1122 H   0  0  0  0  0  0
  -25.0137  -33.9736   25.0473 H   0  0  0  0  0  0
  -22.7106  -31.3043   21.4057 H   0  0  0  0  0  0
  -23.3746  -35.9635   23.3303 H   0  0  0  0  0  0
  -24.3577  -36.8898   22.2036 H   0  0  0  0  0  0
  -23.7255  -37.6507   23.6633 H   0  0  0  0  0  0
  -26.0846  -31.5435   20.6051 H   0  0  0  0  0  0
  -26.8436  -30.8464   22.0050 H   0  0  0  0  0  0
  -28.1051  -28.9552   21.2414 H   0  0  0  0  0  0
  -26.0281  -26.0082   18.8874 H   0  0  0  0  0  0
  -23.9872  -27.3351   18.9698 H   0  0  0  0  0  0
  -23.7600  -30.5962   19.4067 H   0  0  0  0  0  0
  -22.7559  -29.2505   19.8600 H   0  0  0  0  0  0
  -25.1293  -36.1940   25.0814 H   0  0  0  0  0  0
  -20.9953  -28.3248   24.1421 H   0  0  0  0  0  0
  -20.5668  -26.2298   23.3599 H   0  0  0  0  0  0
  -21.6649  -26.7443   22.1212 H   0  0  0  0  0  0
  -19.6920  -25.6292   21.1238 H   0  0  0  0  0  0
  -19.6698  -27.3186   20.6733 H   0  0  0  0  0  0
  -17.4207  -26.6660   21.4010 H   0  0  0  0  0  0
  -18.0338  -26.0053   22.9004 H   0  0  0  0  0  0
  -19.7924  -30.7247   24.2289 H   0  0  0  0  0  0
  -17.5007  -31.6262   24.5151 H   0  0  0  0  0  0
  -15.5347  -30.2986   23.7631 H   0  0  0  0  0  0
  -15.8666  -28.0803   22.7084 H   0  0  0  0  0  0
  -24.5921  -30.7049   25.7794 H   0  0  0  0  0  0
  -24.8887  -32.2890   26.4850 H   0  0  0  0  0  0
  -25.8052  -30.8942   27.0247 H   0  0  0  0  0  0
  -26.2867  -29.6797   24.1148 H   0  0  0  0  0  0
  -27.3951  -29.7214   25.4657 H   0  0  0  0  0  0
  -27.8773  -30.4269   23.9407 H   0  0  0  0  0  0
  -27.2682  -33.3615   26.2069 H   0  0  0  0  0  0
  -28.3878  -32.6861   25.0326 H   0  0  0  0  0  0
  -28.0723  -31.8433   26.5414 H   0  0  0  0  0  0
  -28.2610  -38.0092   24.7493 H   0  0  0  0  0  0
  -28.1057  -36.2620   24.6315 H   0  0  0  0  0  0
  -27.2286  -37.1497   25.8863 H   0  0  0  0  0  0
  -20.9376  -29.8773   21.6902 H   0  0  0  0  0  0
  -26.0173  -38.2856   24.1404 H   0  0  0  0  0  0
  -30.0015  -17.0522   19.1033 H   0  0  0  0  0  0
  -29.7806  -17.8932   23.3259 H   0  0  0  0  0  0
  -29.3374  -19.3619   18.6388 H   0  0  0  0  0  0
  -29.1072  -20.1741   22.8588 H   0  0  0  0  0  0
  -25.4460  -22.1698   20.5305 H   0  0  0  0  0  0
  -25.6385  -22.1539   18.7983 H   0  0  0  0  0  0
  -25.9771  -24.3279   20.0847 H   0  0  0  0  0  0
  -27.1552  -23.9903   18.8143 H   0  0  0  0  0  0
  -27.3841  -23.5897   21.7820 H   0  0  0  0  0  0
  -29.4379  -25.2769   21.3919 H   0  0  0  0  0  0
  -27.8813  -25.6770   21.9769 H   0  0  0  0  0  0
  -29.5717  -16.1468   23.3860 H   0  0  0  0  0  0
  1 25  1  0  0  0
  1 30  2  0  0  0
  1 79  1  0  0  0
  2  3  1  0  0  0
  2 25  1  0  0  0
  2 88  1  0  0  0
  2 89  1  0  0  0
  3  4  1  0  0  0
  3 90  1  0  0  0
  3 91  1  0  0  0
  4  5  1  0  0  0
  4 92  1  0  0  0
  4 93  1  0  0  0
  5  6  1  0  0  0
  5 26  1  0  0  0
  5 94  1  0  0  0
  6 25  1  0  0  0
  6 95  1  0  0  0
  6 96  1  0  0  0
  7  8  2  0  0  0
  7 26  1  0  0  0
  7 29  1  0  0  0
  8  9  1  0  0  0
  8 22  1  0  0  0
  9 10  1  0  0  0
  9 27  2  0  0  0
 10 11  2  0  0  0
 10 15  1  0  0  0
 11 12  1  0  0  0
 11 97  1  0  0  0
 12 13  2  0  0  0
 12 98  1  0  0  0
 13 14  1  0  0  0
 13 31  1  0  0  0
 14 15  2  0  0  0
 14 99  1  0  0  0
 15100  1  0  0  0
 16 17  2  0  0  0
 16 21  1  0  0  0
 16 31  1  0  0  0
 17 18  1  0  0  0
 17101  1  0  0  0
 18 19  2  0  0  0
 18102  1  0  0  0
 19 20  1  0  0  0
 19 24  1  0  0  0
 20 21  2  0  0  0
 20103  1  0  0  0
 21 23  1  0  0  0
 22 28  1  0  0  0
 22 32  2  0  0  0
 26 27  1  0  0  0
 28104  1  0  0  0
 28105  1  0  0  0
 29106  1  0  0  0
 29107  1  0  0  0
 33 34  1  0  0  0
 33 66  1  0  0  0
 33 70  2  0  0  0
 34 36  1  0  0  0
 34 59  1  0  0  0
 34108  1  0  0  0
 35 44  2  0  0  0
 35 45  1  0  0  0
 35 68  1  0  0  0
 36 56  1  0  0  0
 36109  1  0  0  0
 37 39  1  0  0  0
 37 47  1  0  0  0
 37 66  1  0  0  0
 37110  1  0  0  0
 38 43  2  0  0  0
 38 46  1  0  0  0
 38 47  1  0  0  0
 39 64  1  0  0  0
 39 67  2  0  0  0
 40 52  1  0  0  0
 40 53  2  0  0  0
 40 58  1  0  0  0
 41111  1  0  0  0
 41112  1  0  0  0
 41113  1  0  0  0
 41 48  1  0  0  0
 42 43  1  0  0  0
 42 66  1  0  0  0
 42114  1  0  0  0
 42115  1  0  0  0
 43 44  1  0  0  0
 44116  1  0  0  0
 45 46  2  0  0  0
 45117  1  0  0  0
 46118  1  0  0  0
 47119  1  0  0  0
 47120  1  0  0  0
 48 56  1  0  0  0
 48 65  1  0  0  0
 48121  1  0  0  0
 49 50  1  0  0  0
 49 53  1  0  0  0
 49 64  1  0  0  0
 49122  1  0  0  0
 50 51  1  0  0  0
 50123  1  0  0  0
 50124  1  0  0  0
 51 52  1  0  0  0
 51125  1  0  0  0
 51126  1  0  0  0
 52127  1  0  0  0
 52128  1  0  0  0
 53 54  1  0  0  0
 54 55  2  0  0  0
 54129  1  0  0  0
 55 57  1  0  0  0
 55130  1  0  0  0
 56 69  2  0  0  0
 57 58  2  0  0  0
 57131  1  0  0  0
 58132  1  0  0  0
 59 60  1  0  0  0
 59 61  1  0  0  0
 59 62  1  0  0  0
 60133  1  0  0  0
 60134  1  0  0  0
 60135  1  0  0  0
 61136  1  0  0  0
 61137  1  0  0  0
 61138  1  0  0  0
 62139  1  0  0  0
 62140  1  0  0  0
 62141  1  0  0  0
 63 65  1  0  0  0
 63142  1  0  0  0
 63143  1  0  0  0
 63144  1  0  0  0
 64145  1  0  0  0
 65146  1  0  0  0
 68 83  1  0  0  0
 71 73  2  0  0  0
 71 75  1  0  0  0
 71147  1  0  0  0
 72 74  1  0  0  0
 72 75  2  0  0  0
 72148  1  0  0  0
 73 76  1  0  0  0
 73149  1  0  0  0
 74 76  2  0  0  0
 74150  1  0  0  0
 75 79  1  0  0  0
 76 85  1  0  0  0
 77 80  1  0  0  0
 77 85  1  0  0  0
 77 86  2  0  0  0
 78 82  1  0  0  0
 78 85  1  0  0  0
 78 87  2  0  0  0
 79 84  2  0  0  0
 80 81  1  0  0  0
 80151  1  0  0  0
 80152  1  0  0  0
 81 82  1  0  0  0
 81153  1  0  0  0
 81154  1  0  0  0
 82 83  1  0  0  0
 82155  1  0  0  0
 83156  1  0  0  0
 83157  1  0  0  0
 84158  1  0  0  0
M  ISO  4   1 100  68 101  79 100  83 101
M  END
> <chiral flag>
0

> <version>
0

> <s_m_source_file>
/data/baiqing/PycharmProjects/Reinvent-master-3.2/result/LINK_invent/BTK/process_docking_weight1_custom_product_contain_oxygen_bond_distance_aromatic_linkinvent_7_9_3/rearranged_h_0097.sdf

> <i_m_source_file_index>
3

> <r_mmod_Potential_Energy-OPLS-2005>
377.303436279297

> <r_mmod_Stretch_Energy-OPLS-2005>
110.895141601562

> <r_mmod_Bend_Energy-OPLS-2005>
189.645416259766

> <r_mmod_Torsional_Energy-OPLS-2005>
284.337249755859

> <r_mmod_Improper_Torsional_Energy-OPLS-2005>
4.87169647216797

> <r_mmod_Van_der_Waal_Energy-OPLS-2005>
167.012008666992

> <r_mmod_Electrostatic_Energy-OPLS-2005>
-201.4931640625

> <r_mmod_Solvation_Energy-OPLS-2005>
-226.880767822266

> <b_mmod_Minimization_Converged-OPLS-2005>
0

> <r_mmod_RMS_Derivative-OPLS-2005>
2.87998223304749

$$$$
3
                    3D
 Structure written by MMmdl.
158167  0  0  1  0            999 V2000
  -30.6789  -14.4732   20.5973 C   0  0  0  0  0  0
  -30.4327  -12.3144   19.4214 C   0  0  0  0  0  0
  -29.4987  -12.4991   18.2058 C   0  0  0  0  0  0
  -28.0176  -12.3682   18.6146 C   0  0  0  0  0  0
  -27.6650  -13.2014   19.8767 C   0  0  2  0  0  0
  -28.7033  -12.9554   20.9944 C   0  0  0  0  0  0
  -25.2585  -13.8145   20.5666 C   0  0  0  0  0  0
  -24.1844  -13.0444   20.9188 C   0  0  0  0  0  0
  -24.6394  -11.6908   20.8774 C   0  0  0  0  0  0
  -23.9065  -10.4306   21.0438 C   0  0  0  0  0  0
  -24.3623   -9.4212   21.9187 C   0  0  0  0  0  0
  -23.6313   -8.2244   22.0739 C   0  0  0  0  0  0
  -22.4288   -8.0291   21.3552 C   0  0  0  0  0  0
  -21.9922   -9.0265   20.4647 C   0  0  0  0  0  0
  -22.7246  -10.2149   20.3070 C   0  0  0  0  0  0
  -21.6841   -6.0752   22.5295 C   0  0  0  0  0  0
  -21.4013   -6.5648   23.8234 C   0  0  0  0  0  0
  -21.3663   -5.6789   24.9187 C   0  0  0  0  0  0
  -21.6032   -4.3053   24.7226 C   0  0  0  0  0  0
  -21.8823   -3.8160   23.4347 C   0  0  0  0  0  0
  -21.9190   -4.6981   22.3411 C   0  0  0  0  0  0
  -22.7866  -13.5259   21.1840 C   0  0  0  0  0  0
  -22.1655   -4.2167   21.0987 F   0  0  0  0  0  0
  -21.5623   -3.4538   25.7739 F   0  0  0  0  0  0
  -30.0365  -13.2802   20.4584 N   0  0  0  0  0  0
  -26.3021  -12.9315   20.3357 N   0  0  0  0  0  0
  -25.9308  -11.6479   20.5792 N   0  0  0  0  0  0
  -22.0500  -12.8294   22.0416 N   0  0  0  0  0  0
  -25.4287  -15.1861   20.4047 N   0  0  0  0  0  0
  -31.7785  -14.6871   20.0813 O   0  0  0  0  0  0
  -21.6631   -6.8908   21.4265 O   0  0  0  0  0  0
  -22.3572  -14.5563   20.6650 O   0  0  0  0  0  0
  -24.6168  -31.8659   23.2068 C   0  0  0  0  0  0
  -25.9051  -32.4817   23.8373 C   0  0  1  0  0  0
  -27.2316  -27.4134   20.1201 C   0  0  0  0  0  0
  -25.5905  -33.8613   24.2306 N   0  0  0  0  0  0
  -23.4062  -30.4886   21.5441 C   0  0  2  0  0  0
  -24.8551  -28.9444   20.1173 C   0  0  0  0  0  0
  -22.7414  -29.4669   22.4961 C   0  0  0  0  0  0
  -18.0276  -28.1383   22.8494 C   0  0  0  0  0  0
  -24.1486  -36.7304   23.2642 C   0  0  0  0  0  0
  -25.9357  -30.8227   21.3645 C   0  0  0  0  0  0
  -26.0132  -29.4533   20.7197 C   0  0  0  0  0  0
  -27.2070  -28.6937   20.7213 C   0  0  0  0  0  0
  -26.0641  -26.9214   19.5062 C   0  0  0  0  0  0
  -24.8751  -27.6767   19.5068 C   0  0  0  0  0  0
  -23.6190  -29.8149   20.1610 C   0  0  0  0  0  0
  -25.4111  -36.3102   24.0342 C   0  0  1  0  0  0
  -20.5872  -28.3680   23.1314 C   0  0  2  0  0  0
  -20.6772  -26.9416   22.5421 C   0  0  0  0  0  0
  -19.5754  -26.6397   21.5211 C   0  0  0  0  0  0
  -18.1931  -26.7933   22.1619 C   0  0  0  0  0  0
  -19.1526  -28.8849   23.2903 C   0  0  0  0  0  0
  -18.9459  -30.1457   23.8916 C   0  0  0  0  0  0
  -17.6468  -30.6592   24.0574 C   0  0  0  0  0  0
  -25.9036  -34.9471   23.5113 C   0  0  0  0  0  0
  -16.5359  -29.9095   23.6335 C   0  0  0  0  0  0
  -16.7270  -28.6512   23.0352 C   0  0  0  0  0  0
  -26.4481  -31.6598   25.0707 C   0  0  0  0  0  0
  -25.3766  -31.3715   26.1471 C   0  0  0  0  0  0
  -27.0307  -30.3037   24.6083 C   0  0  0  0  0  0
  -27.6046  -32.4333   25.7487 C   0  0  0  0  0  0
  -27.5575  -37.1810   24.8467 C   0  0  0  0  0  0
  -21.4144  -29.3040   22.3708 N   0  0  0  0  0  0
  -26.4289  -37.3793   23.9413 N   0  0  0  0  0  0
  -24.6704  -31.0754   22.0965 N   0  0  0  0  0  0
  -23.4174  -28.8224   23.3025 O   0  0  0  0  0  0
  -28.3742  -26.6425   20.1039 O   0  0  0  0  0  0
  -26.5602  -34.8937   22.4674 O   0  0  0  0  0  0
  -23.5353  -32.1418   23.7448 O   0  0  0  0  0  0
  -28.6594  -18.8714   20.5575 C   0  0  0  0  0  0
  -28.7251  -17.4888   20.8628 C   0  0  0  0  0  0
  -31.0821  -18.9779   20.6062 C   0  0  0  0  0  0
  -29.8436  -19.6331   20.4054 C   0  0  0  0  0  0
  -29.9695  -16.8279   21.0137 C   0  0  0  0  0  0
  -31.1508  -17.6064   20.9355 C   0  0  0  0  0  0
  -29.8411  -21.0650   19.8997 C   0  0  0  0  0  0
  -28.0483  -23.3760   22.1871 C   0  0  0  0  0  0
  -28.2960  -21.9288   21.7194 C   0  0  0  0  0  0
  -29.1512  -23.4486   20.0711 C   0  0  0  0  0  0
  -28.1491  -24.2456   20.9278 C   0  0  2  0  0  0
  -28.5165  -25.7358   21.2141 C   0  0  0  0  0  0
  -29.1029  -22.0370   20.5038 N   0  0  0  0  0  0
  -29.9758  -15.4156   21.2635 N   0  0  0  0  0  0
  -30.5678  -21.3270   18.9373 O   0  0  0  0  0  0
  -32.3622  -17.0596   21.1901 F   0  0  0  0  0  0
  -31.4735  -12.4295   19.1170 H   0  0  0  0  0  0
  -30.3531  -11.2988   19.8111 H   0  0  0  0  0  0
  -29.7368  -11.7613   17.4380 H   0  0  0  0  0  0
  -29.6672  -13.4772   17.7547 H   0  0  0  0  0  0
  -27.8210  -11.3135   18.8053 H   0  0  0  0  0  0
  -27.3709  -12.6467   17.7819 H   0  0  0  0  0  0
  -27.7219  -14.2548   19.5970 H   0  0  0  0  0  0
  -28.6794  -11.9079   21.2966 H   0  0  0  0  0  0
  -28.4497  -13.5162   21.8962 H   0  0  0  0  0  0
  -25.2782   -9.5677   22.4740 H   0  0  0  0  0  0
  -24.0017   -7.4638   22.7448 H   0  0  0  0  0  0
  -21.0842   -8.8804   19.8977 H   0  0  0  0  0  0
  -22.3719  -10.9679   19.6175 H   0  0  0  0  0  0
  -21.2011   -7.6156   23.9758 H   0  0  0  0  0  0
  -21.1466   -6.0506   25.9090 H   0  0  0  0  0  0
  -22.0597   -2.7623   23.2841 H   0  0  0  0  0  0
  -22.4096  -11.9984   22.4862 H   0  0  0  0  0  0
  -21.1110  -13.1322   22.2591 H   0  0  0  0  0  0
  -24.6548  -15.8333   20.5063 H   0  0  0  0  0  0
  -26.2607  -15.6185   20.0262 H   0  0  0  0  0  0
  -26.7118  -32.5521   23.1131 H   0  0  0  0  0  0
  -25.0097  -33.9769   25.0477 H   0  0  0  0  0  0
  -22.6965  -31.3065   21.3990 H   0  0  0  0  0  0
  -23.3742  -35.9643   23.3332 H   0  0  0  0  0  0
  -24.3580  -36.8876   22.2048 H   0  0  0  0  0  0
  -23.7251  -37.6525   23.6633 H   0  0  0  0  0  0
  -26.0539  -31.5824   20.5906 H   0  0  0  0  0  0
  -26.8225  -30.8787   21.9840 H   0  0  0  0  0  0
  -28.1036  -29.0789   21.1873 H   0  0  0  0  0  0
  -26.0749  -25.9490   19.0349 H   0  0  0  0  0  0
  -23.9859  -27.2767   19.0389 H   0  0  0  0  0  0
  -23.7337  -30.5845   19.3982 H   0  0  0  0  0  0
  -22.7436  -29.2358   19.8626 H   0  0  0  0  0  0
  -25.1288  -36.1959   25.0838 H   0  0  0  0  0  0
  -20.9985  -28.3244   24.1418 H   0  0  0  0  0  0
  -20.5664  -26.2283   23.3609 H   0  0  0  0  0  0
  -21.6644  -26.7440   22.1217 H   0  0  0  0  0  0
  -19.6911  -25.6305   21.1228 H   0  0  0  0  0  0
  -19.6689  -27.3218   20.6757 H   0  0  0  0  0  0
  -17.4199  -26.6692   21.4016 H   0  0  0  0  0  0
  -18.0320  -26.0067   22.9009 H   0  0  0  0  0  0
  -19.7943  -30.7265   24.2274 H   0  0  0  0  0  0
  -17.5028  -31.6267   24.5171 H   0  0  0  0  0  0
  -15.5360  -30.3000   23.7660 H   0  0  0  0  0  0
  -15.8670  -28.0845   22.7045 H   0  0  0  0  0  0
  -24.5934  -30.7049   25.7828 H   0  0  0  0  0  0
  -24.8979  -32.2874   26.4940 H   0  0  0  0  0  0
  -25.8159  -30.8887   27.0204 H   0  0  0  0  0  0
  -26.2828  -29.6821   24.1133 H   0  0  0  0  0  0
  -27.4057  -29.7267   25.4541 H   0  0  0  0  0  0
  -27.8687  -30.4355   23.9238 H   0  0  0  0  0  0
  -27.2626  -33.3603   26.2114 H   0  0  0  0  0  0
  -28.3850  -32.6945   25.0321 H   0  0  0  0  0  0
  -28.0721  -31.8428   26.5373 H   0  0  0  0  0  0
  -28.2611  -38.0091   24.7506 H   0  0  0  0  0  0
  -28.1056  -36.2623   24.6300 H   0  0  0  0  0  0
  -27.2302  -37.1468   25.8875 H   0  0  0  0  0  0
  -20.9300  -29.8765   21.6937 H   0  0  0  0  0  0
  -26.0174  -38.2869   24.1402 H   0  0  0  0  0  0
  -27.6942  -19.3272   20.3800 H   0  0  0  0  0  0
  -27.8024  -16.9300   20.9455 H   0  0  0  0  0  0
  -32.0033  -19.5308   20.4937 H   0  0  0  0  0  0
  -28.8242  -23.6655   22.8988 H   0  0  0  0  0  0
  -27.0889  -23.4902   22.6929 H   0  0  0  0  0  0
  -27.3498  -21.4419   21.4777 H   0  0  0  0  0  0
  -28.7929  -21.3327   22.4887 H   0  0  0  0  0  0
  -30.1643  -23.8214   20.2266 H   0  0  0  0  0  0
  -28.9229  -23.5419   19.0074 H   0  0  0  0  0  0
  -27.1767  -24.2126   20.4358 H   0  0  0  0  0  0
  -29.5525  -25.7874   21.5504 H   0  0  0  0  0  0
  -27.9267  -26.0931   22.0609 H   0  0  0  0  0  0
  -29.1325  -15.0483   21.6741 H   0  0  0  0  0  0
  1 25  1  0  0  0
  1 30  2  0  0  0
  1 84  1  0  0  0
  2  3  1  0  0  0
  2 25  1  0  0  0
  2 87  1  0  0  0
  2 88  1  0  0  0
  3  4  1  0  0  0
  3 89  1  0  0  0
  3 90  1  0  0  0
  4  5  1  0  0  0
  4 91  1  0  0  0
  4 92  1  0  0  0
  5  6  1  0  0  0
  5 26  1  0  0  0
  5 93  1  0  0  0
  6 25  1  0  0  0
  6 94  1  0  0  0
  6 95  1  0  0  0
  7  8  2  0  0  0
  7 26  1  0  0  0
  7 29  1  0  0  0
  8  9  1  0  0  0
  8 22  1  0  0  0
  9 10  1  0  0  0
  9 27  2  0  0  0
 10 11  2  0  0  0
 10 15  1  0  0  0
 11 12  1  0  0  0
 11 96  1  0  0  0
 12 13  2  0  0  0
 12 97  1  0  0  0
 13 14  1  0  0  0
 13 31  1  0  0  0
 14 15  2  0  0  0
 14 98  1  0  0  0
 15 99  1  0  0  0
 16 17  2  0  0  0
 16 21  1  0  0  0
 16 31  1  0  0  0
 17 18  1  0  0  0
 17100  1  0  0  0
 18 19  2  0  0  0
 18101  1  0  0  0
 19 20  1  0  0  0
 19 24  1  0  0  0
 20 21  2  0  0  0
 20102  1  0  0  0
 21 23  1  0  0  0
 22 28  1  0  0  0
 22 32  2  0  0  0
 26 27  1  0  0  0
 28103  1  0  0  0
 28104  1  0  0  0
 29105  1  0  0  0
 29106  1  0  0  0
 33 34  1  0  0  0
 33 66  1  0  0  0
 33 70  2  0  0  0
 34 36  1  0  0  0
 34 59  1  0  0  0
 34107  1  0  0  0
 35 44  2  0  0  0
 35 45  1  0  0  0
 35 68  1  0  0  0
 36 56  1  0  0  0
 36108  1  0  0  0
 37 39  1  0  0  0
 37 47  1  0  0  0
 37 66  1  0  0  0
 37109  1  0  0  0
 38 43  2  0  0  0
 38 46  1  0  0  0
 38 47  1  0  0  0
 39 64  1  0  0  0
 39 67  2  0  0  0
 40 52  1  0  0  0
 40 53  2  0  0  0
 40 58  1  0  0  0
 41110  1  0  0  0
 41111  1  0  0  0
 41112  1  0  0  0
 41 48  1  0  0  0
 42 43  1  0  0  0
 42 66  1  0  0  0
 42113  1  0  0  0
 42114  1  0  0  0
 43 44  1  0  0  0
 44115  1  0  0  0
 45 46  2  0  0  0
 45116  1  0  0  0
 46117  1  0  0  0
 47118  1  0  0  0
 47119  1  0  0  0
 48 56  1  0  0  0
 48 65  1  0  0  0
 48120  1  0  0  0
 49 50  1  0  0  0
 49 53  1  0  0  0
 49 64  1  0  0  0
 49121  1  0  0  0
 50 51  1  0  0  0
 50122  1  0  0  0
 50123  1  0  0  0
 51 52  1  0  0  0
 51124  1  0  0  0
 51125  1  0  0  0
 52126  1  0  0  0
 52127  1  0  0  0
 53 54  1  0  0  0
 54 55  2  0  0  0
 54128  1  0  0  0
 55 57  1  0  0  0
 55129  1  0  0  0
 56 69  2  0  0  0
 57 58  2  0  0  0
 57130  1  0  0  0
 58131  1  0  0  0
 59 60  1  0  0  0
 59 61  1  0  0  0
 59 62  1  0  0  0
 60132  1  0  0  0
 60133  1  0  0  0
 60134  1  0  0  0
 61135  1  0  0  0
 61136  1  0  0  0
 61137  1  0  0  0
 62138  1  0  0  0
 62139  1  0  0  0
 62140  1  0  0  0
 63 65  1  0  0  0
 63141  1  0  0  0
 63142  1  0  0  0
 63143  1  0  0  0
 64144  1  0  0  0
 65145  1  0  0  0
 68 82  1  0  0  0
 71 72  2  0  0  0
 71 74  1  0  0  0
 71146  1  0  0  0
 72 75  1  0  0  0
 72147  1  0  0  0
 73 74  2  0  0  0
 73 76  1  0  0  0
 73148  1  0  0  0
 74 77  1  0  0  0
 75 76  2  0  0  0
 75 84  1  0  0  0
 76 86  1  0  0  0
 77 83  1  0  0  0
 77 85  2  0  0  0
 78 79  1  0  0  0
 78 81  1  0  0  0
 78149  1  0  0  0
 78150  1  0  0  0
 79 83  1  0  0  0
 79151  1  0  0  0
 79152  1  0  0  0
 80 81  1  0  0  0
 80 83  1  0  0  0
 80153  1  0  0  0
 80154  1  0  0  0
 81 82  1  0  0  0
 81155  1  0  0  0
 82156  1  0  0  0
 82157  1  0  0  0
 84158  1  0  0  0
M  ISO  4   1 100  68 101  82 101  84 100
M  END
> <chiral flag>
0

> <version>
0

> <s_m_source_file>
/data/baiqing/PycharmProjects/Reinvent-master-3.2/result/LINK_invent/BTK/process_docking_weight1_custom_product_contain_oxygen_bond_distance_aromatic_linkinvent_7_9_3/rearranged_h_0097.sdf

> <i_m_source_file_index>
4

> <r_mmod_Potential_Energy-OPLS-2005>
61.5994758605957

> <r_mmod_Stretch_Energy-OPLS-2005>
42.0884399414062

> <r_mmod_Bend_Energy-OPLS-2005>
121.888999938965

> <r_mmod_Torsional_Energy-OPLS-2005>
345.329681396484

> <r_mmod_Improper_Torsional_Energy-OPLS-2005>
5.24740695953369

> <r_mmod_Van_der_Waal_Energy-OPLS-2005>
143.141616821289

> <r_mmod_Electrostatic_Energy-OPLS-2005>
-371.111633300781

> <r_mmod_Solvation_Energy-OPLS-2005>
-238.52311706543

> <b_mmod_Minimization_Converged-OPLS-2005>
0

> <r_mmod_RMS_Derivative-OPLS-2005>
3.09271645545959

$$$$
4
                    3D
 Structure written by MMmdl.
159168  0  0  1  0            999 V2000
  -30.7888  -14.4497   20.5960 C   0  0  0  0  0  0
  -30.3987  -12.3136   19.4236 C   0  0  0  0  0  0
  -29.4820  -12.4961   18.2023 C   0  0  0  0  0  0
  -28.0089  -12.3512   18.6248 C   0  0  0  0  0  0
  -27.6513  -13.2194   19.8617 C   0  0  2  0  0  0
  -28.6989  -13.0663   20.9878 C   0  0  0  0  0  0
  -25.2549  -13.8191   20.5709 C   0  0  0  0  0  0
  -24.1820  -13.0447   20.9205 C   0  0  0  0  0  0
  -24.6394  -11.6921   20.8753 C   0  0  0  0  0  0
  -23.9070  -10.4299   21.0408 C   0  0  0  0  0  0
  -24.3618   -9.4214   21.9191 C   0  0  0  0  0  0
  -23.6291   -8.2250   22.0757 C   0  0  0  0  0  0
  -22.4275   -8.0289   21.3548 C   0  0  0  0  0  0
  -21.9908   -9.0267   20.4653 C   0  0  0  0  0  0
  -22.7240  -10.2145   20.3059 C   0  0  0  0  0  0
  -21.6848   -6.0741   22.5283 C   0  0  0  0  0  0
  -21.4014   -6.5642   23.8218 C   0  0  0  0  0  0
  -21.3661   -5.6792   24.9179 C   0  0  0  0  0  0
  -21.6037   -4.3054   24.7225 C   0  0  0  0  0  0
  -21.8818   -3.8151   23.4346 C   0  0  0  0  0  0
  -21.9192   -4.6970   22.3404 C   0  0  0  0  0  0
  -22.7843  -13.5243   21.1852 C   0  0  0  0  0  0
  -22.1664   -4.2156   21.0979 F   0  0  0  0  0  0
  -21.5623   -3.4537   25.7736 F   0  0  0  0  0  0
  -30.0219  -13.3395   20.4112 N   0  0  0  0  0  0
  -26.2981  -12.9382   20.3350 N   0  0  0  0  0  0
  -25.9321  -11.6529   20.5782 N   0  0  0  0  0  0
  -22.0468  -12.8255   22.0407 N   0  0  0  0  0  0
  -25.4242  -15.1913   20.4121 N   0  0  0  0  0  0
  -31.9236  -14.5212   20.1142 O   0  0  0  0  0  0
  -21.6638   -6.8890   21.4248 O   0  0  0  0  0  0
  -22.3540  -14.5555   20.6697 O   0  0  0  0  0  0
  -24.6159  -31.8687   23.2113 C   0  0  0  0  0  0
  -25.9055  -32.4822   23.8396 C   0  0  1  0  0  0
  -27.2207  -27.4234   20.0855 C   0  0  0  0  0  0
  -25.5912  -33.8625   24.2328 N   0  0  0  0  0  0
  -23.4019  -30.4965   21.5530 C   0  0  2  0  0  0
  -24.8433  -28.9663   20.1153 C   0  0  0  0  0  0
  -22.7411  -29.4671   22.4984 C   0  0  0  0  0  0
  -18.0272  -28.1375   22.8497 C   0  0  0  0  0  0
  -24.1491  -36.7311   23.2635 C   0  0  0  0  0  0
  -25.9349  -30.8303   21.3668 C   0  0  0  0  0  0
  -26.0086  -29.4673   20.7087 C   0  0  0  0  0  0
  -27.2009  -28.7052   20.6889 C   0  0  0  0  0  0
  -26.0297  -26.9443   19.4877 C   0  0  0  0  0  0
  -24.8495  -27.7040   19.5039 C   0  0  0  0  0  0
  -23.6086  -29.8356   20.1668 C   0  0  0  0  0  0
  -25.4116  -36.3107   24.0330 C   0  0  1  0  0  0
  -20.5863  -28.3663   23.1322 C   0  0  2  0  0  0
  -20.6767  -26.9400   22.5423 C   0  0  0  0  0  0
  -19.5744  -26.6385   21.5220 C   0  0  0  0  0  0
  -18.1920  -26.7921   22.1626 C   0  0  0  0  0  0
  -19.1521  -28.8834   23.2903 C   0  0  0  0  0  0
  -18.9447  -30.1440   23.8915 C   0  0  0  0  0  0
  -17.6451  -30.6581   24.0569 C   0  0  0  0  0  0
  -25.9039  -34.9476   23.5117 C   0  0  0  0  0  0
  -16.5342  -29.9090   23.6320 C   0  0  0  0  0  0
  -16.7262  -28.6505   23.0342 C   0  0  0  0  0  0
  -26.4477  -31.6594   25.0722 C   0  0  0  0  0  0
  -25.3739  -31.3736   26.1471 C   0  0  0  0  0  0
  -27.0292  -30.3022   24.6109 C   0  0  0  0  0  0
  -27.6044  -32.4318   25.7496 C   0  0  0  0  0  0
  -27.5584  -37.1815   24.8462 C   0  0  0  0  0  0
  -21.4135  -29.3039   22.3734 N   0  0  0  0  0  0
  -26.4300  -37.3792   23.9397 N   0  0  0  0  0  0
  -24.6694  -31.0789   22.1013 N   0  0  0  0  0  0
  -23.4195  -28.8192   23.2997 O   0  0  0  0  0  0
  -28.3830  -26.6713   20.0975 O   0  0  0  0  0  0
  -26.5597  -34.8925   22.4675 O   0  0  0  0  0  0
  -23.5346  -32.1451   23.7497 O   0  0  0  0  0  0
  -31.8036  -18.6584   20.6805 C   0  0  0  0  0  0
  -31.7228  -20.0320   20.3949 C   0  0  0  0  0  0
  -29.4391  -20.0592   21.1977 C   0  0  0  0  0  0
  -30.7169  -17.9609   21.2489 C   0  0  0  0  0  0
  -30.5600  -20.7765   20.6980 C   0  0  0  0  0  0
  -29.5116  -18.6671   21.4726 C   0  0  0  0  0  0
  -30.7192  -24.9970   20.0577 C   0  0  0  0  0  0
  -29.4985  -24.4454   20.1736 C   0  0  0  0  0  0
  -30.9629  -16.5375   21.6834 C   0  0  0  0  0  0
  -31.9977  -24.2137   20.2585 C   0  0  0  0  0  0
  -29.3173  -22.9532   20.4978 C   0  0  0  0  0  0
  -31.7610  -22.8953   21.0117 C   0  0  0  0  0  0
  -28.2246  -25.2467   19.9351 C   0  0  0  0  0  0
  -30.5741  -22.1857   20.5139 N   0  0  0  0  0  0
  -30.2208  -15.5325   21.1720 N   0  0  0  0  0  0
  -31.9418  -16.3246   22.4130 O   0  0  0  0  0  0
  -28.4357  -18.0345   22.0016 F   0  0  0  0  0  0
  -31.4449  -12.3691   19.1188 H   0  0  0  0  0  0
  -30.2734  -11.3176   19.8525 H   0  0  0  0  0  0
  -29.7241  -11.7611   17.4337 H   0  0  0  0  0  0
  -29.6487  -13.4758   17.7518 H   0  0  0  0  0  0
  -27.8367  -11.2989   18.8539 H   0  0  0  0  0  0
  -27.3498  -12.5902   17.7893 H   0  0  0  0  0  0
  -27.6776  -14.2573   19.5287 H   0  0  0  0  0  0
  -28.6772  -12.0543   21.3941 H   0  0  0  0  0  0
  -28.4697  -13.7285   21.8235 H   0  0  0  0  0  0
  -25.2758   -9.5687   22.4778 H   0  0  0  0  0  0
  -23.9994   -7.4635   22.7471 H   0  0  0  0  0  0
  -21.0837   -8.8792   19.8962 H   0  0  0  0  0  0
  -22.3699  -10.9688   19.6173 H   0  0  0  0  0  0
  -21.2010   -7.6149   23.9724 H   0  0  0  0  0  0
  -21.1479   -6.0523   25.9084 H   0  0  0  0  0  0
  -22.0593   -2.7612   23.2843 H   0  0  0  0  0  0
  -22.4061  -11.9926   22.4834 H   0  0  0  0  0  0
  -21.1081  -13.1307   22.2569 H   0  0  0  0  0  0
  -24.6565  -15.8447   20.5251 H   0  0  0  0  0  0
  -26.2779  -15.6357   20.0994 H   0  0  0  0  0  0
  -26.7121  -32.5530   23.1153 H   0  0  0  0  0  0
  -25.0080  -33.9793   25.0484 H   0  0  0  0  0  0
  -22.6906  -31.3139   21.4185 H   0  0  0  0  0  0
  -23.3746  -35.9650   23.3314 H   0  0  0  0  0  0
  -24.3588  -36.8912   22.2046 H   0  0  0  0  0  0
  -23.7255  -37.6524   23.6649 H   0  0  0  0  0  0
  -26.0520  -31.5978   20.6008 H   0  0  0  0  0  0
  -26.8225  -30.8784   21.9867 H   0  0  0  0  0  0
  -28.0994  -29.0882   21.1523 H   0  0  0  0  0  0
  -25.9783  -25.9819   19.0012 H   0  0  0  0  0  0
  -23.9527  -27.3133   19.0426 H   0  0  0  0  0  0
  -23.7190  -30.6146   19.4116 H   0  0  0  0  0  0
  -22.7308  -29.2596   19.8666 H   0  0  0  0  0  0
  -25.1295  -36.1970   25.0825 H   0  0  0  0  0  0
  -20.9954  -28.3225   24.1441 H   0  0  0  0  0  0
  -20.5675  -26.2267   23.3607 H   0  0  0  0  0  0
  -21.6635  -26.7446   22.1209 H   0  0  0  0  0  0
  -19.6904  -25.6303   21.1233 H   0  0  0  0  0  0
  -19.6679  -27.3208   20.6763 H   0  0  0  0  0  0
  -17.4192  -26.6666   21.4028 H   0  0  0  0  0  0
  -18.0315  -26.0065   22.9024 H   0  0  0  0  0  0
  -19.7924  -30.7252   24.2289 H   0  0  0  0  0  0
  -17.5008  -31.6266   24.5161 H   0  0  0  0  0  0
  -15.5341  -30.2994   23.7648 H   0  0  0  0  0  0
  -15.8661  -28.0841   22.7032 H   0  0  0  0  0  0
  -24.5890  -30.7096   25.7834 H   0  0  0  0  0  0
  -24.8950  -32.2907   26.4915 H   0  0  0  0  0  0
  -25.8082  -30.8918   27.0237 H   0  0  0  0  0  0
  -26.2842  -29.6810   24.1116 H   0  0  0  0  0  0
  -27.3997  -29.7233   25.4582 H   0  0  0  0  0  0
  -27.8710  -30.4325   23.9302 H   0  0  0  0  0  0
  -27.2641  -33.3602   26.2100 H   0  0  0  0  0  0
  -28.3844  -32.6912   25.0327 H   0  0  0  0  0  0
  -28.0718  -31.8431   26.5399 H   0  0  0  0  0  0
  -28.2608  -38.0107   24.7500 H   0  0  0  0  0  0
  -28.1071  -36.2636   24.6297 H   0  0  0  0  0  0
  -27.2295  -37.1478   25.8864 H   0  0  0  0  0  0
  -20.9284  -29.8787   21.6991 H   0  0  0  0  0  0
  -26.0181  -38.2868   24.1400 H   0  0  0  0  0  0
  -32.7319  -18.1391   20.4851 H   0  0  0  0  0  0
  -32.5904  -20.5048   19.9574 H   0  0  0  0  0  0
  -28.5169  -20.5702   21.4258 H   0  0  0  0  0  0
  -30.8259  -26.0364   19.7826 H   0  0  0  0  0  0
  -32.7204  -24.8251   20.8003 H   0  0  0  0  0  0
  -32.4234  -24.0163   19.2741 H   0  0  0  0  0  0
  -28.6472  -22.5194   19.7531 H   0  0  0  0  0  0
  -28.8196  -22.8734   21.4662 H   0  0  0  0  0  0
  -31.5988  -23.1195   22.0674 H   0  0  0  0  0  0
  -32.6754  -22.3048   20.9807 H   0  0  0  0  0  0
  -27.4692  -24.8875   20.6369 H   0  0  0  0  0  0
  -27.8888  -25.0077   18.9256 H   0  0  0  0  0  0
  -29.2332  -15.6700   21.0417 H   0  0  0  0  0  0
  1 25  1  0  0  0
  1 30  2  0  0  0
  1 85  1  0  0  0
  2  3  1  0  0  0
  2 25  1  0  0  0
  2 88  1  0  0  0
  2 89  1  0  0  0
  3  4  1  0  0  0
  3 90  1  0  0  0
  3 91  1  0  0  0
  4  5  1  0  0  0
  4 92  1  0  0  0
  4 93  1  0  0  0
  5  6  1  0  0  0
  5 26  1  0  0  0
  5 94  1  0  0  0
  6 25  1  0  0  0
  6 95  1  0  0  0
  6 96  1  0  0  0
  7  8  2  0  0  0
  7 26  1  0  0  0
  7 29  1  0  0  0
  8  9  1  0  0  0
  8 22  1  0  0  0
  9 10  1  0  0  0
  9 27  2  0  0  0
 10 11  2  0  0  0
 10 15  1  0  0  0
 11 12  1  0  0  0
 11 97  1  0  0  0
 12 13  2  0  0  0
 12 98  1  0  0  0
 13 14  1  0  0  0
 13 31  1  0  0  0
 14 15  2  0  0  0
 14 99  1  0  0  0
 15100  1  0  0  0
 16 17  2  0  0  0
 16 21  1  0  0  0
 16 31  1  0  0  0
 17 18  1  0  0  0
 17101  1  0  0  0
 18 19  2  0  0  0
 18102  1  0  0  0
 19 20  1  0  0  0
 19 24  1  0  0  0
 20 21  2  0  0  0
 20103  1  0  0  0
 21 23  1  0  0  0
 22 28  1  0  0  0
 22 32  2  0  0  0
 26 27  1  0  0  0
 28104  1  0  0  0
 28105  1  0  0  0
 29106  1  0  0  0
 29107  1  0  0  0
 33 34  1  0  0  0
 33 66  1  0  0  0
 33 70  2  0  0  0
 34 36  1  0  0  0
 34 59  1  0  0  0
 34108  1  0  0  0
 35 44  2  0  0  0
 35 45  1  0  0  0
 35 68  1  0  0  0
 36 56  1  0  0  0
 36109  1  0  0  0
 37 39  1  0  0  0
 37 47  1  0  0  0
 37 66  1  0  0  0
 37110  1  0  0  0
 38 43  2  0  0  0
 38 46  1  0  0  0
 38 47  1  0  0  0
 39 64  1  0  0  0
 39 67  2  0  0  0
 40 52  1  0  0  0
 40 53  2  0  0  0
 40 58  1  0  0  0
 41111  1  0  0  0
 41112  1  0  0  0
 41113  1  0  0  0
 41 48  1  0  0  0
 42 43  1  0  0  0
 42 66  1  0  0  0
 42114  1  0  0  0
 42115  1  0  0  0
 43 44  1  0  0  0
 44116  1  0  0  0
 45 46  2  0  0  0
 45117  1  0  0  0
 46118  1  0  0  0
 47119  1  0  0  0
 47120  1  0  0  0
 48 56  1  0  0  0
 48 65  1  0  0  0
 48121  1  0  0  0
 49 50  1  0  0  0
 49 53  1  0  0  0
 49 64  1  0  0  0
 49122  1  0  0  0
 50 51  1  0  0  0
 50123  1  0  0  0
 50124  1  0  0  0
 51 52  1  0  0  0
 51125  1  0  0  0
 51126  1  0  0  0
 52127  1  0  0  0
 52128  1  0  0  0
 53 54  1  0  0  0
 54 55  2  0  0  0
 54129  1  0  0  0
 55 57  1  0  0  0
 55130  1  0  0  0
 56 69  2  0  0  0
 57 58  2  0  0  0
 57131  1  0  0  0
 58132  1  0  0  0
 59 60  1  0  0  0
 59 61  1  0  0  0
 59 62  1  0  0  0
 60133  1  0  0  0
 60134  1  0  0  0
 60135  1  0  0  0
 61136  1  0  0  0
 61137  1  0  0  0
 61138  1  0  0  0
 62139  1  0  0  0
 62140  1  0  0  0
 62141  1  0  0  0
 63 65  1  0  0  0
 63142  1  0  0  0
 63143  1  0  0  0
 63144  1  0  0  0
 64145  1  0  0  0
 65146  1  0  0  0
 68 83  1  0  0  0
 71 72  2  0  0  0
 71 74  1  0  0  0
 71147  1  0  0  0
 72 75  1  0  0  0
 72148  1  0  0  0
 73 75  2  0  0  0
 73 76  1  0  0  0
 73149  1  0  0  0
 74 76  2  0  0  0
 74 79  1  0  0  0
 75 84  1  0  0  0
 76 87  1  0  0  0
 77 78  2  0  0  0
 77 80  1  0  0  0
 77150  1  0  0  0
 78 81  1  0  0  0
 78 83  1  0  0  0
 79 85  1  0  0  0
 79 86  2  0  0  0
 80 82  1  0  0  0
 80151  1  0  0  0
 80152  1  0  0  0
 81 84  1  0  0  0
 81153  1  0  0  0
 81154  1  0  0  0
 82 84  1  0  0  0
 82155  1  0  0  0
 82156  1  0  0  0
 83157  1  0  0  0
 83158  1  0  0  0
 85159  1  0  0  0
M  ISO  4   1 100  68 101  83 101  85 100
M  END
> <chiral flag>
0

> <version>
0

> <s_m_source_file>
/data/baiqing/PycharmProjects/Reinvent-master-3.2/result/LINK_invent/BTK/process_docking_weight1_custom_product_contain_oxygen_bond_distance_aromatic_linkinvent_7_9_3/rearranged_h_0097.sdf

> <i_m_source_file_index>
5

> <r_mmod_Potential_Energy-OPLS-2005>
-3.06255960464478

> <r_mmod_Stretch_Energy-OPLS-2005>
40.9172515869141

> <r_mmod_Bend_Energy-OPLS-2005>
111.17350769043

> <r_mmod_Torsional_Energy-OPLS-2005>
273.156799316406

> <r_mmod_Improper_Torsional_Energy-OPLS-2005>
7.43873357772827

> <r_mmod_Van_der_Waal_Energy-OPLS-2005>
183.429092407227

> <r_mmod_Electrostatic_Energy-OPLS-2005>
-412.939300537109

> <r_mmod_Solvation_Energy-OPLS-2005>
-225.724227905273

> <b_mmod_Minimization_Converged-OPLS-2005>
0

> <r_mmod_RMS_Derivative-OPLS-2005>
1.50489950180054

$$$$
5
                    3D
 Structure written by MMmdl.
154162  0  0  1  0            999 V2000
  -30.7128  -14.4735   20.6152 C   0  0  0  0  0  0
  -30.4225  -12.3270   19.4206 C   0  0  0  0  0  0
  -29.4924  -12.5089   18.2036 C   0  0  0  0  0  0
  -28.0142  -12.3581   18.6153 C   0  0  0  0  0  0
  -27.6568  -13.2048   19.8666 C   0  0  2  0  0  0
  -28.6957  -12.9958   20.9905 C   0  0  0  0  0  0
  -25.2575  -13.8157   20.5665 C   0  0  0  0  0  0
  -24.1821  -13.0434   20.9148 C   0  0  0  0  0  0
  -24.6371  -11.6901   20.8704 C   0  0  0  0  0  0
  -23.9035  -10.4288   21.0386 C   0  0  0  0  0  0
  -24.3596   -9.4211   21.9170 C   0  0  0  0  0  0
  -23.6273   -8.2246   22.0752 C   0  0  0  0  0  0
  -22.4258   -8.0280   21.3541 C   0  0  0  0  0  0
  -21.9884   -9.0246   20.4645 C   0  0  0  0  0  0
  -22.7206  -10.2128   20.3040 C   0  0  0  0  0  0
  -21.6858   -6.0726   22.5276 C   0  0  0  0  0  0
  -21.4026   -6.5634   23.8207 C   0  0  0  0  0  0
  -21.3652   -5.6789   24.9168 C   0  0  0  0  0  0
  -21.6043   -4.3050   24.7226 C   0  0  0  0  0  0
  -21.8821   -3.8138   23.4344 C   0  0  0  0  0  0
  -21.9194   -4.6953   22.3401 C   0  0  0  0  0  0
  -22.7849  -13.5249   21.1807 C   0  0  0  0  0  0
  -22.1660   -4.2138   21.0979 F   0  0  0  0  0  0
  -21.5613   -3.4537   25.7737 F   0  0  0  0  0  0
  -30.0261  -13.3103   20.4417 N   0  0  0  0  0  0
  -26.2985  -12.9314   20.3303 N   0  0  0  0  0  0
  -25.9291  -11.6473   20.5710 N   0  0  0  0  0  0
  -22.0487  -12.8257   22.0383 N   0  0  0  0  0  0
  -25.4308  -15.1874   20.4105 N   0  0  0  0  0  0
  -31.8225  -14.6698   20.1107 O   0  0  0  0  0  0
  -21.6638   -6.8865   21.4234 O   0  0  0  0  0  0
  -22.3538  -14.5551   20.6646 O   0  0  0  0  0  0
  -24.6180  -31.8656   23.2069 C   0  0  0  0  0  0
  -25.9070  -32.4790   23.8366 C   0  0  1  0  0  0
  -27.2312  -27.4152   20.0892 C   0  0  0  0  0  0
  -25.5922  -33.8592   24.2308 N   0  0  0  0  0  0
  -23.4053  -30.4898   21.5472 C   0  0  2  0  0  0
  -24.8476  -28.9520   20.1119 C   0  0  0  0  0  0
  -22.7424  -29.4655   22.4965 C   0  0  0  0  0  0
  -18.0281  -28.1376   22.8494 C   0  0  0  0  0  0
  -24.1489  -36.7303   23.2640 C   0  0  0  0  0  0
  -25.9359  -30.8238   21.3627 C   0  0  0  0  0  0
  -26.0081  -29.4575   20.7091 C   0  0  0  0  0  0
  -27.1993  -28.6952   20.6950 C   0  0  0  0  0  0
  -26.0472  -26.9267   19.4893 C   0  0  0  0  0  0
  -24.8629  -27.6875   19.5001 C   0  0  0  0  0  0
  -23.6123  -29.8211   20.1621 C   0  0  0  0  0  0
  -25.4107  -36.3089   24.0337 C   0  0  1  0  0  0
  -20.5875  -28.3671   23.1306 C   0  0  2  0  0  0
  -20.6763  -26.9400   22.5416 C   0  0  0  0  0  0
  -19.5740  -26.6386   21.5212 C   0  0  0  0  0  0
  -18.1923  -26.7927   22.1625 C   0  0  0  0  0  0
  -19.1533  -28.8839   23.2897 C   0  0  0  0  0  0
  -18.9456  -30.1439   23.8916 C   0  0  0  0  0  0
  -17.6457  -30.6584   24.0567 C   0  0  0  0  0  0
  -25.9040  -34.9453   23.5115 C   0  0  0  0  0  0
  -16.5347  -29.9091   23.6317 C   0  0  0  0  0  0
  -16.7267  -28.6502   23.0350 C   0  0  0  0  0  0
  -26.4502  -31.6574   25.0700 C   0  0  0  0  0  0
  -25.3774  -31.3693   26.1452 C   0  0  0  0  0  0
  -27.0340  -30.3010   24.6088 C   0  0  0  0  0  0
  -27.6064  -32.4302   25.7476 C   0  0  0  0  0  0
  -27.5573  -37.1802   24.8466 C   0  0  0  0  0  0
  -21.4150  -29.3042   22.3717 N   0  0  0  0  0  0
  -26.4287  -37.3773   23.9416 N   0  0  0  0  0  0
  -24.6712  -31.0758   22.0967 N   0  0  0  0  0  0
  -23.4185  -28.8202   23.3021 O   0  0  0  0  0  0
  -28.4161  -26.7006   20.1167 O   0  0  0  0  0  0
  -26.5597  -34.8922   22.4675 O   0  0  0  0  0  0
  -23.5367  -32.1415   23.7455 O   0  0  0  0  0  0
  -30.0995  -18.5414   20.1160 C   0  0  0  0  0  0
  -29.5339  -19.8021   19.8084 C   0  0  0  0  0  0
  -29.2430  -18.7141   22.3842 C   0  0  0  0  0  0
  -29.9676  -17.9892   21.4108 C   0  0  0  0  0  0
  -28.8332  -20.5344   20.7947 C   0  0  0  0  0  0
  -28.6792  -19.9732   22.0824 C   0  0  0  0  0  0
  -28.7760  -23.0005   20.6316 C   0  0  0  0  0  0
  -30.6874  -16.6913   21.7958 C   0  0  0  0  0  0
  -27.8747  -24.2366   20.3966 C   0  0  0  0  0  0
  -28.5050  -25.3801   19.5438 C   0  0  0  0  0  0
  -28.2187  -21.7833   20.4824 N   0  0  0  0  0  0
  -30.0875  -15.4326   21.3250 N   0  0  0  0  0  0
  -29.9593  -23.1484   20.9512 O   0  0  0  0  0  0
  -27.9968  -20.6457   23.0418 F   0  0  0  0  0  0
  -31.4664  -12.4342   19.1187 H   0  0  0  0  0  0
  -30.3337  -11.3177   19.8259 H   0  0  0  0  0  0
  -29.7411  -11.7826   17.4284 H   0  0  0  0  0  0
  -29.6492  -13.4935   17.7603 H   0  0  0  0  0  0
  -27.8350  -11.3017   18.8207 H   0  0  0  0  0  0
  -27.3630  -12.6177   17.7794 H   0  0  0  0  0  0
  -27.6989  -14.2502   19.5606 H   0  0  0  0  0  0
  -28.6782  -11.9609   21.3340 H   0  0  0  0  0  0
  -28.4402  -13.5947   21.8654 H   0  0  0  0  0  0
  -25.2742   -9.5699   22.4739 H   0  0  0  0  0  0
  -23.9983   -7.4651   22.7490 H   0  0  0  0  0  0
  -21.0801   -8.8759   19.8967 H   0  0  0  0  0  0
  -22.3650  -10.9658   19.6145 H   0  0  0  0  0  0
  -21.2039   -7.6148   23.9702 H   0  0  0  0  0  0
  -21.1463   -6.0523   25.9067 H   0  0  0  0  0  0
  -22.0606   -2.7601   23.2849 H   0  0  0  0  0  0
  -22.4106  -11.9938   22.4798 H   0  0  0  0  0  0
  -21.1106  -13.1294   22.2566 H   0  0  0  0  0  0
  -24.6671  -15.8450   20.5260 H   0  0  0  0  0  0
  -26.2897  -15.6278   20.1047 H   0  0  0  0  0  0
  -26.7140  -32.5492   23.1123 H   0  0  0  0  0  0
  -25.0094  -33.9751   25.0468 H   0  0  0  0  0  0
  -22.6940  -31.3062   21.4064 H   0  0  0  0  0  0
  -23.3734  -35.9653   23.3306 H   0  0  0  0  0  0
  -24.3585  -36.8914   22.2055 H   0  0  0  0  0  0
  -23.7258  -37.6519   23.6649 H   0  0  0  0  0  0
  -26.0546  -31.5886   20.5932 H   0  0  0  0  0  0
  -26.8223  -30.8729   21.9827 H   0  0  0  0  0  0
  -28.0971  -29.0834   21.1552 H   0  0  0  0  0  0
  -26.0138  -25.9607   19.0092 H   0  0  0  0  0  0
  -23.9688  -27.2939   19.0366 H   0  0  0  0  0  0
  -23.7212  -30.5924   19.3990 H   0  0  0  0  0  0
  -22.7360  -29.2408   19.8684 H   0  0  0  0  0  0
  -25.1278  -36.1948   25.0825 H   0  0  0  0  0  0
  -20.9961  -28.3239   24.1425 H   0  0  0  0  0  0
  -20.5660  -26.2280   23.3611 H   0  0  0  0  0  0
  -21.6638  -26.7440   22.1211 H   0  0  0  0  0  0
  -19.6905  -25.6305   21.1224 H   0  0  0  0  0  0
  -19.6679  -27.3211   20.6753 H   0  0  0  0  0  0
  -17.4192  -26.6678   21.4023 H   0  0  0  0  0  0
  -18.0320  -26.0065   22.9016 H   0  0  0  0  0  0
  -19.7934  -30.7245   24.2293 H   0  0  0  0  0  0
  -17.5020  -31.6265   24.5174 H   0  0  0  0  0  0
  -15.5352  -30.3008   23.7624 H   0  0  0  0  0  0
  -15.8663  -28.0824   22.7065 H   0  0  0  0  0  0
  -24.5947  -30.7032   25.7807 H   0  0  0  0  0  0
  -24.8977  -32.2862   26.4886 H   0  0  0  0  0  0
  -25.8146  -30.8885   27.0210 H   0  0  0  0  0  0
  -26.2889  -29.6747   24.1169 H   0  0  0  0  0  0
  -27.4142  -29.7262   25.4544 H   0  0  0  0  0  0
  -27.8706  -30.4318   23.9216 H   0  0  0  0  0  0
  -27.2661  -33.3585   26.2074 H   0  0  0  0  0  0
  -28.3875  -32.6887   25.0312 H   0  0  0  0  0  0
  -28.0730  -31.8415   26.5387 H   0  0  0  0  0  0
  -28.2591  -38.0091   24.7492 H   0  0  0  0  0  0
  -28.1064  -36.2628   24.6311 H   0  0  0  0  0  0
  -27.2295  -37.1469   25.8867 H   0  0  0  0  0  0
  -20.9312  -29.8767   21.6943 H   0  0  0  0  0  0
  -26.0169  -38.2847   24.1411 H   0  0  0  0  0  0
  -30.6602  -18.0092   19.3596 H   0  0  0  0  0  0
  -29.6528  -20.2108   18.8152 H   0  0  0  0  0  0
  -29.1371  -18.3211   23.3854 H   0  0  0  0  0  0
  -30.7443  -16.6350   22.8839 H   0  0  0  0  0  0
  -31.7224  -16.7822   21.4620 H   0  0  0  0  0  0
  -27.6005  -24.6232   21.3774 H   0  0  0  0  0  0
  -26.9386  -23.9205   19.9354 H   0  0  0  0  0  0
  -28.0958  -25.3703   18.5331 H   0  0  0  0  0  0
  -29.5706  -25.1953   19.4050 H   0  0  0  0  0  0
  -27.2400  -21.7495   20.2285 H   0  0  0  0  0  0
  -29.1673  -15.2098   21.6723 H   0  0  0  0  0  0
  1 25  1  0  0  0
  1 30  2  0  0  0
  1 82  1  0  0  0
  2  3  1  0  0  0
  2 25  1  0  0  0
  2 85  1  0  0  0
  2 86  1  0  0  0
  3  4  1  0  0  0
  3 87  1  0  0  0
  3 88  1  0  0  0
  4  5  1  0  0  0
  4 89  1  0  0  0
  4 90  1  0  0  0
  5  6  1  0  0  0
  5 26  1  0  0  0
  5 91  1  0  0  0
  6 25  1  0  0  0
  6 92  1  0  0  0
  6 93  1  0  0  0
  7  8  2  0  0  0
  7 26  1  0  0  0
  7 29  1  0  0  0
  8  9  1  0  0  0
  8 22  1  0  0  0
  9 10  1  0  0  0
  9 27  2  0  0  0
 10 11  2  0  0  0
 10 15  1  0  0  0
 11 12  1  0  0  0
 11 94  1  0  0  0
 12 13  2  0  0  0
 12 95  1  0  0  0
 13 14  1  0  0  0
 13 31  1  0  0  0
 14 15  2  0  0  0
 14 96  1  0  0  0
 15 97  1  0  0  0
 16 17  2  0  0  0
 16 21  1  0  0  0
 16 31  1  0  0  0
 17 18  1  0  0  0
 17 98  1  0  0  0
 18 19  2  0  0  0
 18 99  1  0  0  0
 19 20  1  0  0  0
 19 24  1  0  0  0
 20 21  2  0  0  0
 20100  1  0  0  0
 21 23  1  0  0  0
 22 28  1  0  0  0
 22 32  2  0  0  0
 26 27  1  0  0  0
 28101  1  0  0  0
 28102  1  0  0  0
 29103  1  0  0  0
 29104  1  0  0  0
 33 34  1  0  0  0
 33 66  1  0  0  0
 33 70  2  0  0  0
 34 36  1  0  0  0
 34 59  1  0  0  0
 34105  1  0  0  0
 35 44  2  0  0  0
 35 45  1  0  0  0
 35 68  1  0  0  0
 36 56  1  0  0  0
 36106  1  0  0  0
 37 39  1  0  0  0
 37 47  1  0  0  0
 37 66  1  0  0  0
 37107  1  0  0  0
 38 43  2  0  0  0
 38 46  1  0  0  0
 38 47  1  0  0  0
 39 64  1  0  0  0
 39 67  2  0  0  0
 40 52  1  0  0  0
 40 53  2  0  0  0
 40 58  1  0  0  0
 41108  1  0  0  0
 41109  1  0  0  0
 41110  1  0  0  0
 41 48  1  0  0  0
 42 43  1  0  0  0
 42 66  1  0  0  0
 42111  1  0  0  0
 42112  1  0  0  0
 43 44  1  0  0  0
 44113  1  0  0  0
 45 46  2  0  0  0
 45114  1  0  0  0
 46115  1  0  0  0
 47116  1  0  0  0
 47117  1  0  0  0
 48 56  1  0  0  0
 48 65  1  0  0  0
 48118  1  0  0  0
 49 50  1  0  0  0
 49 53  1  0  0  0
 49 64  1  0  0  0
 49119  1  0  0  0
 50 51  1  0  0  0
 50120  1  0  0  0
 50121  1  0  0  0
 51 52  1  0  0  0
 51122  1  0  0  0
 51123  1  0  0  0
 52124  1  0  0  0
 52125  1  0  0  0
 53 54  1  0  0  0
 54 55  2  0  0  0
 54126  1  0  0  0
 55 57  1  0  0  0
 55127  1  0  0  0
 56 69  2  0  0  0
 57 58  2  0  0  0
 57128  1  0  0  0
 58129  1  0  0  0
 59 60  1  0  0  0
 59 61  1  0  0  0
 59 62  1  0  0  0
 60130  1  0  0  0
 60131  1  0  0  0
 60132  1  0  0  0
 61133  1  0  0  0
 61134  1  0  0  0
 61135  1  0  0  0
 62136  1  0  0  0
 62137  1  0  0  0
 62138  1  0  0  0
 63 65  1  0  0  0
 63139  1  0  0  0
 63140  1  0  0  0
 63141  1  0  0  0
 64142  1  0  0  0
 65143  1  0  0  0
 68 80  1  0  0  0
 71 72  2  0  0  0
 71 74  1  0  0  0
 71144  1  0  0  0
 72 75  1  0  0  0
 72145  1  0  0  0
 73 74  2  0  0  0
 73 76  1  0  0  0
 73146  1  0  0  0
 74 78  1  0  0  0
 75 76  2  0  0  0
 75 81  1  0  0  0
 76 84  1  0  0  0
 77 79  1  0  0  0
 77 81  1  0  0  0
 77 83  2  0  0  0
 78 82  1  0  0  0
 78147  1  0  0  0
 78148  1  0  0  0
 79 80  1  0  0  0
 79149  1  0  0  0
 79150  1  0  0  0
 80151  1  0  0  0
 80152  1  0  0  0
 81153  1  0  0  0
 82154  1  0  0  0
M  ISO  4   1 100  68 101  80 101  82 100
M  END
> <chiral flag>
0

> <version>
0

> <s_m_source_file>
/data/baiqing/PycharmProjects/Reinvent-master-3.2/result/LINK_invent/BTK/process_docking_weight1_custom_product_contain_oxygen_bond_distance_aromatic_linkinvent_7_9_3/rearranged_h_0097.sdf

> <i_m_source_file_index>
6

> <r_mmod_Potential_Energy-OPLS-2005>
-159.962524414062

> <r_mmod_Stretch_Energy-OPLS-2005>
38.9143371582031

> <r_mmod_Bend_Energy-OPLS-2005>
102.264030456543

> <r_mmod_Torsional_Energy-OPLS-2005>
229.970520019531

> <r_mmod_Improper_Torsional_Energy-OPLS-2005>
2.60429167747498

> <r_mmod_Van_der_Waal_Energy-OPLS-2005>
150.396072387695

> <r_mmod_Electrostatic_Energy-OPLS-2005>
-462.206024169922

> <r_mmod_Solvation_Energy-OPLS-2005>
-235.890106201172

> <b_mmod_Minimization_Converged-OPLS-2005>
0

> <r_mmod_RMS_Derivative-OPLS-2005>
2.29008555412292

$$$$
6
                    3D
 Structure written by MMmdl.
162170  0  0  1  0            999 V2000
  -30.7014  -14.4752   20.4868 C   0  0  0  0  0  0
  -30.4231  -12.2809   19.4404 C   0  0  0  0  0  0
  -29.5017  -12.4894   18.2211 C   0  0  0  0  0  0
  -28.0249  -12.3469   18.6392 C   0  0  0  0  0  0
  -27.6635  -13.2074   19.8784 C   0  0  2  0  0  0
  -28.7096  -13.0240   21.0066 C   0  0  0  0  0  0
  -25.2579  -13.8150   20.5652 C   0  0  0  0  0  0
  -24.1844  -13.0406   20.9195 C   0  0  0  0  0  0
  -24.6418  -11.6884   20.8766 C   0  0  0  0  0  0
  -23.9105  -10.4272   21.0433 C   0  0  0  0  0  0
  -24.3646   -9.4190   21.9236 C   0  0  0  0  0  0
  -23.6297   -8.2220   22.0753 C   0  0  0  0  0  0
  -22.4288   -8.0281   21.3524 C   0  0  0  0  0  0
  -21.9958   -9.0274   20.4647 C   0  0  0  0  0  0
  -22.7277  -10.2157   20.3077 C   0  0  0  0  0  0
  -21.6828   -6.0749   22.5286 C   0  0  0  0  0  0
  -21.3996   -6.5645   23.8230 C   0  0  0  0  0  0
  -21.3665   -5.6791   24.9182 C   0  0  0  0  0  0
  -21.6040   -4.3051   24.7243 C   0  0  0  0  0  0
  -21.8808   -3.8158   23.4354 C   0  0  0  0  0  0
  -21.9172   -4.6980   22.3419 C   0  0  0  0  0  0
  -22.7882  -13.5233   21.1846 C   0  0  0  0  0  0
  -22.1660   -4.2166   21.0990 F   0  0  0  0  0  0
  -21.5622   -3.4542   25.7766 F   0  0  0  0  0  0
  -30.0404  -13.2914   20.4389 N   0  0  0  0  0  0
  -26.3040  -12.9328   20.3388 N   0  0  0  0  0  0
  -25.9346  -11.6494   20.5803 N   0  0  0  0  0  0
  -22.0463  -12.8251   22.0367 N   0  0  0  0  0  0
  -25.4176  -15.1842   20.3955 N   0  0  0  0  0  0
  -31.8701  -14.6067   20.1204 O   0  0  0  0  0  0
  -21.6599   -6.8905   21.4247 O   0  0  0  0  0  0
  -22.3593  -14.5562   20.6734 O   0  0  0  0  0  0
  -24.6066  -31.8713   23.2101 C   0  0  0  0  0  0
  -25.8982  -32.4860   23.8369 C   0  0  1  0  0  0
  -27.2523  -27.4748   20.0915 C   0  0  0  0  0  0
  -25.5856  -33.8657   24.2290 N   0  0  0  0  0  0
  -23.3934  -30.4912   21.5508 C   0  0  2  0  0  0
  -24.8476  -28.9648   20.1188 C   0  0  0  0  0  0
  -22.7363  -29.4667   22.5022 C   0  0  0  0  0  0
  -18.0256  -28.1393   22.8482 C   0  0  0  0  0  0
  -24.1535  -36.7366   23.2620 C   0  0  0  0  0  0
  -25.9151  -30.8569   21.3516 C   0  0  0  0  0  0
  -26.0036  -29.4899   20.7083 C   0  0  0  0  0  0
  -27.2070  -28.7518   20.6934 C   0  0  0  0  0  0
  -26.0749  -26.9697   19.4869 C   0  0  0  0  0  0
  -24.8743  -27.6991   19.5098 C   0  0  0  0  0  0
  -23.6022  -29.8180   20.1674 C   0  0  0  0  0  0
  -25.4152  -36.3149   24.0308 C   0  0  1  0  0  0
  -20.5842  -28.3656   23.1368 C   0  0  2  0  0  0
  -20.6781  -26.9416   22.5423 C   0  0  0  0  0  0
  -19.5771  -26.6400   21.5218 C   0  0  0  0  0  0
  -18.1938  -26.7935   22.1623 C   0  0  0  0  0  0
  -19.1496  -28.8846   23.2923 C   0  0  0  0  0  0
  -18.9441  -30.1471   23.8912 C   0  0  0  0  0  0
  -17.6441  -30.6602   24.0571 C   0  0  0  0  0  0
  -25.9050  -34.9504   23.5103 C   0  0  0  0  0  0
  -16.5333  -29.9102   23.6336 C   0  0  0  0  0  0
  -16.7244  -28.6532   23.0323 C   0  0  0  0  0  0
  -26.4419  -31.6622   25.0661 C   0  0  0  0  0  0
  -25.3663  -31.3746   26.1385 C   0  0  0  0  0  0
  -27.0209  -30.3075   24.5963 C   0  0  0  0  0  0
  -27.6017  -32.4292   25.7432 C   0  0  0  0  0  0
  -27.5614  -37.1852   24.8440 C   0  0  0  0  0  0
  -21.4099  -29.3015   22.3757 N   0  0  0  0  0  0
  -26.4355  -37.3814   23.9347 N   0  0  0  0  0  0
  -24.6573  -31.0854   22.0983 N   0  0  0  0  0  0
  -23.4160  -28.8225   23.3051 O   0  0  0  0  0  0
  -28.4344  -26.7605   20.1140 O   0  0  0  0  0  0
  -26.5627  -34.8932   22.4678 O   0  0  0  0  0  0
  -23.5267  -32.1447   23.7517 O   0  0  0  0  0  0
  -30.1241  -18.6854   21.7375 C   0  0  0  0  0  0
  -29.5437  -19.8486   22.2814 C   0  0  0  0  0  0
  -28.3729  -18.6146   20.0439 C   0  0  0  0  0  0
  -29.5402  -18.0579   20.6182 C   0  0  0  0  0  0
  -28.3780  -20.4049   21.7094 C   0  0  0  0  0  0
  -27.7857  -19.7799   20.5864 C   0  0  0  0  0  0
  -28.1822  -22.8229   22.0803 C   0  0  0  0  0  0
  -26.6491  -21.3223   23.2108 C   0  0  0  0  0  0
  -30.2154  -16.8405   19.9987 C   0  0  0  0  0  0
  -29.2320  -23.1166   20.9901 C   0  0  0  0  0  0
  -29.4981  -24.6242   20.7416 C   0  0  0  0  0  0
  -28.3164  -25.3380   20.0543 C   0  0  0  0  0  0
  -26.6306  -20.3021   20.0016 N   0  0  0  0  0  0
  -29.9144  -15.5545   20.6417 N   0  0  0  0  0  0
  -27.7822  -21.5485   22.3119 N   0  0  0  0  0  0
  -27.7246  -23.7677   22.7362 O   0  0  0  0  0  0
  -31.4747  -12.3484   19.1466 H   0  0  0  0  0  0
  -30.2937  -11.2790   19.8526 H   0  0  0  0  0  0
  -29.7450  -11.7774   17.4319 H   0  0  0  0  0  0
  -29.6644  -13.4815   17.7983 H   0  0  0  0  0  0
  -27.8500  -11.2929   18.8576 H   0  0  0  0  0  0
  -27.3668  -12.6025   17.8088 H   0  0  0  0  0  0
  -27.6945  -14.2461   19.5498 H   0  0  0  0  0  0
  -28.6884  -12.0077   21.4000 H   0  0  0  0  0  0
  -28.4948  -13.6782   21.8534 H   0  0  0  0  0  0
  -25.2769   -9.5646   22.4870 H   0  0  0  0  0  0
  -23.9966   -7.4596   22.7489 H   0  0  0  0  0  0
  -21.0860   -8.8814   19.8994 H   0  0  0  0  0  0
  -22.3716  -10.9718   19.6228 H   0  0  0  0  0  0
  -21.1996   -7.6147   23.9737 H   0  0  0  0  0  0
  -21.1495   -6.0517   25.9080 H   0  0  0  0  0  0
  -22.0585   -2.7619   23.2828 H   0  0  0  0  0  0
  -22.3975  -11.9909   22.4828 H   0  0  0  0  0  0
  -21.1153  -13.1454   22.2595 H   0  0  0  0  0  0
  -26.2416  -15.6372   20.0213 H   0  0  0  0  0  0
  -24.6163  -15.8044   20.4528 H   0  0  0  0  0  0
  -26.7032  -32.5612   23.1134 H   0  0  0  0  0  0
  -24.9938  -33.9835   25.0377 H   0  0  0  0  0  0
  -22.6800  -31.3054   21.4059 H   0  0  0  0  0  0
  -23.3790  -35.9711   23.3282 H   0  0  0  0  0  0
  -24.3636  -36.8991   22.2036 H   0  0  0  0  0  0
  -23.7317  -37.6576   23.6647 H   0  0  0  0  0  0
  -25.9918  -31.6229   20.5779 H   0  0  0  0  0  0
  -26.8145  -30.9357   21.9498 H   0  0  0  0  0  0
  -28.0981  -29.1587   21.1503 H   0  0  0  0  0  0
  -26.0732  -26.0121   18.9901 H   0  0  0  0  0  0
  -23.9841  -27.2869   19.0559 H   0  0  0  0  0  0
  -23.6981  -30.5855   19.3999 H   0  0  0  0  0  0
  -22.7367  -29.2198   19.8739 H   0  0  0  0  0  0
  -25.1359  -36.2007   25.0807 H   0  0  0  0  0  0
  -20.9906  -28.3219   24.1510 H   0  0  0  0  0  0
  -20.5759  -26.2249   23.3582 H   0  0  0  0  0  0
  -21.6664  -26.7533   22.1205 H   0  0  0  0  0  0
  -19.6961  -25.6313   21.1266 H   0  0  0  0  0  0
  -19.6755  -27.3206   20.6750 H   0  0  0  0  0  0
  -17.4218  -26.6650   21.4015 H   0  0  0  0  0  0
  -18.0368  -26.0084   22.9034 H   0  0  0  0  0  0
  -19.7917  -30.7279   24.2288 H   0  0  0  0  0  0
  -17.4998  -31.6284   24.5177 H   0  0  0  0  0  0
  -15.5344  -30.3005   23.7675 H   0  0  0  0  0  0
  -15.8639  -28.0875   22.7002 H   0  0  0  0  0  0
  -24.5873  -30.7054   25.7705 H   0  0  0  0  0  0
  -24.8799  -32.2906   26.4740 H   0  0  0  0  0  0
  -25.7974  -30.8972   27.0184 H   0  0  0  0  0  0
  -26.2731  -29.6921   24.0944 H   0  0  0  0  0  0
  -27.3927  -29.7216   25.4373 H   0  0  0  0  0  0
  -27.8581  -30.4411   23.9113 H   0  0  0  0  0  0
  -27.2678  -33.3582   26.2057 H   0  0  0  0  0  0
  -28.3831  -32.6854   25.0268 H   0  0  0  0  0  0
  -28.0673  -31.8355   26.5304 H   0  0  0  0  0  0
  -28.2639  -38.0150   24.7501 H   0  0  0  0  0  0
  -28.1121  -36.2675   24.6291 H   0  0  0  0  0  0
  -27.2303  -37.1521   25.8839 H   0  0  0  0  0  0
  -20.9234  -29.8696   21.6959 H   0  0  0  0  0  0
  -26.0252  -38.2903   24.1306 H   0  0  0  0  0  0
  -31.0286  -18.2819   22.1697 H   0  0  0  0  0  0
  -29.9927  -20.3105   23.1502 H   0  0  0  0  0  0
  -27.9363  -18.1576   19.1663 H   0  0  0  0  0  0
  -26.9113  -21.6005   24.2324 H   0  0  0  0  0  0
  -26.3367  -20.2783   23.2189 H   0  0  0  0  0  0
  -25.7970  -21.9322   22.9043 H   0  0  0  0  0  0
  -29.9213  -16.7710   18.9491 H   0  0  0  0  0  0
  -31.2902  -17.0312   19.9893 H   0  0  0  0  0  0
  -30.1598  -22.6362   21.2966 H   0  0  0  0  0  0
  -28.9260  -22.6499   20.0512 H   0  0  0  0  0  0
  -30.3950  -24.7344   20.1326 H   0  0  0  0  0  0
  -29.7417  -25.1116   21.6868 H   0  0  0  0  0  0
  -27.3919  -25.0230   20.5366 H   0  0  0  0  0  0
  -28.2492  -25.0288   19.0093 H   0  0  0  0  0  0
  -26.0860  -19.7238   19.3712 H   0  0  0  0  0  0
  -26.0601  -20.9500   20.5348 H   0  0  0  0  0  0
  -28.9564  -15.3798   20.9005 H   0  0  0  0  0  0
  1 25  1  0  0  0
  1 30  2  0  0  0
  1 84  1  0  0  0
  2  3  1  0  0  0
  2 25  1  0  0  0
  2 87  1  0  0  0
  2 88  1  0  0  0
  3  4  1  0  0  0
  3 89  1  0  0  0
  3 90  1  0  0  0
  4  5  1  0  0  0
  4 91  1  0  0  0
  4 92  1  0  0  0
  5  6  1  0  0  0
  5 26  1  0  0  0
  5 93  1  0  0  0
  6 25  1  0  0  0
  6 94  1  0  0  0
  6 95  1  0  0  0
  7  8  2  0  0  0
  7 26  1  0  0  0
  7 29  1  0  0  0
  8  9  1  0  0  0
  8 22  1  0  0  0
  9 10  1  0  0  0
  9 27  2  0  0  0
 10 11  2  0  0  0
 10 15  1  0  0  0
 11 12  1  0  0  0
 11 96  1  0  0  0
 12 13  2  0  0  0
 12 97  1  0  0  0
 13 14  1  0  0  0
 13 31  1  0  0  0
 14 15  2  0  0  0
 14 98  1  0  0  0
 15 99  1  0  0  0
 16 17  2  0  0  0
 16 21  1  0  0  0
 16 31  1  0  0  0
 17 18  1  0  0  0
 17100  1  0  0  0
 18 19  2  0  0  0
 18101  1  0  0  0
 19 20  1  0  0  0
 19 24  1  0  0  0
 20 21  2  0  0  0
 20102  1  0  0  0
 21 23  1  0  0  0
 22 28  1  0  0  0
 22 32  2  0  0  0
 26 27  1  0  0  0
 28103  1  0  0  0
 28104  1  0  0  0
 29105  1  0  0  0
 29106  1  0  0  0
 33 34  1  0  0  0
 33 66  1  0  0  0
 33 70  2  0  0  0
 34 36  1  0  0  0
 34 59  1  0  0  0
 34107  1  0  0  0
 35 44  2  0  0  0
 35 45  1  0  0  0
 35 68  1  0  0  0
 36 56  1  0  0  0
 36108  1  0  0  0
 37 39  1  0  0  0
 37 47  1  0  0  0
 37 66  1  0  0  0
 37109  1  0  0  0
 38 43  2  0  0  0
 38 46  1  0  0  0
 38 47  1  0  0  0
 39 64  1  0  0  0
 39 67  2  0  0  0
 40 52  1  0  0  0
 40 53  2  0  0  0
 40 58  1  0  0  0
 41110  1  0  0  0
 41111  1  0  0  0
 41112  1  0  0  0
 41 48  1  0  0  0
 42 43  1  0  0  0
 42 66  1  0  0  0
 42113  1  0  0  0
 42114  1  0  0  0
 43 44  1  0  0  0
 44115  1  0  0  0
 45 46  2  0  0  0
 45116  1  0  0  0
 46117  1  0  0  0
 47118  1  0  0  0
 47119  1  0  0  0
 48 56  1  0  0  0
 48 65  1  0  0  0
 48120  1  0  0  0
 49 50  1  0  0  0
 49 53  1  0  0  0
 49 64  1  0  0  0
 49121  1  0  0  0
 50 51  1  0  0  0
 50122  1  0  0  0
 50123  1  0  0  0
 51 52  1  0  0  0
 51124  1  0  0  0
 51125  1  0  0  0
 52126  1  0  0  0
 52127  1  0  0  0
 53 54  1  0  0  0
 54 55  2  0  0  0
 54128  1  0  0  0
 55 57  1  0  0  0
 55129  1  0  0  0
 56 69  2  0  0  0
 57 58  2  0  0  0
 57130  1  0  0  0
 58131  1  0  0  0
 59 60  1  0  0  0
 59 61  1  0  0  0
 59 62  1  0  0  0
 60132  1  0  0  0
 60133  1  0  0  0
 60134  1  0  0  0
 61135  1  0  0  0
 61136  1  0  0  0
 61137  1  0  0  0
 62138  1  0  0  0
 62139  1  0  0  0
 62140  1  0  0  0
 63 65  1  0  0  0
 63141  1  0  0  0
 63142  1  0  0  0
 63143  1  0  0  0
 64144  1  0  0  0
 65145  1  0  0  0
 68 82  1  0  0  0
 71 72  2  0  0  0
 71 74  1  0  0  0
 71146  1  0  0  0
 72 75  1  0  0  0
 72147  1  0  0  0
 73 74  2  0  0  0
 73 76  1  0  0  0
 73148  1  0  0  0
 74 79  1  0  0  0
 75 76  2  0  0  0
 75 85  1  0  0  0
 76 83  1  0  0  0
 77 80  1  0  0  0
 77 85  1  0  0  0
 77 86  2  0  0  0
 78 85  1  0  0  0
 78149  1  0  0  0
 78150  1  0  0  0
 78151  1  0  0  0
 79 84  1  0  0  0
 79152  1  0  0  0
 79153  1  0  0  0
 80 81  1  0  0  0
 80154  1  0  0  0
 80155  1  0  0  0
 81 82  1  0  0  0
 81156  1  0  0  0
 81157  1  0  0  0
 82158  1  0  0  0
 82159  1  0  0  0
 83160  1  0  0  0
 83161  1  0  0  0
 84162  1  0  0  0
M  ISO  4   1 100  68 101  82 101  84 100
M  END
> <chiral flag>
0

> <version>
0

> <s_m_source_file>
/data/baiqing/PycharmProjects/Reinvent-master-3.2/result/LINK_invent/BTK/process_docking_weight1_custom_product_contain_oxygen_bond_distance_aromatic_linkinvent_7_9_3/rearranged_h_0097.sdf

> <i_m_source_file_index>
7

> <r_mmod_Potential_Energy-OPLS-2005>
-112.302001953125

> <r_mmod_Stretch_Energy-OPLS-2005>
35.5818214416504

> <r_mmod_Bend_Energy-OPLS-2005>
93.2356796264648

> <r_mmod_Torsional_Energy-OPLS-2005>
275.260284423828

> <r_mmod_Improper_Torsional_Energy-OPLS-2005>
12.9553813934326

> <r_mmod_Van_der_Waal_Energy-OPLS-2005>
166.151290893555

> <r_mmod_Electrostatic_Energy-OPLS-2005>
-485.533996582031

> <r_mmod_Solvation_Energy-OPLS-2005>
-225.595977783203

> <b_mmod_Minimization_Converged-OPLS-2005>
0

> <r_mmod_RMS_Derivative-OPLS-2005>
4.80565738677979

$$$$
7
                    3D
 Structure written by MMmdl.
159168  0  0  1  0            999 V2000
  -30.6547  -14.6199   20.5937 C   0  0  0  0  0  0
  -30.4344  -12.4035   19.4735 C   0  0  0  0  0  0
  -29.5131  -12.5268   18.2394 C   0  0  0  0  0  0
  -28.0359  -12.3496   18.6393 C   0  0  0  0  0  0
  -27.6538  -13.2129   19.8687 C   0  0  2  0  0  0
  -28.6831  -13.0366   21.0030 C   0  0  0  0  0  0
  -25.2552  -13.8168   20.5669 C   0  0  0  0  0  0
  -24.1817  -13.0429   20.9181 C   0  0  0  0  0  0
  -24.6383  -11.6904   20.8728 C   0  0  0  0  0  0
  -23.9061  -10.4286   21.0415 C   0  0  0  0  0  0
  -24.3618   -9.4204   21.9193 C   0  0  0  0  0  0
  -23.6294   -8.2240   22.0750 C   0  0  0  0  0  0
  -22.4276   -8.0278   21.3542 C   0  0  0  0  0  0
  -21.9920   -9.0245   20.4640 C   0  0  0  0  0  0
  -22.7248  -10.2125   20.3054 C   0  0  0  0  0  0
  -21.6849   -6.0734   22.5285 C   0  0  0  0  0  0
  -21.4009   -6.5640   23.8220 C   0  0  0  0  0  0
  -21.3659   -5.6792   24.9180 C   0  0  0  0  0  0
  -21.6046   -4.3054   24.7233 C   0  0  0  0  0  0
  -21.8823   -3.8146   23.4352 C   0  0  0  0  0  0
  -21.9194   -4.6961   22.3406 C   0  0  0  0  0  0
  -22.7855  -13.5226   21.1873 C   0  0  0  0  0  0
  -22.1666   -4.2150   21.0982 F   0  0  0  0  0  0
  -21.5633   -3.4535   25.7741 F   0  0  0  0  0  0
  -30.0088  -13.4074   20.4752 N   0  0  0  0  0  0
  -26.2966  -12.9338   20.3298 N   0  0  0  0  0  0
  -25.9301  -11.6493   20.5724 N   0  0  0  0  0  0
  -22.0493  -12.8192   22.0417 N   0  0  0  0  0  0
  -25.4287  -15.1883   20.4097 N   0  0  0  0  0  0
  -31.7408  -14.8145   20.0348 O   0  0  0  0  0  0
  -21.6637   -6.8874   21.4243 O   0  0  0  0  0  0
  -22.3537  -14.5545   20.6752 O   0  0  0  0  0  0
  -24.6214  -31.8595   23.2047 C   0  0  0  0  0  0
  -25.9070  -32.4766   23.8375 C   0  0  1  0  0  0
  -27.2199  -27.3426   20.1291 C   0  0  0  0  0  0
  -25.5881  -33.8557   24.2299 N   0  0  0  0  0  0
  -23.4144  -30.4834   21.5451 C   0  0  2  0  0  0
  -24.8638  -28.9365   20.1144 C   0  0  0  0  0  0
  -22.7456  -29.4617   22.4933 C   0  0  0  0  0  0
  -18.0264  -28.1405   22.8475 C   0  0  0  0  0  0
  -24.1482  -36.7297   23.2648 C   0  0  0  0  0  0
  -25.9517  -30.8004   21.3706 C   0  0  0  0  0  0
  -26.0274  -29.4262   20.7209 C   0  0  0  0  0  0
  -27.2118  -28.6389   20.7185 C   0  0  0  0  0  0
  -26.0392  -26.8875   19.5077 C   0  0  0  0  0  0
  -24.8687  -27.6734   19.4972 C   0  0  0  0  0  0
  -23.6324  -29.8185   20.1589 C   0  0  0  0  0  0
  -25.4094  -36.3069   24.0343 C   0  0  1  0  0  0
  -20.5862  -28.3691   23.1287 C   0  0  2  0  0  0
  -20.6754  -26.9420   22.5404 C   0  0  0  0  0  0
  -19.5738  -26.6413   21.5193 C   0  0  0  0  0  0
  -18.1914  -26.7948   22.1604 C   0  0  0  0  0  0
  -19.1519  -28.8862   23.2879 C   0  0  0  0  0  0
  -18.9452  -30.1463   23.8908 C   0  0  0  0  0  0
  -17.6454  -30.6604   24.0576 C   0  0  0  0  0  0
  -25.9028  -34.9433   23.5129 C   0  0  0  0  0  0
  -16.5341  -29.9119   23.6331 C   0  0  0  0  0  0
  -16.7254  -28.6540   23.0338 C   0  0  0  0  0  0
  -26.4501  -31.6554   25.0715 C   0  0  0  0  0  0
  -25.3761  -31.3597   26.1450 C   0  0  0  0  0  0
  -27.0368  -30.2999   24.6103 C   0  0  0  0  0  0
  -27.6079  -32.4286   25.7467 C   0  0  0  0  0  0
  -27.5571  -37.1796   24.8476 C   0  0  0  0  0  0
  -21.4171  -29.3037   22.3693 N   0  0  0  0  0  0
  -26.4273  -37.3766   23.9429 N   0  0  0  0  0  0
  -24.6810  -31.0638   22.0981 N   0  0  0  0  0  0
  -23.4194  -28.8137   23.2979 O   0  0  0  0  0  0
  -28.3529  -26.5369   20.1201 O   0  0  0  0  0  0
  -26.5610  -34.8907   22.4701 O   0  0  0  0  0  0
  -23.5382  -32.1361   23.7390 O   0  0  0  0  0  0
  -30.1481  -17.6684   19.6764 C   0  0  0  0  0  0
  -29.8679  -19.0025   19.2551 C   0  0  0  0  0  0
  -29.1393  -18.1671   21.7806 C   0  0  0  0  0  0
  -29.7807  -17.1878   20.9591 C   0  0  0  0  0  0
  -29.1665  -19.9626   20.0578 C   0  0  0  0  0  0
  -28.8386  -19.4952   21.3594 C   0  0  0  0  0  0
  -28.6394  -21.5151   18.2154 C   0  0  0  0  0  0
  -30.0237  -15.7536   21.4900 C   0  0  0  0  0  0
  -28.8130  -22.9142   17.5949 C   0  0  0  0  0  0
  -29.1427  -24.0399   18.5835 C   0  0  0  0  0  0
  -28.5457  -22.5034   20.4663 C   0  0  0  0  0  0
  -28.2308  -23.9178   19.7956 C   0  0  1  0  0  0
  -28.2667  -25.2002   20.7277 C   0  0  0  0  0  0
  -29.7491  -15.5023   22.7046 N   0  0  0  0  0  0
  -28.8163  -21.3203   19.5536 N   0  0  0  0  0  0
  -28.3093  -20.6120   17.4389 O   0  0  0  0  0  0
  -28.2002  -20.3037   22.2380 F   0  0  0  0  0  0
  -31.4781  -12.5263   19.1790 H   0  0  0  0  0  0
  -30.3692  -11.4014   19.9006 H   0  0  0  0  0  0
  -29.7868  -11.7837   17.4904 H   0  0  0  0  0  0
  -29.6540  -13.5031   17.7733 H   0  0  0  0  0  0
  -27.8813  -11.2952   18.8694 H   0  0  0  0  0  0
  -27.3809  -12.5756   17.7981 H   0  0  0  0  0  0
  -27.6837  -14.2547   19.5475 H   0  0  0  0  0  0
  -28.6978  -12.0013   21.3461 H   0  0  0  0  0  0
  -28.3711  -13.6092   21.8729 H   0  0  0  0  0  0
  -25.2764   -9.5685   22.4771 H   0  0  0  0  0  0
  -24.0009   -7.4630   22.7469 H   0  0  0  0  0  0
  -21.0861   -8.8773   19.8934 H   0  0  0  0  0  0
  -22.3730  -10.9663   19.6160 H   0  0  0  0  0  0
  -21.1999   -7.6149   23.9727 H   0  0  0  0  0  0
  -21.1477   -6.0517   25.9085 H   0  0  0  0  0  0
  -22.0603   -2.7607   23.2854 H   0  0  0  0  0  0
  -22.4099  -11.9821   22.4763 H   0  0  0  0  0  0
  -21.1116  -13.1210   22.2644 H   0  0  0  0  0  0
  -24.6674  -15.8483   20.5254 H   0  0  0  0  0  0
  -26.2875  -15.6255   20.0998 H   0  0  0  0  0  0
  -26.7119  -32.5493   23.1130 H   0  0  0  0  0  0
  -25.0025  -33.9702   25.0442 H   0  0  0  0  0  0
  -22.7059  -31.3031   21.4047 H   0  0  0  0  0  0
  -23.3742  -35.9638   23.3302 H   0  0  0  0  0  0
  -24.3580  -36.8929   22.2070 H   0  0  0  0  0  0
  -23.7233  -37.6489   23.6686 H   0  0  0  0  0  0
  -26.0677  -31.5587   20.5951 H   0  0  0  0  0  0
  -26.8371  -30.8576   21.9922 H   0  0  0  0  0  0
  -28.1113  -29.0060   21.1929 H   0  0  0  0  0  0
  -26.0283  -25.9234   19.0190 H   0  0  0  0  0  0
  -23.9751  -27.3017   19.0141 H   0  0  0  0  0  0
  -23.7590  -30.5984   19.4061 H   0  0  0  0  0  0
  -22.7524  -29.2526   19.8508 H   0  0  0  0  0  0
  -25.1266  -36.1925   25.0832 H   0  0  0  0  0  0
  -20.9946  -28.3280   24.1407 H   0  0  0  0  0  0
  -20.5647  -26.2302   23.3590 H   0  0  0  0  0  0
  -21.6632  -26.7456   22.1205 H   0  0  0  0  0  0
  -19.6910  -25.6325   21.1219 H   0  0  0  0  0  0
  -19.6698  -27.3230   20.6722 H   0  0  0  0  0  0
  -17.4182  -26.6672   21.4029 H   0  0  0  0  0  0
  -18.0342  -26.0102   22.9010 H   0  0  0  0  0  0
  -19.7926  -30.7258   24.2328 H   0  0  0  0  0  0
  -17.5004  -31.6285   24.5172 H   0  0  0  0  0  0
  -15.5338  -30.3026   23.7660 H   0  0  0  0  0  0
  -15.8642  -28.0873   22.7052 H   0  0  0  0  0  0
  -24.6025  -30.6855   25.7765 H   0  0  0  0  0  0
  -24.8841  -32.2697   26.4891 H   0  0  0  0  0  0
  -25.8129  -30.8786   27.0214 H   0  0  0  0  0  0
  -26.2908  -29.6692   24.1250 H   0  0  0  0  0  0
  -27.4260  -29.7289   25.4549 H   0  0  0  0  0  0
  -27.8691  -30.4341   23.9188 H   0  0  0  0  0  0
  -27.2745  -33.3641   26.1978 H   0  0  0  0  0  0
  -28.3907  -32.6737   25.0278 H   0  0  0  0  0  0
  -28.0719  -31.8426   26.5419 H   0  0  0  0  0  0
  -28.2576  -38.0105   24.7519 H   0  0  0  0  0  0
  -28.1074  -36.2632   24.6303 H   0  0  0  0  0  0
  -27.2288  -37.1435   25.8876 H   0  0  0  0  0  0
  -20.9352  -29.8786   21.6930 H   0  0  0  0  0  0
  -26.0163  -38.2844   24.1434 H   0  0  0  0  0  0
  -30.6558  -17.0113   18.9843 H   0  0  0  0  0  0
  -30.2013  -19.2692   18.2622 H   0  0  0  0  0  0
  -28.8333  -17.9082   22.7825 H   0  0  0  0  0  0
  -27.8862  -23.1573   17.0738 H   0  0  0  0  0  0
  -29.5869  -22.8563   16.8293 H   0  0  0  0  0  0
  -28.9981  -25.0016   18.0908 H   0  0  0  0  0  0
  -30.1894  -23.9933   18.8853 H   0  0  0  0  0  0
  -27.6929  -22.2650   21.1015 H   0  0  0  0  0  0
  -29.4053  -22.6055   21.1295 H   0  0  0  0  0  0
  -27.2094  -23.8742   19.4122 H   0  0  0  0  0  0
  -29.1420  -25.1186   21.3717 H   0  0  0  0  0  0
  -27.4155  -25.1609   21.4113 H   0  0  0  0  0  0
  -29.3768  -16.3182   23.1728 H   0  0  0  0  0  0
  1 25  1  0  0  0
  1 30  2  0  0  0
  1 78  1  0  0  0
  2  3  1  0  0  0
  2 25  1  0  0  0
  2 88  1  0  0  0
  2 89  1  0  0  0
  3  4  1  0  0  0
  3 90  1  0  0  0
  3 91  1  0  0  0
  4  5  1  0  0  0
  4 92  1  0  0  0
  4 93  1  0  0  0
  5  6  1  0  0  0
  5 26  1  0  0  0
  5 94  1  0  0  0
  6 25  1  0  0  0
  6 95  1  0  0  0
  6 96  1  0  0  0
  7  8  2  0  0  0
  7 26  1  0  0  0
  7 29  1  0  0  0
  8  9  1  0  0  0
  8 22  1  0  0  0
  9 10  1  0  0  0
  9 27  2  0  0  0
 10 11  2  0  0  0
 10 15  1  0  0  0
 11 12  1  0  0  0
 11 97  1  0  0  0
 12 13  2  0  0  0
 12 98  1  0  0  0
 13 14  1  0  0  0
 13 31  1  0  0  0
 14 15  2  0  0  0
 14 99  1  0  0  0
 15100  1  0  0  0
 16 17  2  0  0  0
 16 21  1  0  0  0
 16 31  1  0  0  0
 17 18  1  0  0  0
 17101  1  0  0  0
 18 19  2  0  0  0
 18102  1  0  0  0
 19 20  1  0  0  0
 19 24  1  0  0  0
 20 21  2  0  0  0
 20103  1  0  0  0
 21 23  1  0  0  0
 22 28  1  0  0  0
 22 32  2  0  0  0
 26 27  1  0  0  0
 28104  1  0  0  0
 28105  1  0  0  0
 29106  1  0  0  0
 29107  1  0  0  0
 33 34  1  0  0  0
 33 66  1  0  0  0
 33 70  2  0  0  0
 34 36  1  0  0  0
 34 59  1  0  0  0
 34108  1  0  0  0
 35 44  2  0  0  0
 35 45  1  0  0  0
 35 68  1  0  0  0
 36 56  1  0  0  0
 36109  1  0  0  0
 37 39  1  0  0  0
 37 47  1  0  0  0
 37 66  1  0  0  0
 37110  1  0  0  0
 38 43  2  0  0  0
 38 46  1  0  0  0
 38 47  1  0  0  0
 39 64  1  0  0  0
 39 67  2  0  0  0
 40 52  1  0  0  0
 40 53  2  0  0  0
 40 58  1  0  0  0
 41111  1  0  0  0
 41112  1  0  0  0
 41113  1  0  0  0
 41 48  1  0  0  0
 42 43  1  0  0  0
 42 66  1  0  0  0
 42114  1  0  0  0
 42115  1  0  0  0
 43 44  1  0  0  0
 44116  1  0  0  0
 45 46  2  0  0  0
 45117  1  0  0  0
 46118  1  0  0  0
 47119  1  0  0  0
 47120  1  0  0  0
 48 56  1  0  0  0
 48 65  1  0  0  0
 48121  1  0  0  0
 49 50  1  0  0  0
 49 53  1  0  0  0
 49 64  1  0  0  0
 49122  1  0  0  0
 50 51  1  0  0  0
 50123  1  0  0  0
 50124  1  0  0  0
 51 52  1  0  0  0
 51125  1  0  0  0
 51126  1  0  0  0
 52127  1  0  0  0
 52128  1  0  0  0
 53 54  1  0  0  0
 54 55  2  0  0  0
 54129  1  0  0  0
 55 57  1  0  0  0
 55130  1  0  0  0
 56 69  2  0  0  0
 57 58  2  0  0  0
 57131  1  0  0  0
 58132  1  0  0  0
 59 60  1  0  0  0
 59 61  1  0  0  0
 59 62  1  0  0  0
 60133  1  0  0  0
 60134  1  0  0  0
 60135  1  0  0  0
 61136  1  0  0  0
 61137  1  0  0  0
 61138  1  0  0  0
 62139  1  0  0  0
 62140  1  0  0  0
 62141  1  0  0  0
 63 65  1  0  0  0
 63142  1  0  0  0
 63143  1  0  0  0
 63144  1  0  0  0
 64145  1  0  0  0
 65146  1  0  0  0
 68 83  1  0  0  0
 71 72  2  0  0  0
 71 74  1  0  0  0
 71147  1  0  0  0
 72 75  1  0  0  0
 72148  1  0  0  0
 73 74  2  0  0  0
 73 76  1  0  0  0
 73149  1  0  0  0
 74 78  1  0  0  0
 75 76  2  0  0  0
 75 85  1  0  0  0
 76 87  1  0  0  0
 77 79  1  0  0  0
 77 85  1  0  0  0
 77 86  2  0  0  0
 78 84  2  0  0  0
 79 80  1  0  0  0
 79150  1  0  0  0
 79151  1  0  0  0
 80 82  1  0  0  0
 80152  1  0  0  0
 80153  1  0  0  0
 81 82  1  0  0  0
 81 85  1  0  0  0
 81154  1  0  0  0
 81155  1  0  0  0
 82 83  1  0  0  0
 82156  1  0  0  0
 83157  1  0  0  0
 83158  1  0  0  0
 84159  1  0  0  0
M  ISO  4   1 100  68 101  78 100  83 101
M  END
> <chiral flag>
0

> <version>
0

> <s_m_source_file>
/data/baiqing/PycharmProjects/Reinvent-master-3.2/result/LINK_invent/BTK/process_docking_weight1_custom_product_contain_oxygen_bond_distance_aromatic_linkinvent_7_9_3/rearranged_h_0097.sdf

> <i_m_source_file_index>
8

> <r_mmod_Potential_Energy-OPLS-2005>
287.787750244141

> <r_mmod_Stretch_Energy-OPLS-2005>
96.5899124145508

> <r_mmod_Bend_Energy-OPLS-2005>
151.996459960938

> <r_mmod_Torsional_Energy-OPLS-2005>
275.684204101562

> <r_mmod_Improper_Torsional_Energy-OPLS-2005>
2.23632574081421

> <r_mmod_Van_der_Waal_Energy-OPLS-2005>
169.082824707031

> <r_mmod_Electrostatic_Energy-OPLS-2005>
-242.693344116211

> <r_mmod_Solvation_Energy-OPLS-2005>
-202.880996704102

> <b_mmod_Minimization_Converged-OPLS-2005>
0

> <r_mmod_RMS_Derivative-OPLS-2005>
2.67132019996643

$$$$
8
                    3D
 Structure written by MMmdl.
161170  0  0  1  0            999 V2000
  -30.7383  -14.4535   20.6234 C   0  0  0  0  0  0
  -30.4158  -12.3204   19.4140 C   0  0  0  0  0  0
  -29.4855  -12.5123   18.2012 C   0  0  0  0  0  0
  -28.0105  -12.3647   18.6195 C   0  0  0  0  0  0
  -27.6586  -13.2097   19.8730 C   0  0  2  0  0  0
  -28.7005  -13.0001   20.9936 C   0  0  0  0  0  0
  -25.2576  -13.8171   20.5681 C   0  0  0  0  0  0
  -24.1829  -13.0447   20.9177 C   0  0  0  0  0  0
  -24.6384  -11.6913   20.8737 C   0  0  0  0  0  0
  -23.9056  -10.4295   21.0408 C   0  0  0  0  0  0
  -24.3610   -9.4210   21.9185 C   0  0  0  0  0  0
  -23.6290   -8.2246   22.0751 C   0  0  0  0  0  0
  -22.4274   -8.0281   21.3541 C   0  0  0  0  0  0
  -21.9905   -9.0251   20.4643 C   0  0  0  0  0  0
  -22.7230  -10.2134   20.3054 C   0  0  0  0  0  0
  -21.6849   -6.0734   22.5278 C   0  0  0  0  0  0
  -21.4013   -6.5638   23.8211 C   0  0  0  0  0  0
  -21.3659   -5.6791   24.9175 C   0  0  0  0  0  0
  -21.6043   -4.3055   24.7225 C   0  0  0  0  0  0
  -21.8819   -3.8147   23.4347 C   0  0  0  0  0  0
  -21.9195   -4.6964   22.3404 C   0  0  0  0  0  0
  -22.7852  -13.5239   21.1852 C   0  0  0  0  0  0
  -22.1662   -4.2151   21.0980 F   0  0  0  0  0  0
  -21.5631   -3.4537   25.7737 F   0  0  0  0  0  0
  -30.0306  -13.3047   20.4394 N   0  0  0  0  0  0
  -26.3009  -12.9343   20.3367 N   0  0  0  0  0  0
  -25.9314  -11.6500   20.5775 N   0  0  0  0  0  0
  -22.0494  -12.8222   22.0405 N   0  0  0  0  0  0
  -25.4317  -15.1889   20.4088 N   0  0  0  0  0  0
  -31.8278  -14.6533   20.0787 O   0  0  0  0  0  0
  -21.6639   -6.8879   21.4240 O   0  0  0  0  0  0
  -22.3537  -14.5552   20.6716 O   0  0  0  0  0  0
  -24.6150  -31.8673   23.2103 C   0  0  0  0  0  0
  -25.9040  -32.4820   23.8394 C   0  0  1  0  0  0
  -27.2235  -27.4185   20.0911 C   0  0  0  0  0  0
  -25.5891  -33.8618   24.2318 N   0  0  0  0  0  0
  -23.4027  -30.4935   21.5515 C   0  0  2  0  0  0
  -24.8456  -28.9621   20.1110 C   0  0  0  0  0  0
  -22.7413  -29.4656   22.4986 C   0  0  0  0  0  0
  -18.0270  -28.1383   22.8490 C   0  0  0  0  0  0
  -24.1480  -36.7299   23.2646 C   0  0  0  0  0  0
  -25.9345  -30.8274   21.3661 C   0  0  0  0  0  0
  -26.0085  -29.4629   20.7090 C   0  0  0  0  0  0
  -27.2003  -28.7003   20.6930 C   0  0  0  0  0  0
  -26.0415  -26.9441   19.4745 C   0  0  0  0  0  0
  -24.8580  -27.7026   19.4909 C   0  0  0  0  0  0
  -23.6096  -29.8309   20.1644 C   0  0  0  0  0  0
  -25.4109  -36.3110   24.0348 C   0  0  1  0  0  0
  -20.5864  -28.3657   23.1315 C   0  0  2  0  0  0
  -20.6758  -26.9395   22.5413 C   0  0  0  0  0  0
  -19.5738  -26.6385   21.5208 C   0  0  0  0  0  0
  -18.1915  -26.7923   22.1627 C   0  0  0  0  0  0
  -19.1528  -28.8839   23.2894 C   0  0  0  0  0  0
  -18.9466  -30.1442   23.8901 C   0  0  0  0  0  0
  -17.6475  -30.6584   24.0569 C   0  0  0  0  0  0
  -25.9043  -34.9476   23.5134 C   0  0  0  0  0  0
  -16.5355  -29.9092   23.6337 C   0  0  0  0  0  0
  -16.7261  -28.6515   23.0346 C   0  0  0  0  0  0
  -26.4460  -31.6602   25.0723 C   0  0  0  0  0  0
  -25.3727  -31.3715   26.1478 C   0  0  0  0  0  0
  -27.0294  -30.3052   24.6087 C   0  0  0  0  0  0
  -27.6032  -32.4320   25.7491 C   0  0  0  0  0  0
  -27.5576  -37.1800   24.8475 C   0  0  0  0  0  0
  -21.4142  -29.3025   22.3721 N   0  0  0  0  0  0
  -26.4286  -37.3798   23.9431 N   0  0  0  0  0  0
  -24.6695  -31.0773   22.1005 N   0  0  0  0  0  0
  -23.4184  -28.8191   23.3020 O   0  0  0  0  0  0
  -28.3816  -26.6618   20.1231 O   0  0  0  0  0  0
  -26.5609  -34.8928   22.4695 O   0  0  0  0  0  0
  -23.5347  -32.1421   23.7501 O   0  0  0  0  0  0
  -29.3313  -18.4585   21.7581 C   0  0  0  0  0  0
  -31.7180  -18.7932   21.4680 C   0  0  0  0  0  0
  -29.1270  -19.8605   21.6737 C   0  0  0  0  0  0
  -31.5181  -20.1862   21.3872 C   0  0  0  0  0  0
  -30.6377  -17.9164   21.7078 C   0  0  0  0  0  0
  -30.2288  -20.7440   21.5531 C   0  0  0  0  0  0
  -30.6275  -22.7511   22.8262 C   0  0  0  0  0  0
  -30.5777  -24.2735   22.9996 C   0  0  0  0  0  0
  -29.4107  -24.9409   22.2746 C   0  0  0  0  0  0
  -29.1970  -22.9217   20.7937 C   0  0  0  0  0  0
  -29.3549  -24.4769   20.8185 C   0  0  1  0  0  0
  -30.9463  -16.4584   22.0839 C   0  0  0  0  0  0
  -28.2331  -25.2264   20.0556 C   0  0  0  0  0  0
  -30.0848  -22.1687   21.7171 N   0  0  0  0  0  0
  -30.1912  -15.3756   21.4370 N   0  0  0  0  0  0
  -31.1977  -22.1098   23.7167 O   0  0  0  0  0  0
  -31.4590  -12.4175   19.1076 H   0  0  0  0  0  0
  -30.3203  -11.3098   19.8144 H   0  0  0  0  0  0
  -29.7259  -11.7870   17.4226 H   0  0  0  0  0  0
  -29.6471  -13.4987   17.7634 H   0  0  0  0  0  0
  -27.8276  -11.3085   18.8228 H   0  0  0  0  0  0
  -27.3546  -12.6307   17.7901 H   0  0  0  0  0  0
  -27.7011  -14.2567   19.5720 H   0  0  0  0  0  0
  -28.6810  -11.9656   21.3405 H   0  0  0  0  0  0
  -28.4512  -13.6027   21.8678 H   0  0  0  0  0  0
  -25.2756   -9.5688   22.4758 H   0  0  0  0  0  0
  -24.0003   -7.4632   22.7468 H   0  0  0  0  0  0
  -21.0841   -8.8766   19.8946 H   0  0  0  0  0  0
  -22.3690  -10.9671   19.6160 H   0  0  0  0  0  0
  -21.1999   -7.6147   23.9716 H   0  0  0  0  0  0
  -21.1481   -6.0520   25.9076 H   0  0  0  0  0  0
  -22.0600   -2.7609   23.2844 H   0  0  0  0  0  0
  -22.4108  -11.9871   22.4770 H   0  0  0  0  0  0
  -21.1123  -13.1246   22.2636 H   0  0  0  0  0  0
  -24.6705  -15.8505   20.5179 H   0  0  0  0  0  0
  -26.2923  -15.6224   20.0967 H   0  0  0  0  0  0
  -26.7105  -32.5520   23.1150 H   0  0  0  0  0  0
  -25.0032  -33.9783   25.0454 H   0  0  0  0  0  0
  -22.6920  -31.3113   21.4157 H   0  0  0  0  0  0
  -23.3750  -35.9621   23.3324 H   0  0  0  0  0  0
  -24.3565  -36.8894   22.2054 H   0  0  0  0  0  0
  -23.7215  -37.6504   23.6641 H   0  0  0  0  0  0
  -26.0520  -31.5958   20.6005 H   0  0  0  0  0  0
  -26.8203  -30.8750   21.9877 H   0  0  0  0  0  0
  -28.0968  -29.0812   21.1619 H   0  0  0  0  0  0
  -26.0140  -25.9877   18.9737 H   0  0  0  0  0  0
  -23.9658  -27.3144   19.0191 H   0  0  0  0  0  0
  -23.7178  -30.6068   19.4063 H   0  0  0  0  0  0
  -22.7318  -29.2534   19.8674 H   0  0  0  0  0  0
  -25.1275  -36.1975   25.0839 H   0  0  0  0  0  0
  -20.9955  -28.3216   24.1439 H   0  0  0  0  0  0
  -20.5665  -26.2262   23.3599 H   0  0  0  0  0  0
  -21.6628  -26.7435   22.1204 H   0  0  0  0  0  0
  -19.6908  -25.6303   21.1223 H   0  0  0  0  0  0
  -19.6687  -27.3211   20.6749 H   0  0  0  0  0  0
  -17.4185  -26.6673   21.4027 H   0  0  0  0  0  0
  -18.0320  -26.0063   22.9025 H   0  0  0  0  0  0
  -19.7947  -30.7248   24.2270 H   0  0  0  0  0  0
  -17.5036  -31.6272   24.5160 H   0  0  0  0  0  0
  -15.5357  -30.3003   23.7664 H   0  0  0  0  0  0
  -15.8661  -28.0842   22.7055 H   0  0  0  0  0  0
  -24.5903  -30.7054   25.7827 H   0  0  0  0  0  0
  -24.8916  -32.2873   26.4921 H   0  0  0  0  0  0
  -25.8087  -30.8897   27.0239 H   0  0  0  0  0  0
  -26.2832  -29.6827   24.1133 H   0  0  0  0  0  0
  -27.4078  -29.7273   25.4528 H   0  0  0  0  0  0
  -27.8660  -30.4403   23.9229 H   0  0  0  0  0  0
  -27.2645  -33.3615   26.2088 H   0  0  0  0  0  0
  -28.3832  -32.6889   25.0308 H   0  0  0  0  0  0
  -28.0701  -31.8426   26.5396 H   0  0  0  0  0  0
  -28.2602  -38.0089   24.7516 H   0  0  0  0  0  0
  -28.1058  -36.2617   24.6298 H   0  0  0  0  0  0
  -27.2291  -37.1450   25.8877 H   0  0  0  0  0  0
  -20.9301  -29.8762   21.6960 H   0  0  0  0  0  0
  -26.0178  -38.2879   24.1431 H   0  0  0  0  0  0
  -28.4862  -17.8109   21.9465 H   0  0  0  0  0  0
  -32.7279  -18.4097   21.4227 H   0  0  0  0  0  0
  -28.1273  -20.2545   21.7958 H   0  0  0  0  0  0
  -32.3777  -20.8334   21.2800 H   0  0  0  0  0  0
  -31.5202  -24.6770   22.6286 H   0  0  0  0  0  0
  -30.5352  -24.5141   24.0624 H   0  0  0  0  0  0
  -29.5286  -26.0238   22.3278 H   0  0  0  0  0  0
  -28.4726  -24.7092   22.7815 H   0  0  0  0  0  0
  -29.3587  -22.5590   19.7777 H   0  0  0  0  0  0
  -28.1690  -22.6622   21.0495 H   0  0  0  0  0  0
  -30.3032  -24.7319   20.3413 H   0  0  0  0  0  0
  -30.7590  -16.3693   23.1548 H   0  0  0  0  0  0
  -32.0201  -16.2846   21.9848 H   0  0  0  0  0  0
  -27.2843  -24.9104   20.4934 H   0  0  0  0  0  0
  -28.2219  -24.9187   19.0097 H   0  0  0  0  0  0
  -29.2789  -15.1655   21.8125 H   0  0  0  0  0  0
  1 25  1  0  0  0
  1 30  2  0  0  0
  1 85  1  0  0  0
  2  3  1  0  0  0
  2 25  1  0  0  0
  2 87  1  0  0  0
  2 88  1  0  0  0
  3  4  1  0  0  0
  3 89  1  0  0  0
  3 90  1  0  0  0
  4  5  1  0  0  0
  4 91  1  0  0  0
  4 92  1  0  0  0
  5  6  1  0  0  0
  5 26  1  0  0  0
  5 93  1  0  0  0
  6 25  1  0  0  0
  6 94  1  0  0  0
  6 95  1  0  0  0
  7  8  2  0  0  0
  7 26  1  0  0  0
  7 29  1  0  0  0
  8  9  1  0  0  0
  8 22  1  0  0  0
  9 10  1  0  0  0
  9 27  2  0  0  0
 10 11  2  0  0  0
 10 15  1  0  0  0
 11 12  1  0  0  0
 11 96  1  0  0  0
 12 13  2  0  0  0
 12 97  1  0  0  0
 13 14  1  0  0  0
 13 31  1  0  0  0
 14 15  2  0  0  0
 14 98  1  0  0  0
 15 99  1  0  0  0
 16 17  2  0  0  0
 16 21  1  0  0  0
 16 31  1  0  0  0
 17 18  1  0  0  0
 17100  1  0  0  0
 18 19  2  0  0  0
 18101  1  0  0  0
 19 20  1  0  0  0
 19 24  1  0  0  0
 20 21  2  0  0  0
 20102  1  0  0  0
 21 23  1  0  0  0
 22 28  1  0  0  0
 22 32  2  0  0  0
 26 27  1  0  0  0
 28103  1  0  0  0
 28104  1  0  0  0
 29105  1  0  0  0
 29106  1  0  0  0
 33 34  1  0  0  0
 33 66  1  0  0  0
 33 70  2  0  0  0
 34 36  1  0  0  0
 34 59  1  0  0  0
 34107  1  0  0  0
 35 44  2  0  0  0
 35 45  1  0  0  0
 35 68  1  0  0  0
 36 56  1  0  0  0
 36108  1  0  0  0
 37 39  1  0  0  0
 37 47  1  0  0  0
 37 66  1  0  0  0
 37109  1  0  0  0
 38 43  2  0  0  0
 38 46  1  0  0  0
 38 47  1  0  0  0
 39 64  1  0  0  0
 39 67  2  0  0  0
 40 52  1  0  0  0
 40 53  2  0  0  0
 40 58  1  0  0  0
 41110  1  0  0  0
 41111  1  0  0  0
 41112  1  0  0  0
 41 48  1  0  0  0
 42 43  1  0  0  0
 42 66  1  0  0  0
 42113  1  0  0  0
 42114  1  0  0  0
 43 44  1  0  0  0
 44115  1  0  0  0
 45 46  2  0  0  0
 45116  1  0  0  0
 46117  1  0  0  0
 47118  1  0  0  0
 47119  1  0  0  0
 48 56  1  0  0  0
 48 65  1  0  0  0
 48120  1  0  0  0
 49 50  1  0  0  0
 49 53  1  0  0  0
 49 64  1  0  0  0
 49121  1  0  0  0
 50 51  1  0  0  0
 50122  1  0  0  0
 50123  1  0  0  0
 51 52  1  0  0  0
 51124  1  0  0  0
 51125  1  0  0  0
 52126  1  0  0  0
 52127  1  0  0  0
 53 54  1  0  0  0
 54 55  2  0  0  0
 54128  1  0  0  0
 55 57  1  0  0  0
 55129  1  0  0  0
 56 69  2  0  0  0
 57 58  2  0  0  0
 57130  1  0  0  0
 58131  1  0  0  0
 59 60  1  0  0  0
 59 61  1  0  0  0
 59 62  1  0  0  0
 60132  1  0  0  0
 60133  1  0  0  0
 60134  1  0  0  0
 61135  1  0  0  0
 61136  1  0  0  0
 61137  1  0  0  0
 62138  1  0  0  0
 62139  1  0  0  0
 62140  1  0  0  0
 63 65  1  0  0  0
 63141  1  0  0  0
 63142  1  0  0  0
 63143  1  0  0  0
 64144  1  0  0  0
 65145  1  0  0  0
 68 83  1  0  0  0
 71 73  2  0  0  0
 71 75  1  0  0  0
 71146  1  0  0  0
 72 74  1  0  0  0
 72 75  2  0  0  0
 72147  1  0  0  0
 73 76  1  0  0  0
 73148  1  0  0  0
 74 76  2  0  0  0
 74149  1  0  0  0
 75 82  1  0  0  0
 76 84  1  0  0  0
 77 78  1  0  0  0
 77 84  1  0  0  0
 77 86  2  0  0  0
 78 79  1  0  0  0
 78150  1  0  0  0
 78151  1  0  0  0
 79 81  1  0  0  0
 79152  1  0  0  0
 79153  1  0  0  0
 80 81  1  0  0  0
 80 84  1  0  0  0
 80154  1  0  0  0
 80155  1  0  0  0
 81 83  1  0  0  0
 81156  1  0  0  0
 82 85  1  0  0  0
 82157  1  0  0  0
 82158  1  0  0  0
 83159  1  0  0  0
 83160  1  0  0  0
 85161  1  0  0  0
M  ISO  4   1 100  68 101  83 101  85 100
M  END
> <chiral flag>
0

> <version>
0

> <s_m_source_file>
/data/baiqing/PycharmProjects/Reinvent-master-3.2/result/LINK_invent/BTK/process_docking_weight1_custom_product_contain_oxygen_bond_distance_aromatic_linkinvent_7_9_3/rearranged_h_0097.sdf

> <i_m_source_file_index>
9

> <r_mmod_Potential_Energy-OPLS-2005>
4.68270874023438

> <r_mmod_Stretch_Energy-OPLS-2005>
44.2813720703125

> <r_mmod_Bend_Energy-OPLS-2005>
103.789657592773

> <r_mmod_Torsional_Energy-OPLS-2005>
276.015960693359

> <r_mmod_Improper_Torsional_Energy-OPLS-2005>
3.86651659011841

> <r_mmod_Van_der_Waal_Energy-OPLS-2005>
167.382125854492

> <r_mmod_Electrostatic_Energy-OPLS-2005>
-377.897888183594

> <r_mmod_Solvation_Energy-OPLS-2005>
-226.050811767578

> <b_mmod_Minimization_Converged-OPLS-2005>
0

> <r_mmod_RMS_Derivative-OPLS-2005>
1.20815706253052

$$$$
9
                    3D
 Structure written by MMmdl.
159168  0  0  1  0            999 V2000
  -30.6454  -14.6246   20.5705 C   0  0  0  0  0  0
  -30.4333  -12.4034   19.4582 C   0  0  0  0  0  0
  -29.5063  -12.5345   18.2281 C   0  0  0  0  0  0
  -28.0289  -12.3570   18.6300 C   0  0  0  0  0  0
  -27.6537  -13.2107   19.8686 C   0  0  2  0  0  0
  -28.6883  -13.0196   20.9952 C   0  0  0  0  0  0
  -25.2562  -13.8156   20.5679 C   0  0  0  0  0  0
  -24.1822  -13.0424   20.9165 C   0  0  0  0  0  0
  -24.6386  -11.6897   20.8715 C   0  0  0  0  0  0
  -23.9056  -10.4287   21.0402 C   0  0  0  0  0  0
  -24.3610   -9.4209   21.9191 C   0  0  0  0  0  0
  -23.6294   -8.2240   22.0755 C   0  0  0  0  0  0
  -22.4278   -8.0275   21.3537 C   0  0  0  0  0  0
  -21.9905   -9.0243   20.4638 C   0  0  0  0  0  0
  -22.7232  -10.2126   20.3050 C   0  0  0  0  0  0
  -21.6845   -6.0732   22.5280 C   0  0  0  0  0  0
  -21.4015   -6.5638   23.8214 C   0  0  0  0  0  0
  -21.3664   -5.6790   24.9178 C   0  0  0  0  0  0
  -21.6037   -4.3052   24.7222 C   0  0  0  0  0  0
  -21.8823   -3.8146   23.4348 C   0  0  0  0  0  0
  -21.9197   -4.6963   22.3410 C   0  0  0  0  0  0
  -22.7849  -13.5227   21.1858 C   0  0  0  0  0  0
  -22.1660   -4.2146   21.0984 F   0  0  0  0  0  0
  -21.5634   -3.4543   25.7739 F   0  0  0  0  0  0
  -30.0106  -13.4029   20.4669 N   0  0  0  0  0  0
  -26.2976  -12.9322   20.3308 N   0  0  0  0  0  0
  -25.9304  -11.6481   20.5710 N   0  0  0  0  0  0
  -22.0499  -12.8193   22.0401 N   0  0  0  0  0  0
  -25.4284  -15.1878   20.4118 N   0  0  0  0  0  0
  -31.7356  -14.8204   20.0216 O   0  0  0  0  0  0
  -21.6635   -6.8877   21.4240 O   0  0  0  0  0  0
  -22.3535  -14.5553   20.6738 O   0  0  0  0  0  0
  -24.6235  -31.8618   23.2038 C   0  0  0  0  0  0
  -25.9090  -32.4800   23.8371 C   0  0  1  0  0  0
  -27.2244  -27.3431   20.1198 C   0  0  0  0  0  0
  -25.5906  -33.8592   24.2299 N   0  0  0  0  0  0
  -23.4161  -30.4829   21.5487 C   0  0  2  0  0  0
  -24.8623  -28.9334   20.1172 C   0  0  0  0  0  0
  -22.7458  -29.4627   22.4983 C   0  0  0  0  0  0
  -18.0270  -28.1393   22.8488 C   0  0  0  0  0  0
  -24.1490  -36.7288   23.2647 C   0  0  0  0  0  0
  -25.9524  -30.8009   21.3662 C   0  0  0  0  0  0
  -26.0289  -29.4264   20.7158 C   0  0  0  0  0  0
  -27.2169  -28.6432   20.7010 C   0  0  0  0  0  0
  -26.0379  -26.8812   19.5157 C   0  0  0  0  0  0
  -24.8656  -27.6650   19.5115 C   0  0  0  0  0  0
  -23.6296  -29.8136   20.1648 C   0  0  0  0  0  0
  -25.4110  -36.3087   24.0329 C   0  0  1  0  0  0
  -20.5866  -28.3690   23.1302 C   0  0  2  0  0  0
  -20.6770  -26.9422   22.5413 C   0  0  0  0  0  0
  -19.5746  -26.6405   21.5211 C   0  0  0  0  0  0
  -18.1915  -26.7937   22.1615 C   0  0  0  0  0  0
  -19.1520  -28.8857   23.2894 C   0  0  0  0  0  0
  -18.9447  -30.1448   23.8924 C   0  0  0  0  0  0
  -17.6451  -30.6610   24.0563 C   0  0  0  0  0  0
  -25.9048  -34.9454   23.5112 C   0  0  0  0  0  0
  -16.5345  -29.9107   23.6338 C   0  0  0  0  0  0
  -16.7252  -28.6516   23.0373 C   0  0  0  0  0  0
  -26.4493  -31.6587   25.0723 C   0  0  0  0  0  0
  -25.3732  -31.3628   26.1439 C   0  0  0  0  0  0
  -27.0385  -30.3055   24.6114 C   0  0  0  0  0  0
  -27.6062  -32.4322   25.7486 C   0  0  0  0  0  0
  -27.5563  -37.1799   24.8467 C   0  0  0  0  0  0
  -21.4171  -29.3051   22.3718 N   0  0  0  0  0  0
  -26.4280  -37.3790   23.9406 N   0  0  0  0  0  0
  -24.6833  -31.0653   22.0977 N   0  0  0  0  0  0
  -23.4166  -28.8168   23.3067 O   0  0  0  0  0  0
  -28.3630  -26.5388   20.0986 O   0  0  0  0  0  0
  -26.5644  -34.8898   22.4696 O   0  0  0  0  0  0
  -23.5410  -32.1401   23.7378 O   0  0  0  0  0  0
  -29.1011  -17.5257   19.7014 C   0  0  0  0  0  0
  -28.8686  -18.8711   19.2885 C   0  0  0  0  0  0
  -30.1698  -19.6818   21.1362 C   0  0  0  0  0  0
  -29.8756  -17.2087   20.8484 C   0  0  0  0  0  0
  -29.4067  -19.9953   19.9826 C   0  0  0  0  0  0
  -30.4049  -18.3343   21.5494 C   0  0  0  0  0  0
  -29.6943  -21.6439   18.2088 C   0  0  0  0  0  0
  -29.9844  -15.7804   21.4084 C   0  0  0  0  0  0
  -29.6239  -23.0671   17.6294 C   0  0  0  0  0  0
  -29.6057  -24.1923   18.6688 C   0  0  0  0  0  0
  -28.8473  -22.5193   20.3806 C   0  0  0  0  0  0
  -28.5120  -23.9252   19.6965 C   0  0  1  0  0  0
  -28.2828  -25.1754   20.6518 C   0  0  0  0  0  0
  -29.5861  -15.5738   22.5965 N   0  0  0  0  0  0
  -29.2613  -21.3764   19.4781 N   0  0  0  0  0  0
  -30.1401  -20.7750   17.4510 O   0  0  0  0  0  0
  -31.1519  -18.1366   22.6632 F   0  0  0  0  0  0
  -31.4761  -12.5253   19.1609 H   0  0  0  0  0  0
  -30.3672  -11.3978   19.8759 H   0  0  0  0  0  0
  -29.7787  -11.7984   17.4706 H   0  0  0  0  0  0
  -29.6433  -13.5134   17.7661 H   0  0  0  0  0  0
  -27.8701  -11.2998   18.8494 H   0  0  0  0  0  0
  -27.3735  -12.5950   17.7908 H   0  0  0  0  0  0
  -27.6869  -14.2544   19.5570 H   0  0  0  0  0  0
  -28.7069  -11.9759   21.3131 H   0  0  0  0  0  0
  -28.3798  -13.5650   21.8822 H   0  0  0  0  0  0
  -25.2758   -9.5684   22.4761 H   0  0  0  0  0  0
  -24.0002   -7.4629   22.7473 H   0  0  0  0  0  0
  -21.0843   -8.8757   19.8936 H   0  0  0  0  0  0
  -22.3706  -10.9655   19.6148 H   0  0  0  0  0  0
  -21.2001   -7.6144   23.9716 H   0  0  0  0  0  0
  -21.1480   -6.0521   25.9077 H   0  0  0  0  0  0
  -22.0599   -2.7603   23.2849 H   0  0  0  0  0  0
  -22.4121  -11.9828   22.4745 H   0  0  0  0  0  0
  -21.1116  -13.1191   22.2632 H   0  0  0  0  0  0
  -24.6651  -15.8442   20.5310 H   0  0  0  0  0  0
  -26.2907  -15.6320   20.1253 H   0  0  0  0  0  0
  -26.7154  -32.5485   23.1115 H   0  0  0  0  0  0
  -25.0018  -33.9764   25.0419 H   0  0  0  0  0  0
  -22.7072  -31.3004   21.4039 H   0  0  0  0  0  0
  -23.3758  -35.9623   23.3324 H   0  0  0  0  0  0
  -24.3574  -36.8919   22.2065 H   0  0  0  0  0  0
  -23.7233  -37.6475   23.6687 H   0  0  0  0  0  0
  -26.0723  -31.5601   20.5923 H   0  0  0  0  0  0
  -26.8366  -30.8580   21.9901 H   0  0  0  0  0  0
  -28.1202  -29.0187   21.1610 H   0  0  0  0  0  0
  -26.0198  -25.9083   19.0457 H   0  0  0  0  0  0
  -23.9678  -27.2808   19.0473 H   0  0  0  0  0  0
  -23.7420  -30.5898   19.4078 H   0  0  0  0  0  0
  -22.7500  -29.2427   19.8652 H   0  0  0  0  0  0
  -25.1288  -36.1942   25.0825 H   0  0  0  0  0  0
  -20.9924  -28.3250   24.1435 H   0  0  0  0  0  0
  -20.5707  -26.2289   23.3601 H   0  0  0  0  0  0
  -21.6630  -26.7497   22.1169 H   0  0  0  0  0  0
  -19.6937  -25.6324   21.1226 H   0  0  0  0  0  0
  -19.6691  -27.3228   20.6749 H   0  0  0  0  0  0
  -17.4192  -26.6689   21.4018 H   0  0  0  0  0  0
  -18.0313  -26.0058   22.8996 H   0  0  0  0  0  0
  -19.7925  -30.7241   24.2323 H   0  0  0  0  0  0
  -17.5019  -31.6290   24.5159 H   0  0  0  0  0  0
  -15.5351  -30.3032   23.7664 H   0  0  0  0  0  0
  -15.8633  -28.0842   22.7130 H   0  0  0  0  0  0
  -24.5940  -30.6964   25.7707 H   0  0  0  0  0  0
  -24.8872  -32.2750   26.4918 H   0  0  0  0  0  0
  -25.8044  -30.8744   27.0187 H   0  0  0  0  0  0
  -26.2972  -29.6758   24.1189 H   0  0  0  0  0  0
  -27.4223  -29.7319   25.4558 H   0  0  0  0  0  0
  -27.8750  -30.4413   23.9249 H   0  0  0  0  0  0
  -27.2720  -33.3662   26.1996 H   0  0  0  0  0  0
  -28.3895  -32.6811   25.0318 H   0  0  0  0  0  0
  -28.0707  -31.8484   26.5443 H   0  0  0  0  0  0
  -28.2568  -38.0109   24.7522 H   0  0  0  0  0  0
  -28.1067  -36.2626   24.6295 H   0  0  0  0  0  0
  -27.2271  -37.1442   25.8871 H   0  0  0  0  0  0
  -20.9361  -29.8735   21.6885 H   0  0  0  0  0  0
  -26.0156  -38.2870   24.1402 H   0  0  0  0  0  0
  -28.6430  -16.7267   19.1362 H   0  0  0  0  0  0
  -28.2701  -19.0357   18.4035 H   0  0  0  0  0  0
  -30.6164  -20.4800   21.7093 H   0  0  0  0  0  0
  -28.7290  -23.1272   17.0095 H   0  0  0  0  0  0
  -30.4702  -23.2127   16.9565 H   0  0  0  0  0  0
  -29.4249  -25.1403   18.1615 H   0  0  0  0  0  0
  -30.5788  -24.2823   19.1544 H   0  0  0  0  0  0
  -27.9857  -22.1969   20.9659 H   0  0  0  0  0  0
  -29.6551  -22.6689   21.0988 H   0  0  0  0  0  0
  -27.5806  -23.8068   19.1392 H   0  0  0  0  0  0
  -29.0430  -25.1399   21.4321 H   0  0  0  0  0  0
  -27.3386  -25.0434   21.1832 H   0  0  0  0  0  0
  -29.2247  -16.4229   23.0144 H   0  0  0  0  0  0
  1 25  1  0  0  0
  1 30  2  0  0  0
  1 78  1  0  0  0
  2  3  1  0  0  0
  2 25  1  0  0  0
  2 88  1  0  0  0
  2 89  1  0  0  0
  3  4  1  0  0  0
  3 90  1  0  0  0
  3 91  1  0  0  0
  4  5  1  0  0  0
  4 92  1  0  0  0
  4 93  1  0  0  0
  5  6  1  0  0  0
  5 26  1  0  0  0
  5 94  1  0  0  0
  6 25  1  0  0  0
  6 95  1  0  0  0
  6 96  1  0  0  0
  7  8  2  0  0  0
  7 26  1  0  0  0
  7 29  1  0  0  0
  8  9  1  0  0  0
  8 22  1  0  0  0
  9 10  1  0  0  0
  9 27  2  0  0  0
 10 11  2  0  0  0
 10 15  1  0  0  0
 11 12  1  0  0  0
 11 97  1  0  0  0
 12 13  2  0  0  0
 12 98  1  0  0  0
 13 14  1  0  0  0
 13 31  1  0  0  0
 14 15  2  0  0  0
 14 99  1  0  0  0
 15100  1  0  0  0
 16 17  2  0  0  0
 16 21  1  0  0  0
 16 31  1  0  0  0
 17 18  1  0  0  0
 17101  1  0  0  0
 18 19  2  0  0  0
 18102  1  0  0  0
 19 20  1  0  0  0
 19 24  1  0  0  0
 20 21  2  0  0  0
 20103  1  0  0  0
 21 23  1  0  0  0
 22 28  1  0  0  0
 22 32  2  0  0  0
 26 27  1  0  0  0
 28104  1  0  0  0
 28105  1  0  0  0
 29106  1  0  0  0
 29107  1  0  0  0
 33 34  1  0  0  0
 33 66  1  0  0  0
 33 70  2  0  0  0
 34 36  1  0  0  0
 34 59  1  0  0  0
 34108  1  0  0  0
 35 44  2  0  0  0
 35 45  1  0  0  0
 35 68  1  0  0  0
 36 56  1  0  0  0
 36109  1  0  0  0
 37 39  1  0  0  0
 37 47  1  0  0  0
 37 66  1  0  0  0
 37110  1  0  0  0
 38 43  2  0  0  0
 38 46  1  0  0  0
 38 47  1  0  0  0
 39 64  1  0  0  0
 39 67  2  0  0  0
 40 52  1  0  0  0
 40 53  2  0  0  0
 40 58  1  0  0  0
 41111  1  0  0  0
 41112  1  0  0  0
 41113  1  0  0  0
 41 48  1  0  0  0
 42 43  1  0  0  0
 42 66  1  0  0  0
 42114  1  0  0  0
 42115  1  0  0  0
 43 44  1  0  0  0
 44116  1  0  0  0
 45 46  2  0  0  0
 45117  1  0  0  0
 46118  1  0  0  0
 47119  1  0  0  0
 47120  1  0  0  0
 48 56  1  0  0  0
 48 65  1  0  0  0
 48121  1  0  0  0
 49 50  1  0  0  0
 49 53  1  0  0  0
 49 64  1  0  0  0
 49122  1  0  0  0
 50 51  1  0  0  0
 50123  1  0  0  0
 50124  1  0  0  0
 51 52  1  0  0  0
 51125  1  0  0  0
 51126  1  0  0  0
 52127  1  0  0  0
 52128  1  0  0  0
 53 54  1  0  0  0
 54 55  2  0  0  0
 54129  1  0  0  0
 55 57  1  0  0  0
 55130  1  0  0  0
 56 69  2  0  0  0
 57 58  2  0  0  0
 57131  1  0  0  0
 58132  1  0  0  0
 59 60  1  0  0  0
 59 61  1  0  0  0
 59 62  1  0  0  0
 60133  1  0  0  0
 60134  1  0  0  0
 60135  1  0  0  0
 61136  1  0  0  0
 61137  1  0  0  0
 61138  1  0  0  0
 62139  1  0  0  0
 62140  1  0  0  0
 62141  1  0  0  0
 63 65  1  0  0  0
 63142  1  0  0  0
 63143  1  0  0  0
 63144  1  0  0  0
 64145  1  0  0  0
 65146  1  0  0  0
 68 83  1  0  0  0
 71 72  2  0  0  0
 71 74  1  0  0  0
 71147  1  0  0  0
 72 75  1  0  0  0
 72148  1  0  0  0
 73 75  2  0  0  0
 73 76  1  0  0  0
 73149  1  0  0  0
 74 76  2  0  0  0
 74 78  1  0  0  0
 75 85  1  0  0  0
 76 87  1  0  0  0
 77 79  1  0  0  0
 77 85  1  0  0  0
 77 86  2  0  0  0
 78 84  2  0  0  0
 79 80  1  0  0  0
 79150  1  0  0  0
 79151  1  0  0  0
 80 82  1  0  0  0
 80152  1  0  0  0
 80153  1  0  0  0
 81 82  1  0  0  0
 81 85  1  0  0  0
 81154  1  0  0  0
 81155  1  0  0  0
 82 83  1  0  0  0
 82156  1  0  0  0
 83157  1  0  0  0
 83158  1  0  0  0
 84159  1  0  0  0
M  ISO  4   1 100  68 101  78 100  83 101
M  END
> <chiral flag>
0

> <version>
0

> <s_m_source_file>
/data/baiqing/PycharmProjects/Reinvent-master-3.2/result/LINK_invent/BTK/process_docking_weight1_custom_product_contain_oxygen_bond_distance_aromatic_linkinvent_7_9_3/rearranged_h_0097.sdf

> <i_m_source_file_index>
10

> <r_mmod_Potential_Energy-OPLS-2005>
314.53173828125

> <r_mmod_Stretch_Energy-OPLS-2005>
91.6206436157227

> <r_mmod_Bend_Energy-OPLS-2005>
143.159957885742

> <r_mmod_Torsional_Energy-OPLS-2005>
292.225372314453

> <r_mmod_Improper_Torsional_Energy-OPLS-2005>
3.4178569316864

> <r_mmod_Van_der_Waal_Energy-OPLS-2005>
152.731857299805

> <r_mmod_Electrostatic_Energy-OPLS-2005>
-194.124069213867

> <r_mmod_Solvation_Energy-OPLS-2005>
-211.895568847656

> <b_mmod_Minimization_Converged-OPLS-2005>
0

> <r_mmod_RMS_Derivative-OPLS-2005>
2.27668046951294

$$$$
10
                    3D
 Structure written by MMmdl.
158167  0  0  1  0            999 V2000
  -30.6274  -14.6237   20.4944 C   0  0  0  0  0  0
  -30.4380  -12.3807   19.4454 C   0  0  0  0  0  0
  -29.5042  -12.5041   18.2204 C   0  0  0  0  0  0
  -28.0268  -12.3460   18.6341 C   0  0  0  0  0  0
  -27.6541  -13.2141   19.8656 C   0  0  2  0  0  0
  -28.7016  -13.0602   20.9918 C   0  0  0  0  0  0
  -25.2567  -13.8160   20.5702 C   0  0  0  0  0  0
  -24.1822  -13.0426   20.9160 C   0  0  0  0  0  0
  -24.6392  -11.6897   20.8722 C   0  0  0  0  0  0
  -23.9062  -10.4282   21.0395 C   0  0  0  0  0  0
  -24.3615   -9.4202   21.9178 C   0  0  0  0  0  0
  -23.6290   -8.2239   22.0750 C   0  0  0  0  0  0
  -22.4273   -8.0276   21.3541 C   0  0  0  0  0  0
  -21.9908   -9.0246   20.4641 C   0  0  0  0  0  0
  -22.7234  -10.2125   20.3047 C   0  0  0  0  0  0
  -21.6852   -6.0736   22.5278 C   0  0  0  0  0  0
  -21.4013   -6.5640   23.8211 C   0  0  0  0  0  0
  -21.3660   -5.6792   24.9172 C   0  0  0  0  0  0
  -21.6044   -4.3056   24.7222 C   0  0  0  0  0  0
  -21.8821   -3.8148   23.4344 C   0  0  0  0  0  0
  -21.9192   -4.6964   22.3401 C   0  0  0  0  0  0
  -22.7849  -13.5227   21.1839 C   0  0  0  0  0  0
  -22.1661   -4.2150   21.0978 F   0  0  0  0  0  0
  -21.5629   -3.4542   25.7739 F   0  0  0  0  0  0
  -30.0178  -13.3987   20.4270 N   0  0  0  0  0  0
  -26.3000  -12.9341   20.3354 N   0  0  0  0  0  0
  -25.9325  -11.6493   20.5766 N   0  0  0  0  0  0
  -22.0500  -12.8213   22.0400 N   0  0  0  0  0  0
  -25.4282  -15.1886   20.4205 N   0  0  0  0  0  0
  -31.7915  -14.7834   20.1168 O   0  0  0  0  0  0
  -21.6638   -6.8876   21.4240 O   0  0  0  0  0  0
  -22.3527  -14.5540   20.6707 O   0  0  0  0  0  0
  -24.6262  -31.8603   23.2044 C   0  0  0  0  0  0
  -25.9115  -32.4784   23.8366 C   0  0  1  0  0  0
  -27.2238  -27.3287   20.1095 C   0  0  0  0  0  0
  -25.5938  -33.8584   24.2294 N   0  0  0  0  0  0
  -23.4186  -30.4870   21.5456 C   0  0  2  0  0  0
  -24.8641  -28.9444   20.1111 C   0  0  0  0  0  0
  -22.7470  -29.4639   22.4925 C   0  0  0  0  0  0
  -18.0288  -28.1388   22.8477 C   0  0  0  0  0  0
  -24.1491  -36.7286   23.2636 C   0  0  0  0  0  0
  -25.9602  -30.7949   21.3735 C   0  0  0  0  0  0
  -26.0343  -29.4237   20.7133 C   0  0  0  0  0  0
  -27.2178  -28.6287   20.7007 C   0  0  0  0  0  0
  -26.0265  -26.8995   19.4888 C   0  0  0  0  0  0
  -24.8618  -27.6871   19.4911 C   0  0  0  0  0  0
  -23.6330  -29.8248   20.1599 C   0  0  0  0  0  0
  -25.4111  -36.3083   24.0337 C   0  0  1  0  0  0
  -20.5886  -28.3696   23.1270 C   0  0  2  0  0  0
  -20.6781  -26.9419   22.5394 C   0  0  0  0  0  0
  -19.5755  -26.6383   21.5202 C   0  0  0  0  0  0
  -18.1934  -26.7929   22.1615 C   0  0  0  0  0  0
  -19.1540  -28.8856   23.2875 C   0  0  0  0  0  0
  -18.9471  -30.1455   23.8898 C   0  0  0  0  0  0
  -17.6471  -30.6591   24.0561 C   0  0  0  0  0  0
  -25.9052  -34.9454   23.5111 C   0  0  0  0  0  0
  -16.5359  -29.9090   23.6331 C   0  0  0  0  0  0
  -16.7275  -28.6508   23.0346 C   0  0  0  0  0  0
  -26.4501  -31.6583   25.0726 C   0  0  0  0  0  0
  -25.3743  -31.3708   26.1458 C   0  0  0  0  0  0
  -27.0343  -30.3012   24.6165 C   0  0  0  0  0  0
  -27.6076  -32.4301   25.7490 C   0  0  0  0  0  0
  -27.5582  -37.1791   24.8463 C   0  0  0  0  0  0
  -21.4184  -29.3062   22.3677 N   0  0  0  0  0  0
  -26.4285  -37.3779   23.9423 N   0  0  0  0  0  0
  -24.6871  -31.0629   22.0985 N   0  0  0  0  0  0
  -23.4198  -28.8165   23.2990 O   0  0  0  0  0  0
  -28.3461  -26.4864   20.1492 O   0  0  0  0  0  0
  -26.5609  -34.8922   22.4671 O   0  0  0  0  0  0
  -23.5428  -32.1388   23.7386 O   0  0  0  0  0  0
  -31.1081  -19.2603   20.3327 C   0  0  0  0  0  0
  -31.0919  -17.8348   20.3473 C   0  0  0  0  0  0
  -28.7967  -19.3263   20.9969 C   0  0  0  0  0  0
  -29.9787  -20.0543   20.6989 C   0  0  0  0  0  0
  -29.9271  -17.1168   20.7189 C   0  0  0  0  0  0
  -28.7789  -17.8994   21.0151 C   0  0  0  0  0  0
  -31.0673  -22.0117   21.6608 C   0  0  0  0  0  0
  -31.2937  -23.5254   21.7883 C   0  0  0  0  0  0
  -30.0176  -24.3610   21.6767 C   0  0  0  0  0  0
  -28.9963  -22.4625   20.3696 C   0  0  0  0  0  0
  -29.3146  -24.0315   20.3659 C   0  0  1  0  0  0
  -28.1090  -25.0264   20.0964 C   0  0  0  0  0  0
  -30.0771  -21.5205   20.8554 N   0  0  0  0  0  0
  -29.8098  -15.6652   20.8302 N   0  0  0  0  0  0
  -31.8352  -21.2892   22.3068 O   0  0  0  0  0  0
  -27.6317  -17.2589   21.3462 F   0  0  0  0  0  0
  -31.4781  -12.5052   19.1402 H   0  0  0  0  0  0
  -30.3729  -11.3832   19.8829 H   0  0  0  0  0  0
  -29.7630  -11.7538   17.4723 H   0  0  0  0  0  0
  -29.6484  -13.4744   17.7419 H   0  0  0  0  0  0
  -27.8594  -11.2924   18.8612 H   0  0  0  0  0  0
  -27.3717  -12.5813   17.7942 H   0  0  0  0  0  0
  -27.6729  -14.2505   19.5278 H   0  0  0  0  0  0
  -28.7095  -12.0369   21.3694 H   0  0  0  0  0  0
  -28.4522  -13.6885   21.8484 H   0  0  0  0  0  0
  -25.2762   -9.5682   22.4748 H   0  0  0  0  0  0
  -24.0002   -7.4634   22.7470 H   0  0  0  0  0  0
  -21.0839   -8.8758   19.8949 H   0  0  0  0  0  0
  -22.3690  -10.9660   19.6152 H   0  0  0  0  0  0
  -21.2004   -7.6148   23.9715 H   0  0  0  0  0  0
  -21.1481   -6.0522   25.9074 H   0  0  0  0  0  0
  -22.0602   -2.7610   23.2844 H   0  0  0  0  0  0
  -22.4123  -11.9861   22.4762 H   0  0  0  0  0  0
  -21.1123  -13.1236   22.2630 H   0  0  0  0  0  0
  -24.6726  -15.8446   20.5821 H   0  0  0  0  0  0
  -26.3076  -15.6498   20.2255 H   0  0  0  0  0  0
  -26.7180  -32.5456   23.1109 H   0  0  0  0  0  0
  -25.0119  -33.9738   25.0465 H   0  0  0  0  0  0
  -22.7124  -31.3079   21.4044 H   0  0  0  0  0  0
  -23.3771  -35.9599   23.3274 H   0  0  0  0  0  0
  -24.3592  -36.8923   22.2055 H   0  0  0  0  0  0
  -23.7222  -37.6475   23.6667 H   0  0  0  0  0  0
  -26.0911  -31.5605   20.6075 H   0  0  0  0  0  0
  -26.8411  -30.8408   22.0021 H   0  0  0  0  0  0
  -28.1163  -28.9942   21.1782 H   0  0  0  0  0  0
  -25.9567  -25.9417   18.9977 H   0  0  0  0  0  0
  -23.9652  -27.3139   19.0157 H   0  0  0  0  0  0
  -23.7542  -30.6036   19.4059 H   0  0  0  0  0  0
  -22.7529  -29.2565   19.8545 H   0  0  0  0  0  0
  -25.1288  -36.1930   25.0829 H   0  0  0  0  0  0
  -20.9984  -28.3271   24.1387 H   0  0  0  0  0  0
  -20.5675  -26.2314   23.3599 H   0  0  0  0  0  0
  -21.6654  -26.7440   22.1193 H   0  0  0  0  0  0
  -19.6922  -25.6294   21.1239 H   0  0  0  0  0  0
  -19.6694  -27.3188   20.6729 H   0  0  0  0  0  0
  -17.4201  -26.6671   21.4023 H   0  0  0  0  0  0
  -18.0338  -26.0071   22.9012 H   0  0  0  0  0  0
  -19.7950  -30.7266   24.2273 H   0  0  0  0  0  0
  -17.5032  -31.6277   24.5153 H   0  0  0  0  0  0
  -15.5364  -30.2996   23.7665 H   0  0  0  0  0  0
  -15.8671  -28.0835   22.7056 H   0  0  0  0  0  0
  -24.5952  -30.7011   25.7797 H   0  0  0  0  0  0
  -24.8894  -32.2864   26.4861 H   0  0  0  0  0  0
  -25.8080  -30.8919   27.0247 H   0  0  0  0  0  0
  -26.2907  -29.6757   24.1210 H   0  0  0  0  0  0
  -27.4082  -29.7270   25.4653 H   0  0  0  0  0  0
  -27.8759  -30.4314   23.9356 H   0  0  0  0  0  0
  -27.2724  -33.3634   26.2027 H   0  0  0  0  0  0
  -28.3911  -32.6789   25.0319 H   0  0  0  0  0  0
  -28.0708  -31.8434   26.5435 H   0  0  0  0  0  0
  -28.2570  -38.0117   24.7555 H   0  0  0  0  0  0
  -28.1108  -36.2653   24.6227 H   0  0  0  0  0  0
  -27.2313  -37.1359   25.8868 H   0  0  0  0  0  0
  -20.9360  -29.8812   21.6911 H   0  0  0  0  0  0
  -26.0166  -38.2846   24.1457 H   0  0  0  0  0  0
  -32.0369  -19.7505   20.0757 H   0  0  0  0  0  0
  -31.9997  -17.3075   20.0926 H   0  0  0  0  0  0
  -27.8971  -19.8548   21.2759 H   0  0  0  0  0  0
  -31.9977  -23.8203   21.0089 H   0  0  0  0  0  0
  -31.7838  -23.7357   22.7396 H   0  0  0  0  0  0
  -30.2728  -25.4208   21.7160 H   0  0  0  0  0  0
  -29.3582  -24.1663   22.5240 H   0  0  0  0  0  0
  -28.7017  -22.1571   19.3654 H   0  0  0  0  0  0
  -28.1223  -22.2912   20.9991 H   0  0  0  0  0  0
  -30.0307  -24.2105   19.5622 H   0  0  0  0  0  0
  -27.3139  -24.7882   20.8051 H   0  0  0  0  0  0
  -27.7295  -24.7735   19.1067 H   0  0  0  0  0  0
  -28.8924  -15.3664   21.1237 H   0  0  0  0  0  0
  1 25  1  0  0  0
  1 30  2  0  0  0
  1 84  1  0  0  0
  2  3  1  0  0  0
  2 25  1  0  0  0
  2 87  1  0  0  0
  2 88  1  0  0  0
  3  4  1  0  0  0
  3 89  1  0  0  0
  3 90  1  0  0  0
  4  5  1  0  0  0
  4 91  1  0  0  0
  4 92  1  0  0  0
  5  6  1  0  0  0
  5 26  1  0  0  0
  5 93  1  0  0  0
  6 25  1  0  0  0
  6 94  1  0  0  0
  6 95  1  0  0  0
  7  8  2  0  0  0
  7 26  1  0  0  0
  7 29  1  0  0  0
  8  9  1  0  0  0
  8 22  1  0  0  0
  9 10  1  0  0  0
  9 27  2  0  0  0
 10 11  2  0  0  0
 10 15  1  0  0  0
 11 12  1  0  0  0
 11 96  1  0  0  0
 12 13  2  0  0  0
 12 97  1  0  0  0
 13 14  1  0  0  0
 13 31  1  0  0  0
 14 15  2  0  0  0
 14 98  1  0  0  0
 15 99  1  0  0  0
 16 17  2  0  0  0
 16 21  1  0  0  0
 16 31  1  0  0  0
 17 18  1  0  0  0
 17100  1  0  0  0
 18 19  2  0  0  0
 18101  1  0  0  0
 19 20  1  0  0  0
 19 24  1  0  0  0
 20 21  2  0  0  0
 20102  1  0  0  0
 21 23  1  0  0  0
 22 28  1  0  0  0
 22 32  2  0  0  0
 26 27  1  0  0  0
 28103  1  0  0  0
 28104  1  0  0  0
 29105  1  0  0  0
 29106  1  0  0  0
 33 34  1  0  0  0
 33 66  1  0  0  0
 33 70  2  0  0  0
 34 36  1  0  0  0
 34 59  1  0  0  0
 34107  1  0  0  0
 35 44  2  0  0  0
 35 45  1  0  0  0
 35 68  1  0  0  0
 36 56  1  0  0  0
 36108  1  0  0  0
 37 39  1  0  0  0
 37 47  1  0  0  0
 37 66  1  0  0  0
 37109  1  0  0  0
 38 43  2  0  0  0
 38 46  1  0  0  0
 38 47  1  0  0  0
 39 64  1  0  0  0
 39 67  2  0  0  0
 40 52  1  0  0  0
 40 53  2  0  0  0
 40 58  1  0  0  0
 41110  1  0  0  0
 41111  1  0  0  0
 41112  1  0  0  0
 41 48  1  0  0  0
 42 43  1  0  0  0
 42 66  1  0  0  0
 42113  1  0  0  0
 42114  1  0  0  0
 43 44  1  0  0  0
 44115  1  0  0  0
 45 46  2  0  0  0
 45116  1  0  0  0
 46117  1  0  0  0
 47118  1  0  0  0
 47119  1  0  0  0
 48 56  1  0  0  0
 48 65  1  0  0  0
 48120  1  0  0  0
 49 50  1  0  0  0
 49 53  1  0  0  0
 49 64  1  0  0  0
 49121  1  0  0  0
 50 51  1  0  0  0
 50122  1  0  0  0
 50123  1  0  0  0
 51 52  1  0  0  0
 51124  1  0  0  0
 51125  1  0  0  0
 52126  1  0  0  0
 52127  1  0  0  0
 53 54  1  0  0  0
 54 55  2  0  0  0
 54128  1  0  0  0
 55 57  1  0  0  0
 55129  1  0  0  0
 56 69  2  0  0  0
 57 58  2  0  0  0
 57130  1  0  0  0
 58131  1  0  0  0
 59 60  1  0  0  0
 59 61  1  0  0  0
 59 62  1  0  0  0
 60132  1  0  0  0
 60133  1  0  0  0
 60134  1  0  0  0
 61135  1  0  0  0
 61136  1  0  0  0
 61137  1  0  0  0
 62138  1  0  0  0
 62139  1  0  0  0
 62140  1  0  0  0
 63 65  1  0  0  0
 63141  1  0  0  0
 63142  1  0  0  0
 63143  1  0  0  0
 64144  1  0  0  0
 65145  1  0  0  0
 68 82  1  0  0  0
 71 72  2  0  0  0
 71 74  1  0  0  0
 71146  1  0  0  0
 72 75  1  0  0  0
 72147  1  0  0  0
 73 74  2  0  0  0
 73 76  1  0  0  0
 73148  1  0  0  0
 74 83  1  0  0  0
 75 76  2  0  0  0
 75 84  1  0  0  0
 76 86  1  0  0  0
 77 78  1  0  0  0
 77 83  1  0  0  0
 77 85  2  0  0  0
 78 79  1  0  0  0
 78149  1  0  0  0
 78150  1  0  0  0
 79 81  1  0  0  0
 79151  1  0  0  0
 79152  1  0  0  0
 80 81  1  0  0  0
 80 83  1  0  0  0
 80153  1  0  0  0
 80154  1  0  0  0
 81 82  1  0  0  0
 81155  1  0  0  0
 82156  1  0  0  0
 82157  1  0  0  0
 84158  1  0  0  0
M  ISO  4   1 100  68 101  82 101  84 100
M  END
> <chiral flag>
0

> <version>
0

> <s_m_source_file>
/data/baiqing/PycharmProjects/Reinvent-master-3.2/result/LINK_invent/BTK/process_docking_weight1_custom_product_contain_oxygen_bond_distance_aromatic_linkinvent_7_9_3/rearranged_h_0097.sdf

> <i_m_source_file_index>
11

> <r_mmod_Potential_Energy-OPLS-2005>
107.240104675293

> <r_mmod_Stretch_Energy-OPLS-2005>
82.9357223510742

> <r_mmod_Bend_Energy-OPLS-2005>
137.735961914062

> <r_mmod_Torsional_Energy-OPLS-2005>
273.721435546875

> <r_mmod_Improper_Torsional_Energy-OPLS-2005>
4.68192100524902

> <r_mmod_Van_der_Waal_Energy-OPLS-2005>
159.299835205078

> <r_mmod_Electrostatic_Energy-OPLS-2005>
-382.914001464844

> <r_mmod_Solvation_Energy-OPLS-2005>
-212.034591674805

> <b_mmod_Minimization_Converged-OPLS-2005>
0

> <r_mmod_RMS_Derivative-OPLS-2005>
0.928914606571198

$$$$
11
                    3D
 Structure written by MMmdl.
161170  0  0  1  0            999 V2000
  -30.6772  -14.6129   20.6039 C   0  0  0  0  0  0
  -30.4312  -12.4073   19.4505 C   0  0  0  0  0  0
  -29.5052  -12.5298   18.2211 C   0  0  0  0  0  0
  -28.0286  -12.3572   18.6256 C   0  0  0  0  0  0
  -27.6519  -13.2177   19.8584 C   0  0  2  0  0  0
  -28.6871  -13.0514   20.9863 C   0  0  0  0  0  0
  -25.2565  -13.8175   20.5684 C   0  0  0  0  0  0
  -24.1825  -13.0441   20.9175 C   0  0  0  0  0  0
  -24.6389  -11.6907   20.8709 C   0  0  0  0  0  0
  -23.9054  -10.4292   21.0393 C   0  0  0  0  0  0
  -24.3608   -9.4213   21.9177 C   0  0  0  0  0  0
  -23.6287   -8.2248   22.0752 C   0  0  0  0  0  0
  -22.4268   -8.0280   21.3546 C   0  0  0  0  0  0
  -21.9897   -9.0251   20.4649 C   0  0  0  0  0  0
  -22.7222  -10.2132   20.3052 C   0  0  0  0  0  0
  -21.6854   -6.0732   22.5278 C   0  0  0  0  0  0
  -21.4016   -6.5635   23.8210 C   0  0  0  0  0  0
  -21.3661   -5.6787   24.9172 C   0  0  0  0  0  0
  -21.6044   -4.3052   24.7222 C   0  0  0  0  0  0
  -21.8820   -3.8144   23.4343 C   0  0  0  0  0  0
  -21.9196   -4.6961   22.3400 C   0  0  0  0  0  0
  -22.7853  -13.5243   21.1848 C   0  0  0  0  0  0
  -22.1666   -4.2147   21.0979 F   0  0  0  0  0  0
  -21.5626   -3.4535   25.7736 F   0  0  0  0  0  0
  -30.0114  -13.4154   20.4506 N   0  0  0  0  0  0
  -26.2972  -12.9352   20.3259 N   0  0  0  0  0  0
  -25.9310  -11.6504   20.5689 N   0  0  0  0  0  0
  -22.0491  -12.8241   22.0405 N   0  0  0  0  0  0
  -25.4304  -15.1901   20.4174 N   0  0  0  0  0  0
  -31.7711  -14.7887   20.0570 O   0  0  0  0  0  0
  -21.6639   -6.8875   21.4239 O   0  0  0  0  0  0
  -22.3537  -14.5547   20.6693 O   0  0  0  0  0  0
  -24.6264  -31.8603   23.2037 C   0  0  0  0  0  0
  -25.9115  -32.4779   23.8362 C   0  0  1  0  0  0
  -27.2202  -27.3195   20.1097 C   0  0  0  0  0  0
  -25.5932  -33.8580   24.2287 N   0  0  0  0  0  0
  -23.4196  -30.4860   21.5466 C   0  0  2  0  0  0
  -24.8644  -28.9438   20.1113 C   0  0  0  0  0  0
  -22.7477  -29.4629   22.4936 C   0  0  0  0  0  0
  -18.0287  -28.1381   22.8485 C   0  0  0  0  0  0
  -24.1489  -36.7293   23.2636 C   0  0  0  0  0  0
  -25.9621  -30.7910   21.3756 C   0  0  0  0  0  0
  -26.0351  -29.4197   20.7149 C   0  0  0  0  0  0
  -27.2168  -28.6197   20.7039 C   0  0  0  0  0  0
  -26.0230  -26.8986   19.4838 C   0  0  0  0  0  0
  -24.8601  -27.6885   19.4878 C   0  0  0  0  0  0
  -23.6337  -29.8244   20.1611 C   0  0  0  0  0  0
  -25.4110  -36.3083   24.0331 C   0  0  1  0  0  0
  -20.5888  -28.3687   23.1283 C   0  0  2  0  0  0
  -20.6777  -26.9411   22.5408 C   0  0  0  0  0  0
  -19.5752  -26.6383   21.5209 C   0  0  0  0  0  0
  -18.1932  -26.7924   22.1622 C   0  0  0  0  0  0
  -19.1540  -28.8850   23.2880 C   0  0  0  0  0  0
  -18.9461  -30.1451   23.8895 C   0  0  0  0  0  0
  -17.6462  -30.6585   24.0559 C   0  0  0  0  0  0
  -25.9050  -34.9452   23.5107 C   0  0  0  0  0  0
  -16.5353  -29.9084   23.6328 C   0  0  0  0  0  0
  -16.7274  -28.6501   23.0350 C   0  0  0  0  0  0
  -26.4498  -31.6585   25.0731 C   0  0  0  0  0  0
  -25.3734  -31.3732   26.1462 C   0  0  0  0  0  0
  -27.0330  -30.3004   24.6187 C   0  0  0  0  0  0
  -27.6064  -32.4313   25.7496 C   0  0  0  0  0  0
  -27.5584  -37.1792   24.8458 C   0  0  0  0  0  0
  -21.4191  -29.3044   22.3678 N   0  0  0  0  0  0
  -26.4285  -37.3780   23.9418 N   0  0  0  0  0  0
  -24.6882  -31.0620   22.0985 N   0  0  0  0  0  0
  -23.4203  -28.8162   23.3009 O   0  0  0  0  0  0
  -28.3351  -26.4651   20.1543 O   0  0  0  0  0  0
  -26.5616  -34.8918   22.4672 O   0  0  0  0  0  0
  -23.5428  -32.1401   23.7365 O   0  0  0  0  0  0
  -30.6385  -19.1777   19.9334 C   0  0  0  0  0  0
  -30.7012  -17.7531   20.0575 C   0  0  0  0  0  0
  -29.0175  -17.8533   21.7652 C   0  0  0  0  0  0
  -29.7877  -19.9792   20.7485 C   0  0  0  0  0  0
  -29.9312  -17.0442   21.0244 C   0  0  0  0  0  0
  -28.9451  -19.2708   21.6394 C   0  0  0  0  0  0
  -30.9323  -21.8865   21.6626 C   0  0  0  0  0  0
  -31.1239  -23.3897   21.9240 C   0  0  0  0  0  0
  -29.8602  -24.2386   21.7470 C   0  0  0  0  0  0
  -28.9109  -22.4123   20.3032 C   0  0  0  0  0  0
  -29.2536  -23.9754   20.3741 C   0  0  1  0  0  0
  -30.0091  -15.3193   22.8074 C   0  0  0  0  0  0
  -28.0868  -25.0061   20.0519 C   0  0  0  0  0  0
  -29.9358  -21.4402   20.8462 N   0  0  0  0  0  0
  -30.0939  -15.6110   21.3647 N   0  0  0  0  0  0
  -31.7442  -21.1258   22.2028 O   0  0  0  0  0  0
  -28.1050  -19.9603   22.4489 F   0  0  0  0  0  0
  -31.4727  -12.5277   19.1480 H   0  0  0  0  0  0
  -30.3677  -11.4055   19.8788 H   0  0  0  0  0  0
  -29.7757  -11.7878   17.4689 H   0  0  0  0  0  0
  -29.6441  -13.5056   17.7528 H   0  0  0  0  0  0
  -27.8659  -11.3017   18.8473 H   0  0  0  0  0  0
  -27.3763  -12.5950   17.7846 H   0  0  0  0  0  0
  -27.6792  -14.2591   19.5360 H   0  0  0  0  0  0
  -28.7013  -12.0214   21.3451 H   0  0  0  0  0  0
  -28.3795  -13.6472   21.8403 H   0  0  0  0  0  0
  -25.2752   -9.5694   22.4751 H   0  0  0  0  0  0
  -24.0002   -7.4641   22.7470 H   0  0  0  0  0  0
  -21.0828   -8.8761   19.8960 H   0  0  0  0  0  0
  -22.3672  -10.9667   19.6160 H   0  0  0  0  0  0
  -21.2006   -7.6141   23.9709 H   0  0  0  0  0  0
  -21.1485   -6.0519   25.9074 H   0  0  0  0  0  0
  -22.0600   -2.7606   23.2839 H   0  0  0  0  0  0
  -22.4104  -11.9906   22.4801 H   0  0  0  0  0  0
  -21.1111  -13.1278   22.2608 H   0  0  0  0  0  0
  -24.6718  -15.8499   20.5502 H   0  0  0  0  0  0
  -26.2946  -15.6318   20.1290 H   0  0  0  0  0  0
  -26.7180  -32.5448   23.1109 H   0  0  0  0  0  0
  -25.0085  -33.9727   25.0435 H   0  0  0  0  0  0
  -22.7131  -31.3066   21.4055 H   0  0  0  0  0  0
  -23.3755  -35.9619   23.3281 H   0  0  0  0  0  0
  -24.3589  -36.8930   22.2055 H   0  0  0  0  0  0
  -23.7232  -37.6485   23.6668 H   0  0  0  0  0  0
  -26.0958  -31.5558   20.6092 H   0  0  0  0  0  0
  -26.8416  -30.8366   22.0062 H   0  0  0  0  0  0
  -28.1148  -28.9800   21.1860 H   0  0  0  0  0  0
  -25.9499  -25.9425   18.9894 H   0  0  0  0  0  0
  -23.9629  -27.3188   19.0109 H   0  0  0  0  0  0
  -23.7556  -30.6023   19.4065 H   0  0  0  0  0  0
  -22.7531  -29.2562   19.8562 H   0  0  0  0  0  0
  -25.1284  -36.1931   25.0821 H   0  0  0  0  0  0
  -20.9982  -28.3258   24.1402 H   0  0  0  0  0  0
  -20.5680  -26.2295   23.3606 H   0  0  0  0  0  0
  -21.6644  -26.7442   22.1200 H   0  0  0  0  0  0
  -19.6916  -25.6293   21.1239 H   0  0  0  0  0  0
  -19.6690  -27.3192   20.6738 H   0  0  0  0  0  0
  -17.4203  -26.6669   21.4023 H   0  0  0  0  0  0
  -18.0336  -26.0067   22.9021 H   0  0  0  0  0  0
  -19.7939  -30.7264   24.2268 H   0  0  0  0  0  0
  -17.5018  -31.6265   24.5163 H   0  0  0  0  0  0
  -15.5353  -30.2983   23.7653 H   0  0  0  0  0  0
  -15.8675  -28.0818   22.7064 H   0  0  0  0  0  0
  -24.5901  -30.7089   25.7796 H   0  0  0  0  0  0
  -24.8937  -32.2903   26.4891 H   0  0  0  0  0  0
  -25.8060  -30.8906   27.0236 H   0  0  0  0  0  0
  -26.2897  -29.6760   24.1215 H   0  0  0  0  0  0
  -27.4022  -29.7256   25.4692 H   0  0  0  0  0  0
  -27.8775  -30.4277   23.9411 H   0  0  0  0  0  0
  -27.2682  -33.3614   26.2078 H   0  0  0  0  0  0
  -28.3872  -32.6872   25.0320 H   0  0  0  0  0  0
  -28.0738  -31.8436   26.5407 H   0  0  0  0  0  0
  -28.2576  -38.0114   24.7540 H   0  0  0  0  0  0
  -28.1103  -36.2647   24.6228 H   0  0  0  0  0  0
  -27.2314  -37.1378   25.8863 H   0  0  0  0  0  0
  -20.9368  -29.8770   21.6894 H   0  0  0  0  0  0
  -26.0164  -38.2849   24.1443 H   0  0  0  0  0  0
  -31.3184  -19.6651   19.2488 H   0  0  0  0  0  0
  -31.4208  -17.2268   19.4470 H   0  0  0  0  0  0
  -28.3751  -17.3980   22.5030 H   0  0  0  0  0  0
  -31.9024  -23.7448   21.2478 H   0  0  0  0  0  0
  -31.5102  -23.5260   22.9345 H   0  0  0  0  0  0
  -30.1142  -25.2940   21.8518 H   0  0  0  0  0  0
  -29.1364  -24.0132   22.5320 H   0  0  0  0  0  0
  -28.6976  -22.1389   19.2698 H   0  0  0  0  0  0
  -27.9862  -22.2346   20.8532 H   0  0  0  0  0  0
  -30.0313  -24.1662   19.6325 H   0  0  0  0  0  0
  -30.5729  -16.0604   23.3758 H   0  0  0  0  0  0
  -30.4182  -14.3441   23.0823 H   0  0  0  0  0  0
  -28.9779  -15.3474   23.1589 H   0  0  0  0  0  0
  -27.2452  -24.7588   20.7012 H   0  0  0  0  0  0
  -27.7657  -24.7908   19.0325 H   0  0  0  0  0  0
  1 25  1  0  0  0
  1 30  2  0  0  0
  1 85  1  0  0  0
  2  3  1  0  0  0
  2 25  1  0  0  0
  2 88  1  0  0  0
  2 89  1  0  0  0
  3  4  1  0  0  0
  3 90  1  0  0  0
  3 91  1  0  0  0
  4  5  1  0  0  0
  4 92  1  0  0  0
  4 93  1  0  0  0
  5  6  1  0  0  0
  5 26  1  0  0  0
  5 94  1  0  0  0
  6 25  1  0  0  0
  6 95  1  0  0  0
  6 96  1  0  0  0
  7  8  2  0  0  0
  7 26  1  0  0  0
  7 29  1  0  0  0
  8  9  1  0  0  0
  8 22  1  0  0  0
  9 10  1  0  0  0
  9 27  2  0  0  0
 10 11  2  0  0  0
 10 15  1  0  0  0
 11 12  1  0  0  0
 11 97  1  0  0  0
 12 13  2  0  0  0
 12 98  1  0  0  0
 13 14  1  0  0  0
 13 31  1  0  0  0
 14 15  2  0  0  0
 14 99  1  0  0  0
 15100  1  0  0  0
 16 17  2  0  0  0
 16 21  1  0  0  0
 16 31  1  0  0  0
 17 18  1  0  0  0
 17101  1  0  0  0
 18 19  2  0  0  0
 18102  1  0  0  0
 19 20  1  0  0  0
 19 24  1  0  0  0
 20 21  2  0  0  0
 20103  1  0  0  0
 21 23  1  0  0  0
 22 28  1  0  0  0
 22 32  2  0  0  0
 26 27  1  0  0  0
 28104  1  0  0  0
 28105  1  0  0  0
 29106  1  0  0  0
 29107  1  0  0  0
 33 34  1  0  0  0
 33 66  1  0  0  0
 33 70  2  0  0  0
 34 36  1  0  0  0
 34 59  1  0  0  0
 34108  1  0  0  0
 35 44  2  0  0  0
 35 45  1  0  0  0
 35 68  1  0  0  0
 36 56  1  0  0  0
 36109  1  0  0  0
 37 39  1  0  0  0
 37 47  1  0  0  0
 37 66  1  0  0  0
 37110  1  0  0  0
 38 43  2  0  0  0
 38 46  1  0  0  0
 38 47  1  0  0  0
 39 64  1  0  0  0
 39 67  2  0  0  0
 40 52  1  0  0  0
 40 53  2  0  0  0
 40 58  1  0  0  0
 41111  1  0  0  0
 41112  1  0  0  0
 41113  1  0  0  0
 41 48  1  0  0  0
 42 43  1  0  0  0
 42 66  1  0  0  0
 42114  1  0  0  0
 42115  1  0  0  0
 43 44  1  0  0  0
 44116  1  0  0  0
 45 46  2  0  0  0
 45117  1  0  0  0
 46118  1  0  0  0
 47119  1  0  0  0
 47120  1  0  0  0
 48 56  1  0  0  0
 48 65  1  0  0  0
 48121  1  0  0  0
 49 50  1  0  0  0
 49 53  1  0  0  0
 49 64  1  0  0  0
 49122  1  0  0  0
 50 51  1  0  0  0
 50123  1  0  0  0
 50124  1  0  0  0
 51 52  1  0  0  0
 51125  1  0  0  0
 51126  1  0  0  0
 52127  1  0  0  0
 52128  1  0  0  0
 53 54  1  0  0  0
 54 55  2  0  0  0
 54129  1  0  0  0
 55 57  1  0  0  0
 55130  1  0  0  0
 56 69  2  0  0  0
 57 58  2  0  0  0
 57131  1  0  0  0
 58132  1  0  0  0
 59 60  1  0  0  0
 59 61  1  0  0  0
 59 62  1  0  0  0
 60133  1  0  0  0
 60134  1  0  0  0
 60135  1  0  0  0
 61136  1  0  0  0
 61137  1  0  0  0
 61138  1  0  0  0
 62139  1  0  0  0
 62140  1  0  0  0
 62141  1  0  0  0
 63 65  1  0  0  0
 63142  1  0  0  0
 63143  1  0  0  0
 63144  1  0  0  0
 64145  1  0  0  0
 65146  1  0  0  0
 68 83  1  0  0  0
 71 72  2  0  0  0
 71 74  1  0  0  0
 71147  1  0  0  0
 72 75  1  0  0  0
 72148  1  0  0  0
 73 75  2  0  0  0
 73 76  1  0  0  0
 73149  1  0  0  0
 74 76  2  0  0  0
 74 84  1  0  0  0
 75 85  1  0  0  0
 76 87  1  0  0  0
 77 78  1  0  0  0
 77 84  1  0  0  0
 77 86  2  0  0  0
 78 79  1  0  0  0
 78150  1  0  0  0
 78151  1  0  0  0
 79 81  1  0  0  0
 79152  1  0  0  0
 79153  1  0  0  0
 80 81  1  0  0  0
 80 84  1  0  0  0
 80154  1  0  0  0
 80155  1  0  0  0
 81 83  1  0  0  0
 81156  1  0  0  0
 82 85  1  0  0  0
 82157  1  0  0  0
 82158  1  0  0  0
 82159  1  0  0  0
 83160  1  0  0  0
 83161  1  0  0  0
M  ISO  4   1 100  68 101  83 101  85 100
M  END
> <chiral flag>
0

> <version>
0

> <s_m_source_file>
/data/baiqing/PycharmProjects/Reinvent-master-3.2/result/LINK_invent/BTK/process_docking_weight1_custom_product_contain_oxygen_bond_distance_aromatic_linkinvent_7_9_3/rearranged_h_0097.sdf

> <i_m_source_file_index>
12

> <r_mmod_Potential_Energy-OPLS-2005>
319.719573974609

> <r_mmod_Stretch_Energy-OPLS-2005>
93.9299240112305

> <r_mmod_Bend_Energy-OPLS-2005>
144.268081665039

> <r_mmod_Torsional_Energy-OPLS-2005>
363.361602783203

> <r_mmod_Improper_Torsional_Energy-OPLS-2005>
4.88285446166992

> <r_mmod_Van_der_Waal_Energy-OPLS-2005>
164.681228637695

> <r_mmod_Electrostatic_Energy-OPLS-2005>
-293.840515136719

> <r_mmod_Solvation_Energy-OPLS-2005>
-200.488433837891

> <b_mmod_Minimization_Converged-OPLS-2005>
0

> <r_mmod_RMS_Derivative-OPLS-2005>
0.57062166929245

$$$$
12
                    3D
 Structure written by MMmdl.
150158  0  0  1  0            999 V2000
  -30.7111  -14.6484   20.5025 C   0  0  0  0  0  0
  -30.4108  -12.4098   19.4551 C   0  0  0  0  0  0
  -29.4933  -12.4952   18.2207 C   0  0  0  0  0  0
  -28.0219  -12.3329   18.6424 C   0  0  0  0  0  0
  -27.6399  -13.2339   19.8477 C   0  0  2  0  0  0
  -28.6895  -13.1707   20.9789 C   0  0  0  0  0  0
  -25.2505  -13.8210   20.5710 C   0  0  0  0  0  0
  -24.1799  -13.0450   20.9225 C   0  0  0  0  0  0
  -24.6396  -11.6929   20.8765 C   0  0  0  0  0  0
  -23.9076  -10.4299   21.0416 C   0  0  0  0  0  0
  -24.3626   -9.4210   21.9189 C   0  0  0  0  0  0
  -23.6300   -8.2245   22.0756 C   0  0  0  0  0  0
  -22.4280   -8.0286   21.3546 C   0  0  0  0  0  0
  -21.9919   -9.0262   20.4647 C   0  0  0  0  0  0
  -22.7251  -10.2140   20.3060 C   0  0  0  0  0  0
  -21.6856   -6.0740   22.5280 C   0  0  0  0  0  0
  -21.4015   -6.5644   23.8214 C   0  0  0  0  0  0
  -21.3658   -5.6796   24.9174 C   0  0  0  0  0  0
  -21.6043   -4.3058   24.7226 C   0  0  0  0  0  0
  -21.8819   -3.8150   23.4348 C   0  0  0  0  0  0
  -21.9193   -4.6967   22.3403 C   0  0  0  0  0  0
  -22.7817  -13.5226   21.1873 C   0  0  0  0  0  0
  -22.1662   -4.2154   21.0981 F   0  0  0  0  0  0
  -21.5627   -3.4540   25.7736 F   0  0  0  0  0  0
  -29.9931  -13.4838   20.3831 N   0  0  0  0  0  0
  -26.2935  -12.9426   20.3299 N   0  0  0  0  0  0
  -25.9328  -11.6564   20.5775 N   0  0  0  0  0  0
  -22.0463  -12.8212   22.0425 N   0  0  0  0  0  0
  -25.4191  -15.1932   20.4107 N   0  0  0  0  0  0
  -31.9025  -14.6405   20.1831 O   0  0  0  0  0  0
  -21.6643   -6.8884   21.4241 O   0  0  0  0  0  0
  -22.3501  -14.5534   20.6720 O   0  0  0  0  0  0
  -24.6284  -31.8605   23.2054 C   0  0  0  0  0  0
  -25.9131  -32.4783   23.8373 C   0  0  1  0  0  0
  -27.2071  -27.3015   20.1098 C   0  0  0  0  0  0
  -25.5947  -33.8584   24.2299 N   0  0  0  0  0  0
  -23.4212  -30.4893   21.5490 C   0  0  2  0  0  0
  -24.8641  -28.9534   20.1080 C   0  0  0  0  0  0
  -22.7482  -29.4639   22.4932 C   0  0  0  0  0  0
  -18.0288  -28.1385   22.8484 C   0  0  0  0  0  0
  -24.1491  -36.7291   23.2636 C   0  0  0  0  0  0
  -25.9670  -30.7851   21.3819 C   0  0  0  0  0  0
  -26.0375  -29.4143   20.7188 C   0  0  0  0  0  0
  -27.2129  -28.5998   20.7142 C   0  0  0  0  0  0
  -26.0101  -26.9169   19.4552 C   0  0  0  0  0  0
  -24.8537  -27.7103   19.4672 C   0  0  0  0  0  0
  -23.6350  -29.8350   20.1613 C   0  0  0  0  0  0
  -25.4113  -36.3085   24.0332 C   0  0  1  0  0  0
  -20.5889  -28.3695   23.1270 C   0  0  2  0  0  0
  -20.6779  -26.9417   22.5400 C   0  0  0  0  0  0
  -19.5754  -26.6385   21.5206 C   0  0  0  0  0  0
  -18.1935  -26.7929   22.1621 C   0  0  0  0  0  0
  -19.1541  -28.8856   23.2875 C   0  0  0  0  0  0
  -18.9463  -30.1456   23.8895 C   0  0  0  0  0  0
  -17.6463  -30.6588   24.0563 C   0  0  0  0  0  0
  -25.9054  -34.9454   23.5111 C   0  0  0  0  0  0
  -16.5353  -29.9086   23.6332 C   0  0  0  0  0  0
  -16.7274  -28.6501   23.0356 C   0  0  0  0  0  0
  -26.4505  -31.6590   25.0743 C   0  0  0  0  0  0
  -25.3735  -31.3726   26.1468 C   0  0  0  0  0  0
  -27.0346  -30.3010   24.6208 C   0  0  0  0  0  0
  -27.6069  -32.4320   25.7508 C   0  0  0  0  0  0
  -27.5583  -37.1801   24.8462 C   0  0  0  0  0  0
  -21.4194  -29.3056   22.3670 N   0  0  0  0  0  0
  -26.4289  -37.3783   23.9413 N   0  0  0  0  0  0
  -24.6913  -31.0610   22.1017 N   0  0  0  0  0  0
  -23.4202  -28.8161   23.3002 O   0  0  0  0  0  0
  -28.2884  -26.3974   20.1799 O   0  0  0  0  0  0
  -26.5611  -34.8917   22.4670 O   0  0  0  0  0  0
  -23.5446  -32.1410   23.7377 O   0  0  0  0  0  0
  -30.9012  -19.5765   20.6787 C   0  0  0  0  0  0
  -30.4287  -20.9139   20.5382 C   0  0  0  0  0  0
  -28.6536  -18.7299   20.7381 C   0  0  0  0  0  0
  -30.0420  -18.4396   20.7870 C   0  0  0  0  0  0
  -29.0437  -21.1994   20.4920 C   0  0  0  0  0  0
  -28.1754  -20.0712   20.5862 C   0  0  0  0  0  0
  -30.6644  -17.0418   21.0361 C   0  0  0  0  0  0
  -28.9529  -23.8152   20.3382 C   0  0  0  0  0  0
  -27.9432  -24.9655   19.9439 C   0  0  0  0  0  0
  -28.4604  -22.5313   20.3120 N   0  0  0  0  0  0
  -30.0535  -15.8425   20.7334 N   0  0  0  0  0  0
  -31.8045  -17.0648   21.5173 O   0  0  0  0  0  0
  -30.1178  -24.0852   20.6436 O   0  0  0  0  0  0
  -26.8380  -20.2834   20.5349 F   0  0  0  0  0  0
  -31.4543  -12.4910   19.1461 H   0  0  0  0  0  0
  -30.3213  -11.4347   19.9371 H   0  0  0  0  0  0
  -29.7616  -11.7255   17.4957 H   0  0  0  0  0  0
  -29.6323  -13.4537   17.7181 H   0  0  0  0  0  0
  -27.8723  -11.2846   18.9035 H   0  0  0  0  0  0
  -27.3617  -12.5313   17.7972 H   0  0  0  0  0  0
  -27.6351  -14.2553   19.4672 H   0  0  0  0  0  0
  -28.7084  -12.1819   21.4396 H   0  0  0  0  0  0
  -28.4419  -13.8764   21.7736 H   0  0  0  0  0  0
  -25.2769   -9.5686   22.4768 H   0  0  0  0  0  0
  -24.0009   -7.4635   22.7473 H   0  0  0  0  0  0
  -21.0851   -8.8786   19.8950 H   0  0  0  0  0  0
  -22.3714  -10.9682   19.6172 H   0  0  0  0  0  0
  -21.2007   -7.6153   23.9720 H   0  0  0  0  0  0
  -21.1478   -6.0524   25.9078 H   0  0  0  0  0  0
  -22.0598   -2.7612   23.2846 H   0  0  0  0  0  0
  -22.4083  -11.9874   22.4811 H   0  0  0  0  0  0
  -21.1079  -13.1229   22.2629 H   0  0  0  0  0  0
  -24.6483  -15.8443   20.5138 H   0  0  0  0  0  0
  -26.2576  -15.6285   20.0507 H   0  0  0  0  0  0
  -26.7198  -32.5444   23.1118 H   0  0  0  0  0  0
  -25.0114  -33.9730   25.0457 H   0  0  0  0  0  0
  -22.7160  -31.3116   21.4111 H   0  0  0  0  0  0
  -23.3758  -35.9620   23.3293 H   0  0  0  0  0  0
  -24.3585  -36.8910   22.2051 H   0  0  0  0  0  0
  -23.7237  -37.6490   23.6655 H   0  0  0  0  0  0
  -26.1042  -31.5502   20.6167 H   0  0  0  0  0  0
  -26.8459  -30.8279   22.0134 H   0  0  0  0  0  0
  -28.1078  -28.9441   21.2136 H   0  0  0  0  0  0
  -25.9154  -25.9787   18.9317 H   0  0  0  0  0  0
  -23.9580  -27.3552   18.9760 H   0  0  0  0  0  0
  -23.7567  -30.6166   19.4105 H   0  0  0  0  0  0
  -22.7535  -29.2690   19.8544 H   0  0  0  0  0  0
  -25.1291  -36.1939   25.0825 H   0  0  0  0  0  0
  -20.9981  -28.3268   24.1391 H   0  0  0  0  0  0
  -20.5678  -26.2307   23.3600 H   0  0  0  0  0  0
  -21.6647  -26.7448   22.1192 H   0  0  0  0  0  0
  -19.6915  -25.6294   21.1238 H   0  0  0  0  0  0
  -19.6688  -27.3191   20.6732 H   0  0  0  0  0  0
  -17.4201  -26.6670   21.4029 H   0  0  0  0  0  0
  -18.0345  -26.0070   22.9017 H   0  0  0  0  0  0
  -19.7939  -30.7273   24.2266 H   0  0  0  0  0  0
  -17.5018  -31.6269   24.5162 H   0  0  0  0  0  0
  -15.5354  -30.2991   23.7658 H   0  0  0  0  0  0
  -15.8672  -28.0819   22.7081 H   0  0  0  0  0  0
  -24.5922  -30.7061   25.7798 H   0  0  0  0  0  0
  -24.8914  -32.2889   26.4888 H   0  0  0  0  0  0
  -25.8063  -30.8912   27.0248 H   0  0  0  0  0  0
  -26.2923  -29.6763   24.1227 H   0  0  0  0  0  0
  -27.4027  -29.7267   25.4719 H   0  0  0  0  0  0
  -27.8805  -30.4286   23.9449 H   0  0  0  0  0  0
  -27.2691  -33.3630   26.2073 H   0  0  0  0  0  0
  -28.3888  -32.6860   25.0338 H   0  0  0  0  0  0
  -28.0728  -31.8448   26.5433 H   0  0  0  0  0  0
  -28.2589  -38.0112   24.7534 H   0  0  0  0  0  0
  -28.1092  -36.2644   24.6257 H   0  0  0  0  0  0
  -27.2304  -37.1408   25.8865 H   0  0  0  0  0  0
  -20.9368  -29.8797   21.6898 H   0  0  0  0  0  0
  -26.0170  -38.2854   24.1429 H   0  0  0  0  0  0
  -31.9722  -19.4305   20.7165 H   0  0  0  0  0  0
  -31.1498  -21.7148   20.4613 H   0  0  0  0  0  0
  -27.9356  -17.9286   20.8297 H   0  0  0  0  0  0
  -27.0201  -24.7288   20.4763 H   0  0  0  0  0  0
  -27.7533  -24.8316   18.8783 H   0  0  0  0  0  0
  -27.4675  -22.4928   20.1226 H   0  0  0  0  0  0
  -29.0558  -15.8507   20.6152 H   0  0  0  0  0  0
  1 25  1  0  0  0
  1 30  2  0  0  0
  1 81  1  0  0  0
  2  3  1  0  0  0
  2 25  1  0  0  0
  2 85  1  0  0  0
  2 86  1  0  0  0
  3  4  1  0  0  0
  3 87  1  0  0  0
  3 88  1  0  0  0
  4  5  1  0  0  0
  4 89  1  0  0  0
  4 90  1  0  0  0
  5  6  1  0  0  0
  5 26  1  0  0  0
  5 91  1  0  0  0
  6 25  1  0  0  0
  6 92  1  0  0  0
  6 93  1  0  0  0
  7  8  2  0  0  0
  7 26  1  0  0  0
  7 29  1  0  0  0
  8  9  1  0  0  0
  8 22  1  0  0  0
  9 10  1  0  0  0
  9 27  2  0  0  0
 10 11  2  0  0  0
 10 15  1  0  0  0
 11 12  1  0  0  0
 11 94  1  0  0  0
 12 13  2  0  0  0
 12 95  1  0  0  0
 13 14  1  0  0  0
 13 31  1  0  0  0
 14 15  2  0  0  0
 14 96  1  0  0  0
 15 97  1  0  0  0
 16 17  2  0  0  0
 16 21  1  0  0  0
 16 31  1  0  0  0
 17 18  1  0  0  0
 17 98  1  0  0  0
 18 19  2  0  0  0
 18 99  1  0  0  0
 19 20  1  0  0  0
 19 24  1  0  0  0
 20 21  2  0  0  0
 20100  1  0  0  0
 21 23  1  0  0  0
 22 28  1  0  0  0
 22 32  2  0  0  0
 26 27  1  0  0  0
 28101  1  0  0  0
 28102  1  0  0  0
 29103  1  0  0  0
 29104  1  0  0  0
 33 34  1  0  0  0
 33 66  1  0  0  0
 33 70  2  0  0  0
 34 36  1  0  0  0
 34 59  1  0  0  0
 34105  1  0  0  0
 35 44  2  0  0  0
 35 45  1  0  0  0
 35 68  1  0  0  0
 36 56  1  0  0  0
 36106  1  0  0  0
 37 39  1  0  0  0
 37 47  1  0  0  0
 37 66  1  0  0  0
 37107  1  0  0  0
 38 43  2  0  0  0
 38 46  1  0  0  0
 38 47  1  0  0  0
 39 64  1  0  0  0
 39 67  2  0  0  0
 40 52  1  0  0  0
 40 53  2  0  0  0
 40 58  1  0  0  0
 41108  1  0  0  0
 41109  1  0  0  0
 41110  1  0  0  0
 41 48  1  0  0  0
 42 43  1  0  0  0
 42 66  1  0  0  0
 42111  1  0  0  0
 42112  1  0  0  0
 43 44  1  0  0  0
 44113  1  0  0  0
 45 46  2  0  0  0
 45114  1  0  0  0
 46115  1  0  0  0
 47116  1  0  0  0
 47117  1  0  0  0
 48 56  1  0  0  0
 48 65  1  0  0  0
 48118  1  0  0  0
 49 50  1  0  0  0
 49 53  1  0  0  0
 49 64  1  0  0  0
 49119  1  0  0  0
 50 51  1  0  0  0
 50120  1  0  0  0
 50121  1  0  0  0
 51 52  1  0  0  0
 51122  1  0  0  0
 51123  1  0  0  0
 52124  1  0  0  0
 52125  1  0  0  0
 53 54  1  0  0  0
 54 55  2  0  0  0
 54126  1  0  0  0
 55 57  1  0  0  0
 55127  1  0  0  0
 56 69  2  0  0  0
 57 58  2  0  0  0
 57128  1  0  0  0
 58129  1  0  0  0
 59 60  1  0  0  0
 59 61  1  0  0  0
 59 62  1  0  0  0
 60130  1  0  0  0
 60131  1  0  0  0
 60132  1  0  0  0
 61133  1  0  0  0
 61134  1  0  0  0
 61135  1  0  0  0
 62136  1  0  0  0
 62137  1  0  0  0
 62138  1  0  0  0
 63 65  1  0  0  0
 63139  1  0  0  0
 63140  1  0  0  0
 63141  1  0  0  0
 64142  1  0  0  0
 65143  1  0  0  0
 68 79  1  0  0  0
 71 72  2  0  0  0
 71 74  1  0  0  0
 71144  1  0  0  0
 72 75  1  0  0  0
 72145  1  0  0  0
 73 74  2  0  0  0
 73 76  1  0  0  0
 73146  1  0  0  0
 74 77  1  0  0  0
 75 76  2  0  0  0
 75 80  1  0  0  0
 76 84  1  0  0  0
 77 81  1  0  0  0
 77 82  2  0  0  0
 78 79  1  0  0  0
 78 80  1  0  0  0
 78 83  2  0  0  0
 79147  1  0  0  0
 79148  1  0  0  0
 80149  1  0  0  0
 81150  1  0  0  0
M  ISO  4   1 100  68 101  79 101  81 100
M  END
> <chiral flag>
0

> <version>
0

> <s_m_source_file>
/data/baiqing/PycharmProjects/Reinvent-master-3.2/result/LINK_invent/BTK/process_docking_weight1_custom_product_contain_oxygen_bond_distance_aromatic_linkinvent_7_9_3/rearranged_h_0097.sdf

> <i_m_source_file_index>
13

> <r_mmod_Potential_Energy-OPLS-2005>
-22.7992839813232

> <r_mmod_Stretch_Energy-OPLS-2005>
84.4866104125977

> <r_mmod_Bend_Energy-OPLS-2005>
159.721984863281

> <r_mmod_Torsional_Energy-OPLS-2005>
233.164337158203

> <r_mmod_Improper_Torsional_Energy-OPLS-2005>
5.80032062530518

> <r_mmod_Van_der_Waal_Energy-OPLS-2005>
163.321380615234

> <r_mmod_Electrostatic_Energy-OPLS-2005>
-479.549987792969

> <r_mmod_Solvation_Energy-OPLS-2005>
-254.579788208008

> <b_mmod_Minimization_Converged-OPLS-2005>
0

> <r_mmod_RMS_Derivative-OPLS-2005>
0.440288364887238

$$$$
13
                    3D
 Structure written by MMmdl.
161170  0  0  1  0            999 V2000
  -30.5754  -14.9343   20.4938 C   0  0  0  0  0  0
  -30.4443  -12.5892   19.5063 C   0  0  0  0  0  0
  -29.5245  -12.5508   18.2617 C   0  0  0  0  0  0
  -28.0564  -12.3205   18.6664 C   0  0  0  0  0  0
  -27.6324  -13.2294   19.8450 C   0  0  2  0  0  0
  -28.6741  -13.2219   20.9817 C   0  0  0  0  0  0
  -25.2422  -13.8039   20.5699 C   0  0  0  0  0  0
  -24.1731  -13.0314   20.9217 C   0  0  0  0  0  0
  -24.6351  -11.6814   20.8751 C   0  0  0  0  0  0
  -23.9038  -10.4214   21.0433 C   0  0  0  0  0  0
  -24.3590   -9.4135   21.9211 C   0  0  0  0  0  0
  -23.6256   -8.2173   22.0769 C   0  0  0  0  0  0
  -22.4236   -8.0227   21.3559 C   0  0  0  0  0  0
  -21.9878   -9.0199   20.4658 C   0  0  0  0  0  0
  -22.7220  -10.2066   20.3070 C   0  0  0  0  0  0
  -21.6819   -6.0691   22.5275 C   0  0  0  0  0  0
  -21.3996   -6.5596   23.8205 C   0  0  0  0  0  0
  -21.3681   -5.6756   24.9167 C   0  0  0  0  0  0
  -21.6055   -4.3021   24.7211 C   0  0  0  0  0  0
  -21.8814   -3.8113   23.4335 C   0  0  0  0  0  0
  -21.9182   -4.6935   22.3394 C   0  0  0  0  0  0
  -22.7779  -13.5149   21.1868 C   0  0  0  0  0  0
  -22.1654   -4.2119   21.0975 F   0  0  0  0  0  0
  -21.5650   -3.4512   25.7736 F   0  0  0  0  0  0
  -29.9626  -13.6723   20.4185 N   0  0  0  0  0  0
  -26.2873  -12.9297   20.3254 N   0  0  0  0  0  0
  -25.9280  -11.6435   20.5713 N   0  0  0  0  0  0
  -22.0405  -12.8194   22.0438 N   0  0  0  0  0  0
  -25.3978  -15.1727   20.4132 N   0  0  0  0  0  0
  -31.7240  -15.0207   20.0424 O   0  0  0  0  0  0
  -21.6591   -6.8838   21.4240 O   0  0  0  0  0  0
  -22.3484  -14.5470   20.6711 O   0  0  0  0  0  0
  -24.6411  -31.8442   23.1897 C   0  0  0  0  0  0
  -25.9189  -32.4702   23.8276 C   0  0  1  0  0  0
  -27.2381  -27.1677   20.1484 C   0  0  0  0  0  0
  -25.5944  -33.8509   24.2207 N   0  0  0  0  0  0
  -23.4455  -30.4616   21.5338 C   0  0  2  0  0  0
  -24.8986  -28.8883   20.1162 C   0  0  0  0  0  0
  -22.7550  -29.4546   22.4873 C   0  0  0  0  0  0
  -18.0297  -28.1391   22.8478 C   0  0  0  0  0  0
  -24.1494  -36.7253   23.2642 C   0  0  0  0  0  0
  -25.9985  -30.7281   21.3840 C   0  0  0  0  0  0
  -26.0735  -29.3409   20.7288 C   0  0  0  0  0  0
  -27.2438  -28.4973   20.7258 C   0  0  0  0  0  0
  -26.0318  -26.8031   19.5083 C   0  0  0  0  0  0
  -24.8881  -27.6315   19.4931 C   0  0  0  0  0  0
  -23.6732  -29.7874   20.1548 C   0  0  0  0  0  0
  -25.4120  -36.3037   24.0321 C   0  0  1  0  0  0
  -20.5905  -28.3721   23.1246 C   0  0  2  0  0  0
  -20.6787  -26.9428   22.5416 C   0  0  0  0  0  0
  -19.5766  -26.6379   21.5216 C   0  0  0  0  0  0
  -18.1937  -26.7927   22.1618 C   0  0  0  0  0  0
  -19.1552  -28.8872   23.2850 C   0  0  0  0  0  0
  -18.9469  -30.1463   23.8876 C   0  0  0  0  0  0
  -17.6471  -30.6591   24.0557 C   0  0  0  0  0  0
  -25.9062  -34.9413   23.5071 C   0  0  0  0  0  0
  -16.5361  -29.9087   23.6338 C   0  0  0  0  0  0
  -16.7282  -28.6506   23.0358 C   0  0  0  0  0  0
  -26.4521  -31.6561   25.0709 C   0  0  0  0  0  0
  -25.3716  -31.3753   26.1417 C   0  0  0  0  0  0
  -27.0371  -30.2957   24.6269 C   0  0  0  0  0  0
  -27.6052  -32.4322   25.7494 C   0  0  0  0  0  0
  -27.5577  -37.1776   24.8450 C   0  0  0  0  0  0
  -21.4243  -29.3041   22.3615 N   0  0  0  0  0  0
  -26.4274  -37.3756   23.9415 N   0  0  0  0  0  0
  -24.7144  -31.0319   22.0913 N   0  0  0  0  0  0
  -23.4201  -28.8090   23.3013 O   0  0  0  0  0  0
  -28.3212  -26.2242   20.2002 O   0  0  0  0  0  0
  -26.5646  -34.8902   22.4649 O   0  0  0  0  0  0
  -23.5534  -32.1308   23.7126 O   0  0  0  0  0  0
  -30.5230  -20.0106   21.0400 C   0  0  0  0  0  0
  -30.7653  -18.5753   21.0700 C   0  0  0  0  0  0
  -28.4515  -19.6378   19.9845 C   0  0  0  0  0  0
  -28.6977  -18.2056   19.9971 C   0  0  0  0  0  0
  -29.3205  -20.6284   20.5437 C   0  0  0  0  0  0
  -29.8516  -17.5719   20.5892 C   0  0  0  0  0  0
  -28.6089  -22.1843   22.2163 C   0  0  0  0  0  0
  -29.2109  -23.4544   22.8008 C   0  0  0  0  0  0
  -30.0293  -23.9945   21.6327 C   0  0  0  0  0  0
  -29.2420  -23.4984   20.4186 C   0  0  2  0  0  0
  -27.5920  -17.3533   19.4303 C   0  0  0  0  0  0
  -29.5266  -15.9681   22.4241 C   0  0  0  0  0  0
  -28.0841  -24.6934   20.1701 C   0  0  0  0  0  0
  -28.8546  -22.0475   20.8967 N   0  0  0  0  0  0
  -29.9041  -16.0896   21.0075 N   0  0  0  0  0  0
  -27.9990  -21.3761   22.9242 O   0  0  0  0  0  0
  -31.4786  -12.7434   19.1967 H   0  0  0  0  0  0
  -30.4375  -11.6265   20.0194 H   0  0  0  0  0  0
  -29.8485  -11.7707   17.5724 H   0  0  0  0  0  0
  -29.6078  -13.4929   17.7189 H   0  0  0  0  0  0
  -27.9487  -11.2739   18.9531 H   0  0  0  0  0  0
  -27.3985  -12.4708   17.8095 H   0  0  0  0  0  0
  -27.6018  -14.2348   19.4368 H   0  0  0  0  0  0
  -28.7707  -12.2241   21.4134 H   0  0  0  0  0  0
  -28.3205  -13.8525   21.7900 H   0  0  0  0  0  0
  -25.2725   -9.5587   22.4793 H   0  0  0  0  0  0
  -23.9953   -7.4543   22.7460 H   0  0  0  0  0  0
  -21.0821   -8.8701   19.8960 H   0  0  0  0  0  0
  -22.3687  -10.9592   19.6167 H   0  0  0  0  0  0
  -21.1974   -7.6096   23.9694 H   0  0  0  0  0  0
  -21.1535   -6.0488   25.9070 H   0  0  0  0  0  0
  -22.0590   -2.7577   23.2820 H   0  0  0  0  0  0
  -22.3994  -11.9846   22.4823 H   0  0  0  0  0  0
  -21.1057  -13.1290   22.2663 H   0  0  0  0  0  0
  -24.6179  -15.8151   20.5094 H   0  0  0  0  0  0
  -26.2489  -15.6166   20.1006 H   0  0  0  0  0  0
  -26.7255  -32.5327   23.1005 H   0  0  0  0  0  0
  -25.0088  -33.9626   25.0354 H   0  0  0  0  0  0
  -22.7483  -31.2866   21.3767 H   0  0  0  0  0  0
  -23.3773  -35.9563   23.3270 H   0  0  0  0  0  0
  -24.3598  -36.8921   22.2064 H   0  0  0  0  0  0
  -23.7229  -37.6432   23.6700 H   0  0  0  0  0  0
  -26.1473  -31.4833   20.6110 H   0  0  0  0  0  0
  -26.8705  -30.7819   22.0243 H   0  0  0  0  0  0
  -28.1410  -28.8398   21.2214 H   0  0  0  0  0  0
  -25.9444  -25.8416   19.0252 H   0  0  0  0  0  0
  -23.9903  -27.2796   19.0047 H   0  0  0  0  0  0
  -23.8107  -30.5582   19.3952 H   0  0  0  0  0  0
  -22.7910  -29.2244   19.8468 H   0  0  0  0  0  0
  -25.1305  -36.1865   25.0810 H   0  0  0  0  0  0
  -20.9986  -28.3310   24.1370 H   0  0  0  0  0  0
  -20.5690  -26.2322   23.3625 H   0  0  0  0  0  0
  -21.6656  -26.7439   22.1217 H   0  0  0  0  0  0
  -19.6936  -25.6285   21.1256 H   0  0  0  0  0  0
  -19.6709  -27.3173   20.6731 H   0  0  0  0  0  0
  -17.4218  -26.6676   21.4008 H   0  0  0  0  0  0
  -18.0325  -26.0064   22.9010 H   0  0  0  0  0  0
  -19.7951  -30.7269   24.2239 H   0  0  0  0  0  0
  -17.5038  -31.6270   24.5163 H   0  0  0  0  0  0
  -15.5364  -30.2989   23.7669 H   0  0  0  0  0  0
  -15.8678  -28.0813   22.7095 H   0  0  0  0  0  0
  -24.5883  -30.7111   25.7753 H   0  0  0  0  0  0
  -24.8918  -32.2936   26.4810 H   0  0  0  0  0  0
  -25.8009  -30.8952   27.0218 H   0  0  0  0  0  0
  -26.2971  -29.6694   24.1273 H   0  0  0  0  0  0
  -27.3984  -29.7247   25.4831 H   0  0  0  0  0  0
  -27.8885  -30.4196   23.9573 H   0  0  0  0  0  0
  -27.2641  -33.3629   26.2041 H   0  0  0  0  0  0
  -28.3880  -32.6873   25.0338 H   0  0  0  0  0  0
  -28.0701  -31.8469   26.5438 H   0  0  0  0  0  0
  -28.2560  -38.0110   24.7550 H   0  0  0  0  0  0
  -28.1104  -36.2639   24.6199 H   0  0  0  0  0  0
  -27.2302  -37.1344   25.8854 H   0  0  0  0  0  0
  -20.9448  -29.8746   21.6792 H   0  0  0  0  0  0
  -26.0137  -38.2812   24.1463 H   0  0  0  0  0  0
  -31.2549  -20.6463   21.5188 H   0  0  0  0  0  0
  -31.6627  -18.2385   21.5704 H   0  0  0  0  0  0
  -27.4951  -19.9788   19.6108 H   0  0  0  0  0  0
  -29.8312  -23.2394   23.6722 H   0  0  0  0  0  0
  -28.4140  -24.1386   23.0918 H   0  0  0  0  0  0
  -31.0300  -23.5596   21.6372 H   0  0  0  0  0  0
  -30.1464  -25.0783   21.6670 H   0  0  0  0  0  0
  -29.8985  -23.4401   19.5497 H   0  0  0  0  0  0
  -27.2066  -17.7799   18.5035 H   0  0  0  0  0  0
  -26.7814  -17.3152   20.1548 H   0  0  0  0  0  0
  -27.9438  -16.3508   19.2079 H   0  0  0  0  0  0
  -29.9310  -16.7924   23.0131 H   0  0  0  0  0  0
  -29.8803  -15.0525   22.9047 H   0  0  0  0  0  0
  -28.4414  -16.0094   22.5262 H   0  0  0  0  0  0
  -27.2934  -24.5257   20.9028 H   0  0  0  0  0  0
  -27.6242  -24.4591   19.2111 H   0  0  0  0  0  0
  1 25  1  0  0  0
  1 30  2  0  0  0
  1 85  1  0  0  0
  2  3  1  0  0  0
  2 25  1  0  0  0
  2 87  1  0  0  0
  2 88  1  0  0  0
  3  4  1  0  0  0
  3 89  1  0  0  0
  3 90  1  0  0  0
  4  5  1  0  0  0
  4 91  1  0  0  0
  4 92  1  0  0  0
  5  6  1  0  0  0
  5 26  1  0  0  0
  5 93  1  0  0  0
  6 25  1  0  0  0
  6 94  1  0  0  0
  6 95  1  0  0  0
  7  8  2  0  0  0
  7 26  1  0  0  0
  7 29  1  0  0  0
  8  9  1  0  0  0
  8 22  1  0  0  0
  9 10  1  0  0  0
  9 27  2  0  0  0
 10 11  2  0  0  0
 10 15  1  0  0  0
 11 12  1  0  0  0
 11 96  1  0  0  0
 12 13  2  0  0  0
 12 97  1  0  0  0
 13 14  1  0  0  0
 13 31  1  0  0  0
 14 15  2  0  0  0
 14 98  1  0  0  0
 15 99  1  0  0  0
 16 17  2  0  0  0
 16 21  1  0  0  0
 16 31  1  0  0  0
 17 18  1  0  0  0
 17100  1  0  0  0
 18 19  2  0  0  0
 18101  1  0  0  0
 19 20  1  0  0  0
 19 24  1  0  0  0
 20 21  2  0  0  0
 20102  1  0  0  0
 21 23  1  0  0  0
 22 28  1  0  0  0
 22 32  2  0  0  0
 26 27  1  0  0  0
 28103  1  0  0  0
 28104  1  0  0  0
 29105  1  0  0  0
 29106  1  0  0  0
 33 34  1  0  0  0
 33 66  1  0  0  0
 33 70  2  0  0  0
 34 36  1  0  0  0
 34 59  1  0  0  0
 34107  1  0  0  0
 35 44  2  0  0  0
 35 45  1  0  0  0
 35 68  1  0  0  0
 36 56  1  0  0  0
 36108  1  0  0  0
 37 39  1  0  0  0
 37 47  1  0  0  0
 37 66  1  0  0  0
 37109  1  0  0  0
 38 43  2  0  0  0
 38 46  1  0  0  0
 38 47  1  0  0  0
 39 64  1  0  0  0
 39 67  2  0  0  0
 40 52  1  0  0  0
 40 53  2  0  0  0
 40 58  1  0  0  0
 41110  1  0  0  0
 41111  1  0  0  0
 41112  1  0  0  0
 41 48  1  0  0  0
 42 43  1  0  0  0
 42 66  1  0  0  0
 42113  1  0  0  0
 42114  1  0  0  0
 43 44  1  0  0  0
 44115  1  0  0  0
 45 46  2  0  0  0
 45116  1  0  0  0
 46117  1  0  0  0
 47118  1  0  0  0
 47119  1  0  0  0
 48 56  1  0  0  0
 48 65  1  0  0  0
 48120  1  0  0  0
 49 50  1  0  0  0
 49 53  1  0  0  0
 49 64  1  0  0  0
 49121  1  0  0  0
 50 51  1  0  0  0
 50122  1  0  0  0
 50123  1  0  0  0
 51 52  1  0  0  0
 51124  1  0  0  0
 51125  1  0  0  0
 52126  1  0  0  0
 52127  1  0  0  0
 53 54  1  0  0  0
 54 55  2  0  0  0
 54128  1  0  0  0
 55 57  1  0  0  0
 55129  1  0  0  0
 56 69  2  0  0  0
 57 58  2  0  0  0
 57130  1  0  0  0
 58131  1  0  0  0
 59 60  1  0  0  0
 59 61  1  0  0  0
 59 62  1  0  0  0
 60132  1  0  0  0
 60133  1  0  0  0
 60134  1  0  0  0
 61135  1  0  0  0
 61136  1  0  0  0
 61137  1  0  0  0
 62138  1  0  0  0
 62139  1  0  0  0
 62140  1  0  0  0
 63 65  1  0  0  0
 63141  1  0  0  0
 63142  1  0  0  0
 63143  1  0  0  0
 64144  1  0  0  0
 65145  1  0  0  0
 68 83  1  0  0  0
 71 72  2  0  0  0
 71 75  1  0  0  0
 71146  1  0  0  0
 72 76  1  0  0  0
 72147  1  0  0  0
 73 74  1  0  0  0
 73 75  2  0  0  0
 73148  1  0  0  0
 74 76  2  0  0  0
 74 81  1  0  0  0
 75 84  1  0  0  0
 76 85  1  0  0  0
 77 78  1  0  0  0
 77 84  1  0  0  0
 77 86  2  0  0  0
 78 79  1  0  0  0
 78149  1  0  0  0
 78150  1  0  0  0
 79 80  1  0  0  0
 79151  1  0  0  0
 79152  1  0  0  0
 80 83  1  0  0  0
 80 84  1  0  0  0
 80153  1  0  0  0
 81154  1  0  0  0
 81155  1  0  0  0
 81156  1  0  0  0
 82 85  1  0  0  0
 82157  1  0  0  0
 82158  1  0  0  0
 82159  1  0  0  0
 83160  1  0  0  0
 83161  1  0  0  0
M  ISO  4   1 100  68 101  83 101  85 100
M  END
> <chiral flag>
0

> <version>
0

> <s_m_source_file>
/data/baiqing/PycharmProjects/Reinvent-master-3.2/result/LINK_invent/BTK/process_docking_weight1_custom_product_contain_oxygen_bond_distance_aromatic_linkinvent_7_9_3/rearranged_h_0097.sdf

> <i_m_source_file_index>
14

> <r_mmod_Potential_Energy-OPLS-2005>
779.841430664062

> <r_mmod_Stretch_Energy-OPLS-2005>
234.997924804688

> <r_mmod_Bend_Energy-OPLS-2005>
297.80859375

> <r_mmod_Torsional_Energy-OPLS-2005>
430.051574707031

> <r_mmod_Improper_Torsional_Energy-OPLS-2005>
11.7962160110474

> <r_mmod_Van_der_Waal_Energy-OPLS-2005>
136.781631469727

> <r_mmod_Electrostatic_Energy-OPLS-2005>
-290.699920654297

> <r_mmod_Solvation_Energy-OPLS-2005>
-206.929412841797

> <b_mmod_Minimization_Converged-OPLS-2005>
0

> <r_mmod_RMS_Derivative-OPLS-2005>
2.42579865455627

$$$$
14
                    3D
 Structure written by MMmdl.
158167  0  0  1  0            999 V2000
  -30.6912  -14.5404   20.6346 C   0  0  0  0  0  0
  -30.4345  -12.3735   19.4368 C   0  0  0  0  0  0
  -29.5006  -12.5319   18.2161 C   0  0  0  0  0  0
  -28.0212  -12.3721   18.6194 C   0  0  0  0  0  0
  -27.6598  -13.2072   19.8739 C   0  0  2  0  0  0
  -28.6949  -12.9719   20.9917 C   0  0  0  0  0  0
  -25.2576  -13.8156   20.5674 C   0  0  0  0  0  0
  -24.1841  -13.0424   20.9188 C   0  0  0  0  0  0
  -24.6395  -11.6893   20.8730 C   0  0  0  0  0  0
  -23.9056  -10.4287   21.0404 C   0  0  0  0  0  0
  -24.3612   -9.4205   21.9180 C   0  0  0  0  0  0
  -23.6295   -8.2236   22.0743 C   0  0  0  0  0  0
  -22.4275   -8.0277   21.3539 C   0  0  0  0  0  0
  -21.9910   -9.0249   20.4638 C   0  0  0  0  0  0
  -22.7228  -10.2128   20.3048 C   0  0  0  0  0  0
  -21.6855   -6.0738   22.5273 C   0  0  0  0  0  0
  -21.4010   -6.5637   23.8207 C   0  0  0  0  0  0
  -21.3654   -5.6794   24.9170 C   0  0  0  0  0  0
  -21.6043   -4.3056   24.7221 C   0  0  0  0  0  0
  -21.8820   -3.8146   23.4345 C   0  0  0  0  0  0
  -21.9191   -4.6966   22.3400 C   0  0  0  0  0  0
  -22.7871  -13.5218   21.1868 C   0  0  0  0  0  0
  -22.1665   -4.2153   21.0983 F   0  0  0  0  0  0
  -21.5622   -3.4539   25.7733 F   0  0  0  0  0  0
  -30.0274  -13.3452   20.4753 N   0  0  0  0  0  0
  -26.3010  -12.9319   20.3340 N   0  0  0  0  0  0
  -25.9312  -11.6475   20.5725 N   0  0  0  0  0  0
  -22.0521  -12.8206   22.0425 N   0  0  0  0  0  0
  -25.4303  -15.1868   20.4086 N   0  0  0  0  0  0
  -31.7381  -14.7846   20.0228 O   0  0  0  0  0  0
  -21.6632   -6.8877   21.4241 O   0  0  0  0  0  0
  -22.3558  -14.5533   20.6732 O   0  0  0  0  0  0
  -24.6204  -31.8648   23.2073 C   0  0  0  0  0  0
  -25.9098  -32.4793   23.8372 C   0  0  1  0  0  0
  -27.2351  -27.4000   20.1013 C   0  0  0  0  0  0
  -25.5961  -33.8591   24.2318 N   0  0  0  0  0  0
  -23.4104  -30.4872   21.5471 C   0  0  2  0  0  0
  -24.8603  -28.9500   20.1080 C   0  0  0  0  0  0
  -22.7449  -29.4639   22.4966 C   0  0  0  0  0  0
  -18.0275  -28.1396   22.8471 C   0  0  0  0  0  0
  -24.1485  -36.7268   23.2632 C   0  0  0  0  0  0
  -25.9432  -30.8187   21.3674 C   0  0  0  0  0  0
  -26.0238  -29.4522   20.7089 C   0  0  0  0  0  0
  -27.2177  -28.6853   20.7022 C   0  0  0  0  0  0
  -26.0571  -26.9231   19.4917 C   0  0  0  0  0  0
  -24.8741  -27.6854   19.4927 C   0  0  0  0  0  0
  -23.6221  -29.8201   20.1610 C   0  0  0  0  0  0
  -25.4092  -36.3084   24.0352 C   0  0  1  0  0  0
  -20.5868  -28.3672   23.1300 C   0  0  2  0  0  0
  -20.6753  -26.9401   22.5418 C   0  0  0  0  0  0
  -19.5742  -26.6396   21.5202 C   0  0  0  0  0  0
  -18.1915  -26.7950   22.1600 C   0  0  0  0  0  0
  -19.1525  -28.8849   23.2874 C   0  0  0  0  0  0
  -18.9461  -30.1453   23.8886 C   0  0  0  0  0  0
  -17.6461  -30.6588   24.0549 C   0  0  0  0  0  0
  -25.9038  -34.9455   23.5113 C   0  0  0  0  0  0
  -16.5347  -29.9081   23.6345 C   0  0  0  0  0  0
  -16.7263  -28.6503   23.0354 C   0  0  0  0  0  0
  -26.4501  -31.6581   25.0717 C   0  0  0  0  0  0
  -25.3773  -31.3727   26.1474 C   0  0  0  0  0  0
  -27.0317  -30.3017   24.6122 C   0  0  0  0  0  0
  -27.6097  -32.4296   25.7475 C   0  0  0  0  0  0
  -27.5600  -37.1748   24.8442 C   0  0  0  0  0  0
  -21.4165  -29.3030   22.3700 N   0  0  0  0  0  0
  -26.4262  -37.3790   23.9463 N   0  0  0  0  0  0
  -24.6756  -31.0719   22.0987 N   0  0  0  0  0  0
  -23.4190  -28.8179   23.3029 O   0  0  0  0  0  0
  -28.3343  -26.5604   20.1356 O   0  0  0  0  0  0
  -26.5557  -34.8924   22.4655 O   0  0  0  0  0  0
  -23.5395  -32.1423   23.7456 O   0  0  0  0  0  0
  -30.4833  -18.0153   22.2916 C   0  0  0  0  0  0
  -30.2551  -19.4043   22.1377 C   0  0  0  0  0  0
  -29.5400  -17.6028   20.1198 C   0  0  0  0  0  0
  -30.0976  -17.0654   21.3106 C   0  0  0  0  0  0
  -29.6176  -19.9386   20.9895 C   0  0  0  0  0  0
  -29.3046  -19.0015   19.9598 C   0  0  0  0  0  0
  -28.4534  -24.2075   20.9137 C   0  0  0  0  0  0
  -28.2371  -25.5458   21.0740 C   0  0  0  0  0  0
  -30.1440  -15.5807   21.6563 C   0  0  0  0  0  0
  -28.1058  -23.2441   22.0453 C   0  0  0  0  0  0
  -28.8761  -23.4888   19.6277 C   0  0  0  0  0  0
  -29.0693  -22.0464   22.1906 C   0  0  0  0  0  0
  -29.7247  -22.1817   19.8305 C   0  0  0  0  0  0
  -29.7994  -15.2387   22.8294 N   0  0  0  0  0  0
  -29.2459  -21.3250   20.9268 N   0  0  0  0  0  0
  -28.7031  -19.4280   18.8223 F   0  0  0  0  0  0
  -31.4738  -12.5018   19.1303 H   0  0  0  0  0  0
  -30.3759  -11.3579   19.8322 H   0  0  0  0  0  0
  -29.7552  -11.7983   17.4498 H   0  0  0  0  0  0
  -29.6527  -13.5135   17.7645 H   0  0  0  0  0  0
  -27.8428  -11.3139   18.8181 H   0  0  0  0  0  0
  -27.3694  -12.6402   17.7869 H   0  0  0  0  0  0
  -27.7075  -14.2583   19.5884 H   0  0  0  0  0  0
  -28.7015  -11.9184   21.2793 H   0  0  0  0  0  0
  -28.3826  -13.4961   21.8894 H   0  0  0  0  0  0
  -25.2757   -9.5679   22.4748 H   0  0  0  0  0  0
  -24.0005   -7.4624   22.7458 H   0  0  0  0  0  0
  -21.0839   -8.8766   19.8945 H   0  0  0  0  0  0
  -22.3693  -10.9662   19.6148 H   0  0  0  0  0  0
  -21.2005   -7.6145   23.9708 H   0  0  0  0  0  0
  -21.1472   -6.0524   25.9071 H   0  0  0  0  0  0
  -22.0601   -2.7617   23.2840 H   0  0  0  0  0  0
  -22.4125  -11.9827   22.4761 H   0  0  0  0  0  0
  -21.1161  -13.1252   22.2673 H   0  0  0  0  0  0
  -24.6679  -15.8469   20.5210 H   0  0  0  0  0  0
  -26.2906  -15.6233   20.1038 H   0  0  0  0  0  0
  -26.7154  -32.5503   23.1123 H   0  0  0  0  0  0
  -25.0254  -33.9737   25.0561 H   0  0  0  0  0  0
  -22.7011  -31.3048   21.4064 H   0  0  0  0  0  0
  -23.3792  -35.9552   23.3220 H   0  0  0  0  0  0
  -24.3620  -36.8939   22.2067 H   0  0  0  0  0  0
  -23.7162  -37.6428   23.6661 H   0  0  0  0  0  0
  -26.0676  -31.5868   20.6019 H   0  0  0  0  0  0
  -26.8264  -30.8678   21.9926 H   0  0  0  0  0  0
  -28.1129  -29.0588   21.1783 H   0  0  0  0  0  0
  -26.0563  -25.9446   19.0315 H   0  0  0  0  0  0
  -23.9821  -27.2895   19.0247 H   0  0  0  0  0  0
  -23.7283  -30.5939   19.3994 H   0  0  0  0  0  0
  -22.7472  -29.2382   19.8662 H   0  0  0  0  0  0
  -25.1255  -36.1927   25.0839 H   0  0  0  0  0  0
  -20.9958  -28.3247   24.1423 H   0  0  0  0  0  0
  -20.5653  -26.2276   23.3605 H   0  0  0  0  0  0
  -21.6625  -26.7451   22.1214 H   0  0  0  0  0  0
  -19.6882  -25.6299   21.1250 H   0  0  0  0  0  0
  -19.6707  -27.3186   20.6711 H   0  0  0  0  0  0
  -17.4203  -26.6713   21.3982 H   0  0  0  0  0  0
  -18.0288  -26.0109   22.9009 H   0  0  0  0  0  0
  -19.7933  -30.7267   24.2269 H   0  0  0  0  0  0
  -17.5021  -31.6284   24.5128 H   0  0  0  0  0  0
  -15.5340  -30.2963   23.7708 H   0  0  0  0  0  0
  -15.8661  -28.0817   22.7083 H   0  0  0  0  0  0
  -24.5980  -30.7004   25.7849 H   0  0  0  0  0  0
  -24.8917  -32.2891   26.4847 H   0  0  0  0  0  0
  -25.8166  -30.8998   27.0270 H   0  0  0  0  0  0
  -26.2846  -29.6798   24.1177 H   0  0  0  0  0  0
  -27.4054  -29.7249   25.4590 H   0  0  0  0  0  0
  -27.8702  -30.4301   23.9278 H   0  0  0  0  0  0
  -27.2737  -33.3617   26.2026 H   0  0  0  0  0  0
  -28.3914  -32.6810   25.0296 H   0  0  0  0  0  0
  -28.0737  -31.8427   26.5413 H   0  0  0  0  0  0
  -28.2503  -38.0160   24.7682 H   0  0  0  0  0  0
  -28.1210  -36.2713   24.6003 H   0  0  0  0  0  0
  -27.2375  -37.1086   25.8848 H   0  0  0  0  0  0
  -20.9339  -29.8767   21.6921 H   0  0  0  0  0  0
  -26.0152  -38.2841   24.1593 H   0  0  0  0  0  0
  -30.9267  -17.6748   23.2175 H   0  0  0  0  0  0
  -30.5531  -20.0495   22.9514 H   0  0  0  0  0  0
  -29.2198  -16.9361   19.3342 H   0  0  0  0  0  0
  -27.8750  -25.9388   22.0164 H   0  0  0  0  0  0
  -27.1004  -22.8678   21.8472 H   0  0  0  0  0  0
  -28.0454  -23.7817   22.9927 H   0  0  0  0  0  0
  -29.4006  -24.1843   18.9705 H   0  0  0  0  0  0
  -27.9544  -23.2180   19.1114 H   0  0  0  0  0  0
  -28.6730  -21.3807   22.9589 H   0  0  0  0  0  0
  -30.0413  -22.3970   22.5448 H   0  0  0  0  0  0
  -30.7554  -22.4606   20.0583 H   0  0  0  0  0  0
  -29.7651  -21.6258   18.8937 H   0  0  0  0  0  0
  -29.4874  -16.0441   23.3586 H   0  0  0  0  0  0
  1 25  1  0  0  0
  1 30  2  0  0  0
  1 79  1  0  0  0
  2  3  1  0  0  0
  2 25  1  0  0  0
  2 87  1  0  0  0
  2 88  1  0  0  0
  3  4  1  0  0  0
  3 89  1  0  0  0
  3 90  1  0  0  0
  4  5  1  0  0  0
  4 91  1  0  0  0
  4 92  1  0  0  0
  5  6  1  0  0  0
  5 26  1  0  0  0
  5 93  1  0  0  0
  6 25  1  0  0  0
  6 94  1  0  0  0
  6 95  1  0  0  0
  7  8  2  0  0  0
  7 26  1  0  0  0
  7 29  1  0  0  0
  8  9  1  0  0  0
  8 22  1  0  0  0
  9 10  1  0  0  0
  9 27  2  0  0  0
 10 11  2  0  0  0
 10 15  1  0  0  0
 11 12  1  0  0  0
 11 96  1  0  0  0
 12 13  2  0  0  0
 12 97  1  0  0  0
 13 14  1  0  0  0
 13 31  1  0  0  0
 14 15  2  0  0  0
 14 98  1  0  0  0
 15 99  1  0  0  0
 16 17  2  0  0  0
 16 21  1  0  0  0
 16 31  1  0  0  0
 17 18  1  0  0  0
 17100  1  0  0  0
 18 19  2  0  0  0
 18101  1  0  0  0
 19 20  1  0  0  0
 19 24  1  0  0  0
 20 21  2  0  0  0
 20102  1  0  0  0
 21 23  1  0  0  0
 22 28  1  0  0  0
 22 32  2  0  0  0
 26 27  1  0  0  0
 28103  1  0  0  0
 28104  1  0  0  0
 29105  1  0  0  0
 29106  1  0  0  0
 33 34  1  0  0  0
 33 66  1  0  0  0
 33 70  2  0  0  0
 34 36  1  0  0  0
 34 59  1  0  0  0
 34107  1  0  0  0
 35 44  2  0  0  0
 35 45  1  0  0  0
 35 68  1  0  0  0
 36 56  1  0  0  0
 36108  1  0  0  0
 37 39  1  0  0  0
 37 47  1  0  0  0
 37 66  1  0  0  0
 37109  1  0  0  0
 38 43  2  0  0  0
 38 46  1  0  0  0
 38 47  1  0  0  0
 39 64  1  0  0  0
 39 67  2  0  0  0
 40 52  1  0  0  0
 40 53  2  0  0  0
 40 58  1  0  0  0
 41110  1  0  0  0
 41111  1  0  0  0
 41112  1  0  0  0
 41 48  1  0  0  0
 42 43  1  0  0  0
 42 66  1  0  0  0
 42113  1  0  0  0
 42114  1  0  0  0
 43 44  1  0  0  0
 44115  1  0  0  0
 45 46  2  0  0  0
 45116  1  0  0  0
 46117  1  0  0  0
 47118  1  0  0  0
 47119  1  0  0  0
 48 56  1  0  0  0
 48 65  1  0  0  0
 48120  1  0  0  0
 49 50  1  0  0  0
 49 53  1  0  0  0
 49 64  1  0  0  0
 49121  1  0  0  0
 50 51  1  0  0  0
 50122  1  0  0  0
 50123  1  0  0  0
 51 52  1  0  0  0
 51124  1  0  0  0
 51125  1  0  0  0
 52126  1  0  0  0
 52127  1  0  0  0
 53 54  1  0  0  0
 54 55  2  0  0  0
 54128  1  0  0  0
 55 57  1  0  0  0
 55129  1  0  0  0
 56 69  2  0  0  0
 57 58  2  0  0  0
 57130  1  0  0  0
 58131  1  0  0  0
 59 60  1  0  0  0
 59 61  1  0  0  0
 59 62  1  0  0  0
 60132  1  0  0  0
 60133  1  0  0  0
 60134  1  0  0  0
 61135  1  0  0  0
 61136  1  0  0  0
 61137  1  0  0  0
 62138  1  0  0  0
 62139  1  0  0  0
 62140  1  0  0  0
 63 65  1  0  0  0
 63141  1  0  0  0
 63142  1  0  0  0
 63143  1  0  0  0
 64144  1  0  0  0
 65145  1  0  0  0
 68 78  1  0  0  0
 71 72  2  0  0  0
 71 74  1  0  0  0
 71146  1  0  0  0
 72 75  1  0  0  0
 72147  1  0  0  0
 73 74  2  0  0  0
 73 76  1  0  0  0
 73148  1  0  0  0
 74 79  1  0  0  0
 75 76  2  0  0  0
 75 85  1  0  0  0
 76 86  1  0  0  0
 77 78  2  0  0  0
 77 80  1  0  0  0
 77 81  1  0  0  0
 78149  1  0  0  0
 79 84  2  0  0  0
 80 82  1  0  0  0
 80150  1  0  0  0
 80151  1  0  0  0
 81 83  1  0  0  0
 81152  1  0  0  0
 81153  1  0  0  0
 82 85  1  0  0  0
 82154  1  0  0  0
 82155  1  0  0  0
 83 85  1  0  0  0
 83156  1  0  0  0
 83157  1  0  0  0
 84158  1  0  0  0
M  ISO  4   1 100  68 101  78 101  79 100
M  END
> <chiral flag>
0

> <version>
0

> <s_m_source_file>
/data/baiqing/PycharmProjects/Reinvent-master-3.2/result/LINK_invent/BTK/process_docking_weight1_custom_product_contain_oxygen_bond_distance_aromatic_linkinvent_7_9_3/rearranged_h_0097.sdf

> <i_m_source_file_index>
15

> <r_mmod_Potential_Energy-OPLS-2005>
205.140029907227

> <r_mmod_Stretch_Energy-OPLS-2005>
61.0370788574219

> <r_mmod_Bend_Energy-OPLS-2005>
133.126953125

> <r_mmod_Torsional_Energy-OPLS-2005>
245.2763671875

> <r_mmod_Improper_Torsional_Energy-OPLS-2005>
6.33595037460327

> <r_mmod_Van_der_Waal_Energy-OPLS-2005>
157.330810546875

> <r_mmod_Electrostatic_Energy-OPLS-2005>
-218.81396484375

> <r_mmod_Solvation_Energy-OPLS-2005>
-202.8212890625

> <b_mmod_Minimization_Converged-OPLS-2005>
0

> <r_mmod_RMS_Derivative-OPLS-2005>
2.48317241668701

$$$$
15
                    3D
 Structure written by MMmdl.
168178  0  0  1  0            999 V2000
  -30.5612  -14.8746   20.4241 C   0  0  0  0  0  0
  -30.4494  -12.5415   19.4754 C   0  0  0  0  0  0
  -29.5160  -12.5034   18.2436 C   0  0  0  0  0  0
  -28.0487  -12.2973   18.6681 C   0  0  0  0  0  0
  -27.6318  -13.2324   19.8337 C   0  0  2  0  0  0
  -28.6797  -13.2361   20.9670 C   0  0  0  0  0  0
  -25.2468  -13.8189   20.5681 C   0  0  0  0  0  0
  -24.1783  -13.0430   20.9243 C   0  0  0  0  0  0
  -24.6389  -11.6910   20.8769 C   0  0  0  0  0  0
  -23.9081  -10.4282   21.0415 C   0  0  0  0  0  0
  -24.3633   -9.4196   21.9197 C   0  0  0  0  0  0
  -23.6309   -8.2231   22.0769 C   0  0  0  0  0  0
  -22.4283   -8.0266   21.3560 C   0  0  0  0  0  0
  -21.9927   -9.0235   20.4657 C   0  0  0  0  0  0
  -22.7252  -10.2120   20.3064 C   0  0  0  0  0  0
  -21.6852   -6.0744   22.5297 C   0  0  0  0  0  0
  -21.4003   -6.5650   23.8222 C   0  0  0  0  0  0
  -21.3662   -5.6810   24.9193 C   0  0  0  0  0  0
  -21.6042   -4.3074   24.7250 C   0  0  0  0  0  0
  -21.8818   -3.8162   23.4371 C   0  0  0  0  0  0
  -21.9191   -4.6969   22.3420 C   0  0  0  0  0  0
  -22.7797  -13.5179   21.1900 C   0  0  0  0  0  0
  -22.1649   -4.2153   21.1001 F   0  0  0  0  0  0
  -21.5647   -3.4561   25.7772 F   0  0  0  0  0  0
  -29.9645  -13.6237   20.3671 N   0  0  0  0  0  0
  -26.2895  -12.9389   20.3232 N   0  0  0  0  0  0
  -25.9310  -11.6540   20.5762 N   0  0  0  0  0  0
  -22.0452  -12.8159   22.0452 N   0  0  0  0  0  0
  -25.4122  -15.1923   20.4052 N   0  0  0  0  0  0
  -31.7723  -14.9664   20.2146 O   0  0  0  0  0  0
  -21.6646   -6.8864   21.4248 O   0  0  0  0  0  0
  -22.3460  -14.5474   20.6740 O   0  0  0  0  0  0
  -24.6392  -31.8539   23.1922 C   0  0  0  0  0  0
  -25.9190  -32.4747   23.8334 C   0  0  1  0  0  0
  -27.2242  -27.1973   20.1351 C   0  0  0  0  0  0
  -25.5959  -33.8556   24.2252 N   0  0  0  0  0  0
  -23.4374  -30.4709   21.5379 C   0  0  2  0  0  0
  -24.8878  -28.9140   20.1108 C   0  0  0  0  0  0
  -22.7576  -29.4559   22.4889 C   0  0  0  0  0  0
  -18.0299  -28.1388   22.8479 C   0  0  0  0  0  0
  -24.1490  -36.7231   23.2640 C   0  0  0  0  0  0
  -25.9930  -30.7456   21.3849 C   0  0  0  0  0  0
  -26.0645  -29.3628   20.7243 C   0  0  0  0  0  0
  -27.2302  -28.5171   20.7262 C   0  0  0  0  0  0
  -26.0093  -26.8301   19.5085 C   0  0  0  0  0  0
  -24.8705  -27.6570   19.4919 C   0  0  0  0  0  0
  -23.6596  -29.8050   20.1561 C   0  0  0  0  0  0
  -25.4120  -36.3042   24.0328 C   0  0  1  0  0  0
  -20.5927  -28.3682   23.1282 C   0  0  2  0  0  0
  -20.6788  -26.9395   22.5416 C   0  0  0  0  0  0
  -19.5741  -26.6367   21.5240 C   0  0  0  0  0  0
  -18.1910  -26.7921   22.1640 C   0  0  0  0  0  0
  -19.1562  -28.8860   23.2857 C   0  0  0  0  0  0
  -18.9478  -30.1470   23.8850 C   0  0  0  0  0  0
  -17.6467  -30.6572   24.0559 C   0  0  0  0  0  0
  -25.9076  -34.9433   23.5086 C   0  0  0  0  0  0
  -16.5357  -29.9059   23.6345 C   0  0  0  0  0  0
  -16.7282  -28.6501   23.0317 C   0  0  0  0  0  0
  -26.4521  -31.6582   25.0732 C   0  0  0  0  0  0
  -25.3716  -31.3754   26.1441 C   0  0  0  0  0  0
  -27.0393  -30.2994   24.6265 C   0  0  0  0  0  0
  -27.6090  -32.4326   25.7490 C   0  0  0  0  0  0
  -27.5574  -37.1763   24.8463 C   0  0  0  0  0  0
  -21.4270  -29.3028   22.3691 N   0  0  0  0  0  0
  -26.4270  -37.3756   23.9421 N   0  0  0  0  0  0
  -24.7082  -31.0448   22.0930 N   0  0  0  0  0  0
  -23.4276  -28.8098   23.2984 O   0  0  0  0  0  0
  -28.3048  -26.2587   20.2131 O   0  0  0  0  0  0
  -26.5649  -34.8925   22.4659 O   0  0  0  0  0  0
  -23.5510  -32.1403   23.7148 O   0  0  0  0  0  0
  -31.0382  -18.0678   18.6063 C   0  0  0  0  0  0
  -31.7031  -18.7945   17.6071 C   0  0  0  0  0  0
  -30.8870  -20.8321   18.5801 C   0  0  0  0  0  0
  -30.2776  -18.6639   19.6416 C   0  0  0  0  0  0
  -31.6688  -20.2013   17.5862 C   0  0  0  0  0  0
  -30.1206  -20.1609   19.5781 C   0  0  0  0  0  0
  -28.7341  -23.6711   20.2262 C   0  0  0  0  0  0
  -32.3730  -22.2432   16.2703 C   0  0  0  0  0  0
  -28.1932  -24.8855   19.7667 C   0  0  0  0  0  0
  -29.6149  -23.4086   21.4216 C   0  0  0  0  0  0
  -28.5531  -22.2248   19.6272 C   0  0  0  0  0  0
  -33.2861  -22.5940   15.1072 C   0  0  0  0  0  0
  -33.9841  -21.2846   14.7682 C   0  0  0  0  0  0
  -30.1086  -21.9145   21.3431 C   0  0  0  0  0  0
  -33.3149  -20.2258   15.6538 C   0  0  0  0  0  0
  -29.8405  -17.5591   20.7300 C   0  0  0  0  0  0
  -32.4155  -20.9244   16.5760 N   0  0  0  0  0  0
  -29.3356  -21.1326   20.3527 N   0  0  0  0  0  0
  -29.7299  -16.0070   20.4935 N   0  0  0  0  0  0
  -31.6955  -23.1219   16.8104 O   0  0  0  0  0  0
  -31.4789  -12.7152   19.1574 H   0  0  0  0  0  0
  -30.4498  -11.5835   19.9970 H   0  0  0  0  0  0
  -29.8220  -11.7034   17.5669 H   0  0  0  0  0  0
  -29.6088  -13.4354   17.6832 H   0  0  0  0  0  0
  -27.9442  -11.2561   18.9770 H   0  0  0  0  0  0
  -27.3811  -12.4247   17.8144 H   0  0  0  0  0  0
  -27.5980  -14.2365   19.4114 H   0  0  0  0  0  0
  -28.7459  -12.2551   21.4393 H   0  0  0  0  0  0
  -28.3881  -13.9378   21.7518 H   0  0  0  0  0  0
  -25.2778   -9.5696   22.4765 H   0  0  0  0  0  0
  -24.0046   -7.4622   22.7466 H   0  0  0  0  0  0
  -21.0878   -8.8727   19.8935 H   0  0  0  0  0  0
  -22.3699  -10.9655   19.6169 H   0  0  0  0  0  0
  -21.1962   -7.6155   23.9728 H   0  0  0  0  0  0
  -21.1489   -6.0549   25.9099 H   0  0  0  0  0  0
  -22.0588   -2.7623   23.2887 H   0  0  0  0  0  0
  -22.4101  -11.9832   22.4858 H   0  0  0  0  0  0
  -21.1048  -13.1127   22.2626 H   0  0  0  0  0  0
  -24.6378  -15.8393   20.5072 H   0  0  0  0  0  0
  -26.2465  -15.6348   20.0436 H   0  0  0  0  0  0
  -26.7258  -32.5395   23.1076 H   0  0  0  0  0  0
  -25.0083  -33.9727   25.0384 H   0  0  0  0  0  0
  -22.7326  -31.2894   21.3838 H   0  0  0  0  0  0
  -23.3774  -35.9529   23.3246 H   0  0  0  0  0  0
  -24.3567  -36.8910   22.2055 H   0  0  0  0  0  0
  -23.7229  -37.6405   23.6709 H   0  0  0  0  0  0
  -26.1454  -31.5017   20.6131 H   0  0  0  0  0  0
  -26.8708  -30.7971   22.0206 H   0  0  0  0  0  0
  -28.1277  -28.8509   21.2273 H   0  0  0  0  0  0
  -25.8778  -25.8595   19.0589 H   0  0  0  0  0  0
  -23.9681  -27.2963   19.0168 H   0  0  0  0  0  0
  -23.7923  -30.5850   19.4061 H   0  0  0  0  0  0
  -22.7750  -29.2453   19.8425 H   0  0  0  0  0  0
  -25.1311  -36.1835   25.0814 H   0  0  0  0  0  0
  -21.0007  -28.3217   24.1413 H   0  0  0  0  0  0
  -20.5672  -26.2301   23.3608 H   0  0  0  0  0  0
  -21.6644  -26.7356   22.1215 H   0  0  0  0  0  0
  -19.6879  -25.6282   21.1241 H   0  0  0  0  0  0
  -19.6664  -27.3212   20.6781 H   0  0  0  0  0  0
  -17.4195  -26.6698   21.4013 H   0  0  0  0  0  0
  -18.0235  -26.0080   22.9043 H   0  0  0  0  0  0
  -19.7957  -30.7318   24.2160 H   0  0  0  0  0  0
  -17.5008  -31.6249   24.5168 H   0  0  0  0  0  0
  -15.5349  -30.2920   23.7712 H   0  0  0  0  0  0
  -15.8693  -28.0822   22.6976 H   0  0  0  0  0  0
  -24.5859  -30.7139   25.7755 H   0  0  0  0  0  0
  -24.8923  -32.2925   26.4880 H   0  0  0  0  0  0
  -25.8016  -30.8902   27.0213 H   0  0  0  0  0  0
  -26.3016  -29.6692   24.1278 H   0  0  0  0  0  0
  -27.4042  -29.7302   25.4820 H   0  0  0  0  0  0
  -27.8907  -30.4226   23.9568 H   0  0  0  0  0  0
  -27.2734  -33.3664   26.2006 H   0  0  0  0  0  0
  -28.3945  -32.6818   25.0341 H   0  0  0  0  0  0
  -28.0712  -31.8468   26.5438 H   0  0  0  0  0  0
  -28.2577  -38.0076   24.7551 H   0  0  0  0  0  0
  -28.1101  -36.2615   24.6244 H   0  0  0  0  0  0
  -27.2297  -37.1360   25.8869 H   0  0  0  0  0  0
  -20.9450  -29.8775   21.6931 H   0  0  0  0  0  0
  -26.0117  -38.2811   24.1454 H   0  0  0  0  0  0
  -31.1616  -16.9969   18.5820 H   0  0  0  0  0  0
  -32.2676  -18.2370   16.8734 H   0  0  0  0  0  0
  -30.8724  -21.9076   18.5975 H   0  0  0  0  0  0
  -27.6149  -24.8346   18.8583 H   0  0  0  0  0  0
  -29.0125  -23.5551   22.3185 H   0  0  0  0  0  0
  -30.4450  -24.1147   21.4542 H   0  0  0  0  0  0
  -28.7726  -22.2665   18.5596 H   0  0  0  0  0  0
  -27.4919  -21.9786   19.6860 H   0  0  0  0  0  0
  -34.0009  -23.3678   15.3888 H   0  0  0  0  0  0
  -32.6902  -22.9589   14.2696 H   0  0  0  0  0  0
  -35.0507  -21.3566   14.9861 H   0  0  0  0  0  0
  -33.8838  -21.0432   13.7083 H   0  0  0  0  0  0
  -30.0260  -21.4439   22.3242 H   0  0  0  0  0  0
  -31.1703  -21.9015   21.0902 H   0  0  0  0  0  0
  -34.0667  -19.6498   16.1968 H   0  0  0  0  0  0
  -32.7363  -19.5346   15.0385 H   0  0  0  0  0  0
  -28.8561  -17.8704   21.0829 H   0  0  0  0  0  0
  -30.4996  -17.6998   21.5870 H   0  0  0  0  0  0
  -28.7652  -15.7146   20.5303 H   0  0  0  0  0  0
  1 25  1  0  0  0
  1 30  2  0  0  0
  1 89  1  0  0  0
  2  3  1  0  0  0
  2 25  1  0  0  0
  2 91  1  0  0  0
  2 92  1  0  0  0
  3  4  1  0  0  0
  3 93  1  0  0  0
  3 94  1  0  0  0
  4  5  1  0  0  0
  4 95  1  0  0  0
  4 96  1  0  0  0
  5  6  1  0  0  0
  5 26  1  0  0  0
  5 97  1  0  0  0
  6 25  1  0  0  0
  6 98  1  0  0  0
  6 99  1  0  0  0
  7  8  2  0  0  0
  7 26  1  0  0  0
  7 29  1  0  0  0
  8  9  1  0  0  0
  8 22  1  0  0  0
  9 10  1  0  0  0
  9 27  2  0  0  0
 10 11  2  0  0  0
 10 15  1  0  0  0
 11 12  1  0  0  0
 11100  1  0  0  0
 12 13  2  0  0  0
 12101  1  0  0  0
 13 14  1  0  0  0
 13 31  1  0  0  0
 14 15  2  0  0  0
 14102  1  0  0  0
 15103  1  0  0  0
 16 17  2  0  0  0
 16 21  1  0  0  0
 16 31  1  0  0  0
 17 18  1  0  0  0
 17104  1  0  0  0
 18 19  2  0  0  0
 18105  1  0  0  0
 19 20  1  0  0  0
 19 24  1  0  0  0
 20 21  2  0  0  0
 20106  1  0  0  0
 21 23  1  0  0  0
 22 28  1  0  0  0
 22 32  2  0  0  0
 26 27  1  0  0  0
 28107  1  0  0  0
 28108  1  0  0  0
 29109  1  0  0  0
 29110  1  0  0  0
 33 34  1  0  0  0
 33 66  1  0  0  0
 33 70  2  0  0  0
 34 36  1  0  0  0
 34 59  1  0  0  0
 34111  1  0  0  0
 35 44  2  0  0  0
 35 45  1  0  0  0
 35 68  1  0  0  0
 36 56  1  0  0  0
 36112  1  0  0  0
 37 39  1  0  0  0
 37 47  1  0  0  0
 37 66  1  0  0  0
 37113  1  0  0  0
 38 43  2  0  0  0
 38 46  1  0  0  0
 38 47  1  0  0  0
 39 64  1  0  0  0
 39 67  2  0  0  0
 40 52  1  0  0  0
 40 53  2  0  0  0
 40 58  1  0  0  0
 41114  1  0  0  0
 41115  1  0  0  0
 41116  1  0  0  0
 41 48  1  0  0  0
 42 43  1  0  0  0
 42 66  1  0  0  0
 42117  1  0  0  0
 42118  1  0  0  0
 43 44  1  0  0  0
 44119  1  0  0  0
 45 46  2  0  0  0
 45120  1  0  0  0
 46121  1  0  0  0
 47122  1  0  0  0
 47123  1  0  0  0
 48 56  1  0  0  0
 48 65  1  0  0  0
 48124  1  0  0  0
 49 50  1  0  0  0
 49 53  1  0  0  0
 49 64  1  0  0  0
 49125  1  0  0  0
 50 51  1  0  0  0
 50126  1  0  0  0
 50127  1  0  0  0
 51 52  1  0  0  0
 51128  1  0  0  0
 51129  1  0  0  0
 52130  1  0  0  0
 52131  1  0  0  0
 53 54  1  0  0  0
 54 55  2  0  0  0
 54132  1  0  0  0
 55 57  1  0  0  0
 55133  1  0  0  0
 56 69  2  0  0  0
 57 58  2  0  0  0
 57134  1  0  0  0
 58135  1  0  0  0
 59 60  1  0  0  0
 59 61  1  0  0  0
 59 62  1  0  0  0
 60136  1  0  0  0
 60137  1  0  0  0
 60138  1  0  0  0
 61139  1  0  0  0
 61140  1  0  0  0
 61141  1  0  0  0
 62142  1  0  0  0
 62143  1  0  0  0
 62144  1  0  0  0
 63 65  1  0  0  0
 63145  1  0  0  0
 63146  1  0  0  0
 63147  1  0  0  0
 64148  1  0  0  0
 65149  1  0  0  0
 68 79  1  0  0  0
 71 72  2  0  0  0
 71 74  1  0  0  0
 71150  1  0  0  0
 72 75  1  0  0  0
 72151  1  0  0  0
 73 75  2  0  0  0
 73 76  1  0  0  0
 73152  1  0  0  0
 74 76  2  0  0  0
 74 86  1  0  0  0
 75 87  1  0  0  0
 76 88  1  0  0  0
 77 79  2  0  0  0
 77 80  1  0  0  0
 77 81  1  0  0  0
 78 82  1  0  0  0
 78 87  1  0  0  0
 78 90  2  0  0  0
 79153  1  0  0  0
 80 84  1  0  0  0
 80154  1  0  0  0
 80155  1  0  0  0
 81 88  1  0  0  0
 81156  1  0  0  0
 81157  1  0  0  0
 82 83  1  0  0  0
 82158  1  0  0  0
 82159  1  0  0  0
 83 85  1  0  0  0
 83160  1  0  0  0
 83161  1  0  0  0
 84 88  1  0  0  0
 84162  1  0  0  0
 84163  1  0  0  0
 85 87  1  0  0  0
 85164  1  0  0  0
 85165  1  0  0  0
 86 89  1  0  0  0
 86166  1  0  0  0
 86167  1  0  0  0
 89168  1  0  0  0
M  ISO  4   1 100  68 101  79 101  89 100
M  END
> <chiral flag>
0

> <version>
0

> <s_m_source_file>
/data/baiqing/PycharmProjects/Reinvent-master-3.2/result/LINK_invent/BTK/process_docking_weight1_custom_product_contain_oxygen_bond_distance_aromatic_linkinvent_7_9_3/rearranged_h_0097.sdf

> <i_m_source_file_index>
16

> <r_mmod_Potential_Energy-OPLS-2005>
478.112701416016

> <r_mmod_Stretch_Energy-OPLS-2005>
184.820083618164

> <r_mmod_Bend_Energy-OPLS-2005>
301.824554443359

> <r_mmod_Torsional_Energy-OPLS-2005>
303.74462890625

> <r_mmod_Improper_Torsional_Energy-OPLS-2005>
11.7524271011353

> <r_mmod_Van_der_Waal_Energy-OPLS-2005>
149.930282592773

> <r_mmod_Electrostatic_Energy-OPLS-2005>
-371.278411865234

> <r_mmod_Solvation_Energy-OPLS-2005>
-249.028244018555

> <b_mmod_Minimization_Converged-OPLS-2005>
0

> <r_mmod_RMS_Derivative-OPLS-2005>
3.37311387062073

$$$$
16
                    3D
 Structure written by MMmdl.
160169  0  0  1  0            999 V2000
  -30.7077  -14.4808   20.5584 C   0  0  0  0  0  0
  -30.4234  -12.3048   19.4325 C   0  0  0  0  0  0
  -29.5013  -12.5027   18.2111 C   0  0  0  0  0  0
  -28.0219  -12.3611   18.6200 C   0  0  0  0  0  0
  -27.6630  -13.2081   19.8702 C   0  0  2  0  0  0
  -28.7036  -13.0036   20.9959 C   0  0  0  0  0  0
  -25.2593  -13.8157   20.5661 C   0  0  0  0  0  0
  -24.1846  -13.0440   20.9177 C   0  0  0  0  0  0
  -24.6397  -11.6906   20.8724 C   0  0  0  0  0  0
  -23.9059  -10.4293   21.0399 C   0  0  0  0  0  0
  -24.3616   -9.4210   21.9179 C   0  0  0  0  0  0
  -23.6290   -8.2246   22.0755 C   0  0  0  0  0  0
  -22.4266   -8.0286   21.3551 C   0  0  0  0  0  0
  -21.9901   -9.0258   20.4651 C   0  0  0  0  0  0
  -22.7232  -10.2137   20.3050 C   0  0  0  0  0  0
  -21.6849   -6.0740   22.5283 C   0  0  0  0  0  0
  -21.4014   -6.5640   23.8220 C   0  0  0  0  0  0
  -21.3659   -5.6793   24.9176 C   0  0  0  0  0  0
  -21.6039   -4.3055   24.7225 C   0  0  0  0  0  0
  -21.8819   -3.8150   23.4345 C   0  0  0  0  0  0
  -21.9191   -4.6969   22.3402 C   0  0  0  0  0  0
  -22.7866  -13.5239   21.1830 C   0  0  0  0  0  0
  -22.1664   -4.2158   21.0982 F   0  0  0  0  0  0
  -21.5621   -3.4540   25.7738 F   0  0  0  0  0  0
  -30.0384  -13.2989   20.4481 N   0  0  0  0  0  0
  -26.3032  -12.9336   20.3323 N   0  0  0  0  0  0
  -25.9321  -11.6493   20.5724 N   0  0  0  0  0  0
  -22.0499  -12.8247   22.0393 N   0  0  0  0  0  0
  -25.4302  -15.1869   20.4060 N   0  0  0  0  0  0
  -31.8401  -14.6430   20.0965 O   0  0  0  0  0  0
  -21.6635   -6.8882   21.4246 O   0  0  0  0  0  0
  -22.3548  -14.5545   20.6676 O   0  0  0  0  0  0
  -24.6160  -31.8682   23.2111 C   0  0  0  0  0  0
  -25.9048  -32.4824   23.8407 C   0  0  1  0  0  0
  -27.2308  -27.4141   20.0945 C   0  0  0  0  0  0
  -25.5898  -33.8625   24.2329 N   0  0  0  0  0  0
  -23.4046  -30.4938   21.5527 C   0  0  2  0  0  0
  -24.8500  -28.9659   20.1111 C   0  0  0  0  0  0
  -22.7422  -29.4659   22.4989 C   0  0  0  0  0  0
  -18.0266  -28.1377   22.8489 C   0  0  0  0  0  0
  -24.1487  -36.7311   23.2638 C   0  0  0  0  0  0
  -25.9385  -30.8254   21.3725 C   0  0  0  0  0  0
  -26.0128  -29.4618   20.7132 C   0  0  0  0  0  0
  -27.2027  -28.6928   20.7045 C   0  0  0  0  0  0
  -26.0474  -26.9561   19.4611 C   0  0  0  0  0  0
  -24.8639  -27.7125   19.4820 C   0  0  0  0  0  0
  -23.6131  -29.8333   20.1651 C   0  0  0  0  0  0
  -25.4109  -36.3115   24.0340 C   0  0  1  0  0  0
  -20.5862  -28.3667   23.1314 C   0  0  2  0  0  0
  -20.6759  -26.9399   22.5421 C   0  0  0  0  0  0
  -19.5734  -26.6383   21.5216 C   0  0  0  0  0  0
  -18.1912  -26.7920   22.1625 C   0  0  0  0  0  0
  -19.1518  -28.8838   23.2894 C   0  0  0  0  0  0
  -18.9450  -30.1443   23.8906 C   0  0  0  0  0  0
  -17.6453  -30.6583   24.0565 C   0  0  0  0  0  0
  -25.9038  -34.9480   23.5133 C   0  0  0  0  0  0
  -16.5341  -29.9089   23.6324 C   0  0  0  0  0  0
  -16.7257  -28.6505   23.0346 C   0  0  0  0  0  0
  -26.4465  -31.6610   25.0745 C   0  0  0  0  0  0
  -25.3727  -31.3732   26.1495 C   0  0  0  0  0  0
  -27.0295  -30.3037   24.6162 C   0  0  0  0  0  0
  -27.6037  -32.4346   25.7496 C   0  0  0  0  0  0
  -27.5583  -37.1809   24.8463 C   0  0  0  0  0  0
  -21.4147  -29.3030   22.3721 N   0  0  0  0  0  0
  -26.4295  -37.3800   23.9409 N   0  0  0  0  0  0
  -24.6709  -31.0777   22.1021 N   0  0  0  0  0  0
  -23.4186  -28.8197   23.3034 O   0  0  0  0  0  0
  -28.3890  -26.6475   20.1464 O   0  0  0  0  0  0
  -26.5606  -34.8929   22.4697 O   0  0  0  0  0  0
  -23.5348  -32.1451   23.7487 O   0  0  0  0  0  0
  -28.9746  -18.9482   20.0325 C   0  0  0  0  0  0
  -28.9255  -17.6179   20.5046 C   0  0  0  0  0  0
  -31.3500  -17.5671   20.5966 C   0  0  0  0  0  0
  -30.2099  -19.5922   19.7971 C   0  0  0  0  0  0
  -30.1118  -16.8882   20.7347 C   0  0  0  0  0  0
  -31.4041  -18.9042   20.1314 C   0  0  0  0  0  0
  -31.2258  -23.0769   19.7784 C   0  0  0  0  0  0
  -30.7516  -24.4784   20.1417 C   0  0  0  0  0  0
  -28.9716  -22.8046   20.2246 C   0  0  0  0  0  0
  -29.2797  -24.2946   20.5358 C   0  0  2  0  0  0
  -30.2197  -20.9275   19.0346 C   0  0  0  0  0  0
  -28.2646  -25.2411   19.8430 C   0  0  0  0  0  0
  -30.2243  -22.1861   19.8038 N   0  0  0  0  0  0
  -32.6473  -19.5151   19.9600 N   0  0  0  0  0  0
  -29.9994  -15.5017   21.0878 N   0  0  0  0  0  0
  -32.3875  -22.8432   19.4338 O   0  0  0  0  0  0
  -31.4700  -12.3903   19.1373 H   0  0  0  0  0  0
  -30.3116  -11.2972   19.8366 H   0  0  0  0  0  0
  -29.7455  -11.7781   17.4331 H   0  0  0  0  0  0
  -29.6712  -13.4876   17.7725 H   0  0  0  0  0  0
  -27.8348  -11.3060   18.8237 H   0  0  0  0  0  0
  -27.3726  -12.6275   17.7851 H   0  0  0  0  0  0
  -27.7036  -14.2529   19.5613 H   0  0  0  0  0  0
  -28.6767  -11.9728   21.3514 H   0  0  0  0  0  0
  -28.4625  -13.6171   21.8644 H   0  0  0  0  0  0
  -25.2768   -9.5678   22.4745 H   0  0  0  0  0  0
  -24.0006   -7.4626   22.7462 H   0  0  0  0  0  0
  -21.0833   -8.8766   19.8953 H   0  0  0  0  0  0
  -22.3691  -10.9669   19.6147 H   0  0  0  0  0  0
  -21.2020   -7.6151   23.9722 H   0  0  0  0  0  0
  -21.1473   -6.0524   25.9079 H   0  0  0  0  0  0
  -22.0599   -2.7614   23.2841 H   0  0  0  0  0  0
  -22.4113  -11.9928   22.4814 H   0  0  0  0  0  0
  -21.1114  -13.1275   22.2574 H   0  0  0  0  0  0
  -24.6575  -15.8375   20.4997 H   0  0  0  0  0  0
  -26.2700  -15.6195   20.0451 H   0  0  0  0  0  0
  -26.7121  -32.5521   23.1171 H   0  0  0  0  0  0
  -25.0041  -33.9789   25.0469 H   0  0  0  0  0  0
  -22.6932  -31.3108   21.4170 H   0  0  0  0  0  0
  -23.3751  -35.9642   23.3316 H   0  0  0  0  0  0
  -24.3584  -36.8906   22.2050 H   0  0  0  0  0  0
  -23.7236  -37.6520   23.6643 H   0  0  0  0  0  0
  -26.0664  -31.5953   20.6103 H   0  0  0  0  0  0
  -26.8203  -30.8675   22.0000 H   0  0  0  0  0  0
  -28.0957  -29.0694   21.1840 H   0  0  0  0  0  0
  -26.0052  -26.0119   18.9394 H   0  0  0  0  0  0
  -23.9733  -27.3297   19.0027 H   0  0  0  0  0  0
  -23.7197  -30.6122   19.4091 H   0  0  0  0  0  0
  -22.7363  -29.2554   19.8677 H   0  0  0  0  0  0
  -25.1285  -36.1987   25.0833 H   0  0  0  0  0  0
  -20.9943  -28.3229   24.1439 H   0  0  0  0  0  0
  -20.5664  -26.2269   23.3608 H   0  0  0  0  0  0
  -21.6627  -26.7444   22.1210 H   0  0  0  0  0  0
  -19.6897  -25.6298   21.1231 H   0  0  0  0  0  0
  -19.6669  -27.3206   20.6754 H   0  0  0  0  0  0
  -17.4180  -26.6660   21.4028 H   0  0  0  0  0  0
  -18.0312  -26.0066   22.9026 H   0  0  0  0  0  0
  -19.7931  -30.7250   24.2278 H   0  0  0  0  0  0
  -17.5015  -31.6266   24.5165 H   0  0  0  0  0  0
  -15.5345  -30.2998   23.7652 H   0  0  0  0  0  0
  -15.8650  -28.0835   22.7058 H   0  0  0  0  0  0
  -24.5887  -30.7090   25.7841 H   0  0  0  0  0  0
  -24.8934  -32.2893   26.4959 H   0  0  0  0  0  0
  -25.8076  -30.8892   27.0250 H   0  0  0  0  0  0
  -26.2852  -29.6810   24.1183 H   0  0  0  0  0  0
  -27.3994  -29.7275   25.4655 H   0  0  0  0  0  0
  -27.8727  -30.4331   23.9372 H   0  0  0  0  0  0
  -27.2643  -33.3634   26.2099 H   0  0  0  0  0  0
  -28.3816  -32.6933   25.0298 H   0  0  0  0  0  0
  -28.0744  -31.8467   26.5389 H   0  0  0  0  0  0
  -28.2611  -38.0098   24.7515 H   0  0  0  0  0  0
  -28.1067  -36.2631   24.6283 H   0  0  0  0  0  0
  -27.2304  -37.1458   25.8867 H   0  0  0  0  0  0
  -20.9310  -29.8750   21.6941 H   0  0  0  0  0  0
  -26.0186  -38.2880   24.1412 H   0  0  0  0  0  0
  -28.0496  -19.4516   19.7887 H   0  0  0  0  0  0
  -27.9619  -17.1442   20.6285 H   0  0  0  0  0  0
  -32.2711  -17.0435   20.8099 H   0  0  0  0  0  0
  -30.8622  -25.1336   19.2776 H   0  0  0  0  0  0
  -31.3425  -24.8877   20.9614 H   0  0  0  0  0  0
  -28.2294  -22.7062   19.4312 H   0  0  0  0  0  0
  -28.5792  -22.2902   21.1029 H   0  0  0  0  0  0
  -29.1980  -24.4387   21.6142 H   0  0  0  0  0  0
  -29.3476  -20.9422   18.3808 H   0  0  0  0  0  0
  -31.0588  -20.9128   18.3364 H   0  0  0  0  0  0
  -27.2953  -24.8706   20.1786 H   0  0  0  0  0  0
  -28.3032  -25.1089   18.7607 H   0  0  0  0  0  0
  -33.4527  -19.1423   20.4534 H   0  0  0  0  0  0
  -32.6872  -20.5241   19.8361 H   0  0  0  0  0  0
  -29.1019  -15.2160   21.4478 H   0  0  0  0  0  0
  1 25  1  0  0  0
  1 30  2  0  0  0
  1 85  1  0  0  0
  2  3  1  0  0  0
  2 25  1  0  0  0
  2 87  1  0  0  0
  2 88  1  0  0  0
  3  4  1  0  0  0
  3 89  1  0  0  0
  3 90  1  0  0  0
  4  5  1  0  0  0
  4 91  1  0  0  0
  4 92  1  0  0  0
  5  6  1  0  0  0
  5 26  1  0  0  0
  5 93  1  0  0  0
  6 25  1  0  0  0
  6 94  1  0  0  0
  6 95  1  0  0  0
  7  8  2  0  0  0
  7 26  1  0  0  0
  7 29  1  0  0  0
  8  9  1  0  0  0
  8 22  1  0  0  0
  9 10  1  0  0  0
  9 27  2  0  0  0
 10 11  2  0  0  0
 10 15  1  0  0  0
 11 12  1  0  0  0
 11 96  1  0  0  0
 12 13  2  0  0  0
 12 97  1  0  0  0
 13 14  1  0  0  0
 13 31  1  0  0  0
 14 15  2  0  0  0
 14 98  1  0  0  0
 15 99  1  0  0  0
 16 17  2  0  0  0
 16 21  1  0  0  0
 16 31  1  0  0  0
 17 18  1  0  0  0
 17100  1  0  0  0
 18 19  2  0  0  0
 18101  1  0  0  0
 19 20  1  0  0  0
 19 24  1  0  0  0
 20 21  2  0  0  0
 20102  1  0  0  0
 21 23  1  0  0  0
 22 28  1  0  0  0
 22 32  2  0  0  0
 26 27  1  0  0  0
 28103  1  0  0  0
 28104  1  0  0  0
 29105  1  0  0  0
 29106  1  0  0  0
 33 34  1  0  0  0
 33 66  1  0  0  0
 33 70  2  0  0  0
 34 36  1  0  0  0
 34 59  1  0  0  0
 34107  1  0  0  0
 35 44  2  0  0  0
 35 45  1  0  0  0
 35 68  1  0  0  0
 36 56  1  0  0  0
 36108  1  0  0  0
 37 39  1  0  0  0
 37 47  1  0  0  0
 37 66  1  0  0  0
 37109  1  0  0  0
 38 43  2  0  0  0
 38 46  1  0  0  0
 38 47  1  0  0  0
 39 64  1  0  0  0
 39 67  2  0  0  0
 40 52  1  0  0  0
 40 53  2  0  0  0
 40 58  1  0  0  0
 41110  1  0  0  0
 41111  1  0  0  0
 41112  1  0  0  0
 41 48  1  0  0  0
 42 43  1  0  0  0
 42 66  1  0  0  0
 42113  1  0  0  0
 42114  1  0  0  0
 43 44  1  0  0  0
 44115  1  0  0  0
 45 46  2  0  0  0
 45116  1  0  0  0
 46117  1  0  0  0
 47118  1  0  0  0
 47119  1  0  0  0
 48 56  1  0  0  0
 48 65  1  0  0  0
 48120  1  0  0  0
 49 50  1  0  0  0
 49 53  1  0  0  0
 49 64  1  0  0  0
 49121  1  0  0  0
 50 51  1  0  0  0
 50122  1  0  0  0
 50123  1  0  0  0
 51 52  1  0  0  0
 51124  1  0  0  0
 51125  1  0  0  0
 52126  1  0  0  0
 52127  1  0  0  0
 53 54  1  0  0  0
 54 55  2  0  0  0
 54128  1  0  0  0
 55 57  1  0  0  0
 55129  1  0  0  0
 56 69  2  0  0  0
 57 58  2  0  0  0
 57130  1  0  0  0
 58131  1  0  0  0
 59 60  1  0  0  0
 59 61  1  0  0  0
 59 62  1  0  0  0
 60132  1  0  0  0
 60133  1  0  0  0
 60134  1  0  0  0
 61135  1  0  0  0
 61136  1  0  0  0
 61137  1  0  0  0
 62138  1  0  0  0
 62139  1  0  0  0
 62140  1  0  0  0
 63 65  1  0  0  0
 63141  1  0  0  0
 63142  1  0  0  0
 63143  1  0  0  0
 64144  1  0  0  0
 65145  1  0  0  0
 68 82  1  0  0  0
 71 72  2  0  0  0
 71 74  1  0  0  0
 71146  1  0  0  0
 72 75  1  0  0  0
 72147  1  0  0  0
 73 75  2  0  0  0
 73 76  1  0  0  0
 73148  1  0  0  0
 74 76  2  0  0  0
 74 81  1  0  0  0
 75 85  1  0  0  0
 76 84  1  0  0  0
 77 78  1  0  0  0
 77 83  1  0  0  0
 77 86  2  0  0  0
 78 80  1  0  0  0
 78149  1  0  0  0
 78150  1  0  0  0
 79 80  1  0  0  0
 79 83  1  0  0  0
 79151  1  0  0  0
 79152  1  0  0  0
 80 82  1  0  0  0
 80153  1  0  0  0
 81 83  1  0  0  0
 81154  1  0  0  0
 81155  1  0  0  0
 82156  1  0  0  0
 82157  1  0  0  0
 84158  1  0  0  0
 84159  1  0  0  0
 85160  1  0  0  0
M  ISO  4   1 100  68 101  82 101  85 100
M  END
> <chiral flag>
0

> <version>
0

> <s_m_source_file>
/data/baiqing/PycharmProjects/Reinvent-master-3.2/result/LINK_invent/BTK/process_docking_weight1_custom_product_contain_oxygen_bond_distance_aromatic_linkinvent_7_9_3/rearranged_h_0097.sdf

> <i_m_source_file_index>
17

> <r_mmod_Potential_Energy-OPLS-2005>
-20.0233459472656

> <r_mmod_Stretch_Energy-OPLS-2005>
41.3963890075684

> <r_mmod_Bend_Energy-OPLS-2005>
125.344589233398

> <r_mmod_Torsional_Energy-OPLS-2005>
274.392456054688

> <r_mmod_Improper_Torsional_Energy-OPLS-2005>
10.0059251785278

> <r_mmod_Van_der_Waal_Energy-OPLS-2005>
153.593872070312

> <r_mmod_Electrostatic_Energy-OPLS-2005>
-398.874725341797

> <r_mmod_Solvation_Energy-OPLS-2005>
-242.377716064453

> <b_mmod_Minimization_Converged-OPLS-2005>
0

> <r_mmod_RMS_Derivative-OPLS-2005>
1.27519035339355

$$$$
17
                    3D
 Structure written by MMmdl.
168177  0  0  1  0            999 V2000
  -30.7101  -14.4238   20.5369 C   0  0  0  0  0  0
  -30.4148  -12.2627   19.4251 C   0  0  0  0  0  0
  -29.4936  -12.4926   18.2084 C   0  0  0  0  0  0
  -28.0112  -12.3763   18.6152 C   0  0  0  0  0  0
  -27.6637  -13.2062   19.8809 C   0  0  2  0  0  0
  -28.7046  -12.9754   21.0029 C   0  0  0  0  0  0
  -25.2573  -13.8159   20.5700 C   0  0  0  0  0  0
  -24.1831  -13.0430   20.9173 C   0  0  0  0  0  0
  -24.6385  -11.6900   20.8741 C   0  0  0  0  0  0
  -23.9061  -10.4287   21.0412 C   0  0  0  0  0  0
  -24.3618   -9.4205   21.9186 C   0  0  0  0  0  0
  -23.6293   -8.2248   22.0758 C   0  0  0  0  0  0
  -22.4275   -8.0286   21.3550 C   0  0  0  0  0  0
  -21.9914   -9.0258   20.4651 C   0  0  0  0  0  0
  -22.7242  -10.2132   20.3056 C   0  0  0  0  0  0
  -21.6851   -6.0738   22.5280 C   0  0  0  0  0  0
  -21.4018   -6.5644   23.8214 C   0  0  0  0  0  0
  -21.3661   -5.6794   24.9177 C   0  0  0  0  0  0
  -21.6047   -4.3053   24.7229 C   0  0  0  0  0  0
  -21.8822   -3.8147   23.4346 C   0  0  0  0  0  0
  -21.9195   -4.6967   22.3402 C   0  0  0  0  0  0
  -22.7845  -13.5222   21.1840 C   0  0  0  0  0  0
  -22.1659   -4.2151   21.0978 F   0  0  0  0  0  0
  -21.5632   -3.4534   25.7739 F   0  0  0  0  0  0
  -30.0436  -13.2458   20.4524 N   0  0  0  0  0  0
  -26.3026  -12.9342   20.3399 N   0  0  0  0  0  0
  -25.9312  -11.6495   20.5780 N   0  0  0  0  0  0
  -22.0482  -12.8223   22.0400 N   0  0  0  0  0  0
  -25.4266  -15.1883   20.4137 N   0  0  0  0  0  0
  -31.8542  -14.5905   20.1069 O   0  0  0  0  0  0
  -21.6641   -6.8880   21.4244 O   0  0  0  0  0  0
  -22.3540  -14.5534   20.6688 O   0  0  0  0  0  0
  -24.6099  -31.8706   23.2130 C   0  0  0  0  0  0
  -25.9013  -32.4841   23.8411 C   0  0  1  0  0  0
  -27.2358  -27.4837   20.0885 C   0  0  0  0  0  0
  -25.5888  -33.8637   24.2346 N   0  0  0  0  0  0
  -23.3955  -30.4945   21.5521 C   0  0  2  0  0  0
  -24.8425  -28.9657   20.1142 C   0  0  0  0  0  0
  -22.7384  -29.4676   22.5010 C   0  0  0  0  0  0
  -18.0268  -28.1376   22.8498 C   0  0  0  0  0  0
  -24.1484  -36.7323   23.2636 C   0  0  0  0  0  0
  -25.9188  -30.8538   21.3563 C   0  0  0  0  0  0
  -25.9996  -29.4923   20.7025 C   0  0  0  0  0  0
  -27.2027  -28.7591   20.6838 C   0  0  0  0  0  0
  -26.0668  -26.9569   19.4989 C   0  0  0  0  0  0
  -24.8687  -27.6958   19.5088 C   0  0  0  0  0  0
  -23.6005  -29.8243   20.1667 C   0  0  0  0  0  0
  -25.4104  -36.3122   24.0338 C   0  0  1  0  0  0
  -20.5853  -28.3656   23.1332 C   0  0  2  0  0  0
  -20.6758  -26.9399   22.5419 C   0  0  0  0  0  0
  -19.5738  -26.6387   21.5214 C   0  0  0  0  0  0
  -18.1917  -26.7926   22.1626 C   0  0  0  0  0  0
  -19.1515  -28.8831   23.2915 C   0  0  0  0  0  0
  -18.9446  -30.1440   23.8920 C   0  0  0  0  0  0
  -17.6451  -30.6584   24.0568 C   0  0  0  0  0  0
  -25.9027  -34.9486   23.5139 C   0  0  0  0  0  0
  -16.5342  -29.9090   23.6324 C   0  0  0  0  0  0
  -16.7258  -28.6506   23.0345 C   0  0  0  0  0  0
  -26.4457  -31.6606   25.0720 C   0  0  0  0  0  0
  -25.3743  -31.3692   26.1481 C   0  0  0  0  0  0
  -27.0281  -30.3058   24.6057 C   0  0  0  0  0  0
  -27.6041  -32.4316   25.7481 C   0  0  0  0  0  0
  -27.5582  -37.1819   24.8464 C   0  0  0  0  0  0
  -21.4117  -29.3031   22.3748 N   0  0  0  0  0  0
  -26.4297  -37.3802   23.9404 N   0  0  0  0  0  0
  -24.6596  -31.0856   22.1001 N   0  0  0  0  0  0
  -23.4175  -28.8221   23.3042 O   0  0  0  0  0  0
  -28.3990  -26.7616   20.1105 O   0  0  0  0  0  0
  -26.5584  -34.8929   22.4697 O   0  0  0  0  0  0
  -23.5306  -32.1434   23.7559 O   0  0  0  0  0  0
  -30.7351  -18.0661   22.1925 C   0  0  0  0  0  0
  -30.7802  -19.2807   22.9011 C   0  0  0  0  0  0
  -29.3740  -19.1346   20.4826 C   0  0  0  0  0  0
  -30.0338  -17.9934   20.9746 C   0  0  0  0  0  0
  -30.1395  -20.4370   22.4008 C   0  0  0  0  0  0
  -29.4176  -20.3654   21.1793 C   0  0  0  0  0  0
  -31.7615  -23.1121   21.8437 C   0  0  0  0  0  0
  -31.9618  -24.3114   20.9145 C   0  0  0  0  0  0
  -30.6442  -24.7608   20.2746 C   0  0  0  0  0  0
  -29.4451  -23.9189   22.3675 C   0  0  0  0  0  0
  -29.6193  -25.0877   21.3664 C   0  0  2  0  0  0
  -28.0795  -21.4500   19.4827 C   0  0  0  0  0  0
  -30.2538  -21.7330   23.2139 C   0  0  0  0  0  0
  -30.0349  -16.7373   20.1228 C   0  0  0  0  0  0
  -28.2648  -25.5108   20.7753 C   0  0  0  0  0  0
  -30.5549  -22.9455   22.4356 N   0  0  0  0  0  0
  -29.9354  -15.4700   20.8449 N   0  0  0  0  0  0
  -32.7059  -22.3339   22.0083 O   0  0  0  0  0  0
  -28.7958  -21.5020   20.7097 O   0  0  0  0  0  0
  -31.4629  -12.3400   19.1280 H   0  0  0  0  0  0
  -30.2881  -11.2510   19.8138 H   0  0  0  0  0  0
  -29.7178  -11.7674   17.4241 H   0  0  0  0  0  0
  -29.6818  -13.4786   17.7792 H   0  0  0  0  0  0
  -27.7983  -11.3216   18.7933 H   0  0  0  0  0  0
  -27.3708  -12.6765   17.7850 H   0  0  0  0  0  0
  -27.7090  -14.2557   19.5905 H   0  0  0  0  0  0
  -28.6581  -11.9451   21.3577 H   0  0  0  0  0  0
  -28.4860  -13.5933   21.8754 H   0  0  0  0  0  0
  -25.2767   -9.5677   22.4753 H   0  0  0  0  0  0
  -24.0005   -7.4636   22.7475 H   0  0  0  0  0  0
  -21.0848   -8.8777   19.8948 H   0  0  0  0  0  0
  -22.3712  -10.9673   19.6163 H   0  0  0  0  0  0
  -21.2010   -7.6150   23.9721 H   0  0  0  0  0  0
  -21.1478   -6.0521   25.9081 H   0  0  0  0  0  0
  -22.0597   -2.7607   23.2846 H   0  0  0  0  0  0
  -22.4099  -11.9897   22.4821 H   0  0  0  0  0  0
  -21.1092  -13.1246   22.2585 H   0  0  0  0  0  0
  -24.6564  -15.8370   20.5337 H   0  0  0  0  0  0
  -26.2780  -15.6378   20.1033 H   0  0  0  0  0  0
  -26.7092  -32.5571   23.1190 H   0  0  0  0  0  0
  -25.0057  -33.9807   25.0502 H   0  0  0  0  0  0
  -22.6825  -31.3098   21.4144 H   0  0  0  0  0  0
  -23.3742  -35.9663   23.3315 H   0  0  0  0  0  0
  -24.3579  -36.8919   22.2049 H   0  0  0  0  0  0
  -23.7245  -37.6537   23.6637 H   0  0  0  0  0  0
  -26.0219  -31.6237   20.5897 H   0  0  0  0  0  0
  -26.8095  -30.9084   21.9708 H   0  0  0  0  0  0
  -28.0980  -29.1606   21.1375 H   0  0  0  0  0  0
  -26.0826  -25.9823   19.0316 H   0  0  0  0  0  0
  -23.9786  -27.2850   19.0522 H   0  0  0  0  0  0
  -23.7006  -30.5966   19.4034 H   0  0  0  0  0  0
  -22.7272  -29.2369   19.8772 H   0  0  0  0  0  0
  -25.1282  -36.1994   25.0834 H   0  0  0  0  0  0
  -20.9949  -28.3216   24.1450 H   0  0  0  0  0  0
  -20.5666  -26.2263   23.3600 H   0  0  0  0  0  0
  -21.6630  -26.7452   22.1208 H   0  0  0  0  0  0
  -19.6900  -25.6304   21.1228 H   0  0  0  0  0  0
  -19.6676  -27.3206   20.6752 H   0  0  0  0  0  0
  -17.4190  -26.6679   21.4027 H   0  0  0  0  0  0
  -18.0318  -26.0060   22.9012 H   0  0  0  0  0  0
  -19.7920  -30.7250   24.2298 H   0  0  0  0  0  0
  -17.5006  -31.6265   24.5168 H   0  0  0  0  0  0
  -15.5344  -30.3000   23.7634 H   0  0  0  0  0  0
  -15.8658  -28.0836   22.7044 H   0  0  0  0  0  0
  -24.5907  -30.7049   25.7818 H   0  0  0  0  0  0
  -24.8946  -32.2841   26.4967 H   0  0  0  0  0  0
  -25.8113  -30.8833   27.0215 H   0  0  0  0  0  0
  -26.2810  -29.6835   24.1117 H   0  0  0  0  0  0
  -27.4076  -29.7273   25.4491 H   0  0  0  0  0  0
  -27.8632  -30.4393   23.9176 H   0  0  0  0  0  0
  -27.2665  -33.3603   26.2094 H   0  0  0  0  0  0
  -28.3834  -32.6896   25.0300 H   0  0  0  0  0  0
  -28.0727  -31.8419   26.5371 H   0  0  0  0  0  0
  -28.2606  -38.0108   24.7506 H   0  0  0  0  0  0
  -28.1068  -36.2642   24.6296 H   0  0  0  0  0  0
  -27.2299  -37.1478   25.8866 H   0  0  0  0  0  0
  -20.9272  -29.8756   21.6978 H   0  0  0  0  0  0
  -26.0189  -38.2884   24.1396 H   0  0  0  0  0  0
  -31.2609  -17.2013   22.5733 H   0  0  0  0  0  0
  -31.3325  -19.3253   23.8303 H   0  0  0  0  0  0
  -28.8512  -19.0451   19.5426 H   0  0  0  0  0  0
  -32.6814  -24.0504   20.1383 H   0  0  0  0  0  0
  -32.4002  -25.1258   21.4925 H   0  0  0  0  0  0
  -30.2604  -23.9767   19.6201 H   0  0  0  0  0  0
  -30.8191  -25.6335   19.6448 H   0  0  0  0  0  0
  -28.5270  -23.3814   22.1344 H   0  0  0  0  0  0
  -29.2805  -24.3289   23.3652 H   0  0  0  0  0  0
  -30.0064  -25.9356   21.9348 H   0  0  0  0  0  0
  -28.7085  -21.1133   18.6579 H   0  0  0  0  0  0
  -27.7275  -22.4502   19.2291 H   0  0  0  0  0  0
  -27.2042  -20.8036   19.5620 H   0  0  0  0  0  0
  -31.0259  -21.6202   23.9774 H   0  0  0  0  0  0
  -29.3230  -21.8577   23.7693 H   0  0  0  0  0  0
  -30.9248  -16.7832   19.4916 H   0  0  0  0  0  0
  -29.1913  -16.7712   19.4320 H   0  0  0  0  0  0
  -27.5336  -25.5876   21.5847 H   0  0  0  0  0  0
  -27.8931  -24.7562   20.0814 H   0  0  0  0  0  0
  -29.0308  -15.2508   21.2322 H   0  0  0  0  0  0
  1 25  1  0  0  0
  1 30  2  0  0  0
  1 87  1  0  0  0
  2  3  1  0  0  0
  2 25  1  0  0  0
  2 90  1  0  0  0
  2 91  1  0  0  0
  3  4  1  0  0  0
  3 92  1  0  0  0
  3 93  1  0  0  0
  4  5  1  0  0  0
  4 94  1  0  0  0
  4 95  1  0  0  0
  5  6  1  0  0  0
  5 26  1  0  0  0
  5 96  1  0  0  0
  6 25  1  0  0  0
  6 97  1  0  0  0
  6 98  1  0  0  0
  7  8  2  0  0  0
  7 26  1  0  0  0
  7 29  1  0  0  0
  8  9  1  0  0  0
  8 22  1  0  0  0
  9 10  1  0  0  0
  9 27  2  0  0  0
 10 11  2  0  0  0
 10 15  1  0  0  0
 11 12  1  0  0  0
 11 99  1  0  0  0
 12 13  2  0  0  0
 12100  1  0  0  0
 13 14  1  0  0  0
 13 31  1  0  0  0
 14 15  2  0  0  0
 14101  1  0  0  0
 15102  1  0  0  0
 16 17  2  0  0  0
 16 21  1  0  0  0
 16 31  1  0  0  0
 17 18  1  0  0  0
 17103  1  0  0  0
 18 19  2  0  0  0
 18104  1  0  0  0
 19 20  1  0  0  0
 19 24  1  0  0  0
 20 21  2  0  0  0
 20105  1  0  0  0
 21 23  1  0  0  0
 22 28  1  0  0  0
 22 32  2  0  0  0
 26 27  1  0  0  0
 28106  1  0  0  0
 28107  1  0  0  0
 29108  1  0  0  0
 29109  1  0  0  0
 33 34  1  0  0  0
 33 66  1  0  0  0
 33 70  2  0  0  0
 34 36  1  0  0  0
 34 59  1  0  0  0
 34110  1  0  0  0
 35 44  2  0  0  0
 35 45  1  0  0  0
 35 68  1  0  0  0
 36 56  1  0  0  0
 36111  1  0  0  0
 37 39  1  0  0  0
 37 47  1  0  0  0
 37 66  1  0  0  0
 37112  1  0  0  0
 38 43  2  0  0  0
 38 46  1  0  0  0
 38 47  1  0  0  0
 39 64  1  0  0  0
 39 67  2  0  0  0
 40 52  1  0  0  0
 40 53  2  0  0  0
 40 58  1  0  0  0
 41113  1  0  0  0
 41114  1  0  0  0
 41115  1  0  0  0
 41 48  1  0  0  0
 42 43  1  0  0  0
 42 66  1  0  0  0
 42116  1  0  0  0
 42117  1  0  0  0
 43 44  1  0  0  0
 44118  1  0  0  0
 45 46  2  0  0  0
 45119  1  0  0  0
 46120  1  0  0  0
 47121  1  0  0  0
 47122  1  0  0  0
 48 56  1  0  0  0
 48 65  1  0  0  0
 48123  1  0  0  0
 49 50  1  0  0  0
 49 53  1  0  0  0
 49 64  1  0  0  0
 49124  1  0  0  0
 50 51  1  0  0  0
 50125  1  0  0  0
 50126  1  0  0  0
 51 52  1  0  0  0
 51127  1  0  0  0
 51128  1  0  0  0
 52129  1  0  0  0
 52130  1  0  0  0
 53 54  1  0  0  0
 54 55  2  0  0  0
 54131  1  0  0  0
 55 57  1  0  0  0
 55132  1  0  0  0
 56 69  2  0  0  0
 57 58  2  0  0  0
 57133  1  0  0  0
 58134  1  0  0  0
 59 60  1  0  0  0
 59 61  1  0  0  0
 59 62  1  0  0  0
 60135  1  0  0  0
 60136  1  0  0  0
 60137  1  0  0  0
 61138  1  0  0  0
 61139  1  0  0  0
 61140  1  0  0  0
 62141  1  0  0  0
 62142  1  0  0  0
 62143  1  0  0  0
 63 65  1  0  0  0
 63144  1  0  0  0
 63145  1  0  0  0
 63146  1  0  0  0
 64147  1  0  0  0
 65148  1  0  0  0
 68 85  1  0  0  0
 71 72  2  0  0  0
 71 74  1  0  0  0
 71149  1  0  0  0
 72 75  1  0  0  0
 72150  1  0  0  0
 73 74  2  0  0  0
 73 76  1  0  0  0
 73151  1  0  0  0
 74 84  1  0  0  0
 75 76  2  0  0  0
 75 83  1  0  0  0
 76 89  1  0  0  0
 77 78  1  0  0  0
 77 86  1  0  0  0
 77 88  2  0  0  0
 78 79  1  0  0  0
 78152  1  0  0  0
 78153  1  0  0  0
 79 81  1  0  0  0
 79154  1  0  0  0
 79155  1  0  0  0
 80 81  1  0  0  0
 80 86  1  0  0  0
 80156  1  0  0  0
 80157  1  0  0  0
 81 85  1  0  0  0
 81158  1  0  0  0
 82 89  1  0  0  0
 82159  1  0  0  0
 82160  1  0  0  0
 82161  1  0  0  0
 83 86  1  0  0  0
 83162  1  0  0  0
 83163  1  0  0  0
 84 87  1  0  0  0
 84164  1  0  0  0
 84165  1  0  0  0
 85166  1  0  0  0
 85167  1  0  0  0
 87168  1  0  0  0
M  ISO  4   1 100  68 101  85 101  87 100
M  END
> <chiral flag>
0

> <version>
0

> <s_m_source_file>
/data/baiqing/PycharmProjects/Reinvent-master-3.2/result/LINK_invent/BTK/process_docking_weight1_custom_product_contain_oxygen_bond_distance_aromatic_linkinvent_7_9_3/rearranged_h_0097.sdf

> <i_m_source_file_index>
18

> <r_mmod_Potential_Energy-OPLS-2005>
-75.1200180053711

> <r_mmod_Stretch_Energy-OPLS-2005>
35.1461601257324

> <r_mmod_Bend_Energy-OPLS-2005>
99.8296585083008

> <r_mmod_Torsional_Energy-OPLS-2005>
262.519165039062

> <r_mmod_Improper_Torsional_Energy-OPLS-2005>
9.42109775543213

> <r_mmod_Van_der_Waal_Energy-OPLS-2005>
172.685745239258

> <r_mmod_Electrostatic_Energy-OPLS-2005>
-425.111755371094

> <r_mmod_Solvation_Energy-OPLS-2005>
-240.65608215332

> <b_mmod_Minimization_Converged-OPLS-2005>
0

> <r_mmod_RMS_Derivative-OPLS-2005>
1.46606957912445

$$$$
18
                    3D
 Structure written by MMmdl.
162170  0  0  1  0            999 V2000
  -30.8056  -14.4311   20.5545 C   0  0  0  0  0  0
  -30.3988  -12.2855   19.4293 C   0  0  0  0  0  0
  -29.4903  -12.4966   18.2056 C   0  0  0  0  0  0
  -28.0146  -12.3652   18.6211 C   0  0  0  0  0  0
  -27.6582  -13.2249   19.8635 C   0  0  2  0  0  0
  -28.7062  -13.0642   20.9909 C   0  0  0  0  0  0
  -25.2563  -13.8193   20.5725 C   0  0  0  0  0  0
  -24.1827  -13.0458   20.9184 C   0  0  0  0  0  0
  -24.6398  -11.6921   20.8706 C   0  0  0  0  0  0
  -23.9069  -10.4295   21.0409 C   0  0  0  0  0  0
  -24.3614   -9.4208   21.9195 C   0  0  0  0  0  0
  -23.6285   -8.2244   22.0757 C   0  0  0  0  0  0
  -22.4267   -8.0284   21.3540 C   0  0  0  0  0  0
  -21.9901   -9.0265   20.4655 C   0  0  0  0  0  0
  -22.7234  -10.2143   20.3068 C   0  0  0  0  0  0
  -21.6856   -6.0738   22.5277 C   0  0  0  0  0  0
  -21.4032   -6.5638   23.8217 C   0  0  0  0  0  0
  -21.3659   -5.6787   24.9172 C   0  0  0  0  0  0
  -21.6050   -4.3048   24.7229 C   0  0  0  0  0  0
  -21.8814   -3.8144   23.4346 C   0  0  0  0  0  0
  -21.9190   -4.6962   22.3408 C   0  0  0  0  0  0
  -22.7838  -13.5245   21.1857 C   0  0  0  0  0  0
  -22.1652   -4.2146   21.0984 F   0  0  0  0  0  0
  -21.5628   -3.4534   25.7742 F   0  0  0  0  0  0
  -30.0437  -13.3098   20.4242 N   0  0  0  0  0  0
  -26.3026  -12.9412   20.3345 N   0  0  0  0  0  0
  -25.9343  -11.6550   20.5745 N   0  0  0  0  0  0
  -22.0465  -12.8250   22.0409 N   0  0  0  0  0  0
  -25.4278  -15.1931   20.4245 N   0  0  0  0  0  0
  -31.9329  -14.5040   20.0708 O   0  0  0  0  0  0
  -21.6626   -6.8881   21.4244 O   0  0  0  0  0  0
  -22.3521  -14.5557   20.6696 O   0  0  0  0  0  0
  -24.6096  -31.8724   23.2131 C   0  0  0  0  0  0
  -25.9029  -32.4838   23.8406 C   0  0  1  0  0  0
  -27.2398  -27.5001   20.0683 C   0  0  0  0  0  0
  -25.5904  -33.8632   24.2350 N   0  0  0  0  0  0
  -23.3926  -30.4962   21.5549 C   0  0  2  0  0  0
  -24.8401  -28.9680   20.1181 C   0  0  0  0  0  0
  -22.7362  -29.4674   22.5031 C   0  0  0  0  0  0
  -18.0279  -28.1357   22.8480 C   0  0  0  0  0  0
  -24.1494  -36.7333   23.2628 C   0  0  0  0  0  0
  -25.9149  -30.8556   21.3555 C   0  0  0  0  0  0
  -25.9950  -29.4940   20.7079 C   0  0  0  0  0  0
  -27.2000  -28.7628   20.6890 C   0  0  0  0  0  0
  -26.0744  -26.9753   19.4730 C   0  0  0  0  0  0
  -24.8697  -27.7037   19.5033 C   0  0  0  0  0  0
  -23.5979  -29.8260   20.1710 C   0  0  0  0  0  0
  -25.4112  -36.3128   24.0344 C   0  0  1  0  0  0
  -20.5834  -28.3641   23.1359 C   0  0  2  0  0  0
  -20.6774  -26.9372   22.5496 C   0  0  0  0  0  0
  -19.5787  -26.6333   21.5266 C   0  0  0  0  0  0
  -18.1937  -26.7885   22.1633 C   0  0  0  0  0  0
  -19.1504  -28.8827   23.2897 C   0  0  0  0  0  0
  -18.9415  -30.1444   23.8885 C   0  0  0  0  0  0
  -17.6414  -30.6573   24.0534 C   0  0  0  0  0  0
  -25.9029  -34.9483   23.5137 C   0  0  0  0  0  0
  -16.5325  -29.9053   23.6293 C   0  0  0  0  0  0
  -16.7260  -28.6474   23.0313 C   0  0  0  0  0  0
  -26.4479  -31.6587   25.0697 C   0  0  0  0  0  0
  -25.3759  -31.3703   26.1455 C   0  0  0  0  0  0
  -27.0263  -30.3016   24.6009 C   0  0  0  0  0  0
  -27.6067  -32.4293   25.7461 C   0  0  0  0  0  0
  -27.5588  -37.1814   24.8455 C   0  0  0  0  0  0
  -21.4092  -29.3024   22.3786 N   0  0  0  0  0  0
  -26.4296  -37.3814   23.9412 N   0  0  0  0  0  0
  -24.6571  -31.0889   22.1004 N   0  0  0  0  0  0
  -23.4167  -28.8221   23.3053 O   0  0  0  0  0  0
  -28.4109  -26.7923   20.0526 O   0  0  0  0  0  0
  -26.5568  -34.8922   22.4679 O   0  0  0  0  0  0
  -23.5302  -32.1467   23.7554 O   0  0  0  0  0  0
  -28.7911  -18.0270   20.5602 C   0  0  0  0  0  0
  -27.8681  -19.0841   20.6458 C   0  0  0  0  0  0
  -29.8452  -18.7817   22.6349 C   0  0  0  0  0  0
  -29.7856  -17.8791   21.5514 C   0  0  0  0  0  0
  -28.9211  -19.8383   22.7213 C   0  0  0  0  0  0
  -27.9490  -19.9986   21.7154 C   0  0  0  0  0  0
  -31.8562  -17.3458   20.3274 C   0  0  0  0  0  0
  -28.2017  -24.4328   20.4395 C   0  0  0  0  0  0
  -27.8744  -23.3620   21.4763 C   0  0  0  0  0  0
  -28.4701  -25.7999   21.0683 C   0  0  0  0  0  0
  -27.5153  -22.0572   20.7691 C   0  0  0  0  0  0
  -30.8594  -16.8230   21.3942 C   0  0  2  0  0  0
  -28.9886  -20.7616   23.7616 N   0  0  0  0  0  0
  -30.2478  -15.5015   21.1354 N   0  0  0  0  0  0
  -27.1382  -21.0970   21.7417 O   0  0  0  0  0  0
  -31.4487  -12.3174   19.1301 H   0  0  0  0  0  0
  -30.2427  -11.2923   19.8515 H   0  0  0  0  0  0
  -29.7274  -11.7653   17.4312 H   0  0  0  0  0  0
  -29.6698  -13.4794   17.7669 H   0  0  0  0  0  0
  -27.8336  -11.3118   18.8358 H   0  0  0  0  0  0
  -27.3600  -12.6187   17.7856 H   0  0  0  0  0  0
  -27.6842  -14.2647   19.5365 H   0  0  0  0  0  0
  -28.6706  -12.0578   21.4084 H   0  0  0  0  0  0
  -28.4809  -13.7371   21.8182 H   0  0  0  0  0  0
  -25.2770   -9.5672   22.4748 H   0  0  0  0  0  0
  -23.9998   -7.4645   22.7478 H   0  0  0  0  0  0
  -21.0830   -8.8795   19.8972 H   0  0  0  0  0  0
  -22.3711  -10.9677   19.6163 H   0  0  0  0  0  0
  -21.2032   -7.6147   23.9722 H   0  0  0  0  0  0
  -21.1489   -6.0516   25.9079 H   0  0  0  0  0  0
  -22.0590   -2.7602   23.2850 H   0  0  0  0  0  0
  -22.4039  -11.9922   22.4855 H   0  0  0  0  0  0
  -21.1095  -13.1311   22.2607 H   0  0  0  0  0  0
  -24.6745  -15.8539   20.5803 H   0  0  0  0  0  0
  -26.3029  -15.6397   20.1824 H   0  0  0  0  0  0
  -26.7117  -32.5606   23.1201 H   0  0  0  0  0  0
  -25.0098  -33.9801   25.0524 H   0  0  0  0  0  0
  -22.6785  -31.3106   21.4206 H   0  0  0  0  0  0
  -23.3736  -35.9683   23.3298 H   0  0  0  0  0  0
  -24.3585  -36.8926   22.2033 H   0  0  0  0  0  0
  -23.7255  -37.6561   23.6612 H   0  0  0  0  0  0
  -26.0073  -31.6254   20.5874 H   0  0  0  0  0  0
  -26.8112  -30.9188   21.9606 H   0  0  0  0  0  0
  -28.0919  -29.1641   21.1484 H   0  0  0  0  0  0
  -26.0927  -26.0235   18.9666 H   0  0  0  0  0  0
  -23.9801  -27.2948   19.0434 H   0  0  0  0  0  0
  -23.7000  -30.5999   19.4100 H   0  0  0  0  0  0
  -22.7262  -29.2384   19.8766 H   0  0  0  0  0  0
  -25.1282  -36.1990   25.0839 H   0  0  0  0  0  0
  -20.9901  -28.3207   24.1495 H   0  0  0  0  0  0
  -20.5607  -26.2274   23.3709 H   0  0  0  0  0  0
  -21.6652  -26.7381   22.1339 H   0  0  0  0  0  0
  -19.7000  -25.6247   21.1303 H   0  0  0  0  0  0
  -19.6753  -27.3125   20.6793 H   0  0  0  0  0  0
  -17.4236  -26.6627   21.4012 H   0  0  0  0  0  0
  -18.0299  -26.0051   22.9046 H   0  0  0  0  0  0
  -19.7876  -30.7268   24.2244 H   0  0  0  0  0  0
  -17.4952  -31.6269   24.5096 H   0  0  0  0  0  0
  -15.5316  -30.2957   23.7599 H   0  0  0  0  0  0
  -15.8664  -28.0794   22.6999 H   0  0  0  0  0  0
  -24.5945  -30.7024   25.7812 H   0  0  0  0  0  0
  -24.8948  -32.2869   26.4873 H   0  0  0  0  0  0
  -25.8133  -30.8907   27.0208 H   0  0  0  0  0  0
  -26.2759  -29.6812   24.1081 H   0  0  0  0  0  0
  -27.4060  -29.7215   25.4429 H   0  0  0  0  0  0
  -27.8596  -30.4348   23.9098 H   0  0  0  0  0  0
  -27.2685  -33.3575   26.2076 H   0  0  0  0  0  0
  -28.3846  -32.6870   25.0264 H   0  0  0  0  0  0
  -28.0747  -31.8375   26.5334 H   0  0  0  0  0  0
  -28.2612  -38.0104   24.7498 H   0  0  0  0  0  0
  -28.1071  -36.2630   24.6283 H   0  0  0  0  0  0
  -27.2290  -37.1476   25.8852 H   0  0  0  0  0  0
  -20.9202  -29.8801   21.7088 H   0  0  0  0  0  0
  -26.0178  -38.2891   24.1417 H   0  0  0  0  0  0
  -28.7653  -17.3657   19.7052 H   0  0  0  0  0  0
  -27.1266  -19.2239   19.8707 H   0  0  0  0  0  0
  -30.6252  -18.6846   23.3763 H   0  0  0  0  0  0
  -32.1440  -18.3795   20.5340 H   0  0  0  0  0  0
  -31.4323  -17.3285   19.3231 H   0  0  0  0  0  0
  -32.7918  -16.7873   20.3166 H   0  0  0  0  0  0
  -27.3537  -24.4902   19.7635 H   0  0  0  0  0  0
  -29.0593  -24.1395   19.8301 H   0  0  0  0  0  0
  -27.0255  -23.6784   22.0842 H   0  0  0  0  0  0
  -28.7181  -23.2238   22.1557 H   0  0  0  0  0  0
  -29.4568  -25.8123   21.5317 H   0  0  0  0  0  0
  -27.7550  -25.9981   21.8713 H   0  0  0  0  0  0
  -28.3667  -21.7438   20.1580 H   0  0  0  0  0  0
  -26.6762  -22.2152   20.0927 H   0  0  0  0  0  0
  -31.3991  -16.7424   22.3387 H   0  0  0  0  0  0
  -29.8601  -20.8785   24.2667 H   0  0  0  0  0  0
  -28.4955  -21.6340   23.6040 H   0  0  0  0  0  0
  -29.2990  -15.3947   21.4562 H   0  0  0  0  0  0
  1 25  1  0  0  0
  1 30  2  0  0  0
  1 84  1  0  0  0
  2  3  1  0  0  0
  2 25  1  0  0  0
  2 86  1  0  0  0
  2 87  1  0  0  0
  3  4  1  0  0  0
  3 88  1  0  0  0
  3 89  1  0  0  0
  4  5  1  0  0  0
  4 90  1  0  0  0
  4 91  1  0  0  0
  5  6  1  0  0  0
  5 26  1  0  0  0
  5 92  1  0  0  0
  6 25  1  0  0  0
  6 93  1  0  0  0
  6 94  1  0  0  0
  7  8  2  0  0  0
  7 26  1  0  0  0
  7 29  1  0  0  0
  8  9  1  0  0  0
  8 22  1  0  0  0
  9 10  1  0  0  0
  9 27  2  0  0  0
 10 11  2  0  0  0
 10 15  1  0  0  0
 11 12  1  0  0  0
 11 95  1  0  0  0
 12 13  2  0  0  0
 12 96  1  0  0  0
 13 14  1  0  0  0
 13 31  1  0  0  0
 14 15  2  0  0  0
 14 97  1  0  0  0
 15 98  1  0  0  0
 16 17  2  0  0  0
 16 21  1  0  0  0
 16 31  1  0  0  0
 17 18  1  0  0  0
 17 99  1  0  0  0
 18 19  2  0  0  0
 18100  1  0  0  0
 19 20  1  0  0  0
 19 24  1  0  0  0
 20 21  2  0  0  0
 20101  1  0  0  0
 21 23  1  0  0  0
 22 28  1  0  0  0
 22 32  2  0  0  0
 26 27  1  0  0  0
 28102  1  0  0  0
 28103  1  0  0  0
 29104  1  0  0  0
 29105  1  0  0  0
 33 34  1  0  0  0
 33 66  1  0  0  0
 33 70  2  0  0  0
 34 36  1  0  0  0
 34 59  1  0  0  0
 34106  1  0  0  0
 35 44  2  0  0  0
 35 45  1  0  0  0
 35 68  1  0  0  0
 36 56  1  0  0  0
 36107  1  0  0  0
 37 39  1  0  0  0
 37 47  1  0  0  0
 37 66  1  0  0  0
 37108  1  0  0  0
 38 43  2  0  0  0
 38 46  1  0  0  0
 38 47  1  0  0  0
 39 64  1  0  0  0
 39 67  2  0  0  0
 40 52  1  0  0  0
 40 53  2  0  0  0
 40 58  1  0  0  0
 41109  1  0  0  0
 41110  1  0  0  0
 41111  1  0  0  0
 41 48  1  0  0  0
 42 43  1  0  0  0
 42 66  1  0  0  0
 42112  1  0  0  0
 42113  1  0  0  0
 43 44  1  0  0  0
 44114  1  0  0  0
 45 46  2  0  0  0
 45115  1  0  0  0
 46116  1  0  0  0
 47117  1  0  0  0
 47118  1  0  0  0
 48 56  1  0  0  0
 48 65  1  0  0  0
 48119  1  0  0  0
 49 50  1  0  0  0
 49 53  1  0  0  0
 49 64  1  0  0  0
 49120  1  0  0  0
 50 51  1  0  0  0
 50121  1  0  0  0
 50122  1  0  0  0
 51 52  1  0  0  0
 51123  1  0  0  0
 51124  1  0  0  0
 52125  1  0  0  0
 52126  1  0  0  0
 53 54  1  0  0  0
 54 55  2  0  0  0
 54127  1  0  0  0
 55 57  1  0  0  0
 55128  1  0  0  0
 56 69  2  0  0  0
 57 58  2  0  0  0
 57129  1  0  0  0
 58130  1  0  0  0
 59 60  1  0  0  0
 59 61  1  0  0  0
 59 62  1  0  0  0
 60131  1  0  0  0
 60132  1  0  0  0
 60133  1  0  0  0
 61134  1  0  0  0
 61135  1  0  0  0
 61136  1  0  0  0
 62137  1  0  0  0
 62138  1  0  0  0
 62139  1  0  0  0
 63 65  1  0  0  0
 63140  1  0  0  0
 63141  1  0  0  0
 63142  1  0  0  0
 64143  1  0  0  0
 65144  1  0  0  0
 68 80  1  0  0  0
 71 72  2  0  0  0
 71 74  1  0  0  0
 71145  1  0  0  0
 72 76  1  0  0  0
 72146  1  0  0  0
 73 74  2  0  0  0
 73 75  1  0  0  0
 73147  1  0  0  0
 74 82  1  0  0  0
 75 76  2  0  0  0
 75 83  1  0  0  0
 76 85  1  0  0  0
 77148  1  0  0  0
 77149  1  0  0  0
 77150  1  0  0  0
 77 82  1  0  0  0
 78 79  1  0  0  0
 78 80  1  0  0  0
 78151  1  0  0  0
 78152  1  0  0  0
 79 81  1  0  0  0
 79153  1  0  0  0
 79154  1  0  0  0
 80155  1  0  0  0
 80156  1  0  0  0
 81 85  1  0  0  0
 81157  1  0  0  0
 81158  1  0  0  0
 82 84  1  0  0  0
 82159  1  0  0  0
 83160  1  0  0  0
 83161  1  0  0  0
 84162  1  0  0  0
M  ISO  4   1 100  68 101  80 101  84 100
M  END
> <chiral flag>
0

> <version>
0

> <s_m_source_file>
/data/baiqing/PycharmProjects/Reinvent-master-3.2/result/LINK_invent/BTK/process_docking_weight1_custom_product_contain_oxygen_bond_distance_aromatic_linkinvent_7_9_3/rearranged_h_0097.sdf

> <i_m_source_file_index>
19

> <r_mmod_Potential_Energy-OPLS-2005>
-109.68489074707

> <r_mmod_Stretch_Energy-OPLS-2005>
31.7591934204102

> <r_mmod_Bend_Energy-OPLS-2005>
97.8023834228516

> <r_mmod_Torsional_Energy-OPLS-2005>
256.585906982422

> <r_mmod_Improper_Torsional_Energy-OPLS-2005>
6.16977262496948

> <r_mmod_Van_der_Waal_Energy-OPLS-2005>
159.871398925781

> <r_mmod_Electrostatic_Energy-OPLS-2005>
-466.665191650391

> <r_mmod_Solvation_Energy-OPLS-2005>
-211.835586547852

> <b_mmod_Minimization_Converged-OPLS-2005>
0

> <r_mmod_RMS_Derivative-OPLS-2005>
4.47194671630859

$$$$
19
                    3D
 Structure written by MMmdl.
156165  0  0  1  0            999 V2000
  -30.6717  -14.5758   20.5051 C   0  0  0  0  0  0
  -30.4200  -12.3553   19.4380 C   0  0  0  0  0  0
  -29.4932  -12.4977   18.2127 C   0  0  0  0  0  0
  -28.0172  -12.3463   18.6302 C   0  0  0  0  0  0
  -27.6495  -13.2176   19.8611 C   0  0  2  0  0  0
  -28.6971  -13.0722   20.9880 C   0  0  0  0  0  0
  -25.2535  -13.8181   20.5680 C   0  0  0  0  0  0
  -24.1815  -13.0440   20.9203 C   0  0  0  0  0  0
  -24.6393  -11.6912   20.8760 C   0  0  0  0  0  0
  -23.9070  -10.4292   21.0420 C   0  0  0  0  0  0
  -24.3620   -9.4198   21.9191 C   0  0  0  0  0  0
  -23.6291   -8.2235   22.0754 C   0  0  0  0  0  0
  -22.4270   -8.0281   21.3546 C   0  0  0  0  0  0
  -21.9911   -9.0261   20.4653 C   0  0  0  0  0  0
  -22.7244  -10.2138   20.3067 C   0  0  0  0  0  0
  -21.6853   -6.0735   22.5279 C   0  0  0  0  0  0
  -21.4018   -6.5640   23.8211 C   0  0  0  0  0  0
  -21.3657   -5.6792   24.9177 C   0  0  0  0  0  0
  -21.6045   -4.3052   24.7229 C   0  0  0  0  0  0
  -21.8819   -3.8146   23.4347 C   0  0  0  0  0  0
  -21.9190   -4.6965   22.3405 C   0  0  0  0  0  0
  -22.7836  -13.5226   21.1862 C   0  0  0  0  0  0
  -22.1658   -4.2150   21.0982 F   0  0  0  0  0  0
  -21.5628   -3.4537   25.7742 F   0  0  0  0  0  0
  -30.0116  -13.3840   20.4120 N   0  0  0  0  0  0
  -26.2969  -12.9370   20.3329 N   0  0  0  0  0  0
  -25.9321  -11.6521   20.5786 N   0  0  0  0  0  0
  -22.0487  -12.8219   22.0430 N   0  0  0  0  0  0
  -25.4216  -15.1903   20.4054 N   0  0  0  0  0  0
  -31.8464  -14.6863   20.1446 O   0  0  0  0  0  0
  -21.6632   -6.8878   21.4239 O   0  0  0  0  0  0
  -22.3512  -14.5529   20.6706 O   0  0  0  0  0  0
  -24.6208  -31.8633   23.2064 C   0  0  0  0  0  0
  -25.9080  -32.4803   23.8369 C   0  0  1  0  0  0
  -27.2268  -27.3669   20.1158 C   0  0  0  0  0  0
  -25.5923  -33.8604   24.2309 N   0  0  0  0  0  0
  -23.4134  -30.4853   21.5470 C   0  0  2  0  0  0
  -24.8637  -28.9410   20.1151 C   0  0  0  0  0  0
  -22.7441  -29.4642   22.4962 C   0  0  0  0  0  0
  -18.0279  -28.1392   22.8494 C   0  0  0  0  0  0
  -24.1480  -36.7300   23.2631 C   0  0  0  0  0  0
  -25.9485  -30.8067   21.3716 C   0  0  0  0  0  0
  -26.0279  -29.4348   20.7198 C   0  0  0  0  0  0
  -27.2173  -28.6560   20.7186 C   0  0  0  0  0  0
  -26.0488  -26.9056   19.4996 C   0  0  0  0  0  0
  -24.8712  -27.6776   19.4991 C   0  0  0  0  0  0
  -23.6284  -29.8154   20.1626 C   0  0  0  0  0  0
  -25.4106  -36.3109   24.0334 C   0  0  1  0  0  0
  -20.5872  -28.3699   23.1306 C   0  0  2  0  0  0
  -20.6766  -26.9425   22.5436 C   0  0  0  0  0  0
  -19.5756  -26.6397   21.5221 C   0  0  0  0  0  0
  -18.1932  -26.7937   22.1620 C   0  0  0  0  0  0
  -19.1528  -28.8866   23.2892 C   0  0  0  0  0  0
  -18.9452  -30.1463   23.8914 C   0  0  0  0  0  0
  -17.6456  -30.6600   24.0572 C   0  0  0  0  0  0
  -25.9042  -34.9469   23.5119 C   0  0  0  0  0  0
  -16.5352  -29.9100   23.6330 C   0  0  0  0  0  0
  -16.7267  -28.6513   23.0365 C   0  0  0  0  0  0
  -26.4471  -31.6595   25.0717 C   0  0  0  0  0  0
  -25.3714  -31.3714   26.1446 C   0  0  0  0  0  0
  -27.0305  -30.3024   24.6146 C   0  0  0  0  0  0
  -27.6041  -32.4305   25.7502 C   0  0  0  0  0  0
  -27.5577  -37.1808   24.8466 C   0  0  0  0  0  0
  -21.4165  -29.3043   22.3690 N   0  0  0  0  0  0
  -26.4289  -37.3799   23.9408 N   0  0  0  0  0  0
  -24.6795  -31.0663   22.1001 N   0  0  0  0  0  0
  -23.4176  -28.8203   23.3051 O   0  0  0  0  0  0
  -28.3190  -26.5106   20.1184 O   0  0  0  0  0  0
  -26.5594  -34.8932   22.4678 O   0  0  0  0  0  0
  -23.5387  -32.1420   23.7417 O   0  0  0  0  0  0
  -29.5572  -18.1725   20.4555 C   0  0  0  0  0  0
  -31.2681  -19.7494   21.1772 C   0  0  0  0  0  0
  -31.5862  -17.3536   21.5278 C   0  0  0  0  0  0
  -30.0033  -19.5343   20.5883 C   0  0  0  0  0  0
  -30.3494  -17.0620   20.9065 C   0  0  0  0  0  0
  -32.0419  -18.6783   21.6540 C   0  0  0  0  0  0
  -28.5717  -24.2410   21.1456 C   0  0  0  0  0  0
  -28.3541  -25.5928   21.1605 C   0  0  0  0  0  0
  -29.2565  -20.7242   19.9743 C   0  0  0  0  0  0
  -28.6043  -23.4271   22.4151 C   0  0  0  0  0  0
  -28.8245  -23.2476   20.0046 C   0  0  0  0  0  0
  -29.3374  -22.1228   22.0671 C   0  0  0  0  0  0
  -29.2047  -21.9375   20.6197 N   0  0  0  0  0  0
  -29.9133  -15.6798   20.7783 N   0  0  0  0  0  0
  -28.7596  -20.5779   18.8545 O   0  0  0  0  0  0
  -33.2452  -18.9236   22.2239 F   0  0  0  0  0  0
  -31.4645  -12.4525   19.1359 H   0  0  0  0  0  0
  -30.3265  -11.3613   19.8783 H   0  0  0  0  0  0
  -29.7435  -11.7528   17.4562 H   0  0  0  0  0  0
  -29.6447  -13.4712   17.7438 H   0  0  0  0  0  0
  -27.8463  -11.2937   18.8588 H   0  0  0  0  0  0
  -27.3607  -12.5835   17.7922 H   0  0  0  0  0  0
  -27.6669  -14.2528   19.5199 H   0  0  0  0  0  0
  -28.6972  -12.0556   21.3845 H   0  0  0  0  0  0
  -28.4607  -13.7231   21.8310 H   0  0  0  0  0  0
  -25.2773   -9.5664   22.4757 H   0  0  0  0  0  0
  -24.0000   -7.4623   22.7466 H   0  0  0  0  0  0
  -21.0841   -8.8793   19.8963 H   0  0  0  0  0  0
  -22.3712  -10.9681   19.6175 H   0  0  0  0  0  0
  -21.2014   -7.6148   23.9719 H   0  0  0  0  0  0
  -21.1477   -6.0521   25.9077 H   0  0  0  0  0  0
  -22.0599   -2.7609   23.2851 H   0  0  0  0  0  0
  -22.4098  -11.9883   22.4822 H   0  0  0  0  0  0
  -21.1115  -13.1254   22.2658 H   0  0  0  0  0  0
  -24.6500  -15.8408   20.5070 H   0  0  0  0  0  0
  -26.2601  -15.6291   20.0479 H   0  0  0  0  0  0
  -26.7147  -32.5487   23.1125 H   0  0  0  0  0  0
  -25.0076  -33.9750   25.0459 H   0  0  0  0  0  0
  -22.7052  -31.3043   21.4030 H   0  0  0  0  0  0
  -23.3741  -35.9629   23.3308 H   0  0  0  0  0  0
  -24.3576  -36.8900   22.2042 H   0  0  0  0  0  0
  -23.7227  -37.6512   23.6624 H   0  0  0  0  0  0
  -26.0679  -31.5682   20.5998 H   0  0  0  0  0  0
  -26.8324  -30.8613   21.9954 H   0  0  0  0  0  0
  -28.1144  -29.0256   21.1951 H   0  0  0  0  0  0
  -26.0407  -25.9288   19.0357 H   0  0  0  0  0  0
  -23.9775  -27.2887   19.0298 H   0  0  0  0  0  0
  -23.7459  -30.5887   19.4027 H   0  0  0  0  0  0
  -22.7499  -29.2404   19.8645 H   0  0  0  0  0  0
  -25.1286  -36.1980   25.0828 H   0  0  0  0  0  0
  -20.9961  -28.3281   24.1428 H   0  0  0  0  0  0
  -20.5654  -26.2321   23.3643 H   0  0  0  0  0  0
  -21.6646  -26.7451   22.1256 H   0  0  0  0  0  0
  -19.6920  -25.6304   21.1269 H   0  0  0  0  0  0
  -19.6704  -27.3188   20.6736 H   0  0  0  0  0  0
  -17.4214  -26.6700   21.4013 H   0  0  0  0  0  0
  -18.0318  -26.0062   22.8996 H   0  0  0  0  0  0
  -19.7933  -30.7267   24.2304 H   0  0  0  0  0  0
  -17.5015  -31.6282   24.5171 H   0  0  0  0  0  0
  -15.5358  -30.3019   23.7641 H   0  0  0  0  0  0
  -15.8661  -28.0838   22.7090 H   0  0  0  0  0  0
  -24.5955  -30.6978   25.7795 H   0  0  0  0  0  0
  -24.8807  -32.2853   26.4795 H   0  0  0  0  0  0
  -25.8060  -30.8986   27.0263 H   0  0  0  0  0  0
  -26.2872  -29.6801   24.1148 H   0  0  0  0  0  0
  -27.3981  -29.7267   25.4648 H   0  0  0  0  0  0
  -27.8748  -30.4313   23.9375 H   0  0  0  0  0  0
  -27.2692  -33.3639   26.2035 H   0  0  0  0  0  0
  -28.3900  -32.6796   25.0362 H   0  0  0  0  0  0
  -28.0627  -31.8427   26.5462 H   0  0  0  0  0  0
  -28.2619  -38.0085   24.7527 H   0  0  0  0  0  0
  -28.1062  -36.2630   24.6293 H   0  0  0  0  0  0
  -27.2299  -37.1467   25.8870 H   0  0  0  0  0  0
  -20.9342  -29.8754   21.6893 H   0  0  0  0  0  0
  -26.0181  -38.2880   24.1406 H   0  0  0  0  0  0
  -28.6121  -17.9823   19.9645 H   0  0  0  0  0  0
  -31.6766  -20.7465   21.2452 H   0  0  0  0  0  0
  -32.2141  -16.5617   21.9079 H   0  0  0  0  0  0
  -28.1843  -26.0982   22.1018 H   0  0  0  0  0  0
  -27.5762  -23.2080   22.7063 H   0  0  0  0  0  0
  -29.0760  -23.9658   23.2379 H   0  0  0  0  0  0
  -29.6291  -23.6098   19.3635 H   0  0  0  0  0  0
  -27.9248  -23.1464   19.3967 H   0  0  0  0  0  0
  -28.9404  -21.2785   22.6337 H   0  0  0  0  0  0
  -30.3927  -22.2289   22.3174 H   0  0  0  0  0  0
  -28.9228  -15.5106   20.8562 H   0  0  0  0  0  0
  1 25  1  0  0  0
  1 30  2  0  0  0
  1 84  1  0  0  0
  2  3  1  0  0  0
  2 25  1  0  0  0
  2 87  1  0  0  0
  2 88  1  0  0  0
  3  4  1  0  0  0
  3 89  1  0  0  0
  3 90  1  0  0  0
  4  5  1  0  0  0
  4 91  1  0  0  0
  4 92  1  0  0  0
  5  6  1  0  0  0
  5 26  1  0  0  0
  5 93  1  0  0  0
  6 25  1  0  0  0
  6 94  1  0  0  0
  6 95  1  0  0  0
  7  8  2  0  0  0
  7 26  1  0  0  0
  7 29  1  0  0  0
  8  9  1  0  0  0
  8 22  1  0  0  0
  9 10  1  0  0  0
  9 27  2  0  0  0
 10 11  2  0  0  0
 10 15  1  0  0  0
 11 12  1  0  0  0
 11 96  1  0  0  0
 12 13  2  0  0  0
 12 97  1  0  0  0
 13 14  1  0  0  0
 13 31  1  0  0  0
 14 15  2  0  0  0
 14 98  1  0  0  0
 15 99  1  0  0  0
 16 17  2  0  0  0
 16 21  1  0  0  0
 16 31  1  0  0  0
 17 18  1  0  0  0
 17100  1  0  0  0
 18 19  2  0  0  0
 18101  1  0  0  0
 19 20  1  0  0  0
 19 24  1  0  0  0
 20 21  2  0  0  0
 20102  1  0  0  0
 21 23  1  0  0  0
 22 28  1  0  0  0
 22 32  2  0  0  0
 26 27  1  0  0  0
 28103  1  0  0  0
 28104  1  0  0  0
 29105  1  0  0  0
 29106  1  0  0  0
 33 34  1  0  0  0
 33 66  1  0  0  0
 33 70  2  0  0  0
 34 36  1  0  0  0
 34 59  1  0  0  0
 34107  1  0  0  0
 35 44  2  0  0  0
 35 45  1  0  0  0
 35 68  1  0  0  0
 36 56  1  0  0  0
 36108  1  0  0  0
 37 39  1  0  0  0
 37 47  1  0  0  0
 37 66  1  0  0  0
 37109  1  0  0  0
 38 43  2  0  0  0
 38 46  1  0  0  0
 38 47  1  0  0  0
 39 64  1  0  0  0
 39 67  2  0  0  0
 40 52  1  0  0  0
 40 53  2  0  0  0
 40 58  1  0  0  0
 41110  1  0  0  0
 41111  1  0  0  0
 41112  1  0  0  0
 41 48  1  0  0  0
 42 43  1  0  0  0
 42 66  1  0  0  0
 42113  1  0  0  0
 42114  1  0  0  0
 43 44  1  0  0  0
 44115  1  0  0  0
 45 46  2  0  0  0
 45116  1  0  0  0
 46117  1  0  0  0
 47118  1  0  0  0
 47119  1  0  0  0
 48 56  1  0  0  0
 48 65  1  0  0  0
 48120  1  0  0  0
 49 50  1  0  0  0
 49 53  1  0  0  0
 49 64  1  0  0  0
 49121  1  0  0  0
 50 51  1  0  0  0
 50122  1  0  0  0
 50123  1  0  0  0
 51 52  1  0  0  0
 51124  1  0  0  0
 51125  1  0  0  0
 52126  1  0  0  0
 52127  1  0  0  0
 53 54  1  0  0  0
 54 55  2  0  0  0
 54128  1  0  0  0
 55 57  1  0  0  0
 55129  1  0  0  0
 56 69  2  0  0  0
 57 58  2  0  0  0
 57130  1  0  0  0
 58131  1  0  0  0
 59 60  1  0  0  0
 59 61  1  0  0  0
 59 62  1  0  0  0
 60132  1  0  0  0
 60133  1  0  0  0
 60134  1  0  0  0
 61135  1  0  0  0
 61136  1  0  0  0
 61137  1  0  0  0
 62138  1  0  0  0
 62139  1  0  0  0
 62140  1  0  0  0
 63 65  1  0  0  0
 63141  1  0  0  0
 63142  1  0  0  0
 63143  1  0  0  0
 64144  1  0  0  0
 65145  1  0  0  0
 68 78  1  0  0  0
 71 74  2  0  0  0
 71 75  1  0  0  0
 71146  1  0  0  0
 72 74  1  0  0  0
 72 76  2  0  0  0
 72147  1  0  0  0
 73 75  2  0  0  0
 73 76  1  0  0  0
 73148  1  0  0  0
 74 79  1  0  0  0
 75 84  1  0  0  0
 76 86  1  0  0  0
 77 78  2  0  0  0
 77 80  1  0  0  0
 77 81  1  0  0  0
 78149  1  0  0  0
 79 83  1  0  0  0
 79 85  2  0  0  0
 80 82  1  0  0  0
 80150  1  0  0  0
 80151  1  0  0  0
 81 83  1  0  0  0
 81152  1  0  0  0
 81153  1  0  0  0
 82 83  1  0  0  0
 82154  1  0  0  0
 82155  1  0  0  0
 84156  1  0  0  0
M  ISO  4   1 100  68 101  78 101  84 100
M  END
> <chiral flag>
0

> <version>
0

> <s_m_source_file>
/data/baiqing/PycharmProjects/Reinvent-master-3.2/result/LINK_invent/BTK/process_docking_weight1_custom_product_contain_oxygen_bond_distance_aromatic_linkinvent_7_9_3/rearranged_h_0097.sdf

> <i_m_source_file_index>
20

> <r_mmod_Potential_Energy-OPLS-2005>
86.8809356689453

> <r_mmod_Stretch_Energy-OPLS-2005>
59.3105354309082

> <r_mmod_Bend_Energy-OPLS-2005>
139.155166625977

> <r_mmod_Torsional_Energy-OPLS-2005>
300.254089355469

> <r_mmod_Improper_Torsional_Energy-OPLS-2005>
6.67961406707764

> <r_mmod_Van_der_Waal_Energy-OPLS-2005>
141.260147094727

> <r_mmod_Electrostatic_Energy-OPLS-2005>
-370.173919677734

> <r_mmod_Solvation_Energy-OPLS-2005>
-223.556518554688

> <b_mmod_Minimization_Converged-OPLS-2005>
0

> <r_mmod_RMS_Derivative-OPLS-2005>
1.63750028610229

$$$$
20
                    3D
 Structure written by MMmdl.
160168  0  0  1  0            999 V2000
  -30.7475  -14.4997   20.4732 C   0  0  0  0  0  0
  -30.3925  -12.2964   19.4521 C   0  0  0  0  0  0
  -29.4892  -12.4762   18.2174 C   0  0  0  0  0  0
  -28.0113  -12.3492   18.6285 C   0  0  0  0  0  0
  -27.6489  -13.2250   19.8592 C   0  0  2  0  0  0
  -28.6927  -13.0999   20.9927 C   0  0  0  0  0  0
  -25.2535  -13.8199   20.5658 C   0  0  0  0  0  0
  -24.1822  -13.0460   20.9212 C   0  0  0  0  0  0
  -24.6401  -11.6936   20.8760 C   0  0  0  0  0  0
  -23.9068  -10.4310   21.0420 C   0  0  0  0  0  0
  -24.3619   -9.4215   21.9186 C   0  0  0  0  0  0
  -23.6296   -8.2248   22.0754 C   0  0  0  0  0  0
  -22.4277   -8.0286   21.3546 C   0  0  0  0  0  0
  -21.9918   -9.0262   20.4649 C   0  0  0  0  0  0
  -22.7248  -10.2142   20.3060 C   0  0  0  0  0  0
  -21.6853   -6.0735   22.5276 C   0  0  0  0  0  0
  -21.4022   -6.5642   23.8207 C   0  0  0  0  0  0
  -21.3647   -5.6796   24.9171 C   0  0  0  0  0  0
  -21.6043   -4.3056   24.7223 C   0  0  0  0  0  0
  -21.8821   -3.8146   23.4343 C   0  0  0  0  0  0
  -21.9196   -4.6964   22.3401 C   0  0  0  0  0  0
  -22.7839  -13.5240   21.1858 C   0  0  0  0  0  0
  -22.1667   -4.2150   21.0979 F   0  0  0  0  0  0
  -21.5627   -3.4539   25.7732 F   0  0  0  0  0  0
  -30.0190  -13.3498   20.4151 N   0  0  0  0  0  0
  -26.2969  -12.9408   20.3308 N   0  0  0  0  0  0
  -25.9332  -11.6549   20.5770 N   0  0  0  0  0  0
  -22.0485  -12.8226   22.0415 N   0  0  0  0  0  0
  -25.4234  -15.1906   20.3984 N   0  0  0  0  0  0
  -31.9346  -14.4806   20.1452 O   0  0  0  0  0  0
  -21.6644   -6.8882   21.4239 O   0  0  0  0  0  0
  -22.3520  -14.5538   20.6694 O   0  0  0  0  0  0
  -24.6171  -31.8660   23.2098 C   0  0  0  0  0  0
  -25.9073  -32.4806   23.8385 C   0  0  1  0  0  0
  -27.2201  -27.4098   20.0987 C   0  0  0  0  0  0
  -25.5944  -33.8601   24.2328 N   0  0  0  0  0  0
  -23.4036  -30.4929   21.5498 C   0  0  2  0  0  0
  -24.8450  -28.9564   20.1127 C   0  0  0  0  0  0
  -22.7424  -29.4654   22.4958 C   0  0  0  0  0  0
  -18.0283  -28.1371   22.8506 C   0  0  0  0  0  0
  -24.1486  -36.7286   23.2637 C   0  0  0  0  0  0
  -25.9348  -30.8247   21.3656 C   0  0  0  0  0  0
  -26.0070  -29.4593   20.7094 C   0  0  0  0  0  0
  -27.1954  -28.6940   20.6961 C   0  0  0  0  0  0
  -26.0307  -26.9212   19.5066 C   0  0  0  0  0  0
  -24.8526  -27.6880   19.5107 C   0  0  0  0  0  0
  -23.6127  -29.8297   20.1626 C   0  0  0  0  0  0
  -25.4115  -36.3098   24.0333 C   0  0  1  0  0  0
  -20.5879  -28.3660   23.1306 C   0  0  2  0  0  0
  -20.6769  -26.9391   22.5415 C   0  0  0  0  0  0
  -19.5744  -26.6380   21.5211 C   0  0  0  0  0  0
  -18.1920  -26.7915   22.1626 C   0  0  0  0  0  0
  -19.1537  -28.8828   23.2901 C   0  0  0  0  0  0
  -18.9468  -30.1440   23.8902 C   0  0  0  0  0  0
  -17.6463  -30.6570   24.0572 C   0  0  0  0  0  0
  -25.9057  -34.9457   23.5119 C   0  0  0  0  0  0
  -16.5353  -29.9082   23.6320 C   0  0  0  0  0  0
  -16.7273  -28.6500   23.0347 C   0  0  0  0  0  0
  -26.4507  -31.6584   25.0708 C   0  0  0  0  0  0
  -25.3788  -31.3693   26.1468 C   0  0  0  0  0  0
  -27.0312  -30.3013   24.6065 C   0  0  0  0  0  0
  -27.6074  -32.4309   25.7481 C   0  0  0  0  0  0
  -27.5576  -37.1794   24.8468 C   0  0  0  0  0  0
  -21.4147  -29.3019   22.3690 N   0  0  0  0  0  0
  -26.4289  -37.3789   23.9411 N   0  0  0  0  0  0
  -24.6704  -31.0772   22.1001 N   0  0  0  0  0  0
  -23.4191  -28.8200   23.3000 O   0  0  0  0  0  0
  -28.4016  -26.6894   20.1219 O   0  0  0  0  0  0
  -26.5591  -34.8917   22.4672 O   0  0  0  0  0  0
  -23.5368  -32.1412   23.7502 O   0  0  0  0  0  0
  -28.3433  -18.1711   20.7091 C   0  0  0  0  0  0
  -27.6466  -19.4019   20.7995 C   0  0  0  0  0  0
  -30.4310  -19.4009   20.8010 C   0  0  0  0  0  0
  -29.7556  -18.1578   20.6899 C   0  0  0  0  0  0
  -28.3315  -20.6389   20.8628 C   0  0  0  0  0  0
  -29.7464  -20.6357   20.9161 C   0  0  0  0  0  0
  -30.5845  -16.9099   20.4336 C   0  0  0  0  0  0
  -31.6444  -22.8008   22.8300 C   0  0  0  0  0  0
  -27.9429  -24.2531   20.5907 C   0  0  0  0  0  0
  -31.7045  -21.9383   21.5702 C   0  0  0  0  0  0
  -28.4441  -25.3446   19.6074 C   0  0  0  0  0  0
  -27.8919  -22.8372   19.9569 C   0  0  0  0  0  0
  -30.0795  -15.6676   20.6866 N   0  0  0  0  0  0
  -31.7257  -17.1123   19.9981 O   0  0  0  0  0  0
  -27.5960  -21.8114   20.9222 O   0  0  0  0  0  0
  -30.3836  -21.8538   21.0421 O   0  0  0  0  0  0
  -31.4427  -12.3245   19.1556 H   0  0  0  0  0  0
  -30.2420  -11.3094   19.8945 H   0  0  0  0  0  0
  -29.7303  -11.7293   17.4604 H   0  0  0  0  0  0
  -29.6663  -13.4503   17.7591 H   0  0  0  0  0  0
  -27.8270  -11.2982   18.8530 H   0  0  0  0  0  0
  -27.3611  -12.5950   17.7879 H   0  0  0  0  0  0
  -27.6679  -14.2573   19.5109 H   0  0  0  0  0  0
  -28.6615  -12.1042   21.4378 H   0  0  0  0  0  0
  -28.4709  -13.7992   21.8001 H   0  0  0  0  0  0
  -25.2766   -9.5682   22.4759 H   0  0  0  0  0  0
  -24.0005   -7.4632   22.7464 H   0  0  0  0  0  0
  -21.0853   -8.8774   19.8945 H   0  0  0  0  0  0
  -22.3702  -10.9680   19.6162 H   0  0  0  0  0  0
  -21.2006   -7.6149   23.9707 H   0  0  0  0  0  0
  -21.1474   -6.0526   25.9072 H   0  0  0  0  0  0
  -22.0607   -2.7610   23.2841 H   0  0  0  0  0  0
  -22.4117  -11.9888   22.4793 H   0  0  0  0  0  0
  -21.1093  -13.1230   22.2619 H   0  0  0  0  0  0
  -24.6415  -15.8334   20.4640 H   0  0  0  0  0  0
  -26.2420  -15.6063   19.9761 H   0  0  0  0  0  0
  -26.7140  -32.5499   23.1135 H   0  0  0  0  0  0
  -25.0154  -33.9781   25.0513 H   0  0  0  0  0  0
  -22.6926  -31.3103   21.4143 H   0  0  0  0  0  0
  -23.3747  -35.9617   23.3315 H   0  0  0  0  0  0
  -24.3592  -36.8886   22.2050 H   0  0  0  0  0  0
  -23.7214  -37.6486   23.6639 H   0  0  0  0  0  0
  -26.0555  -31.5935   20.6022 H   0  0  0  0  0  0
  -26.8195  -30.8718   21.9885 H   0  0  0  0  0  0
  -28.0957  -29.0818   21.1534 H   0  0  0  0  0  0
  -25.9768  -25.9474   19.0454 H   0  0  0  0  0  0
  -23.9549  -27.2914   19.0560 H   0  0  0  0  0  0
  -23.7295  -30.6075   19.4069 H   0  0  0  0  0  0
  -22.7342  -29.2565   19.8604 H   0  0  0  0  0  0
  -25.1295  -36.1962   25.0821 H   0  0  0  0  0  0
  -20.9977  -28.3210   24.1424 H   0  0  0  0  0  0
  -20.5669  -26.2250   23.3599 H   0  0  0  0  0  0
  -21.6639  -26.7430   22.1207 H   0  0  0  0  0  0
  -19.6907  -25.6300   21.1220 H   0  0  0  0  0  0
  -19.6687  -27.3214   20.6761 H   0  0  0  0  0  0
  -17.4200  -26.6682   21.4021 H   0  0  0  0  0  0
  -18.0332  -26.0041   22.9010 H   0  0  0  0  0  0
  -19.7942  -30.7266   24.2239 H   0  0  0  0  0  0
  -17.5020  -31.6246   24.5189 H   0  0  0  0  0  0
  -15.5354  -30.2992   23.7618 H   0  0  0  0  0  0
  -15.8679  -28.0822   22.7040 H   0  0  0  0  0  0
  -24.5959  -30.7046   25.7816 H   0  0  0  0  0  0
  -24.8997  -32.2848   26.4932 H   0  0  0  0  0  0
  -25.8176  -30.8857   27.0204 H   0  0  0  0  0  0
  -26.2826  -29.6770   24.1158 H   0  0  0  0  0  0
  -27.4136  -29.7250   25.4502 H   0  0  0  0  0  0
  -27.8659  -30.4333   23.9171 H   0  0  0  0  0  0
  -27.2690  -33.3608   26.2061 H   0  0  0  0  0  0
  -28.3877  -32.6858   25.0305 H   0  0  0  0  0  0
  -28.0723  -31.8417   26.5393 H   0  0  0  0  0  0
  -28.2598  -38.0090   24.7521 H   0  0  0  0  0  0
  -28.1075  -36.2619   24.6298 H   0  0  0  0  0  0
  -27.2301  -37.1442   25.8877 H   0  0  0  0  0  0
  -20.9290  -29.8751   21.6933 H   0  0  0  0  0  0
  -26.0169  -38.2857   24.1452 H   0  0  0  0  0  0
  -27.7837  -17.2512   20.6178 H   0  0  0  0  0  0
  -26.5668  -19.3987   20.7889 H   0  0  0  0  0  0
  -31.5071  -19.3928   20.7443 H   0  0  0  0  0  0
  -32.6438  -22.9767   23.2283 H   0  0  0  0  0  0
  -31.0537  -22.3119   23.6064 H   0  0  0  0  0  0
  -31.1933  -23.7710   22.6230 H   0  0  0  0  0  0
  -26.9527  -24.5139   20.9649 H   0  0  0  0  0  0
  -28.6025  -24.2360   21.4591 H   0  0  0  0  0  0
  -32.1688  -20.9920   21.8356 H   0  0  0  0  0  0
  -32.3469  -22.4066   20.8237 H   0  0  0  0  0  0
  -27.9504  -25.2743   18.6377 H   0  0  0  0  0  0
  -29.4916  -25.1350   19.3951 H   0  0  0  0  0  0
  -28.8080  -22.6408   19.3998 H   0  0  0  0  0  0
  -27.0992  -22.8144   19.2089 H   0  0  0  0  0  0
  -29.1236  -15.6085   20.9890 H   0  0  0  0  0  0
  1 25  1  0  0  0
  1 30  2  0  0  0
  1 83  1  0  0  0
  2  3  1  0  0  0
  2 25  1  0  0  0
  2 87  1  0  0  0
  2 88  1  0  0  0
  3  4  1  0  0  0
  3 89  1  0  0  0
  3 90  1  0  0  0
  4  5  1  0  0  0
  4 91  1  0  0  0
  4 92  1  0  0  0
  5  6  1  0  0  0
  5 26  1  0  0  0
  5 93  1  0  0  0
  6 25  1  0  0  0
  6 94  1  0  0  0
  6 95  1  0  0  0
  7  8  2  0  0  0
  7 26  1  0  0  0
  7 29  1  0  0  0
  8  9  1  0  0  0
  8 22  1  0  0  0
  9 10  1  0  0  0
  9 27  2  0  0  0
 10 11  2  0  0  0
 10 15  1  0  0  0
 11 12  1  0  0  0
 11 96  1  0  0  0
 12 13  2  0  0  0
 12 97  1  0  0  0
 13 14  1  0  0  0
 13 31  1  0  0  0
 14 15  2  0  0  0
 14 98  1  0  0  0
 15 99  1  0  0  0
 16 17  2  0  0  0
 16 21  1  0  0  0
 16 31  1  0  0  0
 17 18  1  0  0  0
 17100  1  0  0  0
 18 19  2  0  0  0
 18101  1  0  0  0
 19 20  1  0  0  0
 19 24  1  0  0  0
 20 21  2  0  0  0
 20102  1  0  0  0
 21 23  1  0  0  0
 22 28  1  0  0  0
 22 32  2  0  0  0
 26 27  1  0  0  0
 28103  1  0  0  0
 28104  1  0  0  0
 29105  1  0  0  0
 29106  1  0  0  0
 33 34  1  0  0  0
 33 66  1  0  0  0
 33 70  2  0  0  0
 34 36  1  0  0  0
 34 59  1  0  0  0
 34107  1  0  0  0
 35 44  2  0  0  0
 35 45  1  0  0  0
 35 68  1  0  0  0
 36 56  1  0  0  0
 36108  1  0  0  0
 37 39  1  0  0  0
 37 47  1  0  0  0
 37 66  1  0  0  0
 37109  1  0  0  0
 38 43  2  0  0  0
 38 46  1  0  0  0
 38 47  1  0  0  0
 39 64  1  0  0  0
 39 67  2  0  0  0
 40 52  1  0  0  0
 40 53  2  0  0  0
 40 58  1  0  0  0
 41110  1  0  0  0
 41111  1  0  0  0
 41112  1  0  0  0
 41 48  1  0  0  0
 42 43  1  0  0  0
 42 66  1  0  0  0
 42113  1  0  0  0
 42114  1  0  0  0
 43 44  1  0  0  0
 44115  1  0  0  0
 45 46  2  0  0  0
 45116  1  0  0  0
 46117  1  0  0  0
 47118  1  0  0  0
 47119  1  0  0  0
 48 56  1  0  0  0
 48 65  1  0  0  0
 48120  1  0  0  0
 49 50  1  0  0  0
 49 53  1  0  0  0
 49 64  1  0  0  0
 49121  1  0  0  0
 50 51  1  0  0  0
 50122  1  0  0  0
 50123  1  0  0  0
 51 52  1  0  0  0
 51124  1  0  0  0
 51125  1  0  0  0
 52126  1  0  0  0
 52127  1  0  0  0
 53 54  1  0  0  0
 54 55  2  0  0  0
 54128  1  0  0  0
 55 57  1  0  0  0
 55129  1  0  0  0
 56 69  2  0  0  0
 57 58  2  0  0  0
 57130  1  0  0  0
 58131  1  0  0  0
 59 60  1  0  0  0
 59 61  1  0  0  0
 59 62  1  0  0  0
 60132  1  0  0  0
 60133  1  0  0  0
 60134  1  0  0  0
 61135  1  0  0  0
 61136  1  0  0  0
 61137  1  0  0  0
 62138  1  0  0  0
 62139  1  0  0  0
 62140  1  0  0  0
 63 65  1  0  0  0
 63141  1  0  0  0
 63142  1  0  0  0
 63143  1  0  0  0
 64144  1  0  0  0
 65145  1  0  0  0
 68 81  1  0  0  0
 71 72  2  0  0  0
 71 74  1  0  0  0
 71146  1  0  0  0
 72 75  1  0  0  0
 72147  1  0  0  0
 73 74  2  0  0  0
 73 76  1  0  0  0
 73148  1  0  0  0
 74 77  1  0  0  0
 75 76  2  0  0  0
 75 85  1  0  0  0
 76 86  1  0  0  0
 77 83  1  0  0  0
 77 84  2  0  0  0
 78 80  1  0  0  0
 78149  1  0  0  0
 78150  1  0  0  0
 78151  1  0  0  0
 79 81  1  0  0  0
 79 82  1  0  0  0
 79152  1  0  0  0
 79153  1  0  0  0
 80 86  1  0  0  0
 80154  1  0  0  0
 80155  1  0  0  0
 81156  1  0  0  0
 81157  1  0  0  0
 82 85  1  0  0  0
 82158  1  0  0  0
 82159  1  0  0  0
 83160  1  0  0  0
M  ISO  4   1 100  68 101  81 101  83 100
M  END
> <chiral flag>
0

> <version>
0

> <s_m_source_file>
/data/baiqing/PycharmProjects/Reinvent-master-3.2/result/LINK_invent/BTK/process_docking_weight1_custom_product_contain_oxygen_bond_distance_aromatic_linkinvent_7_9_3/rearranged_h_0097.sdf

> <i_m_source_file_index>
21

> <r_mmod_Potential_Energy-OPLS-2005>
-70.4898223876953

> <r_mmod_Stretch_Energy-OPLS-2005>
43.8218841552734

> <r_mmod_Bend_Energy-OPLS-2005>
127.472023010254

> <r_mmod_Torsional_Energy-OPLS-2005>
235.135787963867

> <r_mmod_Improper_Torsional_Energy-OPLS-2005>
5.86949396133423

> <r_mmod_Van_der_Waal_Energy-OPLS-2005>
175.917221069336

> <r_mmod_Electrostatic_Energy-OPLS-2005>
-457.211303710938

> <r_mmod_Solvation_Energy-OPLS-2005>
-229.749069213867

> <b_mmod_Minimization_Converged-OPLS-2005>
0

> <r_mmod_RMS_Derivative-OPLS-2005>
2.41896104812622

$$$$
21
                    3D
 Structure written by MMmdl.
163172  0  0  1  0            999 V2000
  -30.7119  -14.4964   20.6157 C   0  0  0  0  0  0
  -30.4288  -12.3416   19.4229 C   0  0  0  0  0  0
  -29.5011  -12.5211   18.2044 C   0  0  0  0  0  0
  -28.0236  -12.3660   18.6171 C   0  0  0  0  0  0
  -27.6590  -13.2115   19.8678 C   0  0  2  0  0  0
  -28.7009  -13.0138   20.9911 C   0  0  0  0  0  0
  -25.2560  -13.8175   20.5665 C   0  0  0  0  0  0
  -24.1809  -13.0447   20.9177 C   0  0  0  0  0  0
  -24.6378  -11.6911   20.8745 C   0  0  0  0  0  0
  -23.9055  -10.4295   21.0430 C   0  0  0  0  0  0
  -24.3615   -9.4213   21.9212 C   0  0  0  0  0  0
  -23.6304   -8.2238   22.0765 C   0  0  0  0  0  0
  -22.4282   -8.0275   21.3554 C   0  0  0  0  0  0
  -21.9916   -9.0243   20.4662 C   0  0  0  0  0  0
  -22.7226  -10.2144   20.3068 C   0  0  0  0  0  0
  -21.6851   -6.0754   22.5298 C   0  0  0  0  0  0
  -21.4003   -6.5652   23.8235 C   0  0  0  0  0  0
  -21.3649   -5.6803   24.9192 C   0  0  0  0  0  0
  -21.6035   -4.3063   24.7219 C   0  0  0  0  0  0
  -21.8819   -3.8164   23.4337 C   0  0  0  0  0  0
  -21.9189   -4.6990   22.3413 C   0  0  0  0  0  0
  -22.7831  -13.5255   21.1846 C   0  0  0  0  0  0
  -22.1668   -4.2191   21.0981 F   0  0  0  0  0  0
  -21.5634   -3.4525   25.7719 F   0  0  0  0  0  0
  -30.0277  -13.3305   20.4373 N   0  0  0  0  0  0
  -26.3000  -12.9352   20.3320 N   0  0  0  0  0  0
  -25.9302  -11.6503   20.5713 N   0  0  0  0  0  0
  -22.0447  -12.8263   22.0402 N   0  0  0  0  0  0
  -25.4269  -15.1903   20.4073 N   0  0  0  0  0  0
  -31.8355  -14.6834   20.1423 O   0  0  0  0  0  0
  -21.6640   -6.8874   21.4242 O   0  0  0  0  0  0
  -22.3515  -14.5561   20.6688 O   0  0  0  0  0  0
  -24.6149  -31.8667   23.2074 C   0  0  0  0  0  0
  -25.9034  -32.4813   23.8380 C   0  0  1  0  0  0
  -27.2417  -27.4185   20.1099 C   0  0  0  0  0  0
  -25.5886  -33.8613   24.2314 N   0  0  0  0  0  0
  -23.4046  -30.4879   21.5478 C   0  0  2  0  0  0
  -24.8538  -28.9461   20.1192 C   0  0  0  0  0  0
  -22.7416  -29.4655   22.4979 C   0  0  0  0  0  0
  -18.0276  -28.1388   22.8497 C   0  0  0  0  0  0
  -24.1481  -36.7304   23.2646 C   0  0  0  0  0  0
  -25.9350  -30.8296   21.3609 C   0  0  0  0  0  0
  -26.0147  -29.4612   20.7104 C   0  0  0  0  0  0
  -27.2124  -28.7080   20.6935 C   0  0  0  0  0  0
  -26.0630  -26.9159   19.5172 C   0  0  0  0  0  0
  -24.8747  -27.6739   19.5188 C   0  0  0  0  0  0
  -23.6150  -29.8130   20.1650 C   0  0  0  0  0  0
  -25.4107  -36.3111   24.0346 C   0  0  1  0  0  0
  -20.5866  -28.3665   23.1330 C   0  0  2  0  0  0
  -20.6764  -26.9401   22.5428 C   0  0  0  0  0  0
  -19.5741  -26.6392   21.5220 C   0  0  0  0  0  0
  -18.1922  -26.7937   22.1632 C   0  0  0  0  0  0
  -19.1527  -28.8843   23.2913 C   0  0  0  0  0  0
  -18.9452  -30.1447   23.8921 C   0  0  0  0  0  0
  -17.6451  -30.6593   24.0567 C   0  0  0  0  0  0
  -25.9028  -34.9473   23.5135 C   0  0  0  0  0  0
  -16.5342  -29.9094   23.6327 C   0  0  0  0  0  0
  -16.7261  -28.6518   23.0339 C   0  0  0  0  0  0
  -26.4461  -31.6602   25.0719 C   0  0  0  0  0  0
  -25.3715  -31.3714   26.1461 C   0  0  0  0  0  0
  -27.0286  -30.3046   24.6097 C   0  0  0  0  0  0
  -27.6050  -32.4314   25.7459 C   0  0  0  0  0  0
  -27.5581  -37.1804   24.8467 C   0  0  0  0  0  0
  -21.4139  -29.3029   22.3728 N   0  0  0  0  0  0
  -26.4297  -37.3794   23.9413 N   0  0  0  0  0  0
  -24.6696  -31.0758   22.0977 N   0  0  0  0  0  0
  -23.4191  -28.8214   23.3031 O   0  0  0  0  0  0
  -28.4177  -26.6922   20.1008 O   0  0  0  0  0  0
  -26.5597  -34.8935   22.4695 O   0  0  0  0  0  0
  -23.5331  -32.1423   23.7454 O   0  0  0  0  0  0
  -31.3991  -18.7263   20.6845 C   0  0  0  0  0  0
  -31.2709  -20.0806   20.3030 C   0  0  0  0  0  0
  -29.0581  -20.1397   21.2560 C   0  0  0  0  0  0
  -30.3765  -18.0547   21.3846 C   0  0  0  0  0  0
  -30.0977  -20.8384   20.5820 C   0  0  0  0  0  0
  -29.1868  -18.7816   21.6591 C   0  0  0  0  0  0
  -31.0087  -24.2463   19.0911 C   0  0  0  0  0  0
  -29.6780  -24.6008   18.4583 C   0  0  0  0  0  0
  -31.1515  -22.7841   19.5071 C   0  0  0  0  0  0
  -28.6246  -22.7663   19.9317 C   0  0  0  0  0  0
  -28.5402  -24.2603   19.4359 C   0  0  1  0  0  0
  -30.6699  -16.6431   21.9459 C   0  0  0  0  0  0
  -28.3834  -25.3233   20.5665 C   0  0  0  0  0  0
  -29.9815  -22.2206   20.2135 N   0  0  0  0  0  0
  -28.1349  -18.1920   22.3632 N   0  0  0  0  0  0
  -30.0647  -15.4627   21.2984 N   0  0  0  0  0  0
  -31.9046  -25.0774   19.2570 O   0  0  0  0  0  0
  -31.4717  -12.4514   19.1231 H   0  0  0  0  0  0
  -30.3420  -11.3323   19.8289 H   0  0  0  0  0  0
  -29.7593  -11.7984   17.4282 H   0  0  0  0  0  0
  -29.6573  -13.5084   17.7652 H   0  0  0  0  0  0
  -27.8470  -11.3092   18.8220 H   0  0  0  0  0  0
  -27.3686  -12.6266   17.7858 H   0  0  0  0  0  0
  -27.6989  -14.2566   19.5604 H   0  0  0  0  0  0
  -28.6888  -11.9843   21.3508 H   0  0  0  0  0  0
  -28.4475  -13.6227   21.8599 H   0  0  0  0  0  0
  -25.2775   -9.5705   22.4758 H   0  0  0  0  0  0
  -24.0053   -7.4629   22.7472 H   0  0  0  0  0  0
  -21.0858   -8.8727   19.8968 H   0  0  0  0  0  0
  -22.3686  -10.9657   19.6151 H   0  0  0  0  0  0
  -21.1982   -7.6164   23.9740 H   0  0  0  0  0  0
  -21.1477   -6.0536   25.9108 H   0  0  0  0  0  0
  -22.0603   -2.7622   23.2815 H   0  0  0  0  0  0
  -22.4059  -11.9939   22.4841 H   0  0  0  0  0  0
  -21.1063  -13.1301   22.2562 H   0  0  0  0  0  0
  -24.6636  -15.8461   20.5285 H   0  0  0  0  0  0
  -26.2907  -15.6363   20.1239 H   0  0  0  0  0  0
  -26.7108  -32.5522   23.1142 H   0  0  0  0  0  0
  -25.0012  -33.9768   25.0444 H   0  0  0  0  0  0
  -22.6946  -31.3054   21.4042 H   0  0  0  0  0  0
  -23.3743  -35.9638   23.3340 H   0  0  0  0  0  0
  -24.3560  -36.8875   22.2054 H   0  0  0  0  0  0
  -23.7235  -37.6527   23.6624 H   0  0  0  0  0  0
  -26.0469  -31.5942   20.5911 H   0  0  0  0  0  0
  -26.8234  -30.8854   21.9783 H   0  0  0  0  0  0
  -28.1114  -29.1058   21.1451 H   0  0  0  0  0  0
  -26.0573  -25.9423   19.0489 H   0  0  0  0  0  0
  -23.9808  -27.2721   19.0617 H   0  0  0  0  0  0
  -23.7247  -30.5846   19.4019 H   0  0  0  0  0  0
  -22.7396  -29.2305   19.8710 H   0  0  0  0  0  0
  -25.1281  -36.1982   25.0839 H   0  0  0  0  0  0
  -20.9970  -28.3228   24.1446 H   0  0  0  0  0  0
  -20.5684  -26.2261   23.3605 H   0  0  0  0  0  0
  -21.6629  -26.7455   22.1205 H   0  0  0  0  0  0
  -19.6902  -25.6311   21.1233 H   0  0  0  0  0  0
  -19.6691  -27.3216   20.6763 H   0  0  0  0  0  0
  -17.4195  -26.6690   21.4027 H   0  0  0  0  0  0
  -18.0322  -26.0078   22.9031 H   0  0  0  0  0  0
  -19.7922  -30.7250   24.2311 H   0  0  0  0  0  0
  -17.5008  -31.6271   24.5167 H   0  0  0  0  0  0
  -15.5343  -30.2997   23.7644 H   0  0  0  0  0  0
  -15.8666  -28.0844   22.7030 H   0  0  0  0  0  0
  -24.5844  -30.7134   25.7772 H   0  0  0  0  0  0
  -24.8955  -32.2876   26.4968 H   0  0  0  0  0  0
  -25.8045  -30.8807   27.0188 H   0  0  0  0  0  0
  -26.2830  -29.6805   24.1166 H   0  0  0  0  0  0
  -27.4077  -29.7294   25.4558 H   0  0  0  0  0  0
  -27.8656  -30.4373   23.9233 H   0  0  0  0  0  0
  -27.2697  -33.3609   26.2068 H   0  0  0  0  0  0
  -28.3828  -32.6880   25.0256 H   0  0  0  0  0  0
  -28.0758  -31.8413   26.5332 H   0  0  0  0  0  0
  -28.2618  -38.0086   24.7503 H   0  0  0  0  0  0
  -28.1052  -36.2612   24.6302 H   0  0  0  0  0  0
  -27.2288  -37.1477   25.8869 H   0  0  0  0  0  0
  -20.9308  -29.8716   21.6909 H   0  0  0  0  0  0
  -26.0188  -38.2880   24.1398 H   0  0  0  0  0  0
  -32.3238  -18.2116   20.4648 H   0  0  0  0  0  0
  -32.1245  -20.5104   19.7993 H   0  0  0  0  0  0
  -28.1442  -20.6545   21.5078 H   0  0  0  0  0  0
  -29.5736  -24.0157   17.5440 H   0  0  0  0  0  0
  -29.6619  -25.6519   18.1695 H   0  0  0  0  0  0
  -32.0381  -22.7094   20.1376 H   0  0  0  0  0  0
  -31.3484  -22.2105   18.5995 H   0  0  0  0  0  0
  -28.1673  -22.1266   19.1743 H   0  0  0  0  0  0
  -27.9964  -22.6804   20.8191 H   0  0  0  0  0  0
  -27.6198  -24.3200   18.8551 H   0  0  0  0  0  0
  -30.3468  -16.6339   22.9879 H   0  0  0  0  0  0
  -31.7530  -16.5116   22.0038 H   0  0  0  0  0  0
  -29.2009  -25.2156   21.2824 H   0  0  0  0  0  0
  -27.4726  -25.1311   21.1374 H   0  0  0  0  0  0
  -27.3645  -18.7601   22.7060 H   0  0  0  0  0  0
  -28.2623  -17.3237   22.8702 H   0  0  0  0  0  0
  -29.1135  -15.2517   21.5592 H   0  0  0  0  0  0
  1 25  1  0  0  0
  1 30  2  0  0  0
  1 86  1  0  0  0
  2  3  1  0  0  0
  2 25  1  0  0  0
  2 88  1  0  0  0
  2 89  1  0  0  0
  3  4  1  0  0  0
  3 90  1  0  0  0
  3 91  1  0  0  0
  4  5  1  0  0  0
  4 92  1  0  0  0
  4 93  1  0  0  0
  5  6  1  0  0  0
  5 26  1  0  0  0
  5 94  1  0  0  0
  6 25  1  0  0  0
  6 95  1  0  0  0
  6 96  1  0  0  0
  7  8  2  0  0  0
  7 26  1  0  0  0
  7 29  1  0  0  0
  8  9  1  0  0  0
  8 22  1  0  0  0
  9 10  1  0  0  0
  9 27  2  0  0  0
 10 11  2  0  0  0
 10 15  1  0  0  0
 11 12  1  0  0  0
 11 97  1  0  0  0
 12 13  2  0  0  0
 12 98  1  0  0  0
 13 14  1  0  0  0
 13 31  1  0  0  0
 14 15  2  0  0  0
 14 99  1  0  0  0
 15100  1  0  0  0
 16 17  2  0  0  0
 16 21  1  0  0  0
 16 31  1  0  0  0
 17 18  1  0  0  0
 17101  1  0  0  0
 18 19  2  0  0  0
 18102  1  0  0  0
 19 20  1  0  0  0
 19 24  1  0  0  0
 20 21  2  0  0  0
 20103  1  0  0  0
 21 23  1  0  0  0
 22 28  1  0  0  0
 22 32  2  0  0  0
 26 27  1  0  0  0
 28104  1  0  0  0
 28105  1  0  0  0
 29106  1  0  0  0
 29107  1  0  0  0
 33 34  1  0  0  0
 33 66  1  0  0  0
 33 70  2  0  0  0
 34 36  1  0  0  0
 34 59  1  0  0  0
 34108  1  0  0  0
 35 44  2  0  0  0
 35 45  1  0  0  0
 35 68  1  0  0  0
 36 56  1  0  0  0
 36109  1  0  0  0
 37 39  1  0  0  0
 37 47  1  0  0  0
 37 66  1  0  0  0
 37110  1  0  0  0
 38 43  2  0  0  0
 38 46  1  0  0  0
 38 47  1  0  0  0
 39 64  1  0  0  0
 39 67  2  0  0  0
 40 52  1  0  0  0
 40 53  2  0  0  0
 40 58  1  0  0  0
 41111  1  0  0  0
 41112  1  0  0  0
 41113  1  0  0  0
 41 48  1  0  0  0
 42 43  1  0  0  0
 42 66  1  0  0  0
 42114  1  0  0  0
 42115  1  0  0  0
 43 44  1  0  0  0
 44116  1  0  0  0
 45 46  2  0  0  0
 45117  1  0  0  0
 46118  1  0  0  0
 47119  1  0  0  0
 47120  1  0  0  0
 48 56  1  0  0  0
 48 65  1  0  0  0
 48121  1  0  0  0
 49 50  1  0  0  0
 49 53  1  0  0  0
 49 64  1  0  0  0
 49122  1  0  0  0
 50 51  1  0  0  0
 50123  1  0  0  0
 50124  1  0  0  0
 51 52  1  0  0  0
 51125  1  0  0  0
 51126  1  0  0  0
 52127  1  0  0  0
 52128  1  0  0  0
 53 54  1  0  0  0
 54 55  2  0  0  0
 54129  1  0  0  0
 55 57  1  0  0  0
 55130  1  0  0  0
 56 69  2  0  0  0
 57 58  2  0  0  0
 57131  1  0  0  0
 58132  1  0  0  0
 59 60  1  0  0  0
 59 61  1  0  0  0
 59 62  1  0  0  0
 60133  1  0  0  0
 60134  1  0  0  0
 60135  1  0  0  0
 61136  1  0  0  0
 61137  1  0  0  0
 61138  1  0  0  0
 62139  1  0  0  0
 62140  1  0  0  0
 62141  1  0  0  0
 63 65  1  0  0  0
 63142  1  0  0  0
 63143  1  0  0  0
 63144  1  0  0  0
 64145  1  0  0  0
 65146  1  0  0  0
 68 83  1  0  0  0
 71 72  2  0  0  0
 71 74  1  0  0  0
 71147  1  0  0  0
 72 75  1  0  0  0
 72148  1  0  0  0
 73 75  2  0  0  0
 73 76  1  0  0  0
 73149  1  0  0  0
 74 76  2  0  0  0
 74 82  1  0  0  0
 75 84  1  0  0  0
 76 85  1  0  0  0
 77 78  1  0  0  0
 77 79  1  0  0  0
 77 87  2  0  0  0
 78 81  1  0  0  0
 78150  1  0  0  0
 78151  1  0  0  0
 79 84  1  0  0  0
 79152  1  0  0  0
 79153  1  0  0  0
 80 81  1  0  0  0
 80 84  1  0  0  0
 80154  1  0  0  0
 80155  1  0  0  0
 81 83  1  0  0  0
 81156  1  0  0  0
 82 86  1  0  0  0
 82157  1  0  0  0
 82158  1  0  0  0
 83159  1  0  0  0
 83160  1  0  0  0
 85161  1  0  0  0
 85162  1  0  0  0
 86163  1  0  0  0
M  ISO  4   1 100  68 101  83 101  86 100
M  END
> <chiral flag>
0

> <version>
0

> <s_m_source_file>
/data/baiqing/PycharmProjects/Reinvent-master-3.2/result/LINK_invent/BTK/process_docking_weight1_custom_product_contain_oxygen_bond_distance_aromatic_linkinvent_7_9_3/rearranged_h_0097.sdf

> <i_m_source_file_index>
22

> <r_mmod_Potential_Energy-OPLS-2005>
-7.42049598693848

> <r_mmod_Stretch_Energy-OPLS-2005>
52.2483940124512

> <r_mmod_Bend_Energy-OPLS-2005>
125.434364318848

> <r_mmod_Torsional_Energy-OPLS-2005>
234.557189941406

> <r_mmod_Improper_Torsional_Energy-OPLS-2005>
6.39354467391968

> <r_mmod_Van_der_Waal_Energy-OPLS-2005>
161.514282226562

> <r_mmod_Electrostatic_Energy-OPLS-2005>
-354.109680175781

> <r_mmod_Solvation_Energy-OPLS-2005>
-248.758209228516

> <b_mmod_Minimization_Converged-OPLS-2005>
0

> <r_mmod_RMS_Derivative-OPLS-2005>
3.04934310913086

$$$$
22
                    3D
 Structure written by MMmdl.
158166  0  0  1  0            999 V2000
  -30.6214  -14.6251   20.5086 C   0  0  0  0  0  0
  -30.4422  -12.3843   19.4473 C   0  0  0  0  0  0
  -29.5082  -12.5073   18.2220 C   0  0  0  0  0  0
  -28.0305  -12.3463   18.6336 C   0  0  0  0  0  0
  -27.6559  -13.2117   19.8656 C   0  0  2  0  0  0
  -28.7014  -13.0517   20.9933 C   0  0  0  0  0  0
  -25.2576  -13.8160   20.5677 C   0  0  0  0  0  0
  -24.1839  -13.0437   20.9198 C   0  0  0  0  0  0
  -24.6396  -11.6905   20.8742 C   0  0  0  0  0  0
  -23.9057  -10.4292   21.0407 C   0  0  0  0  0  0
  -24.3610   -9.4207   21.9184 C   0  0  0  0  0  0
  -23.6287   -8.2243   22.0753 C   0  0  0  0  0  0
  -22.4271   -8.0281   21.3543 C   0  0  0  0  0  0
  -21.9901   -9.0254   20.4646 C   0  0  0  0  0  0
  -22.7228  -10.2135   20.3058 C   0  0  0  0  0  0
  -21.6853   -6.0733   22.5277 C   0  0  0  0  0  0
  -21.4015   -6.5636   23.8210 C   0  0  0  0  0  0
  -21.3659   -5.6791   24.9172 C   0  0  0  0  0  0
  -21.6045   -4.3053   24.7224 C   0  0  0  0  0  0
  -21.8820   -3.8144   23.4344 C   0  0  0  0  0  0
  -21.9192   -4.6960   22.3400 C   0  0  0  0  0  0
  -22.7862  -13.5238   21.1854 C   0  0  0  0  0  0
  -22.1663   -4.2145   21.0977 F   0  0  0  0  0  0
  -21.5627   -3.4538   25.7737 F   0  0  0  0  0  0
  -30.0193  -13.3967   20.4337 N   0  0  0  0  0  0
  -26.3001  -12.9330   20.3321 N   0  0  0  0  0  0
  -25.9322  -11.6491   20.5757 N   0  0  0  0  0  0
  -22.0497  -12.8235   22.0410 N   0  0  0  0  0  0
  -25.4292  -15.1877   20.4045 N   0  0  0  0  0  0
  -31.7798  -14.8015   20.1193 O   0  0  0  0  0  0
  -21.6639   -6.8876   21.4240 O   0  0  0  0  0  0
  -22.3554  -14.5545   20.6697 O   0  0  0  0  0  0
  -24.6257  -31.8611   23.2041 C   0  0  0  0  0  0
  -25.9109  -32.4786   23.8364 C   0  0  1  0  0  0
  -27.2263  -27.3301   20.1097 C   0  0  0  0  0  0
  -25.5927  -33.8587   24.2290 N   0  0  0  0  0  0
  -23.4186  -30.4864   21.5466 C   0  0  2  0  0  0
  -24.8648  -28.9458   20.1116 C   0  0  0  0  0  0
  -22.7471  -29.4634   22.4937 C   0  0  0  0  0  0
  -18.0287  -28.1384   22.8485 C   0  0  0  0  0  0
  -24.1488  -36.7296   23.2638 C   0  0  0  0  0  0
  -25.9603  -30.7956   21.3742 C   0  0  0  0  0  0
  -26.0351  -29.4250   20.7139 C   0  0  0  0  0  0
  -27.2190  -28.6297   20.7024 C   0  0  0  0  0  0
  -26.0286  -26.9036   19.4867 C   0  0  0  0  0  0
  -24.8632  -27.6897   19.4900 C   0  0  0  0  0  0
  -23.6328  -29.8243   20.1611 C   0  0  0  0  0  0
  -25.4113  -36.3088   24.0330 C   0  0  1  0  0  0
  -20.5886  -28.3689   23.1281 C   0  0  2  0  0  0
  -20.6775  -26.9412   22.5407 C   0  0  0  0  0  0
  -19.5751  -26.6386   21.5208 C   0  0  0  0  0  0
  -18.1933  -26.7928   22.1623 C   0  0  0  0  0  0
  -19.1540  -28.8851   23.2881 C   0  0  0  0  0  0
  -18.9463  -30.1452   23.8902 C   0  0  0  0  0  0
  -17.6464  -30.6585   24.0564 C   0  0  0  0  0  0
  -25.9049  -34.9456   23.5109 C   0  0  0  0  0  0
  -16.5355  -29.9085   23.6328 C   0  0  0  0  0  0
  -16.7274  -28.6502   23.0350 C   0  0  0  0  0  0
  -26.4496  -31.6591   25.0728 C   0  0  0  0  0  0
  -25.3735  -31.3726   26.1459 C   0  0  0  0  0  0
  -27.0338  -30.3017   24.6175 C   0  0  0  0  0  0
  -27.6057  -32.4324   25.7498 C   0  0  0  0  0  0
  -27.5578  -37.1806   24.8465 C   0  0  0  0  0  0
  -21.4185  -29.3047   22.3677 N   0  0  0  0  0  0
  -26.4293  -37.3779   23.9405 N   0  0  0  0  0  0
  -24.6870  -31.0633   22.0987 N   0  0  0  0  0  0
  -23.4198  -28.8170   23.3011 O   0  0  0  0  0  0
  -28.3476  -26.4843   20.1554 O   0  0  0  0  0  0
  -26.5614  -34.8920   22.4673 O   0  0  0  0  0  0
  -23.5422  -32.1405   23.7374 O   0  0  0  0  0  0
  -28.6649  -17.8478   20.9416 C   0  0  0  0  0  0
  -31.0114  -17.8737   20.4521 C   0  0  0  0  0  0
  -28.5994  -19.2734   20.8593 C   0  0  0  0  0  0
  -29.8562  -17.1055   20.7426 C   0  0  0  0  0  0
  -30.9627  -19.3006   20.3866 C   0  0  0  0  0  0
  -29.7690  -20.0579   20.5864 C   0  0  0  0  0  0
  -27.2710  -19.8465   21.1545 C   0  0  0  0  0  0
  -26.2537  -19.7855   20.0245 C   0  0  0  0  0  0
  -29.2592  -23.9828   20.3402 C   0  0  0  0  0  0
  -28.1035  -25.0288   20.0503 C   0  0  0  0  0  0
  -28.8259  -22.4511   20.4005 C   0  0  0  0  0  0
  -32.1399  -19.9983   20.1175 N   0  0  0  0  0  0
  -29.7951  -15.6503   20.8803 N   0  0  0  0  0  0
  -26.9601  -20.3314   22.2449 O   0  0  0  0  0  0
  -29.9097  -21.4721   20.5123 O   0  0  0  0  0  0
  -31.4827  -12.5133   19.1441 H   0  0  0  0  0  0
  -30.3788  -11.3856   19.8820 H   0  0  0  0  0  0
  -29.7696  -11.7595   17.4720 H   0  0  0  0  0  0
  -29.6515  -13.4790   17.7465 H   0  0  0  0  0  0
  -27.8644  -11.2922   18.8596 H   0  0  0  0  0  0
  -27.3766  -12.5826   17.7933 H   0  0  0  0  0  0
  -27.6781  -14.2486   19.5308 H   0  0  0  0  0  0
  -28.7107  -12.0245   21.3612 H   0  0  0  0  0  0
  -28.4474  -13.6703   21.8552 H   0  0  0  0  0  0
  -25.2756   -9.5683   22.4755 H   0  0  0  0  0  0
  -23.9998   -7.4633   22.7469 H   0  0  0  0  0  0
  -21.0832   -8.8768   19.8953 H   0  0  0  0  0  0
  -22.3681  -10.9672   19.6167 H   0  0  0  0  0  0
  -21.2010   -7.6146   23.9711 H   0  0  0  0  0  0
  -21.1481   -6.0522   25.9074 H   0  0  0  0  0  0
  -22.0599   -2.7606   23.2847 H   0  0  0  0  0  0
  -22.4110  -11.9896   22.4803 H   0  0  0  0  0  0
  -21.1117  -13.1265   22.2614 H   0  0  0  0  0  0
  -24.6493  -15.8313   20.4811 H   0  0  0  0  0  0
  -26.2524  -15.6084   19.9950 H   0  0  0  0  0  0
  -26.7179  -32.5460   23.1114 H   0  0  0  0  0  0
  -25.0078  -33.9732   25.0437 H   0  0  0  0  0  0
  -22.7121  -31.3070   21.4050 H   0  0  0  0  0  0
  -23.3748  -35.9633   23.3311 H   0  0  0  0  0  0
  -24.3579  -36.8905   22.2051 H   0  0  0  0  0  0
  -23.7246  -37.6504   23.6653 H   0  0  0  0  0  0
  -26.0920  -31.5615   20.6086 H   0  0  0  0  0  0
  -26.8408  -30.8416   22.0037 H   0  0  0  0  0  0
  -28.1170  -28.9940   21.1819 H   0  0  0  0  0  0
  -25.9556  -25.9469   18.9936 H   0  0  0  0  0  0
  -23.9666  -27.3166   19.0143 H   0  0  0  0  0  0
  -23.7521  -30.6022   19.4061 H   0  0  0  0  0  0
  -22.7530  -29.2541   19.8575 H   0  0  0  0  0  0
  -25.1293  -36.1944   25.0822 H   0  0  0  0  0  0
  -20.9982  -28.3264   24.1400 H   0  0  0  0  0  0
  -20.5671  -26.2299   23.3606 H   0  0  0  0  0  0
  -21.6645  -26.7439   22.1205 H   0  0  0  0  0  0
  -19.6914  -25.6298   21.1235 H   0  0  0  0  0  0
  -19.6688  -27.3198   20.6739 H   0  0  0  0  0  0
  -17.4199  -26.6670   21.4030 H   0  0  0  0  0  0
  -18.0340  -26.0069   22.9020 H   0  0  0  0  0  0
  -19.7939  -30.7263   24.2278 H   0  0  0  0  0  0
  -17.5019  -31.6266   24.5164 H   0  0  0  0  0  0
  -15.5356  -30.2989   23.7650 H   0  0  0  0  0  0
  -15.8675  -28.0821   22.7066 H   0  0  0  0  0  0
  -24.5906  -30.7078   25.7791 H   0  0  0  0  0  0
  -24.8933  -32.2891   26.4894 H   0  0  0  0  0  0
  -25.8065  -30.8898   27.0228 H   0  0  0  0  0  0
  -26.2911  -29.6769   24.1200 H   0  0  0  0  0  0
  -27.4041  -29.7268   25.4674 H   0  0  0  0  0  0
  -27.8779  -30.4305   23.9396 H   0  0  0  0  0  0
  -27.2668  -33.3619   26.2083 H   0  0  0  0  0  0
  -28.3864  -32.6893   25.0326 H   0  0  0  0  0  0
  -28.0732  -31.8447   26.5408 H   0  0  0  0  0  0
  -28.2604  -38.0095   24.7502 H   0  0  0  0  0  0
  -28.1066  -36.2627   24.6305 H   0  0  0  0  0  0
  -27.2296  -37.1473   25.8868 H   0  0  0  0  0  0
  -20.9358  -29.8776   21.6897 H   0  0  0  0  0  0
  -26.0176  -38.2857   24.1400 H   0  0  0  0  0  0
  -27.7591  -17.3062   21.1806 H   0  0  0  0  0  0
  -31.9544  -17.3696   20.2972 H   0  0  0  0  0  0
  -26.1280  -18.7586   19.6826 H   0  0  0  0  0  0
  -26.5873  -20.3928   19.1838 H   0  0  0  0  0  0
  -25.2870  -20.1592   20.3605 H   0  0  0  0  0  0
  -29.7349  -24.2404   21.2866 H   0  0  0  0  0  0
  -30.0296  -24.1018   19.5785 H   0  0  0  0  0  0
  -27.2761  -24.7831   20.7184 H   0  0  0  0  0  0
  -27.7597  -24.8157   19.0380 H   0  0  0  0  0  0
  -28.2382  -22.2108   19.5139 H   0  0  0  0  0  0
  -28.1682  -22.3609   21.2614 H   0  0  0  0  0  0
  -32.8604  -19.5349   19.5733 H   0  0  0  0  0  0
  -32.0227  -20.9760   19.8672 H   0  0  0  0  0  0
  -28.8993  -15.3028   21.1857 H   0  0  0  0  0  0
  1 25  1  0  0  0
  1 30  2  0  0  0
  1 83  1  0  0  0
  2  3  1  0  0  0
  2 25  1  0  0  0
  2 86  1  0  0  0
  2 87  1  0  0  0
  3  4  1  0  0  0
  3 88  1  0  0  0
  3 89  1  0  0  0
  4  5  1  0  0  0
  4 90  1  0  0  0
  4 91  1  0  0  0
  5  6  1  0  0  0
  5 26  1  0  0  0
  5 92  1  0  0  0
  6 25  1  0  0  0
  6 93  1  0  0  0
  6 94  1  0  0  0
  7  8  2  0  0  0
  7 26  1  0  0  0
  7 29  1  0  0  0
  8  9  1  0  0  0
  8 22  1  0  0  0
  9 10  1  0  0  0
  9 27  2  0  0  0
 10 11  2  0  0  0
 10 15  1  0  0  0
 11 12  1  0  0  0
 11 95  1  0  0  0
 12 13  2  0  0  0
 12 96  1  0  0  0
 13 14  1  0  0  0
 13 31  1  0  0  0
 14 15  2  0  0  0
 14 97  1  0  0  0
 15 98  1  0  0  0
 16 17  2  0  0  0
 16 21  1  0  0  0
 16 31  1  0  0  0
 17 18  1  0  0  0
 17 99  1  0  0  0
 18 19  2  0  0  0
 18100  1  0  0  0
 19 20  1  0  0  0
 19 24  1  0  0  0
 20 21  2  0  0  0
 20101  1  0  0  0
 21 23  1  0  0  0
 22 28  1  0  0  0
 22 32  2  0  0  0
 26 27  1  0  0  0
 28102  1  0  0  0
 28103  1  0  0  0
 29104  1  0  0  0
 29105  1  0  0  0
 33 34  1  0  0  0
 33 66  1  0  0  0
 33 70  2  0  0  0
 34 36  1  0  0  0
 34 59  1  0  0  0
 34106  1  0  0  0
 35 44  2  0  0  0
 35 45  1  0  0  0
 35 68  1  0  0  0
 36 56  1  0  0  0
 36107  1  0  0  0
 37 39  1  0  0  0
 37 47  1  0  0  0
 37 66  1  0  0  0
 37108  1  0  0  0
 38 43  2  0  0  0
 38 46  1  0  0  0
 38 47  1  0  0  0
 39 64  1  0  0  0
 39 67  2  0  0  0
 40 52  1  0  0  0
 40 53  2  0  0  0
 40 58  1  0  0  0
 41109  1  0  0  0
 41110  1  0  0  0
 41111  1  0  0  0
 41 48  1  0  0  0
 42 43  1  0  0  0
 42 66  1  0  0  0
 42112  1  0  0  0
 42113  1  0  0  0
 43 44  1  0  0  0
 44114  1  0  0  0
 45 46  2  0  0  0
 45115  1  0  0  0
 46116  1  0  0  0
 47117  1  0  0  0
 47118  1  0  0  0
 48 56  1  0  0  0
 48 65  1  0  0  0
 48119  1  0  0  0
 49 50  1  0  0  0
 49 53  1  0  0  0
 49 64  1  0  0  0
 49120  1  0  0  0
 50 51  1  0  0  0
 50121  1  0  0  0
 50122  1  0  0  0
 51 52  1  0  0  0
 51123  1  0  0  0
 51124  1  0  0  0
 52125  1  0  0  0
 52126  1  0  0  0
 53 54  1  0  0  0
 54 55  2  0  0  0
 54127  1  0  0  0
 55 57  1  0  0  0
 55128  1  0  0  0
 56 69  2  0  0  0
 57 58  2  0  0  0
 57129  1  0  0  0
 58130  1  0  0  0
 59 60  1  0  0  0
 59 61  1  0  0  0
 59 62  1  0  0  0
 60131  1  0  0  0
 60132  1  0  0  0
 60133  1  0  0  0
 61134  1  0  0  0
 61135  1  0  0  0
 61136  1  0  0  0
 62137  1  0  0  0
 62138  1  0  0  0
 62139  1  0  0  0
 63 65  1  0  0  0
 63140  1  0  0  0
 63141  1  0  0  0
 63142  1  0  0  0
 64143  1  0  0  0
 65144  1  0  0  0
 68 80  1  0  0  0
 71 73  2  0  0  0
 71 74  1  0  0  0
 71145  1  0  0  0
 72 74  2  0  0  0
 72 75  1  0  0  0
 72146  1  0  0  0
 73 76  1  0  0  0
 73 77  1  0  0  0
 74 83  1  0  0  0
 75 76  2  0  0  0
 75 82  1  0  0  0
 76 85  1  0  0  0
 77 78  1  0  0  0
 77 84  2  0  0  0
 78147  1  0  0  0
 78148  1  0  0  0
 78149  1  0  0  0
 79 80  1  0  0  0
 79 81  1  0  0  0
 79150  1  0  0  0
 79151  1  0  0  0
 80152  1  0  0  0
 80153  1  0  0  0
 81 85  1  0  0  0
 81154  1  0  0  0
 81155  1  0  0  0
 82156  1  0  0  0
 82157  1  0  0  0
 83158  1  0  0  0
M  ISO  4   1 100  68 101  80 101  83 100
M  END
> <chiral flag>
0

> <version>
0

> <s_m_source_file>
/data/baiqing/PycharmProjects/Reinvent-master-3.2/result/LINK_invent/BTK/process_docking_weight1_custom_product_contain_oxygen_bond_distance_aromatic_linkinvent_7_9_3/rearranged_h_0097.sdf

> <i_m_source_file_index>
23

> <r_mmod_Potential_Energy-OPLS-2005>
54.1402244567871

> <r_mmod_Stretch_Energy-OPLS-2005>
78.6478424072266

> <r_mmod_Bend_Energy-OPLS-2005>
164.504699707031

> <r_mmod_Torsional_Energy-OPLS-2005>
264.769775390625

> <r_mmod_Improper_Torsional_Energy-OPLS-2005>
8.43607807159424

> <r_mmod_Van_der_Waal_Energy-OPLS-2005>
148.599090576172

> <r_mmod_Electrostatic_Energy-OPLS-2005>
-415.704681396484

> <r_mmod_Solvation_Energy-OPLS-2005>
-239.07275390625

> <b_mmod_Minimization_Converged-OPLS-2005>
0

> <r_mmod_RMS_Derivative-OPLS-2005>
0.434297442436218

$$$$
23
                    3D
 Structure written by MMmdl.
151159  0  0  1  0            999 V2000
  -30.6215  -14.6467   20.4927 C   0  0  0  0  0  0
  -30.4407  -12.3957   19.4503 C   0  0  0  0  0  0
  -29.5080  -12.5074   18.2234 C   0  0  0  0  0  0
  -28.0310  -12.3448   18.6369 C   0  0  0  0  0  0
  -27.6531  -13.2179   19.8634 C   0  0  2  0  0  0
  -28.7004  -13.0767   20.9916 C   0  0  0  0  0  0
  -25.2552  -13.8167   20.5692 C   0  0  0  0  0  0
  -24.1817  -13.0425   20.9166 C   0  0  0  0  0  0
  -24.6396  -11.6902   20.8726 C   0  0  0  0  0  0
  -23.9065  -10.4286   21.0398 C   0  0  0  0  0  0
  -24.3615   -9.4205   21.9181 C   0  0  0  0  0  0
  -23.6291   -8.2241   22.0754 C   0  0  0  0  0  0
  -22.4273   -8.0278   21.3545 C   0  0  0  0  0  0
  -21.9906   -9.0250   20.4646 C   0  0  0  0  0  0
  -22.7236  -10.2128   20.3050 C   0  0  0  0  0  0
  -21.6852   -6.0733   22.5280 C   0  0  0  0  0  0
  -21.4013   -6.5637   23.8213 C   0  0  0  0  0  0
  -21.3660   -5.6791   24.9175 C   0  0  0  0  0  0
  -21.6045   -4.3053   24.7225 C   0  0  0  0  0  0
  -21.8819   -3.8144   23.4346 C   0  0  0  0  0  0
  -21.9192   -4.6961   22.3403 C   0  0  0  0  0  0
  -22.7841  -13.5220   21.1842 C   0  0  0  0  0  0
  -22.1662   -4.2147   21.0981 F   0  0  0  0  0  0
  -21.5630   -3.4537   25.7739 F   0  0  0  0  0  0
  -30.0151  -13.4189   20.4251 N   0  0  0  0  0  0
  -26.2995  -12.9359   20.3338 N   0  0  0  0  0  0
  -25.9330  -11.6508   20.5761 N   0  0  0  0  0  0
  -22.0489  -12.8217   22.0407 N   0  0  0  0  0  0
  -25.4214  -15.1896   20.4180 N   0  0  0  0  0  0
  -31.7915  -14.8056   20.1326 O   0  0  0  0  0  0
  -21.6637   -6.8876   21.4242 O   0  0  0  0  0  0
  -22.3520  -14.5528   20.6698 O   0  0  0  0  0  0
  -24.6266  -31.8601   23.2031 C   0  0  0  0  0  0
  -25.9113  -32.4780   23.8358 C   0  0  1  0  0  0
  -27.2236  -27.3176   20.1118 C   0  0  0  0  0  0
  -25.5926  -33.8581   24.2283 N   0  0  0  0  0  0
  -23.4199  -30.4850   21.5463 C   0  0  2  0  0  0
  -24.8656  -28.9422   20.1113 C   0  0  0  0  0  0
  -22.7476  -29.4628   22.4939 C   0  0  0  0  0  0
  -18.0286  -28.1384   22.8487 C   0  0  0  0  0  0
  -24.1489  -36.7296   23.2639 C   0  0  0  0  0  0
  -25.9621  -30.7907   21.3744 C   0  0  0  0  0  0
  -26.0362  -29.4188   20.7147 C   0  0  0  0  0  0
  -27.2183  -28.6189   20.7045 C   0  0  0  0  0  0
  -26.0260  -26.8968   19.4857 C   0  0  0  0  0  0
  -24.8626  -27.6866   19.4884 C   0  0  0  0  0  0
  -23.6342  -29.8222   20.1610 C   0  0  0  0  0  0
  -25.4113  -36.3085   24.0330 C   0  0  1  0  0  0
  -20.5886  -28.3689   23.1283 C   0  0  2  0  0  0
  -20.6775  -26.9414   22.5408 C   0  0  0  0  0  0
  -19.5750  -26.6385   21.5212 C   0  0  0  0  0  0
  -18.1931  -26.7926   22.1626 C   0  0  0  0  0  0
  -19.1538  -28.8853   23.2880 C   0  0  0  0  0  0
  -18.9460  -30.1455   23.8897 C   0  0  0  0  0  0
  -17.6461  -30.6587   24.0563 C   0  0  0  0  0  0
  -25.9051  -34.9454   23.5107 C   0  0  0  0  0  0
  -16.5352  -29.9086   23.6329 C   0  0  0  0  0  0
  -16.7273  -28.6503   23.0352 C   0  0  0  0  0  0
  -26.4494  -31.6587   25.0728 C   0  0  0  0  0  0
  -25.3727  -31.3725   26.1454 C   0  0  0  0  0  0
  -27.0334  -30.3010   24.6182 C   0  0  0  0  0  0
  -27.6054  -32.4320   25.7498 C   0  0  0  0  0  0
  -27.5580  -37.1804   24.8465 C   0  0  0  0  0  0
  -21.4189  -29.3045   22.3680 N   0  0  0  0  0  0
  -26.4293  -37.3779   23.9407 N   0  0  0  0  0  0
  -24.6885  -31.0614   22.0981 N   0  0  0  0  0  0
  -23.4201  -28.8163   23.3014 O   0  0  0  0  0  0
  -28.3403  -26.4633   20.1602 O   0  0  0  0  0  0
  -26.5620  -34.8919   22.4674 O   0  0  0  0  0  0
  -23.5429  -32.1399   23.7358 O   0  0  0  0  0  0
  -31.1180  -17.8849   20.6034 C   0  0  0  0  0  0
  -31.1123  -19.3107   20.5262 C   0  0  0  0  0  0
  -28.7106  -19.3389   20.5192 C   0  0  0  0  0  0
  -29.9083  -17.1463   20.6525 C   0  0  0  0  0  0
  -29.9190  -20.0843   20.4854 C   0  0  0  0  0  0
  -28.7114  -17.9126   20.6067 C   0  0  0  0  0  0
  -29.2528  -23.9564   20.3436 C   0  0  0  0  0  0
  -28.1015  -25.0048   20.0220 C   0  0  0  0  0  0
  -28.8904  -22.3990   20.2827 C   0  0  0  0  0  0
  -29.7931  -15.6941   20.7921 N   0  0  0  0  0  0
  -30.0305  -21.4919   20.4337 O   0  0  0  0  0  0
  -27.5271  -17.2553   20.6481 F   0  0  0  0  0  0
  -31.4812  -12.5238   19.1468 H   0  0  0  0  0  0
  -30.3783  -11.4007   19.8940 H   0  0  0  0  0  0
  -29.7724  -11.7555   17.4787 H   0  0  0  0  0  0
  -29.6485  -13.4764   17.7417 H   0  0  0  0  0  0
  -27.8691  -11.2920   18.8707 H   0  0  0  0  0  0
  -27.3755  -12.5722   17.7955 H   0  0  0  0  0  0
  -27.6666  -14.2522   19.5190 H   0  0  0  0  0  0
  -28.7131  -12.0565   21.3781 H   0  0  0  0  0  0
  -28.4480  -13.7124   21.8419 H   0  0  0  0  0  0
  -25.2760   -9.5683   22.4755 H   0  0  0  0  0  0
  -23.9999   -7.4633   22.7474 H   0  0  0  0  0  0
  -21.0836   -8.8767   19.8954 H   0  0  0  0  0  0
  -22.3693  -10.9665   19.6157 H   0  0  0  0  0  0
  -21.2003   -7.6146   23.9716 H   0  0  0  0  0  0
  -21.1485   -6.0521   25.9079 H   0  0  0  0  0  0
  -22.0598   -2.7606   23.2846 H   0  0  0  0  0  0
  -22.4103  -11.9877   22.4793 H   0  0  0  0  0  0
  -21.1112  -13.1253   22.2622 H   0  0  0  0  0  0
  -24.6550  -15.8367   20.5619 H   0  0  0  0  0  0
  -26.2902  -15.6637   20.1983 H   0  0  0  0  0  0
  -26.7180  -32.5450   23.1107 H   0  0  0  0  0  0
  -25.0065  -33.9725   25.0423 H   0  0  0  0  0  0
  -22.7139  -31.3059   21.4047 H   0  0  0  0  0  0
  -23.3749  -35.9632   23.3306 H   0  0  0  0  0  0
  -24.3580  -36.8912   22.2052 H   0  0  0  0  0  0
  -23.7246  -37.6502   23.6657 H   0  0  0  0  0  0
  -26.0942  -31.5552   20.6075 H   0  0  0  0  0  0
  -26.8423  -30.8379   22.0041 H   0  0  0  0  0  0
  -28.1158  -28.9808   21.1864 H   0  0  0  0  0  0
  -25.9527  -25.9397   18.9927 H   0  0  0  0  0  0
  -23.9657  -27.3159   19.0113 H   0  0  0  0  0  0
  -23.7534  -30.5997   19.4055 H   0  0  0  0  0  0
  -22.7537  -29.2525   19.8581 H   0  0  0  0  0  0
  -25.1293  -36.1940   25.0823 H   0  0  0  0  0  0
  -20.9979  -28.3261   24.1404 H   0  0  0  0  0  0
  -20.5679  -26.2299   23.3607 H   0  0  0  0  0  0
  -21.6643  -26.7445   22.1199 H   0  0  0  0  0  0
  -19.6913  -25.6296   21.1242 H   0  0  0  0  0  0
  -19.6686  -27.3195   20.6741 H   0  0  0  0  0  0
  -17.4200  -26.6671   21.4030 H   0  0  0  0  0  0
  -18.0335  -26.0069   22.9023 H   0  0  0  0  0  0
  -19.7937  -30.7270   24.2269 H   0  0  0  0  0  0
  -17.5016  -31.6267   24.5164 H   0  0  0  0  0  0
  -15.5352  -30.2988   23.7651 H   0  0  0  0  0  0
  -15.8672  -28.0822   22.7068 H   0  0  0  0  0  0
  -24.5898  -30.7080   25.7780 H   0  0  0  0  0  0
  -24.8923  -32.2892   26.4885 H   0  0  0  0  0  0
  -25.8050  -30.8895   27.0226 H   0  0  0  0  0  0
  -26.2907  -29.6762   24.1207 H   0  0  0  0  0  0
  -27.4029  -29.7264   25.4687 H   0  0  0  0  0  0
  -27.8779  -30.4291   23.9407 H   0  0  0  0  0  0
  -27.2666  -33.3618   26.2077 H   0  0  0  0  0  0
  -28.3864  -32.6881   25.0327 H   0  0  0  0  0  0
  -28.0722  -31.8443   26.5414 H   0  0  0  0  0  0
  -28.2599  -38.0100   24.7509 H   0  0  0  0  0  0
  -28.1073  -36.2631   24.6294 H   0  0  0  0  0  0
  -27.2298  -37.1456   25.8868 H   0  0  0  0  0  0
  -20.9367  -29.8773   21.6895 H   0  0  0  0  0  0
  -26.0176  -38.2855   24.1401 H   0  0  0  0  0  0
  -32.0671  -17.3700   20.6429 H   0  0  0  0  0  0
  -32.0626  -19.8258   20.5039 H   0  0  0  0  0  0
  -27.7601  -19.8494   20.4918 H   0  0  0  0  0  0
  -29.6470  -24.1729   21.3364 H   0  0  0  0  0  0
  -30.0761  -24.1424   19.6539 H   0  0  0  0  0  0
  -27.2506  -24.7435   20.6531 H   0  0  0  0  0  0
  -27.7948  -24.8125   18.9934 H   0  0  0  0  0  0
  -28.4094  -22.1808   19.3285 H   0  0  0  0  0  0
  -28.1566  -22.1770   21.0583 H   0  0  0  0  0  0
  -28.8555  -15.3945   21.0126 H   0  0  0  0  0  0
  1 25  1  0  0  0
  1 30  2  0  0  0
  1 80  1  0  0  0
  2  3  1  0  0  0
  2 25  1  0  0  0
  2 83  1  0  0  0
  2 84  1  0  0  0
  3  4  1  0  0  0
  3 85  1  0  0  0
  3 86  1  0  0  0
  4  5  1  0  0  0
  4 87  1  0  0  0
  4 88  1  0  0  0
  5  6  1  0  0  0
  5 26  1  0  0  0
  5 89  1  0  0  0
  6 25  1  0  0  0
  6 90  1  0  0  0
  6 91  1  0  0  0
  7  8  2  0  0  0
  7 26  1  0  0  0
  7 29  1  0  0  0
  8  9  1  0  0  0
  8 22  1  0  0  0
  9 10  1  0  0  0
  9 27  2  0  0  0
 10 11  2  0  0  0
 10 15  1  0  0  0
 11 12  1  0  0  0
 11 92  1  0  0  0
 12 13  2  0  0  0
 12 93  1  0  0  0
 13 14  1  0  0  0
 13 31  1  0  0  0
 14 15  2  0  0  0
 14 94  1  0  0  0
 15 95  1  0  0  0
 16 17  2  0  0  0
 16 21  1  0  0  0
 16 31  1  0  0  0
 17 18  1  0  0  0
 17 96  1  0  0  0
 18 19  2  0  0  0
 18 97  1  0  0  0
 19 20  1  0  0  0
 19 24  1  0  0  0
 20 21  2  0  0  0
 20 98  1  0  0  0
 21 23  1  0  0  0
 22 28  1  0  0  0
 22 32  2  0  0  0
 26 27  1  0  0  0
 28 99  1  0  0  0
 28100  1  0  0  0
 29101  1  0  0  0
 29102  1  0  0  0
 33 34  1  0  0  0
 33 66  1  0  0  0
 33 70  2  0  0  0
 34 36  1  0  0  0
 34 59  1  0  0  0
 34103  1  0  0  0
 35 44  2  0  0  0
 35 45  1  0  0  0
 35 68  1  0  0  0
 36 56  1  0  0  0
 36104  1  0  0  0
 37 39  1  0  0  0
 37 47  1  0  0  0
 37 66  1  0  0  0
 37105  1  0  0  0
 38 43  2  0  0  0
 38 46  1  0  0  0
 38 47  1  0  0  0
 39 64  1  0  0  0
 39 67  2  0  0  0
 40 52  1  0  0  0
 40 53  2  0  0  0
 40 58  1  0  0  0
 41106  1  0  0  0
 41107  1  0  0  0
 41108  1  0  0  0
 41 48  1  0  0  0
 42 43  1  0  0  0
 42 66  1  0  0  0
 42109  1  0  0  0
 42110  1  0  0  0
 43 44  1  0  0  0
 44111  1  0  0  0
 45 46  2  0  0  0
 45112  1  0  0  0
 46113  1  0  0  0
 47114  1  0  0  0
 47115  1  0  0  0
 48 56  1  0  0  0
 48 65  1  0  0  0
 48116  1  0  0  0
 49 50  1  0  0  0
 49 53  1  0  0  0
 49 64  1  0  0  0
 49117  1  0  0  0
 50 51  1  0  0  0
 50118  1  0  0  0
 50119  1  0  0  0
 51 52  1  0  0  0
 51120  1  0  0  0
 51121  1  0  0  0
 52122  1  0  0  0
 52123  1  0  0  0
 53 54  1  0  0  0
 54 55  2  0  0  0
 54124  1  0  0  0
 55 57  1  0  0  0
 55125  1  0  0  0
 56 69  2  0  0  0
 57 58  2  0  0  0
 57126  1  0  0  0
 58127  1  0  0  0
 59 60  1  0  0  0
 59 61  1  0  0  0
 59 62  1  0  0  0
 60128  1  0  0  0
 60129  1  0  0  0
 60130  1  0  0  0
 61131  1  0  0  0
 61132  1  0  0  0
 61133  1  0  0  0
 62134  1  0  0  0
 62135  1  0  0  0
 62136  1  0  0  0
 63 65  1  0  0  0
 63137  1  0  0  0
 63138  1  0  0  0
 63139  1  0  0  0
 64140  1  0  0  0
 65141  1  0  0  0
 68 78  1  0  0  0
 71 72  2  0  0  0
 71 74  1  0  0  0
 71142  1  0  0  0
 72 75  1  0  0  0
 72143  1  0  0  0
 73 75  2  0  0  0
 73 76  1  0  0  0
 73144  1  0  0  0
 74 76  2  0  0  0
 74 80  1  0  0  0
 75 81  1  0  0  0
 76 82  1  0  0  0
 77 78  1  0  0  0
 77 79  1  0  0  0
 77145  1  0  0  0
 77146  1  0  0  0
 78147  1  0  0  0
 78148  1  0  0  0
 79 81  1  0  0  0
 79149  1  0  0  0
 79150  1  0  0  0
 80151  1  0  0  0
M  ISO  4   1 100  68 101  78 101  80 100
M  END
> <chiral flag>
0

> <version>
0

> <s_m_source_file>
/data/baiqing/PycharmProjects/Reinvent-master-3.2/result/LINK_invent/BTK/process_docking_weight1_custom_product_contain_oxygen_bond_distance_aromatic_linkinvent_7_9_3/rearranged_h_0097.sdf

> <i_m_source_file_index>
24

> <r_mmod_Potential_Energy-OPLS-2005>
8.48562717437744

> <r_mmod_Stretch_Energy-OPLS-2005>
78.0414810180664

> <r_mmod_Bend_Energy-OPLS-2005>
145.352081298828

> <r_mmod_Torsional_Energy-OPLS-2005>
209.226409912109

> <r_mmod_Improper_Torsional_Energy-OPLS-2005>
4.5839262008667

> <r_mmod_Van_der_Waal_Energy-OPLS-2005>
144.377670288086

> <r_mmod_Electrostatic_Energy-OPLS-2005>
-422.268218994141

> <r_mmod_Solvation_Energy-OPLS-2005>
-201.274765014648

> <b_mmod_Minimization_Converged-OPLS-2005>
0

> <r_mmod_RMS_Derivative-OPLS-2005>
0.238112762570381

$$$$
24
                    3D
 Structure written by MMmdl.
159167  0  0  1  0            999 V2000
  -30.7150  -14.4936   20.5821 C   0  0  0  0  0  0
  -30.4149  -12.3246   19.4316 C   0  0  0  0  0  0
  -29.4911  -12.5018   18.2107 C   0  0  0  0  0  0
  -28.0139  -12.3579   18.6278 C   0  0  0  0  0  0
  -27.6558  -13.2134   19.8722 C   0  0  2  0  0  0
  -28.6982  -13.0278   20.9975 C   0  0  0  0  0  0
  -25.2554  -13.8171   20.5707 C   0  0  0  0  0  0
  -24.1818  -13.0430   20.9194 C   0  0  0  0  0  0
  -24.6386  -11.6900   20.8743 C   0  0  0  0  0  0
  -23.9061  -10.4282   21.0418 C   0  0  0  0  0  0
  -24.3608   -9.4194   21.9203 C   0  0  0  0  0  0
  -23.6280   -8.2230   22.0772 C   0  0  0  0  0  0
  -22.4259   -8.0280   21.3559 C   0  0  0  0  0  0
  -21.9887   -9.0257   20.4663 C   0  0  0  0  0  0
  -22.7224  -10.2133   20.3076 C   0  0  0  0  0  0
  -21.6842   -6.0733   22.5288 C   0  0  0  0  0  0
  -21.4011   -6.5642   23.8224 C   0  0  0  0  0  0
  -21.3656   -5.6798   24.9190 C   0  0  0  0  0  0
  -21.6037   -4.3060   24.7234 C   0  0  0  0  0  0
  -21.8812   -3.8147   23.4357 C   0  0  0  0  0  0
  -21.9185   -4.6960   22.3410 C   0  0  0  0  0  0
  -22.7844  -13.5230   21.1854 C   0  0  0  0  0  0
  -22.1654   -4.2146   21.0988 F   0  0  0  0  0  0
  -21.5624   -3.4544   25.7748 F   0  0  0  0  0  0
  -30.0241  -13.3293   20.4354 N   0  0  0  0  0  0
  -26.2989  -12.9357   20.3368 N   0  0  0  0  0  0
  -25.9317  -11.6510   20.5778 N   0  0  0  0  0  0
  -22.0468  -12.8247   22.0413 N   0  0  0  0  0  0
  -25.4270  -15.1895   20.4149 N   0  0  0  0  0  0
  -31.8435  -14.6498   20.1070 O   0  0  0  0  0  0
  -21.6626   -6.8876   21.4253 O   0  0  0  0  0  0
  -22.3534  -14.5540   20.6710 O   0  0  0  0  0  0
  -24.6166  -31.8650   23.2091 C   0  0  0  0  0  0
  -25.9048  -32.4819   23.8387 C   0  0  1  0  0  0
  -27.2320  -27.4135   20.1187 C   0  0  0  0  0  0
  -25.5872  -33.8618   24.2300 N   0  0  0  0  0  0
  -23.4059  -30.4879   21.5468 C   0  0  2  0  0  0
  -24.8567  -28.9494   20.1153 C   0  0  0  0  0  0
  -22.7426  -29.4639   22.4965 C   0  0  0  0  0  0
  -18.0263  -28.1393   22.8492 C   0  0  0  0  0  0
  -24.1482  -36.7347   23.2638 C   0  0  0  0  0  0
  -25.9348  -30.8275   21.3638 C   0  0  0  0  0  0
  -26.0150  -29.4571   20.7186 C   0  0  0  0  0  0
  -27.2087  -28.6956   20.7200 C   0  0  0  0  0  0
  -26.0646  -26.9283   19.4988 C   0  0  0  0  0  0
  -24.8767  -27.6839   19.5019 C   0  0  0  0  0  0
  -23.6184  -29.8178   20.1619 C   0  0  0  0  0  0
  -25.4104  -36.3125   24.0325 C   0  0  1  0  0  0
  -20.5857  -28.3675   23.1304 C   0  0  2  0  0  0
  -20.6741  -26.9401   22.5413 C   0  0  0  0  0  0
  -19.5718  -26.6388   21.5209 C   0  0  0  0  0  0
  -18.1902  -26.7930   22.1631 C   0  0  0  0  0  0
  -19.1511  -28.8846   23.2890 C   0  0  0  0  0  0
  -18.9452  -30.1457   23.8905 C   0  0  0  0  0  0
  -17.6453  -30.6588   24.0577 C   0  0  0  0  0  0
  -25.9026  -34.9481   23.5122 C   0  0  0  0  0  0
  -16.5344  -29.9100   23.6337 C   0  0  0  0  0  0
  -16.7251  -28.6519   23.0345 C   0  0  0  0  0  0
  -26.4492  -31.6601   25.0719 C   0  0  0  0  0  0
  -25.3774  -31.3694   26.1484 C   0  0  0  0  0  0
  -27.0320  -30.3041   24.6104 C   0  0  0  0  0  0
  -27.6073  -32.4333   25.7460 C   0  0  0  0  0  0
  -27.5571  -37.1826   24.8452 C   0  0  0  0  0  0
  -21.4144  -29.3043   22.3720 N   0  0  0  0  0  0
  -26.4293  -37.3806   23.9387 N   0  0  0  0  0  0
  -24.6701  -31.0744   22.0987 N   0  0  0  0  0  0
  -23.4184  -28.8179   23.3007 O   0  0  0  0  0  0
  -28.3678  -26.6318   20.0975 O   0  0  0  0  0  0
  -26.5615  -34.8936   22.4700 O   0  0  0  0  0  0
  -23.5357  -32.1400   23.7489 O   0  0  0  0  0  0
  -30.5268  -19.0469   20.4108 C   0  0  0  0  0  0
  -28.7761  -18.4447   21.9674 C   0  0  0  0  0  0
  -29.9655  -18.0988   21.2956 C   0  0  0  0  0  0
  -29.9448  -20.3267   20.2144 C   0  0  0  0  0  0
  -28.1916  -19.7222   21.7882 C   0  0  0  0  0  0
  -28.7722  -20.7002   20.9372 C   0  0  0  0  0  0
  -30.5965  -21.2342   19.1854 C   0  0  0  0  0  0
  -30.7081  -16.7848   21.6037 C   0  0  0  0  0  0
  -27.8852  -24.3550   21.1622 C   0  0  0  0  0  0
  -28.5450  -25.7689   21.2389 C   0  0  0  0  0  0
  -28.8025  -23.1721   20.7407 C   0  0  0  0  0  0
  -27.0228  -20.0356   22.4795 N   0  0  0  0  0  0
  -30.0755  -15.5127   21.1988 N   0  0  0  0  0  0
  -28.0979  -21.9194   20.8405 O   0  0  0  0  0  0
  -31.4609  -12.4092   19.1324 H   0  0  0  0  0  0
  -30.3088  -11.3220   19.8476 H   0  0  0  0  0  0
  -29.7325  -11.7646   17.4443 H   0  0  0  0  0  0
  -29.6568  -13.4815   17.7603 H   0  0  0  0  0  0
  -27.8350  -11.3037   18.8446 H   0  0  0  0  0  0
  -27.3571  -12.6123   17.7948 H   0  0  0  0  0  0
  -27.6915  -14.2564   19.5562 H   0  0  0  0  0  0
  -28.6794  -12.0033   21.3726 H   0  0  0  0  0  0
  -28.4567  -13.6562   21.8561 H   0  0  0  0  0  0
  -25.2751   -9.5663   22.4790 H   0  0  0  0  0  0
  -23.9978   -7.4616   22.7490 H   0  0  0  0  0  0
  -21.0813   -8.8787   19.8975 H   0  0  0  0  0  0
  -22.3686  -10.9687   19.6196 H   0  0  0  0  0  0
  -21.2019   -7.6154   23.9727 H   0  0  0  0  0  0
  -21.1482   -6.0535   25.9093 H   0  0  0  0  0  0
  -22.0591   -2.7606   23.2866 H   0  0  0  0  0  0
  -22.4041  -11.9898   22.4822 H   0  0  0  0  0  0
  -21.1113  -13.1354   22.2643 H   0  0  0  0  0  0
  -24.6628  -15.8445   20.5404 H   0  0  0  0  0  0
  -26.2818  -15.6328   20.1035 H   0  0  0  0  0  0
  -26.7123  -32.5539   23.1152 H   0  0  0  0  0  0
  -24.9962  -33.9766   25.0406 H   0  0  0  0  0  0
  -22.6954  -31.3043   21.4037 H   0  0  0  0  0  0
  -23.3721  -35.9705   23.3325 H   0  0  0  0  0  0
  -24.3556  -36.8959   22.2046 H   0  0  0  0  0  0
  -23.7274  -37.6570   23.6658 H   0  0  0  0  0  0
  -26.0421  -31.5888   20.5902 H   0  0  0  0  0  0
  -26.8243  -30.8902   21.9794 H   0  0  0  0  0  0
  -28.1036  -29.0832   21.1879 H   0  0  0  0  0  0
  -26.0751  -25.9599   19.0190 H   0  0  0  0  0  0
  -23.9868  -27.2869   19.0316 H   0  0  0  0  0  0
  -23.7281  -30.5900   19.3992 H   0  0  0  0  0  0
  -22.7431  -29.2368   19.8661 H   0  0  0  0  0  0
  -25.1287  -36.1997   25.0821 H   0  0  0  0  0  0
  -20.9944  -28.3246   24.1423 H   0  0  0  0  0  0
  -20.5619  -26.2297   23.3616 H   0  0  0  0  0  0
  -21.6617  -26.7416   22.1219 H   0  0  0  0  0  0
  -19.6876  -25.6302   21.1229 H   0  0  0  0  0  0
  -19.6655  -27.3207   20.6741 H   0  0  0  0  0  0
  -17.4164  -26.6676   21.4038 H   0  0  0  0  0  0
  -18.0305  -26.0072   22.9028 H   0  0  0  0  0  0
  -19.7930  -30.7266   24.2275 H   0  0  0  0  0  0
  -17.5012  -31.6267   24.5190 H   0  0  0  0  0  0
  -15.5348  -30.3008   23.7656 H   0  0  0  0  0  0
  -15.8650  -28.0855   22.7043 H   0  0  0  0  0  0
  -24.5947  -30.7038   25.7824 H   0  0  0  0  0  0
  -24.8975  -32.2848   26.4953 H   0  0  0  0  0  0
  -25.8135  -30.8852   27.0237 H   0  0  0  0  0  0
  -26.2857  -29.6820   24.1152 H   0  0  0  0  0  0
  -27.4068  -29.7274   25.4569 H   0  0  0  0  0  0
  -27.8711  -30.4342   23.9265 H   0  0  0  0  0  0
  -27.2688  -33.3627   26.2053 H   0  0  0  0  0  0
  -28.3855  -32.6917   25.0263 H   0  0  0  0  0  0
  -28.0774  -31.8459   26.5353 H   0  0  0  0  0  0
  -28.2607  -38.0105   24.7483 H   0  0  0  0  0  0
  -28.1050  -36.2637   24.6302 H   0  0  0  0  0  0
  -27.2279  -37.1509   25.8854 H   0  0  0  0  0  0
  -20.9317  -29.8811   21.6975 H   0  0  0  0  0  0
  -26.0188  -38.2892   24.1383 H   0  0  0  0  0  0
  -31.4347  -18.7940   19.8792 H   0  0  0  0  0  0
  -28.3328  -17.7348   22.6522 H   0  0  0  0  0  0
  -31.3397  -20.6983   18.5941 H   0  0  0  0  0  0
  -31.1064  -22.0706   19.6640 H   0  0  0  0  0  0
  -29.8499  -21.6142   18.4872 H   0  0  0  0  0  0
  -30.8509  -16.7363   22.6844 H   0  0  0  0  0  0
  -31.7167  -16.8646   21.1944 H   0  0  0  0  0  0
  -27.0002  -24.3864   20.5282 H   0  0  0  0  0  0
  -27.5129  -24.1184   22.1592 H   0  0  0  0  0  0
  -29.6154  -25.6579   21.4159 H   0  0  0  0  0  0
  -28.1690  -26.2822   22.1257 H   0  0  0  0  0  0
  -29.6928  -23.1497   21.3715 H   0  0  0  0  0  0
  -29.1165  -23.3500   19.7146 H   0  0  0  0  0  0
  -26.7647  -21.0170   22.5103 H   0  0  0  0  0  0
  -26.8035  -19.5295   23.3313 H   0  0  0  0  0  0
  -29.1307  -15.3443   21.5067 H   0  0  0  0  0  0
  1 25  1  0  0  0
  1 30  2  0  0  0
  1 83  1  0  0  0
  2  3  1  0  0  0
  2 25  1  0  0  0
  2 85  1  0  0  0
  2 86  1  0  0  0
  3  4  1  0  0  0
  3 87  1  0  0  0
  3 88  1  0  0  0
  4  5  1  0  0  0
  4 89  1  0  0  0
  4 90  1  0  0  0
  5  6  1  0  0  0
  5 26  1  0  0  0
  5 91  1  0  0  0
  6 25  1  0  0  0
  6 92  1  0  0  0
  6 93  1  0  0  0
  7  8  2  0  0  0
  7 26  1  0  0  0
  7 29  1  0  0  0
  8  9  1  0  0  0
  8 22  1  0  0  0
  9 10  1  0  0  0
  9 27  2  0  0  0
 10 11  2  0  0  0
 10 15  1  0  0  0
 11 12  1  0  0  0
 11 94  1  0  0  0
 12 13  2  0  0  0
 12 95  1  0  0  0
 13 14  1  0  0  0
 13 31  1  0  0  0
 14 15  2  0  0  0
 14 96  1  0  0  0
 15 97  1  0  0  0
 16 17  2  0  0  0
 16 21  1  0  0  0
 16 31  1  0  0  0
 17 18  1  0  0  0
 17 98  1  0  0  0
 18 19  2  0  0  0
 18 99  1  0  0  0
 19 20  1  0  0  0
 19 24  1  0  0  0
 20 21  2  0  0  0
 20100  1  0  0  0
 21 23  1  0  0  0
 22 28  1  0  0  0
 22 32  2  0  0  0
 26 27  1  0  0  0
 28101  1  0  0  0
 28102  1  0  0  0
 29103  1  0  0  0
 29104  1  0  0  0
 33 34  1  0  0  0
 33 66  1  0  0  0
 33 70  2  0  0  0
 34 36  1  0  0  0
 34 59  1  0  0  0
 34105  1  0  0  0
 35 44  2  0  0  0
 35 45  1  0  0  0
 35 68  1  0  0  0
 36 56  1  0  0  0
 36106  1  0  0  0
 37 39  1  0  0  0
 37 47  1  0  0  0
 37 66  1  0  0  0
 37107  1  0  0  0
 38 43  2  0  0  0
 38 46  1  0  0  0
 38 47  1  0  0  0
 39 64  1  0  0  0
 39 67  2  0  0  0
 40 52  1  0  0  0
 40 53  2  0  0  0
 40 58  1  0  0  0
 41108  1  0  0  0
 41109  1  0  0  0
 41110  1  0  0  0
 41 48  1  0  0  0
 42 43  1  0  0  0
 42 66  1  0  0  0
 42111  1  0  0  0
 42112  1  0  0  0
 43 44  1  0  0  0
 44113  1  0  0  0
 45 46  2  0  0  0
 45114  1  0  0  0
 46115  1  0  0  0
 47116  1  0  0  0
 47117  1  0  0  0
 48 56  1  0  0  0
 48 65  1  0  0  0
 48118  1  0  0  0
 49 50  1  0  0  0
 49 53  1  0  0  0
 49 64  1  0  0  0
 49119  1  0  0  0
 50 51  1  0  0  0
 50120  1  0  0  0
 50121  1  0  0  0
 51 52  1  0  0  0
 51122  1  0  0  0
 51123  1  0  0  0
 52124  1  0  0  0
 52125  1  0  0  0
 53 54  1  0  0  0
 54 55  2  0  0  0
 54126  1  0  0  0
 55 57  1  0  0  0
 55127  1  0  0  0
 56 69  2  0  0  0
 57 58  2  0  0  0
 57128  1  0  0  0
 58129  1  0  0  0
 59 60  1  0  0  0
 59 61  1  0  0  0
 59 62  1  0  0  0
 60130  1  0  0  0
 60131  1  0  0  0
 60132  1  0  0  0
 61133  1  0  0  0
 61134  1  0  0  0
 61135  1  0  0  0
 62136  1  0  0  0
 62137  1  0  0  0
 62138  1  0  0  0
 63 65  1  0  0  0
 63139  1  0  0  0
 63140  1  0  0  0
 63141  1  0  0  0
 64142  1  0  0  0
 65143  1  0  0  0
 68 80  1  0  0  0
 71 73  2  0  0  0
 71 74  1  0  0  0
 71144  1  0  0  0
 72 73  1  0  0  0
 72 75  2  0  0  0
 72145  1  0  0  0
 73 78  1  0  0  0
 74 76  2  0  0  0
 74 77  1  0  0  0
 75 76  1  0  0  0
 75 82  1  0  0  0
 76 84  1  0  0  0
 77146  1  0  0  0
 77147  1  0  0  0
 77148  1  0  0  0
 78 83  1  0  0  0
 78149  1  0  0  0
 78150  1  0  0  0
 79 80  1  0  0  0
 79 81  1  0  0  0
 79151  1  0  0  0
 79152  1  0  0  0
 80153  1  0  0  0
 80154  1  0  0  0
 81 84  1  0  0  0
 81155  1  0  0  0
 81156  1  0  0  0
 82157  1  0  0  0
 82158  1  0  0  0
 83159  1  0  0  0
M  ISO  4   1 100  68 101  80 101  83 100
M  END
> <chiral flag>
0

> <version>
0

> <s_m_source_file>
/data/baiqing/PycharmProjects/Reinvent-master-3.2/result/LINK_invent/BTK/process_docking_weight1_custom_product_contain_oxygen_bond_distance_aromatic_linkinvent_7_9_3/rearranged_h_0097.sdf

> <i_m_source_file_index>
25

> <r_mmod_Potential_Energy-OPLS-2005>
-108.067001342773

> <r_mmod_Stretch_Energy-OPLS-2005>
44.0062713623047

> <r_mmod_Bend_Energy-OPLS-2005>
116.890327453613

> <r_mmod_Torsional_Energy-OPLS-2005>
247.107070922852

> <r_mmod_Improper_Torsional_Energy-OPLS-2005>
5.90333318710327

> <r_mmod_Van_der_Waal_Energy-OPLS-2005>
149.513137817383

> <r_mmod_Electrostatic_Energy-OPLS-2005>
-469.732086181641

> <r_mmod_Solvation_Energy-OPLS-2005>
-217.820526123047

> <b_mmod_Minimization_Converged-OPLS-2005>
0

> <r_mmod_RMS_Derivative-OPLS-2005>
2.04946994781494

$$$$
25
                    3D
 Structure written by MMmdl.
158167  0  0  1  0            999 V2000
  -30.6863  -14.6221   20.5244 C   0  0  0  0  0  0
  -30.4289  -12.4016   19.4317 C   0  0  0  0  0  0
  -29.4889  -12.4912   18.2111 C   0  0  0  0  0  0
  -28.0205  -12.2922   18.6372 C   0  0  0  0  0  0
  -27.6442  -13.1650   19.8585 C   0  0  2  0  0  0
  -28.7079  -13.0355   20.9814 C   0  0  0  0  0  0
  -25.2551  -13.8020   20.5646 C   0  0  0  0  0  0
  -24.1794  -13.0361   20.9204 C   0  0  0  0  0  0
  -24.6317  -11.6821   20.8790 C   0  0  0  0  0  0
  -23.8985  -10.4244   21.0448 C   0  0  0  0  0  0
  -24.3563   -9.4166   21.9214 C   0  0  0  0  0  0
  -23.6253   -8.2201   22.0764 C   0  0  0  0  0  0
  -22.4239   -8.0253   21.3547 C   0  0  0  0  0  0
  -21.9862   -9.0223   20.4652 C   0  0  0  0  0  0
  -22.7177  -10.2104   20.3073 C   0  0  0  0  0  0
  -21.6834   -6.0718   22.5277 C   0  0  0  0  0  0
  -21.4003   -6.5628   23.8208 C   0  0  0  0  0  0
  -21.3650   -5.6785   24.9172 C   0  0  0  0  0  0
  -21.6041   -4.3048   24.7225 C   0  0  0  0  0  0
  -21.8821   -3.8139   23.4347 C   0  0  0  0  0  0
  -21.9185   -4.6951   22.3401 C   0  0  0  0  0  0
  -22.7836  -13.5216   21.1853 C   0  0  0  0  0  0
  -22.1661   -4.2137   21.0979 F   0  0  0  0  0  0
  -21.5627   -3.4534   25.7739 F   0  0  0  0  0  0
  -29.9997  -13.4330   20.4039 N   0  0  0  0  0  0
  -26.2933  -12.9094   20.3353 N   0  0  0  0  0  0
  -25.9226  -11.6315   20.5837 N   0  0  0  0  0  0
  -22.0458  -12.8241   22.0416 N   0  0  0  0  0  0
  -25.4233  -15.1727   20.3931 N   0  0  0  0  0  0
  -31.8674  -14.6673   20.1660 O   0  0  0  0  0  0
  -21.6611   -6.8852   21.4236 O   0  0  0  0  0  0
  -22.3552  -14.5533   20.6693 O   0  0  0  0  0  0
  -24.6177  -31.8645   23.2065 C   0  0  0  0  0  0
  -25.9059  -32.4803   23.8372 C   0  0  1  0  0  0
  -27.2438  -27.3959   20.0971 C   0  0  0  0  0  0
  -25.5907  -33.8602   24.2303 N   0  0  0  0  0  0
  -23.4073  -30.4864   21.5478 C   0  0  2  0  0  0
  -24.8540  -28.9447   20.1153 C   0  0  0  0  0  0
  -22.7422  -29.4644   22.4980 C   0  0  0  0  0  0
  -18.0274  -28.1380   22.8489 C   0  0  0  0  0  0
  -24.1488  -36.7304   23.2637 C   0  0  0  0  0  0
  -25.9394  -30.8175   21.3655 C   0  0  0  0  0  0
  -26.0149  -29.4486   20.7118 C   0  0  0  0  0  0
  -27.2061  -28.6817   20.6985 C   0  0  0  0  0  0
  -26.0526  -26.9096   19.5066 C   0  0  0  0  0  0
  -24.8698  -27.6759   19.5120 C   0  0  0  0  0  0
  -23.6171  -29.8153   20.1637 C   0  0  0  0  0  0
  -25.4111  -36.3097   24.0333 C   0  0  1  0  0  0
  -20.5865  -28.3668   23.1314 C   0  0  2  0  0  0
  -20.6763  -26.9404   22.5417 C   0  0  0  0  0  0
  -19.5745  -26.6387   21.5210 C   0  0  0  0  0  0
  -18.1920  -26.7930   22.1615 C   0  0  0  0  0  0
  -19.1524  -28.8841   23.2898 C   0  0  0  0  0  0
  -18.9451  -30.1446   23.8910 C   0  0  0  0  0  0
  -17.6454  -30.6587   24.0564 C   0  0  0  0  0  0
  -25.9040  -34.9465   23.5115 C   0  0  0  0  0  0
  -16.5344  -29.9086   23.6331 C   0  0  0  0  0  0
  -16.7263  -28.6502   23.0353 C   0  0  0  0  0  0
  -26.4474  -31.6602   25.0720 C   0  0  0  0  0  0
  -25.3731  -31.3729   26.1465 C   0  0  0  0  0  0
  -27.0305  -30.3036   24.6131 C   0  0  0  0  0  0
  -27.6047  -32.4328   25.7481 C   0  0  0  0  0  0
  -27.5582  -37.1801   24.8464 C   0  0  0  0  0  0
  -21.4147  -29.3031   22.3718 N   0  0  0  0  0  0
  -26.4294  -37.3785   23.9410 N   0  0  0  0  0  0
  -24.6731  -31.0717   22.0980 N   0  0  0  0  0  0
  -23.4181  -28.8193   23.3040 O   0  0  0  0  0  0
  -28.4388  -26.6845   20.1295 O   0  0  0  0  0  0
  -26.5602  -34.8923   22.4677 O   0  0  0  0  0  0
  -23.5363  -32.1414   23.7443 O   0  0  0  0  0  0
  -29.7553  -20.3661   22.7634 C   0  0  0  0  0  0
  -29.4533  -21.6122   22.1590 C   0  0  0  0  0  0
  -29.9298  -20.6726   19.9565 C   0  0  0  0  0  0
  -30.1420  -19.2820   21.9527 C   0  0  0  0  0  0
  -30.2289  -19.4309   20.5754 C   0  0  0  0  0  0
  -29.5287  -21.7905   20.7479 C   0  0  0  0  0  0
  -28.7203  -24.2144   20.5334 C   0  0  0  0  0  0
  -30.4753  -17.8704   22.4027 C   0  0  0  0  0  0
  -30.6357  -18.1244   19.9114 C   0  0  0  0  0  0
  -30.8129  -17.0922   21.0872 C   0  0  2  0  0  0
  -28.6278  -16.1101   20.7798 C   0  0  0  0  0  0
  -28.6027  -25.3798   19.5072 C   0  0  0  0  0  0
  -29.2439  -23.0422   20.0806 N   0  0  0  0  0  0
  -30.0621  -15.7999   20.9152 N   0  0  0  0  0  0
  -28.3378  -24.3898   21.6936 O   0  0  0  0  0  0
  -31.4636  -12.5239   19.1080 H   0  0  0  0  0  0
  -30.3830  -11.4078   19.8802 H   0  0  0  0  0  0
  -29.7657  -11.7432   17.4668 H   0  0  0  0  0  0
  -29.6039  -13.4621   17.7263 H   0  0  0  0  0  0
  -27.8829  -11.2380   18.8813 H   0  0  0  0  0  0
  -27.3515  -12.5003   17.8012 H   0  0  0  0  0  0
  -27.6318  -14.1646   19.4530 H   0  0  0  0  0  0
  -28.7564  -11.9992   21.3190 H   0  0  0  0  0  0
  -28.4697  -13.5897   21.8861 H   0  0  0  0  0  0
  -25.2706   -9.5644   22.4790 H   0  0  0  0  0  0
  -23.9964   -7.4582   22.7473 H   0  0  0  0  0  0
  -21.0796   -8.8738   19.8952 H   0  0  0  0  0  0
  -22.3647  -10.9651   19.6185 H   0  0  0  0  0  0
  -21.2000   -7.6137   23.9708 H   0  0  0  0  0  0
  -21.1471   -6.0519   25.9072 H   0  0  0  0  0  0
  -22.0613   -2.7603   23.2853 H   0  0  0  0  0  0
  -22.4051  -11.9896   22.4813 H   0  0  0  0  0  0
  -21.1089  -13.1304   22.2626 H   0  0  0  0  0  0
  -24.6548  -15.8262   20.4972 H   0  0  0  0  0  0
  -26.2744  -15.6104   20.0673 H   0  0  0  0  0  0
  -26.7129  -32.5499   23.1132 H   0  0  0  0  0  0
  -25.0070  -33.9761   25.0457 H   0  0  0  0  0  0
  -22.6974  -31.3038   21.4059 H   0  0  0  0  0  0
  -23.3747  -35.9639   23.3300 H   0  0  0  0  0  0
  -24.3581  -36.8919   22.2051 H   0  0  0  0  0  0
  -23.7243  -37.6510   23.6651 H   0  0  0  0  0  0
  -26.0590  -31.5830   20.5975 H   0  0  0  0  0  0
  -26.8243  -30.8685   21.9883 H   0  0  0  0  0  0
  -28.1027  -29.0716   21.1602 H   0  0  0  0  0  0
  -25.9950  -25.9358   19.0476 H   0  0  0  0  0  0
  -23.9739  -27.2772   19.0563 H   0  0  0  0  0  0
  -23.7269  -30.5884   19.4024 H   0  0  0  0  0  0
  -22.7402  -29.2361   19.8685 H   0  0  0  0  0  0
  -25.1290  -36.1955   25.0827 H   0  0  0  0  0  0
  -20.9955  -28.3234   24.1435 H   0  0  0  0  0  0
  -20.5661  -26.2276   23.3603 H   0  0  0  0  0  0
  -21.6634  -26.7439   22.1214 H   0  0  0  0  0  0
  -19.6904  -25.6299   21.1236 H   0  0  0  0  0  0
  -19.6693  -27.3199   20.6743 H   0  0  0  0  0  0
  -17.4194  -26.6687   21.4011 H   0  0  0  0  0  0
  -18.0313  -26.0066   22.9003 H   0  0  0  0  0  0
  -19.7927  -30.7256   24.2290 H   0  0  0  0  0  0
  -17.5010  -31.6271   24.5158 H   0  0  0  0  0  0
  -15.5346  -30.2992   23.7653 H   0  0  0  0  0  0
  -15.8661  -28.0827   22.7067 H   0  0  0  0  0  0
  -24.5924  -30.7045   25.7816 H   0  0  0  0  0  0
  -24.8894  -32.2888   26.4869 H   0  0  0  0  0  0
  -25.8082  -30.8946   27.0247 H   0  0  0  0  0  0
  -26.2857  -29.6802   24.1168 H   0  0  0  0  0  0
  -27.4036  -29.7278   25.4612 H   0  0  0  0  0  0
  -27.8712  -30.4339   23.9312 H   0  0  0  0  0  0
  -27.2662  -33.3618   26.2083 H   0  0  0  0  0  0
  -28.3840  -32.6908   25.0297 H   0  0  0  0  0  0
  -28.0735  -31.8441   26.5377 H   0  0  0  0  0  0
  -28.2604  -38.0094   24.7508 H   0  0  0  0  0  0
  -28.1073  -36.2625   24.6290 H   0  0  0  0  0  0
  -27.2301  -37.1457   25.8868 H   0  0  0  0  0  0
  -20.9313  -29.8747   21.6932 H   0  0  0  0  0  0
  -26.0181  -38.2863   24.1411 H   0  0  0  0  0  0
  -29.6848  -20.2516   23.8364 H   0  0  0  0  0  0
  -29.1676  -22.4235   22.8106 H   0  0  0  0  0  0
  -30.0013  -20.7602   18.8811 H   0  0  0  0  0  0
  -29.6390  -17.4414   22.9558 H   0  0  0  0  0  0
  -31.3324  -17.8933   23.0773 H   0  0  0  0  0  0
  -31.5719  -18.2649   19.3697 H   0  0  0  0  0  0
  -29.8817  -17.8272   19.1827 H   0  0  0  0  0  0
  -31.8823  -16.8845   21.1526 H   0  0  0  0  0  0
  -28.3769  -17.1316   21.0627 H   0  0  0  0  0  0
  -27.9786  -15.5124   21.4083 H   0  0  0  0  0  0
  -28.3359  -16.0536   19.7334 H   0  0  0  0  0  0
  -27.8659  -25.1391   18.7452 H   0  0  0  0  0  0
  -29.5496  -25.4235   18.9684 H   0  0  0  0  0  0
  -29.4681  -23.0573   19.0948 H   0  0  0  0  0  0
  1 25  1  0  0  0
  1 30  2  0  0  0
  1 84  1  0  0  0
  2  3  1  0  0  0
  2 25  1  0  0  0
  2 86  1  0  0  0
  2 87  1  0  0  0
  3  4  1  0  0  0
  3 88  1  0  0  0
  3 89  1  0  0  0
  4  5  1  0  0  0
  4 90  1  0  0  0
  4 91  1  0  0  0
  5  6  1  0  0  0
  5 26  1  0  0  0
  5 92  1  0  0  0
  6 25  1  0  0  0
  6 93  1  0  0  0
  6 94  1  0  0  0
  7  8  2  0  0  0
  7 26  1  0  0  0
  7 29  1  0  0  0
  8  9  1  0  0  0
  8 22  1  0  0  0
  9 10  1  0  0  0
  9 27  2  0  0  0
 10 11  2  0  0  0
 10 15  1  0  0  0
 11 12  1  0  0  0
 11 95  1  0  0  0
 12 13  2  0  0  0
 12 96  1  0  0  0
 13 14  1  0  0  0
 13 31  1  0  0  0
 14 15  2  0  0  0
 14 97  1  0  0  0
 15 98  1  0  0  0
 16 17  2  0  0  0
 16 21  1  0  0  0
 16 31  1  0  0  0
 17 18  1  0  0  0
 17 99  1  0  0  0
 18 19  2  0  0  0
 18100  1  0  0  0
 19 20  1  0  0  0
 19 24  1  0  0  0
 20 21  2  0  0  0
 20101  1  0  0  0
 21 23  1  0  0  0
 22 28  1  0  0  0
 22 32  2  0  0  0
 26 27  1  0  0  0
 28102  1  0  0  0
 28103  1  0  0  0
 29104  1  0  0  0
 29105  1  0  0  0
 33 34  1  0  0  0
 33 66  1  0  0  0
 33 70  2  0  0  0
 34 36  1  0  0  0
 34 59  1  0  0  0
 34106  1  0  0  0
 35 44  2  0  0  0
 35 45  1  0  0  0
 35 68  1  0  0  0
 36 56  1  0  0  0
 36107  1  0  0  0
 37 39  1  0  0  0
 37 47  1  0  0  0
 37 66  1  0  0  0
 37108  1  0  0  0
 38 43  2  0  0  0
 38 46  1  0  0  0
 38 47  1  0  0  0
 39 64  1  0  0  0
 39 67  2  0  0  0
 40 52  1  0  0  0
 40 53  2  0  0  0
 40 58  1  0  0  0
 41109  1  0  0  0
 41110  1  0  0  0
 41111  1  0  0  0
 41 48  1  0  0  0
 42 43  1  0  0  0
 42 66  1  0  0  0
 42112  1  0  0  0
 42113  1  0  0  0
 43 44  1  0  0  0
 44114  1  0  0  0
 45 46  2  0  0  0
 45115  1  0  0  0
 46116  1  0  0  0
 47117  1  0  0  0
 47118  1  0  0  0
 48 56  1  0  0  0
 48 65  1  0  0  0
 48119  1  0  0  0
 49 50  1  0  0  0
 49 53  1  0  0  0
 49 64  1  0  0  0
 49120  1  0  0  0
 50 51  1  0  0  0
 50121  1  0  0  0
 50122  1  0  0  0
 51 52  1  0  0  0
 51123  1  0  0  0
 51124  1  0  0  0
 52125  1  0  0  0
 52126  1  0  0  0
 53 54  1  0  0  0
 54 55  2  0  0  0
 54127  1  0  0  0
 55 57  1  0  0  0
 55128  1  0  0  0
 56 69  2  0  0  0
 57 58  2  0  0  0
 57129  1  0  0  0
 58130  1  0  0  0
 59 60  1  0  0  0
 59 61  1  0  0  0
 59 62  1  0  0  0
 60131  1  0  0  0
 60132  1  0  0  0
 60133  1  0  0  0
 61134  1  0  0  0
 61135  1  0  0  0
 61136  1  0  0  0
 62137  1  0  0  0
 62138  1  0  0  0
 62139  1  0  0  0
 63 65  1  0  0  0
 63140  1  0  0  0
 63141  1  0  0  0
 63142  1  0  0  0
 64143  1  0  0  0
 65144  1  0  0  0
 68 82  1  0  0  0
 71 72  2  0  0  0
 71 74  1  0  0  0
 71145  1  0  0  0
 72 76  1  0  0  0
 72146  1  0  0  0
 73 75  1  0  0  0
 73 76  2  0  0  0
 73147  1  0  0  0
 74 75  2  0  0  0
 74 78  1  0  0  0
 75 79  1  0  0  0
 76 83  1  0  0  0
 77 82  1  0  0  0
 77 83  1  0  0  0
 77 85  2  0  0  0
 78 80  1  0  0  0
 78148  1  0  0  0
 78149  1  0  0  0
 79 80  1  0  0  0
 79150  1  0  0  0
 79151  1  0  0  0
 80 84  1  0  0  0
 80152  1  0  0  0
 81 84  1  0  0  0
 81153  1  0  0  0
 81154  1  0  0  0
 81155  1  0  0  0
 82156  1  0  0  0
 82157  1  0  0  0
 83158  1  0  0  0
M  ISO  4   1 100  68 101  82 101  84 100
M  END
> <chiral flag>
0

> <version>
0

> <s_m_source_file>
/data/baiqing/PycharmProjects/Reinvent-master-3.2/result/LINK_invent/BTK/process_docking_weight1_custom_product_contain_oxygen_bond_distance_aromatic_linkinvent_7_9_3/rearranged_h_0097.sdf

> <i_m_source_file_index>
26

> <r_mmod_Potential_Energy-OPLS-2005>
206.526992797852

> <r_mmod_Stretch_Energy-OPLS-2005>
62.7077445983887

> <r_mmod_Bend_Energy-OPLS-2005>
186.831298828125

> <r_mmod_Torsional_Energy-OPLS-2005>
290.738433837891

> <r_mmod_Improper_Torsional_Energy-OPLS-2005>
3.73891425132751

> <r_mmod_Van_der_Waal_Energy-OPLS-2005>
170.598510742188

> <r_mmod_Electrostatic_Energy-OPLS-2005>
-308.657135009766

> <r_mmod_Solvation_Energy-OPLS-2005>
-232.701797485352

> <b_mmod_Minimization_Converged-OPLS-2005>
0

> <r_mmod_RMS_Derivative-OPLS-2005>
0.515214562416077

$$$$
26
                    3D
 Structure written by MMmdl.
157166  0  0  1  0            999 V2000
  -30.6255  -14.6437   20.5583 C   0  0  0  0  0  0
  -30.4520  -12.4157   19.4511 C   0  0  0  0  0  0
  -29.5151  -12.5370   18.2247 C   0  0  0  0  0  0
  -28.0326  -12.3696   18.6229 C   0  0  0  0  0  0
  -27.6601  -13.2066   19.8747 C   0  0  2  0  0  0
  -28.7030  -12.9737   20.9861 C   0  0  0  0  0  0
  -25.2588  -13.8137   20.5662 C   0  0  0  0  0  0
  -24.1835  -13.0420   20.9151 C   0  0  0  0  0  0
  -24.6391  -11.6888   20.8712 C   0  0  0  0  0  0
  -23.9052  -10.4284   21.0395 C   0  0  0  0  0  0
  -24.3607   -9.4205   21.9176 C   0  0  0  0  0  0
  -23.6284   -8.2242   22.0752 C   0  0  0  0  0  0
  -22.4265   -8.0279   21.3543 C   0  0  0  0  0  0
  -21.9895   -9.0250   20.4644 C   0  0  0  0  0  0
  -22.7224  -10.2128   20.3048 C   0  0  0  0  0  0
  -21.6854   -6.0732   22.5279 C   0  0  0  0  0  0
  -21.4016   -6.5636   23.8213 C   0  0  0  0  0  0
  -21.3659   -5.6788   24.9173 C   0  0  0  0  0  0
  -21.6044   -4.3051   24.7224 C   0  0  0  0  0  0
  -21.8820   -3.8144   23.4345 C   0  0  0  0  0  0
  -21.9193   -4.6960   22.3402 C   0  0  0  0  0  0
  -22.7864  -13.5231   21.1830 C   0  0  0  0  0  0
  -22.1662   -4.2145   21.0979 F   0  0  0  0  0  0
  -21.5629   -3.4536   25.7737 F   0  0  0  0  0  0
  -30.0149  -13.4049   20.4643 N   0  0  0  0  0  0
  -26.3016  -12.9298   20.3341 N   0  0  0  0  0  0
  -25.9313  -11.6458   20.5720 N   0  0  0  0  0  0
  -22.0505  -12.8235   22.0396 N   0  0  0  0  0  0
  -25.4322  -15.1852   20.4089 N   0  0  0  0  0  0
  -31.7457  -14.8261   20.0661 O   0  0  0  0  0  0
  -21.6637   -6.8872   21.4240 O   0  0  0  0  0  0
  -22.3550  -14.5539   20.6681 O   0  0  0  0  0  0
  -24.6270  -31.8609   23.2041 C   0  0  0  0  0  0
  -25.9116  -32.4786   23.8364 C   0  0  1  0  0  0
  -27.2233  -27.3235   20.1024 C   0  0  0  0  0  0
  -25.5928  -33.8586   24.2291 N   0  0  0  0  0  0
  -23.4193  -30.4863   21.5484 C   0  0  2  0  0  0
  -24.8633  -28.9455   20.1133 C   0  0  0  0  0  0
  -22.7476  -29.4629   22.4949 C   0  0  0  0  0  0
  -18.0285  -28.1386   22.8490 C   0  0  0  0  0  0
  -24.1488  -36.7293   23.2640 C   0  0  0  0  0  0
  -25.9620  -30.7925   21.3749 C   0  0  0  0  0  0
  -26.0351  -29.4214   20.7142 C   0  0  0  0  0  0
  -27.2180  -28.6231   20.6987 C   0  0  0  0  0  0
  -26.0190  -26.9002   19.4880 C   0  0  0  0  0  0
  -24.8568  -27.6896   19.4936 C   0  0  0  0  0  0
  -23.6328  -29.8256   20.1629 C   0  0  0  0  0  0
  -25.4112  -36.3088   24.0332 C   0  0  1  0  0  0
  -20.5887  -28.3689   23.1291 C   0  0  2  0  0  0
  -20.6776  -26.9414   22.5412 C   0  0  0  0  0  0
  -19.5750  -26.6389   21.5215 C   0  0  0  0  0  0
  -18.1931  -26.7930   22.1629 C   0  0  0  0  0  0
  -19.1539  -28.8854   23.2885 C   0  0  0  0  0  0
  -18.9459  -30.1456   23.8902 C   0  0  0  0  0  0
  -17.6459  -30.6589   24.0565 C   0  0  0  0  0  0
  -25.9051  -34.9457   23.5112 C   0  0  0  0  0  0
  -16.5350  -29.9087   23.6333 C   0  0  0  0  0  0
  -16.7272  -28.6505   23.0352 C   0  0  0  0  0  0
  -26.4500  -31.6587   25.0729 C   0  0  0  0  0  0
  -25.3734  -31.3713   26.1454 C   0  0  0  0  0  0
  -27.0340  -30.3013   24.6171 C   0  0  0  0  0  0
  -27.6065  -32.4314   25.7495 C   0  0  0  0  0  0
  -27.5579  -37.1803   24.8469 C   0  0  0  0  0  0
  -21.4190  -29.3045   22.3688 N   0  0  0  0  0  0
  -26.4294  -37.3779   23.9410 N   0  0  0  0  0  0
  -24.6883  -31.0624   22.0993 N   0  0  0  0  0  0
  -23.4203  -28.8161   23.3019 O   0  0  0  0  0  0
  -28.3491  -26.4811   20.1314 O   0  0  0  0  0  0
  -26.5619  -34.8922   22.4679 O   0  0  0  0  0  0
  -23.5434  -32.1405   23.7371 O   0  0  0  0  0  0
  -28.9237  -18.1149   20.4061 C   0  0  0  0  0  0
  -29.0054  -19.5256   20.2007 C   0  0  0  0  0  0
  -31.2595  -18.0227   20.8989 C   0  0  0  0  0  0
  -30.0435  -17.3128   20.7701 C   0  0  0  0  0  0
  -30.2167  -20.2509   20.3532 C   0  0  0  0  0  0
  -31.3475  -19.4337   20.7132 C   0  0  0  0  0  0
  -29.2319  -22.6602   20.2052 C   0  0  0  0  0  0
  -29.3266  -24.0142   19.9459 C   0  0  0  0  0  0
  -30.6380  -24.5126   19.4824 C   0  0  0  0  0  0
  -29.8509  -15.8594   21.2258 C   0  0  0  0  0  0
  -31.5988  -23.4685   18.9233 C   0  0  0  0  0  0
  -31.6168  -22.1807   19.7664 C   0  0  0  0  0  0
  -28.1289  -25.0274   19.9294 C   0  0  0  0  0  0
  -29.0333  -15.7152   22.1816 N   0  0  0  0  0  0
  -30.2799  -21.6886   20.1365 N   0  0  0  0  0  0
  -30.9844  -25.6977   19.4892 O   0  0  0  0  0  0
  -32.5614  -19.9892   20.9486 F   0  0  0  0  0  0
  -31.4892  -12.5626   19.1454 H   0  0  0  0  0  0
  -30.4172  -11.4057   19.8627 H   0  0  0  0  0  0
  -29.7857  -11.7965   17.4710 H   0  0  0  0  0  0
  -29.6566  -13.5129   17.7575 H   0  0  0  0  0  0
  -27.8598  -11.3112   18.8222 H   0  0  0  0  0  0
  -27.3840  -12.6303   17.7861 H   0  0  0  0  0  0
  -27.7018  -14.2567   19.5855 H   0  0  0  0  0  0
  -28.7361  -11.9114   21.2327 H   0  0  0  0  0  0
  -28.4090  -13.4297   21.9254 H   0  0  0  0  0  0
  -25.2757   -9.5688   22.4740 H   0  0  0  0  0  0
  -23.9999   -7.4637   22.7473 H   0  0  0  0  0  0
  -21.0825   -8.8769   19.8951 H   0  0  0  0  0  0
  -22.3686  -10.9664   19.6155 H   0  0  0  0  0  0
  -21.2012   -7.6145   23.9715 H   0  0  0  0  0  0
  -21.1479   -6.0518   25.9076 H   0  0  0  0  0  0
  -22.0599   -2.7606   23.2847 H   0  0  0  0  0  0
  -22.4121  -11.9900   22.4789 H   0  0  0  0  0  0
  -21.1127  -13.1272   22.2600 H   0  0  0  0  0  0
  -24.6772  -15.8495   20.5389 H   0  0  0  0  0  0
  -26.3080  -15.6212   20.1508 H   0  0  0  0  0  0
  -26.7179  -32.5457   23.1107 H   0  0  0  0  0  0
  -25.0073  -33.9730   25.0433 H   0  0  0  0  0  0
  -22.7131  -31.3072   21.4079 H   0  0  0  0  0  0
  -23.3753  -35.9626   23.3310 H   0  0  0  0  0  0
  -24.3577  -36.8906   22.2053 H   0  0  0  0  0  0
  -23.7242  -37.6497   23.6656 H   0  0  0  0  0  0
  -26.0937  -31.5575   20.6084 H   0  0  0  0  0  0
  -26.8433  -30.8387   22.0032 H   0  0  0  0  0  0
  -28.1180  -28.9874   21.1738 H   0  0  0  0  0  0
  -25.9291  -25.9457   18.9949 H   0  0  0  0  0  0
  -23.9574  -27.3196   19.0203 H   0  0  0  0  0  0
  -23.7529  -30.6044   19.4088 H   0  0  0  0  0  0
  -22.7528  -29.2559   19.8591 H   0  0  0  0  0  0
  -25.1291  -36.1945   25.0826 H   0  0  0  0  0  0
  -20.9972  -28.3257   24.1413 H   0  0  0  0  0  0
  -20.5687  -26.2292   23.3607 H   0  0  0  0  0  0
  -21.6642  -26.7451   22.1198 H   0  0  0  0  0  0
  -19.6912  -25.6302   21.1238 H   0  0  0  0  0  0
  -19.6687  -27.3206   20.6750 H   0  0  0  0  0  0
  -17.4199  -26.6677   21.4032 H   0  0  0  0  0  0
  -18.0332  -26.0073   22.9028 H   0  0  0  0  0  0
  -19.7934  -30.7271   24.2274 H   0  0  0  0  0  0
  -17.5014  -31.6271   24.5163 H   0  0  0  0  0  0
  -15.5351  -30.2992   23.7652 H   0  0  0  0  0  0
  -15.8672  -28.0827   22.7063 H   0  0  0  0  0  0
  -24.5917  -30.7051   25.7780 H   0  0  0  0  0  0
  -24.8912  -32.2872   26.4883 H   0  0  0  0  0  0
  -25.8062  -30.8891   27.0227 H   0  0  0  0  0  0
  -26.2906  -29.6764   24.1204 H   0  0  0  0  0  0
  -27.4052  -29.7267   25.4668 H   0  0  0  0  0  0
  -27.8774  -30.4305   23.9382 H   0  0  0  0  0  0
  -27.2686  -33.3618   26.2071 H   0  0  0  0  0  0
  -28.3875  -32.6863   25.0318 H   0  0  0  0  0  0
  -28.0731  -31.8435   26.5410 H   0  0  0  0  0  0
  -28.2604  -38.0093   24.7507 H   0  0  0  0  0  0
  -28.1065  -36.2624   24.6303 H   0  0  0  0  0  0
  -27.2296  -37.1466   25.8872 H   0  0  0  0  0  0
  -20.9366  -29.8767   21.6901 H   0  0  0  0  0  0
  -26.0178  -38.2858   24.1402 H   0  0  0  0  0  0
  -27.9542  -17.6452   20.3192 H   0  0  0  0  0  0
  -28.1029  -20.0514   19.9269 H   0  0  0  0  0  0
  -32.1445  -17.4910   21.2160 H   0  0  0  0  0  0
  -28.2768  -22.2420   20.4911 H   0  0  0  0  0  0
  -32.6023  -23.8864   18.8476 H   0  0  0  0  0  0
  -31.2756  -23.2360   17.9090 H   0  0  0  0  0  0
  -32.1917  -22.3592   20.6765 H   0  0  0  0  0  0
  -32.1541  -21.4331   19.1819 H   0  0  0  0  0  0
  -27.7135  -24.8843   18.9325 H   0  0  0  0  0  0
  -27.3801  -24.6766   20.6412 H   0  0  0  0  0  0
  -28.6550  -16.6101   22.4671 H   0  0  0  0  0  0
  1 25  1  0  0  0
  1 30  2  0  0  0
  1 80  1  0  0  0
  2  3  1  0  0  0
  2 25  1  0  0  0
  2 88  1  0  0  0
  2 89  1  0  0  0
  3  4  1  0  0  0
  3 90  1  0  0  0
  3 91  1  0  0  0
  4  5  1  0  0  0
  4 92  1  0  0  0
  4 93  1  0  0  0
  5  6  1  0  0  0
  5 26  1  0  0  0
  5 94  1  0  0  0
  6 25  1  0  0  0
  6 95  1  0  0  0
  6 96  1  0  0  0
  7  8  2  0  0  0
  7 26  1  0  0  0
  7 29  1  0  0  0
  8  9  1  0  0  0
  8 22  1  0  0  0
  9 10  1  0  0  0
  9 27  2  0  0  0
 10 11  2  0  0  0
 10 15  1  0  0  0
 11 12  1  0  0  0
 11 97  1  0  0  0
 12 13  2  0  0  0
 12 98  1  0  0  0
 13 14  1  0  0  0
 13 31  1  0  0  0
 14 15  2  0  0  0
 14 99  1  0  0  0
 15100  1  0  0  0
 16 17  2  0  0  0
 16 21  1  0  0  0
 16 31  1  0  0  0
 17 18  1  0  0  0
 17101  1  0  0  0
 18 19  2  0  0  0
 18102  1  0  0  0
 19 20  1  0  0  0
 19 24  1  0  0  0
 20 21  2  0  0  0
 20103  1  0  0  0
 21 23  1  0  0  0
 22 28  1  0  0  0
 22 32  2  0  0  0
 26 27  1  0  0  0
 28104  1  0  0  0
 28105  1  0  0  0
 29106  1  0  0  0
 29107  1  0  0  0
 33 34  1  0  0  0
 33 66  1  0  0  0
 33 70  2  0  0  0
 34 36  1  0  0  0
 34 59  1  0  0  0
 34108  1  0  0  0
 35 44  2  0  0  0
 35 45  1  0  0  0
 35 68  1  0  0  0
 36 56  1  0  0  0
 36109  1  0  0  0
 37 39  1  0  0  0
 37 47  1  0  0  0
 37 66  1  0  0  0
 37110  1  0  0  0
 38 43  2  0  0  0
 38 46  1  0  0  0
 38 47  1  0  0  0
 39 64  1  0  0  0
 39 67  2  0  0  0
 40 52  1  0  0  0
 40 53  2  0  0  0
 40 58  1  0  0  0
 41111  1  0  0  0
 41112  1  0  0  0
 41113  1  0  0  0
 41 48  1  0  0  0
 42 43  1  0  0  0
 42 66  1  0  0  0
 42114  1  0  0  0
 42115  1  0  0  0
 43 44  1  0  0  0
 44116  1  0  0  0
 45 46  2  0  0  0
 45117  1  0  0  0
 46118  1  0  0  0
 47119  1  0  0  0
 47120  1  0  0  0
 48 56  1  0  0  0
 48 65  1  0  0  0
 48121  1  0  0  0
 49 50  1  0  0  0
 49 53  1  0  0  0
 49 64  1  0  0  0
 49122  1  0  0  0
 50 51  1  0  0  0
 50123  1  0  0  0
 50124  1  0  0  0
 51 52  1  0  0  0
 51125  1  0  0  0
 51126  1  0  0  0
 52127  1  0  0  0
 52128  1  0  0  0
 53 54  1  0  0  0
 54 55  2  0  0  0
 54129  1  0  0  0
 55 57  1  0  0  0
 55130  1  0  0  0
 56 69  2  0  0  0
 57 58  2  0  0  0
 57131  1  0  0  0
 58132  1  0  0  0
 59 60  1  0  0  0
 59 61  1  0  0  0
 59 62  1  0  0  0
 60133  1  0  0  0
 60134  1  0  0  0
 60135  1  0  0  0
 61136  1  0  0  0
 61137  1  0  0  0
 61138  1  0  0  0
 62139  1  0  0  0
 62140  1  0  0  0
 62141  1  0  0  0
 63 65  1  0  0  0
 63142  1  0  0  0
 63143  1  0  0  0
 63144  1  0  0  0
 64145  1  0  0  0
 65146  1  0  0  0
 68 83  1  0  0  0
 71 72  2  0  0  0
 71 74  1  0  0  0
 71147  1  0  0  0
 72 75  1  0  0  0
 72148  1  0  0  0
 73 74  2  0  0  0
 73 76  1  0  0  0
 73149  1  0  0  0
 74 80  1  0  0  0
 75 76  2  0  0  0
 75 85  1  0  0  0
 76 87  1  0  0  0
 77 78  2  0  0  0
 77 85  1  0  0  0
 77150  1  0  0  0
 78 79  1  0  0  0
 78 83  1  0  0  0
 79 81  1  0  0  0
 79 86  2  0  0  0
 80 84  2  0  0  0
 81 82  1  0  0  0
 81151  1  0  0  0
 81152  1  0  0  0
 82 85  1  0  0  0
 82153  1  0  0  0
 82154  1  0  0  0
 83155  1  0  0  0
 83156  1  0  0  0
 84157  1  0  0  0
M  ISO  4   1 100  68 101  80 100  83 101
M  END
> <chiral flag>
0

> <version>
0

> <s_m_source_file>
/data/baiqing/PycharmProjects/Reinvent-master-3.2/result/LINK_invent/BTK/process_docking_weight1_custom_product_contain_oxygen_bond_distance_aromatic_linkinvent_7_9_3/rearranged_h_0097.sdf

> <i_m_source_file_index>
27

> <r_mmod_Potential_Energy-OPLS-2005>
242.310501098633

> <r_mmod_Stretch_Energy-OPLS-2005>
97.7624282836914

> <r_mmod_Bend_Energy-OPLS-2005>
153.707473754883

> <r_mmod_Torsional_Energy-OPLS-2005>
182.556610107422

> <r_mmod_Improper_Torsional_Energy-OPLS-2005>
3.99354553222656

> <r_mmod_Van_der_Waal_Energy-OPLS-2005>
179.861053466797

> <r_mmod_Electrostatic_Energy-OPLS-2005>
-200.474014282227

> <r_mmod_Solvation_Energy-OPLS-2005>
-219.778411865234

> <b_mmod_Minimization_Converged-OPLS-2005>
0

> <r_mmod_RMS_Derivative-OPLS-2005>
0.618104636669159

$$$$
27
                    3D
 Structure written by MMmdl.
164173  0  0  1  0            999 V2000
  -29.3668  -16.1665   20.9943 C   0  0  0  0  0  0
  -30.2070  -13.6461   19.8343 C   0  0  0  0  0  0
  -29.5559  -12.9405   18.5629 C   0  0  0  0  0  0
  -28.1783  -12.3537   18.8823 C   0  0  0  0  0  0
  -27.5038  -13.3121   19.8749 C   0  0  2  0  0  0
  -28.3252  -13.6694   21.1255 C   0  0  0  0  0  0
  -25.1736  -13.8188   20.5663 C   0  0  0  0  0  0
  -24.1267  -13.0315   20.9271 C   0  0  0  0  0  0
  -24.6025  -11.6832   20.8736 C   0  0  0  0  0  0
  -23.8870  -10.4198   21.0419 C   0  0  0  0  0  0
  -24.3518   -9.4160   21.9184 C   0  0  0  0  0  0
  -23.6246   -8.2176   22.0742 C   0  0  0  0  0  0
  -22.4233   -8.0194   21.3532 C   0  0  0  0  0  0
  -21.9813   -9.0133   20.4635 C   0  0  0  0  0  0
  -22.7077  -10.2029   20.3048 C   0  0  0  0  0  0
  -21.6832   -6.0692   22.5285 C   0  0  0  0  0  0
  -21.4000   -6.5614   23.8211 C   0  0  0  0  0  0
  -21.3656   -5.6778   24.9182 C   0  0  0  0  0  0
  -21.6042   -4.3039   24.7240 C   0  0  0  0  0  0
  -21.8821   -3.8119   23.4366 C   0  0  0  0  0  0
  -21.9188   -4.6926   22.3417 C   0  0  0  0  0  0
  -22.7369  -13.5087   21.2005 C   0  0  0  0  0  0
  -22.1660   -4.2114   21.0994 F   0  0  0  0  0  0
  -21.5634   -3.4529   25.7759 F   0  0  0  0  0  0
  -29.2846  -14.6648   20.6668 N   0  0  0  0  0  0
  -26.1962  -12.9409   20.2927 N   0  0  0  0  0  0
  -25.8872  -11.6509   20.5495 N   0  0  0  0  0  0
  -22.0114  -12.8067   22.0604 N   0  0  0  0  0  0
  -25.3446  -15.1965   20.4248 N   0  0  0  0  0  0
  -30.6080  -16.2725   20.6933 O   0  0  0  0  0  0
  -21.6607   -6.8805   21.4238 O   0  0  0  0  0  0
  -22.3090  -14.5417   20.6864 O   0  0  0  0  0  0
  -24.8611  -31.8587   23.2536 C   0  0  0  0  0  0
  -26.0571  -32.5402   23.9053 C   0  0  1  0  0  0
  -25.3624  -27.4920   20.3827 C   0  0  0  0  0  0
  -25.6619  -33.8992   24.2711 N   0  0  0  0  0  0
  -24.2280  -29.8193   22.0551 C   0  0  2  0  0  0
  -25.1834  -29.7837   19.5949 C   0  0  0  0  0  0
  -24.2717  -28.0885   22.7009 C   0  0  0  0  0  0
  -18.3562  -27.7187   22.7729 C   0  0  0  0  0  0
  -24.1497  -36.7415   23.2530 C   0  0  0  0  0  0
  -26.3674  -30.7741   21.5626 C   0  0  0  0  0  0
  -26.2354  -29.6808   20.5083 C   0  0  0  0  0  0
  -26.4747  -28.3382   20.8387 C   0  0  0  0  0  0
  -25.5915  -27.3946   19.0440 C   0  0  0  0  0  0
  -25.0813  -28.6628   18.6589 C   0  0  0  0  0  0
  -23.9802  -30.2947   20.4364 C   0  0  0  0  0  0
  -25.4094  -36.3281   24.0294 C   0  0  1  0  0  0
  -21.1043  -26.7622   22.5158 C   0  0  2  0  0  0
  -20.5999  -26.0745   21.3814 C   0  0  0  0  0  0
  -19.2031  -26.4158   20.9467 C   0  0  0  0  0  0
  -18.1652  -26.4457   22.0529 C   0  0  0  0  0  0
  -19.7556  -28.0424   23.0253 C   0  0  0  0  0  0
  -19.6563  -29.4093   23.6394 C   0  0  0  0  0  0
  -18.4438  -30.1995   23.9107 C   0  0  0  0  0  0
  -25.9148  -34.9704   23.5145 C   0  0  0  0  0  0
  -17.1532  -29.7279   23.6090 C   0  0  0  0  0  0
  -17.1404  -28.4590   23.0278 C   0  0  0  0  0  0
  -26.5315  -31.7096   25.1554 C   0  0  0  0  0  0
  -25.4041  -31.3873   26.1679 C   0  0  0  0  0  0
  -27.2010  -30.3717   24.7563 C   0  0  0  0  0  0
  -27.6326  -32.5074   25.8750 C   0  0  0  0  0  0
  -27.5575  -37.1924   24.8457 C   0  0  0  0  0  0
  -23.1551  -26.7714   22.2542 N   0  0  0  0  0  0
  -26.4265  -37.3967   23.9436 N   0  0  0  0  0  0
  -25.1730  -30.8209   22.4272 N   0  0  0  0  0  0
  -24.8781  -28.1252   23.7255 O   0  0  0  0  0  0
  -23.7924  -27.9096   20.4363 O   0  0  0  0  0  0
  -26.5454  -34.9075   22.4555 O   0  0  0  0  0  0
  -23.7114  -32.1700   23.6318 O   0  0  0  0  0  0
  -24.8606  -20.3108   22.8562 C   0  0  0  0  0  0
  -23.7059  -21.0600   23.3310 C   0  0  0  0  0  0
  -25.7873  -22.5025   22.9874 C   0  0  0  0  0  0
  -26.1713  -20.8054   22.5925 C   0  0  0  0  0  0
  -24.4521  -23.5562   23.5242 C   0  0  0  0  0  0
  -23.5030  -22.4720   23.6630 C   0  0  0  0  0  0
  -22.0406  -22.9482   25.5757 C   0  0  0  0  0  0
  -20.5728  -23.1848   25.8885 C   0  0  0  0  0  0
  -19.8706  -22.9154   24.5564 C   0  0  0  0  0  0
  -20.9830  -22.5715   23.5526 C   0  0  0  0  0  0
  -23.7437  -25.4769   24.2626 C   0  0  0  0  0  0
  -27.6295  -19.3318   21.9614 C   0  0  0  0  0  0
  -22.4618  -27.5180   24.2171 C   0  0  0  0  0  0
  -22.1748  -28.6791   21.7619 C   0  0  0  0  0  0
  -22.2421  -22.7648   24.2589 N   0  0  0  0  0  0
  -28.2361  -17.4154   21.4946 N   0  0  0  0  0  0
  -22.9048  -22.9581   26.4590 O   0  0  0  0  0  0
  -31.0879  -14.1831   19.4808 H   0  0  0  0  0  0
  -30.6205  -12.8874   20.5016 H   0  0  0  0  0  0
  -30.2176  -12.1732   18.1583 H   0  0  0  0  0  0
  -29.4415  -13.6900   17.7785 H   0  0  0  0  0  0
  -28.3002  -11.3703   19.3396 H   0  0  0  0  0  0
  -27.5824  -12.2196   17.9787 H   0  0  0  0  0  0
  -27.3653  -14.2220   19.2871 H   0  0  0  0  0  0
  -28.7582  -12.7957   21.6160 H   0  0  0  0  0  0
  -27.7014  -14.1508   21.8814 H   0  0  0  0  0  0
  -25.2660   -9.5688   22.4748 H   0  0  0  0  0  0
  -23.9975   -7.4573   22.7450 H   0  0  0  0  0  0
  -21.0745   -8.8610   19.8953 H   0  0  0  0  0  0
  -22.3500  -10.9565   19.6166 H   0  0  0  0  0  0
  -21.1980   -7.6121   23.9704 H   0  0  0  0  0  0
  -21.1486   -6.0514   25.9084 H   0  0  0  0  0  0
  -22.0611   -2.7581   23.2875 H   0  0  0  0  0  0
  -22.3790  -11.9725   22.4943 H   0  0  0  0  0  0
  -21.0750  -13.1068   22.2907 H   0  0  0  0  0  0
  -24.5491  -15.8216   20.4969 H   0  0  0  0  0  0
  -26.1185  -15.6043   19.9174 H   0  0  0  0  0  0
  -26.9006  -32.6036   23.2177 H   0  0  0  0  0  0
  -25.1078  -34.0127   25.1072 H   0  0  0  0  0  0
  -23.4653  -30.1644   22.7369 H   0  0  0  0  0  0
  -23.3788  -35.9715   23.3163 H   0  0  0  0  0  0
  -24.3633  -36.9035   22.1951 H   0  0  0  0  0  0
  -23.7207  -37.6608   23.6520 H   0  0  0  0  0  0
  -26.4956  -31.7324   21.0533 H   0  0  0  0  0  0
  -27.2803  -30.5901   22.1217 H   0  0  0  0  0  0
  -27.0345  -28.0839   21.7290 H   0  0  0  0  0  0
  -25.1880  -26.5753   18.4646 H   0  0  0  0  0  0
  -24.3680  -28.6955   17.8477 H   0  0  0  0  0  0
  -23.9622  -31.3844   20.3647 H   0  0  0  0  0  0
  -23.0478  -30.0218   19.9427 H   0  0  0  0  0  0
  -25.1214  -36.2148   25.0771 H   0  0  0  0  0  0
  -20.9261  -25.9831   23.2675 H   0  0  0  0  0  0
  -20.6959  -24.9977   21.5070 H   0  0  0  0  0  0
  -21.2486  -26.2851   20.5310 H   0  0  0  0  0  0
  -18.9073  -25.6612   20.2160 H   0  0  0  0  0  0
  -19.1862  -27.3561   20.3940 H   0  0  0  0  0  0
  -17.1665  -26.3818   21.6165 H   0  0  0  0  0  0
  -18.2749  -25.5996   22.7344 H   0  0  0  0  0  0
  -20.5908  -29.8805   23.9126 H   0  0  0  0  0  0
  -18.5494  -31.1786   24.3595 H   0  0  0  0  0  0
  -16.2551  -30.3007   23.7938 H   0  0  0  0  0  0
  -16.1853  -28.0368   22.7472 H   0  0  0  0  0  0
  -24.6731  -30.6848   25.7667 H   0  0  0  0  0  0
  -24.8673  -32.2850   26.4743 H   0  0  0  0  0  0
  -25.8064  -30.9321   27.0737 H   0  0  0  0  0  0
  -26.5512  -29.6947   24.2262 H   0  0  0  0  0  0
  -27.5322  -29.8247   25.6405 H   0  0  0  0  0  0
  -28.0927  -30.5326   24.1505 H   0  0  0  0  0  0
  -27.2496  -33.4269   26.3184 H   0  0  0  0  0  0
  -28.4376  -32.7882   25.1949 H   0  0  0  0  0  0
  -28.0798  -31.9364   26.6896 H   0  0  0  0  0  0
  -28.2553  -38.0265   24.7588 H   0  0  0  0  0  0
  -28.1124  -36.2810   24.6179 H   0  0  0  0  0  0
  -27.2306  -37.1442   25.8859 H   0  0  0  0  0  0
  -23.5391  -25.8620   22.4657 H   0  0  0  0  0  0
  -26.0145  -38.3021   24.1523 H   0  0  0  0  0  0
  -24.7125  -19.2482   22.7105 H   0  0  0  0  0  0
  -22.8497  -20.4232   23.5077 H   0  0  0  0  0  0
  -26.6874  -23.0939   22.8883 H   0  0  0  0  0  0
  -20.4284  -24.2140   26.2190 H   0  0  0  0  0  0
  -20.2303  -22.5131   26.6762 H   0  0  0  0  0  0
  -19.3024  -23.7887   24.2315 H   0  0  0  0  0  0
  -19.1699  -22.0860   24.6566 H   0  0  0  0  0  0
  -20.9393  -23.2068   22.6730 H   0  0  0  0  0  0
  -20.8847  -21.5387   23.2155 H   0  0  0  0  0  0
  -24.7499  -25.8649   24.4020 H   0  0  0  0  0  0
  -23.5222  -25.1942   25.2878 H   0  0  0  0  0  0
  -28.4356  -19.5997   22.6434 H   0  0  0  0  0  0
  -27.9232  -19.8085   21.0269 H   0  0  0  0  0  0
  -22.8863  -28.2287   24.9316 H   0  0  0  0  0  0
  -21.5294  -27.3757   24.7728 H   0  0  0  0  0  0
  -21.8562  -29.7278   21.7890 H   0  0  0  0  0  0
  -21.3303  -28.4842   21.0954 H   0  0  0  0  0  0
  -27.3878  -16.8754   21.6070 H   0  0  0  0  0  0
  1 25  1  0  0  0
  1 30  2  0  0  0
  1 86  1  0  0  0
  2  3  1  0  0  0
  2 25  1  0  0  0
  2 88  1  0  0  0
  2 89  1  0  0  0
  3  4  1  0  0  0
  3 90  1  0  0  0
  3 91  1  0  0  0
  4  5  1  0  0  0
  4 92  1  0  0  0
  4 93  1  0  0  0
  5  6  1  0  0  0
  5 26  1  0  0  0
  5 94  1  0  0  0
  6 25  1  0  0  0
  6 95  1  0  0  0
  6 96  1  0  0  0
  7  8  2  0  0  0
  7 26  1  0  0  0
  7 29  1  0  0  0
  8  9  1  0  0  0
  8 22  1  0  0  0
  9 10  1  0  0  0
  9 27  2  0  0  0
 10 11  2  0  0  0
 10 15  1  0  0  0
 11 12  1  0  0  0
 11 97  1  0  0  0
 12 13  2  0  0  0
 12 98  1  0  0  0
 13 14  1  0  0  0
 13 31  1  0  0  0
 14 15  2  0  0  0
 14 99  1  0  0  0
 15100  1  0  0  0
 16 17  2  0  0  0
 16 21  1  0  0  0
 16 31  1  0  0  0
 17 18  1  0  0  0
 17101  1  0  0  0
 18 19  2  0  0  0
 18102  1  0  0  0
 19 20  1  0  0  0
 19 24  1  0  0  0
 20 21  2  0  0  0
 20103  1  0  0  0
 21 23  1  0  0  0
 22 28  1  0  0  0
 22 32  2  0  0  0
 26 27  1  0  0  0
 28104  1  0  0  0
 28105  1  0  0  0
 29106  1  0  0  0
 29107  1  0  0  0
 33 34  1  0  0  0
 33 66  1  0  0  0
 33 70  2  0  0  0
 34 36  1  0  0  0
 34 59  1  0  0  0
 34108  1  0  0  0
 35 44  2  0  0  0
 35 45  1  0  0  0
 35 68  1  0  0  0
 36 56  1  0  0  0
 36109  1  0  0  0
 37 39  1  0  0  0
 37 47  1  0  0  0
 37 66  1  0  0  0
 37110  1  0  0  0
 38 43  2  0  0  0
 38 46  1  0  0  0
 38 47  1  0  0  0
 39 64  1  0  0  0
 39 67  2  0  0  0
 40 52  1  0  0  0
 40 53  2  0  0  0
 40 58  1  0  0  0
 41111  1  0  0  0
 41112  1  0  0  0
 41113  1  0  0  0
 41 48  1  0  0  0
 42 43  1  0  0  0
 42 66  1  0  0  0
 42114  1  0  0  0
 42115  1  0  0  0
 43 44  1  0  0  0
 44116  1  0  0  0
 45 46  2  0  0  0
 45117  1  0  0  0
 46118  1  0  0  0
 47119  1  0  0  0
 47120  1  0  0  0
 48 56  1  0  0  0
 48 65  1  0  0  0
 48121  1  0  0  0
 49 50  1  0  0  0
 49 53  1  0  0  0
 49 64  1  0  0  0
 49122  1  0  0  0
 50 51  1  0  0  0
 50123  1  0  0  0
 50124  1  0  0  0
 51 52  1  0  0  0
 51125  1  0  0  0
 51126  1  0  0  0
 52127  1  0  0  0
 52128  1  0  0  0
 53 54  1  0  0  0
 54 55  2  0  0  0
 54129  1  0  0  0
 55 57  1  0  0  0
 55130  1  0  0  0
 56 69  2  0  0  0
 57 58  2  0  0  0
 57131  1  0  0  0
 58132  1  0  0  0
 59 60  1  0  0  0
 59 61  1  0  0  0
 59 62  1  0  0  0
 60133  1  0  0  0
 60134  1  0  0  0
 60135  1  0  0  0
 61136  1  0  0  0
 61137  1  0  0  0
 61138  1  0  0  0
 62139  1  0  0  0
 62140  1  0  0  0
 62141  1  0  0  0
 63 65  1  0  0  0
 63142  1  0  0  0
 63143  1  0  0  0
 63144  1  0  0  0
 64145  1  0  0  0
 65146  1  0  0  0
 68 84  1  0  0  0
 71 72  2  0  0  0
 71 74  1  0  0  0
 71147  1  0  0  0
 72 76  1  0  0  0
 72148  1  0  0  0
 73 74  2  0  0  0
 73 75  1  0  0  0
 73149  1  0  0  0
 74 82  1  0  0  0
 75 76  2  0  0  0
 75 81  1  0  0  0
 76 85  1  0  0  0
 77 78  1  0  0  0
 77 85  1  0  0  0
 77 87  2  0  0  0
 78 79  1  0  0  0
 78150  1  0  0  0
 78151  1  0  0  0
 79 80  1  0  0  0
 79152  1  0  0  0
 79153  1  0  0  0
 80 85  1  0  0  0
 80154  1  0  0  0
 80155  1  0  0  0
 81 83  1  0  0  0
 81156  1  0  0  0
 81157  1  0  0  0
 82 86  1  0  0  0
 82158  1  0  0  0
 82159  1  0  0  0
 83 84  1  0  0  0
 83160  1  0  0  0
 83161  1  0  0  0
 84162  1  0  0  0
 84163  1  0  0  0
 86164  1  0  0  0
M  ISO  4   1 100  68 101  84 101  86 100
M  END
> <chiral flag>
0

> <version>
0

> <s_m_source_file>
/data/baiqing/PycharmProjects/Reinvent-master-3.2/result/LINK_invent/BTK/process_docking_weight1_custom_product_contain_oxygen_bond_distance_aromatic_linkinvent_7_9_3/rearranged_h_0097.sdf

> <i_m_source_file_index>
28

> <r_mmod_Potential_Energy-OPLS-2005>
19510.5703125

> <r_mmod_Stretch_Energy-OPLS-2005>
7767.32421875

> <r_mmod_Bend_Energy-OPLS-2005>
1696.88354492188

> <r_mmod_Torsional_Energy-OPLS-2005>
716.687377929688

> <r_mmod_Improper_Torsional_Energy-OPLS-2005>
96.7049179077148

> <r_mmod_Van_der_Waal_Energy-OPLS-2005>
2212.22680664062

> <r_mmod_Electrostatic_Energy-OPLS-2005>
-358.726013183594

> <r_mmod_Solvation_Energy-OPLS-2005>
-219.190582275391

> <b_mmod_Minimization_Converged-OPLS-2005>
0

> <r_mmod_RMS_Derivative-OPLS-2005>
3.67881727218628

$$$$
28
                    3D
 Structure written by MMmdl.
165174  0  0  1  0            999 V2000
  -30.7025  -14.4117   20.5737 C   0  0  0  0  0  0
  -30.4306  -12.2704   19.4113 C   0  0  0  0  0  0
  -29.4999  -12.4979   18.1995 C   0  0  0  0  0  0
  -28.0125  -12.3795   18.6014 C   0  0  0  0  0  0
  -27.6690  -13.1845   19.8850 C   0  0  2  0  0  0
  -28.7127  -12.8824   20.9862 C   0  0  0  0  0  0
  -25.2682  -13.8099   20.5721 C   0  0  0  0  0  0
  -24.1859  -13.0426   20.9116 C   0  0  0  0  0  0
  -24.6362  -11.6878   20.8687 C   0  0  0  0  0  0
  -23.9014  -10.4288   21.0381 C   0  0  0  0  0  0
  -24.3580   -9.4221   21.9167 C   0  0  0  0  0  0
  -23.6272   -8.2252   22.0746 C   0  0  0  0  0  0
  -22.4254   -8.0276   21.3543 C   0  0  0  0  0  0
  -21.9873   -9.0234   20.4639 C   0  0  0  0  0  0
  -22.7184  -10.2121   20.3042 C   0  0  0  0  0  0
  -21.6858   -6.0729   22.5287 C   0  0  0  0  0  0
  -21.4014   -6.5634   23.8215 C   0  0  0  0  0  0
  -21.3655   -5.6787   24.9176 C   0  0  0  0  0  0
  -21.6049   -4.3052   24.7236 C   0  0  0  0  0  0
  -21.8825   -3.8146   23.4355 C   0  0  0  0  0  0
  -21.9189   -4.6957   22.3411 C   0  0  0  0  0  0
  -22.7895  -13.5259   21.1778 C   0  0  0  0  0  0
  -22.1661   -4.2141   21.0992 F   0  0  0  0  0  0
  -21.5624   -3.4537   25.7750 F   0  0  0  0  0  0
  -30.0373  -13.2284   20.4570 N   0  0  0  0  0  0
  -26.3068  -12.9209   20.3416 N   0  0  0  0  0  0
  -25.9289  -11.6386   20.5746 N   0  0  0  0  0  0
  -22.0512  -12.8273   22.0339 N   0  0  0  0  0  0
  -25.4618  -15.1806   20.4353 N   0  0  0  0  0  0
  -31.8437  -14.5898   20.1330 O   0  0  0  0  0  0
  -21.6635   -6.8860   21.4243 O   0  0  0  0  0  0
  -22.3602  -14.5572   20.6636 O   0  0  0  0  0  0
  -24.6069  -31.8727   23.2155 C   0  0  0  0  0  0
  -25.8997  -32.4852   23.8420 C   0  0  1  0  0  0
  -27.2452  -27.5041   20.0809 C   0  0  0  0  0  0
  -25.5878  -33.8650   24.2353 N   0  0  0  0  0  0
  -23.3909  -30.4952   21.5546 C   0  0  2  0  0  0
  -24.8394  -28.9644   20.1211 C   0  0  0  0  0  0
  -22.7360  -29.4678   22.5033 C   0  0  0  0  0  0
  -18.0261  -28.1369   22.8499 C   0  0  0  0  0  0
  -24.1481  -36.7330   23.2638 C   0  0  0  0  0  0
  -25.9114  -30.8560   21.3586 C   0  0  0  0  0  0
  -25.9920  -29.4902   20.7189 C   0  0  0  0  0  0
  -27.1945  -28.7584   20.7134 C   0  0  0  0  0  0
  -26.0778  -26.9675   19.4951 C   0  0  0  0  0  0
  -24.8718  -27.6945   19.5154 C   0  0  0  0  0  0
  -23.5972  -29.8241   20.1695 C   0  0  0  0  0  0
  -25.4102  -36.3135   24.0341 C   0  0  1  0  0  0
  -20.5846  -28.3642   23.1344 C   0  0  2  0  0  0
  -20.6759  -26.9388   22.5423 C   0  0  0  0  0  0
  -19.5740  -26.6381   21.5215 C   0  0  0  0  0  0
  -18.1914  -26.7919   22.1623 C   0  0  0  0  0  0
  -19.1509  -28.8820   23.2921 C   0  0  0  0  0  0
  -18.9445  -30.1435   23.8920 C   0  0  0  0  0  0
  -17.6451  -30.6580   24.0569 C   0  0  0  0  0  0
  -25.9023  -34.9495   23.5143 C   0  0  0  0  0  0
  -16.5340  -29.9087   23.6326 C   0  0  0  0  0  0
  -16.7254  -28.6504   23.0344 C   0  0  0  0  0  0
  -26.4454  -31.6611   25.0713 C   0  0  0  0  0  0
  -25.3761  -31.3681   26.1484 C   0  0  0  0  0  0
  -27.0283  -30.3076   24.6023 C   0  0  0  0  0  0
  -27.6035  -32.4322   25.7482 C   0  0  0  0  0  0
  -27.5579  -37.1821   24.8462 C   0  0  0  0  0  0
  -21.4099  -29.3021   22.3761 N   0  0  0  0  0  0
  -26.4293  -37.3811   23.9410 N   0  0  0  0  0  0
  -24.6545  -31.0877   22.1027 N   0  0  0  0  0  0
  -23.4160  -28.8228   23.3057 O   0  0  0  0  0  0
  -28.4351  -26.8305   20.0420 O   0  0  0  0  0  0
  -26.5582  -34.8932   22.4700 O   0  0  0  0  0  0
  -23.5277  -32.1455   23.7587 O   0  0  0  0  0  0
  -29.9014  -20.5190   20.6555 C   0  0  0  0  0  0
  -30.5173  -19.2924   20.9802 C   0  0  0  0  0  0
  -28.7690  -18.1062   19.7416 C   0  0  0  0  0  0
  -28.7348  -20.5387   19.8558 C   0  0  0  0  0  0
  -29.9493  -18.0884   20.5128 C   0  0  0  0  0  0
  -28.1624  -19.3274   19.4153 C   0  0  0  0  0  0
  -29.8386  -22.4975   17.7602 C   0  0  0  0  0  0
  -29.9486  -15.6918   21.0096 C   0  0  0  0  0  0
  -30.7392  -23.5906   17.1660 C   0  0  0  0  0  0
  -30.1149  -24.9893   17.2201 C   0  0  0  0  0  0
  -28.5815  -24.2106   19.0397 C   0  0  0  0  0  0
  -29.6036  -25.2835   18.6320 C   0  0  2  0  0  0
  -28.0991  -21.8568   19.4405 C   0  0  0  0  0  0
  -28.9838  -26.6821   18.7366 C   0  0  0  0  0  0
  -28.9808  -22.8254   18.7639 N   0  0  0  0  0  0
  -28.7216  -15.7277   21.6005 N   0  0  0  0  0  0
  -30.6123  -16.8306   20.7183 N   0  3  0  0  0  0
  -29.9625  -21.3514   17.3225 O   0  0  0  0  0  0
  -27.0395  -19.3291   18.6572 F   0  0  0  0  0  0
  -31.4740  -12.3750   19.1104 H   0  0  0  0  0  0
  -30.3357  -11.2462   19.7762 H   0  0  0  0  0  0
  -29.7284  -11.7786   17.4113 H   0  0  0  0  0  0
  -29.6905  -13.4851   17.7765 H   0  0  0  0  0  0
  -27.7928  -11.3230   18.7595 H   0  0  0  0  0  0
  -27.3766  -12.6997   17.7751 H   0  0  0  0  0  0
  -27.7326  -14.2394   19.6211 H   0  0  0  0  0  0
  -28.6906  -11.8162   21.2192 H   0  0  0  0  0  0
  -28.4902  -13.3450   21.9446 H   0  0  0  0  0  0
  -25.2721   -9.5724   22.4727 H   0  0  0  0  0  0
  -23.9999   -7.4655   22.7480 H   0  0  0  0  0  0
  -21.0795   -8.8742   19.8943 H   0  0  0  0  0  0
  -22.3631  -10.9655   19.6149 H   0  0  0  0  0  0
  -21.2011   -7.6135   23.9718 H   0  0  0  0  0  0
  -21.1466   -6.0515   25.9074 H   0  0  0  0  0  0
  -22.0606   -2.7610   23.2870 H   0  0  0  0  0  0
  -22.4095  -11.9932   22.4739 H   0  0  0  0  0  0
  -21.1147  -13.1360   22.2532 H   0  0  0  0  0  0
  -24.7324  -15.8569   20.6307 H   0  0  0  0  0  0
  -26.3831  -15.5972   20.3597 H   0  0  0  0  0  0
  -26.7069  -32.5599   23.1196 H   0  0  0  0  0  0
  -25.0039  -33.9826   25.0503 H   0  0  0  0  0  0
  -22.6765  -31.3095   21.4171 H   0  0  0  0  0  0
  -23.3734  -35.9673   23.3318 H   0  0  0  0  0  0
  -24.3571  -36.8922   22.2048 H   0  0  0  0  0  0
  -23.7239  -37.6544   23.6634 H   0  0  0  0  0  0
  -26.0049  -31.6172   20.5822 H   0  0  0  0  0  0
  -26.8066  -30.9218   21.9646 H   0  0  0  0  0  0
  -28.0870  -29.1644   21.1695 H   0  0  0  0  0  0
  -26.0986  -25.9986   19.0188 H   0  0  0  0  0  0
  -23.9841  -27.2788   19.0583 H   0  0  0  0  0  0
  -23.6988  -30.5965   19.4065 H   0  0  0  0  0  0
  -22.7235  -29.2385   19.8785 H   0  0  0  0  0  0
  -25.1276  -36.2008   25.0833 H   0  0  0  0  0  0
  -20.9934  -28.3200   24.1466 H   0  0  0  0  0  0
  -20.5676  -26.2241   23.3599 H   0  0  0  0  0  0
  -21.6634  -26.7452   22.1210 H   0  0  0  0  0  0
  -19.6903  -25.6299   21.1227 H   0  0  0  0  0  0
  -19.6686  -27.3207   20.6759 H   0  0  0  0  0  0
  -17.4192  -26.6676   21.4018 H   0  0  0  0  0  0
  -18.0309  -26.0056   22.9008 H   0  0  0  0  0  0
  -19.7921  -30.7246   24.2296 H   0  0  0  0  0  0
  -17.5007  -31.6265   24.5163 H   0  0  0  0  0  0
  -15.5343  -30.2999   23.7640 H   0  0  0  0  0  0
  -15.8653  -28.0840   22.7037 H   0  0  0  0  0  0
  -24.5914  -30.7046   25.7824 H   0  0  0  0  0  0
  -24.8974  -32.2828   26.4996 H   0  0  0  0  0  0
  -25.8148  -30.8806   27.0201 H   0  0  0  0  0  0
  -26.2797  -29.6838   24.1120 H   0  0  0  0  0  0
  -27.4139  -29.7296   25.4430 H   0  0  0  0  0  0
  -27.8587  -30.4423   23.9088 H   0  0  0  0  0  0
  -27.2644  -33.3596   26.2111 H   0  0  0  0  0  0
  -28.3827  -32.6930   25.0308 H   0  0  0  0  0  0
  -28.0726  -31.8420   26.5364 H   0  0  0  0  0  0
  -28.2604  -38.0110   24.7512 H   0  0  0  0  0  0
  -28.1065  -36.2645   24.6287 H   0  0  0  0  0  0
  -27.2297  -37.1473   25.8864 H   0  0  0  0  0  0
  -20.9243  -29.8732   21.6989 H   0  0  0  0  0  0
  -26.0185  -38.2890   24.1410 H   0  0  0  0  0  0
  -30.3377  -21.4449   21.0006 H   0  0  0  0  0  0
  -31.4256  -19.2822   21.5663 H   0  0  0  0  0  0
  -28.3380  -17.1884   19.3703 H   0  0  0  0  0  0
  -30.9875  -23.3367   16.1355 H   0  0  0  0  0  0
  -31.6762  -23.5863   17.7237 H   0  0  0  0  0  0
  -29.2963  -25.0543   16.5007 H   0  0  0  0  0  0
  -30.8497  -25.7362   16.9165 H   0  0  0  0  0  0
  -27.6440  -24.3823   18.5085 H   0  0  0  0  0  0
  -28.3620  -24.3266   20.1017 H   0  0  0  0  0  0
  -30.4479  -25.2385   19.3228 H   0  0  0  0  0  0
  -27.6830  -22.2852   20.3535 H   0  0  0  0  0  0
  -27.2399  -21.6864   18.7914 H   0  0  0  0  0  0
  -28.2433  -26.8252   17.9463 H   0  0  0  0  0  0
  -29.7464  -27.4481   18.5874 H   0  0  0  0  0  0
  -28.3529  -16.5882   21.9851 H   0  0  0  0  0  0
  -28.2830  -14.8577   21.8664 H   0  0  0  0  0  0
  -31.6142  -16.7302   20.6486 H   0  0  0  0  0  0
  1 25  1  0  0  0
  1 30  2  0  0  0
  1 78  1  0  0  0
  2  3  1  0  0  0
  2 25  1  0  0  0
  2 90  1  0  0  0
  2 91  1  0  0  0
  3  4  1  0  0  0
  3 92  1  0  0  0
  3 93  1  0  0  0
  4  5  1  0  0  0
  4 94  1  0  0  0
  4 95  1  0  0  0
  5  6  1  0  0  0
  5 26  1  0  0  0
  5 96  1  0  0  0
  6 25  1  0  0  0
  6 97  1  0  0  0
  6 98  1  0  0  0
  7  8  2  0  0  0
  7 26  1  0  0  0
  7 29  1  0  0  0
  8  9  1  0  0  0
  8 22  1  0  0  0
  9 10  1  0  0  0
  9 27  2  0  0  0
 10 11  2  0  0  0
 10 15  1  0  0  0
 11 12  1  0  0  0
 11 99  1  0  0  0
 12 13  2  0  0  0
 12100  1  0  0  0
 13 14  1  0  0  0
 13 31  1  0  0  0
 14 15  2  0  0  0
 14101  1  0  0  0
 15102  1  0  0  0
 16 17  2  0  0  0
 16 21  1  0  0  0
 16 31  1  0  0  0
 17 18  1  0  0  0
 17103  1  0  0  0
 18 19  2  0  0  0
 18104  1  0  0  0
 19 20  1  0  0  0
 19 24  1  0  0  0
 20 21  2  0  0  0
 20105  1  0  0  0
 21 23  1  0  0  0
 22 28  1  0  0  0
 22 32  2  0  0  0
 26 27  1  0  0  0
 28106  1  0  0  0
 28107  1  0  0  0
 29108  1  0  0  0
 29109  1  0  0  0
 33 34  1  0  0  0
 33 66  1  0  0  0
 33 70  2  0  0  0
 34 36  1  0  0  0
 34 59  1  0  0  0
 34110  1  0  0  0
 35 44  2  0  0  0
 35 45  1  0  0  0
 35 68  1  0  0  0
 36 56  1  0  0  0
 36111  1  0  0  0
 37 39  1  0  0  0
 37 47  1  0  0  0
 37 66  1  0  0  0
 37112  1  0  0  0
 38 43  2  0  0  0
 38 46  1  0  0  0
 38 47  1  0  0  0
 39 64  1  0  0  0
 39 67  2  0  0  0
 40 52  1  0  0  0
 40 53  2  0  0  0
 40 58  1  0  0  0
 41113  1  0  0  0
 41114  1  0  0  0
 41115  1  0  0  0
 41 48  1  0  0  0
 42 43  1  0  0  0
 42 66  1  0  0  0
 42116  1  0  0  0
 42117  1  0  0  0
 43 44  1  0  0  0
 44118  1  0  0  0
 45 46  2  0  0  0
 45119  1  0  0  0
 46120  1  0  0  0
 47121  1  0  0  0
 47122  1  0  0  0
 48 56  1  0  0  0
 48 65  1  0  0  0
 48123  1  0  0  0
 49 50  1  0  0  0
 49 53  1  0  0  0
 49 64  1  0  0  0
 49124  1  0  0  0
 50 51  1  0  0  0
 50125  1  0  0  0
 50126  1  0  0  0
 51 52  1  0  0  0
 51127  1  0  0  0
 51128  1  0  0  0
 52129  1  0  0  0
 52130  1  0  0  0
 53 54  1  0  0  0
 54 55  2  0  0  0
 54131  1  0  0  0
 55 57  1  0  0  0
 55132  1  0  0  0
 56 69  2  0  0  0
 57 58  2  0  0  0
 57133  1  0  0  0
 58134  1  0  0  0
 59 60  1  0  0  0
 59 61  1  0  0  0
 59 62  1  0  0  0
 60135  1  0  0  0
 60136  1  0  0  0
 60137  1  0  0  0
 61138  1  0  0  0
 61139  1  0  0  0
 61140  1  0  0  0
 62141  1  0  0  0
 62142  1  0  0  0
 62143  1  0  0  0
 63 65  1  0  0  0
 63144  1  0  0  0
 63145  1  0  0  0
 63146  1  0  0  0
 64147  1  0  0  0
 65148  1  0  0  0
 68 84  1  0  0  0
 71 72  2  0  0  0
 71 74  1  0  0  0
 71149  1  0  0  0
 72 75  1  0  0  0
 72150  1  0  0  0
 73 75  2  0  0  0
 73 76  1  0  0  0
 73151  1  0  0  0
 74 76  2  0  0  0
 74 83  1  0  0  0
 75 87  1  0  0  0
 76 89  1  0  0  0
 77 79  1  0  0  0
 77 85  1  0  0  0
 77 88  2  0  0  0
 78 86  1  0  0  0
 78 87  2  0  0  0
 79 80  1  0  0  0
 79152  1  0  0  0
 79153  1  0  0  0
 80 82  1  0  0  0
 80154  1  0  0  0
 80155  1  0  0  0
 81 82  1  0  0  0
 81 85  1  0  0  0
 81156  1  0  0  0
 81157  1  0  0  0
 82 84  1  0  0  0
 82158  1  0  0  0
 83 85  1  0  0  0
 83159  1  0  0  0
 83160  1  0  0  0
 84161  1  0  0  0
 84162  1  0  0  0
 86163  1  0  0  0
 86164  1  0  0  0
 87165  1  0  0  0
M  CHG  1  87   1
M  ISO  4   1 100  68 101  78 100  84 101
M  END
> <chiral flag>
0

> <version>
0

> <s_m_source_file>
/data/baiqing/PycharmProjects/Reinvent-master-3.2/result/LINK_invent/BTK/process_docking_weight1_custom_product_contain_oxygen_bond_distance_aromatic_linkinvent_7_9_3/rearranged_h_0097.sdf

> <i_m_source_file_index>
29

> <r_mmod_Potential_Energy-OPLS-2005>
-86.0783843994141

> <r_mmod_Stretch_Energy-OPLS-2005>
36.0636253356934

> <r_mmod_Bend_Energy-OPLS-2005>
113.634979248047

> <r_mmod_Torsional_Energy-OPLS-2005>
240.865921020508

> <r_mmod_Improper_Torsional_Energy-OPLS-2005>
7.9899320602417

> <r_mmod_Van_der_Waal_Energy-OPLS-2005>
181.668121337891

> <r_mmod_Electrostatic_Energy-OPLS-2005>
-210.899124145508

> <r_mmod_Solvation_Energy-OPLS-2005>
-466.228515625

> <b_mmod_Minimization_Converged-OPLS-2005>
0

> <r_mmod_RMS_Derivative-OPLS-2005>
2.01574754714966

$$$$
29
                    3D
 Structure written by MMmdl.
166175  0  0  1  0            999 V2000
  -30.6933  -14.4547   20.5985 C   0  0  0  0  0  0
  -30.4256  -12.3009   19.4312 C   0  0  0  0  0  0
  -29.4988  -12.5125   18.2158 C   0  0  0  0  0  0
  -28.0168  -12.3783   18.6208 C   0  0  0  0  0  0
  -27.6637  -13.2076   19.8850 C   0  0  2  0  0  0
  -28.6988  -12.9636   21.0058 C   0  0  0  0  0  0
  -25.2556  -13.8149   20.5638 C   0  0  0  0  0  0
  -24.1828  -13.0429   20.9181 C   0  0  0  0  0  0
  -24.6400  -11.6894   20.8750 C   0  0  0  0  0  0
  -23.9083  -10.4277   21.0429 C   0  0  0  0  0  0
  -24.3638   -9.4185   21.9197 C   0  0  0  0  0  0
  -23.6302   -8.2219   22.0761 C   0  0  0  0  0  0
  -22.4271   -8.0272   21.3564 C   0  0  0  0  0  0
  -21.9921   -9.0245   20.4659 C   0  0  0  0  0  0
  -22.7260  -10.2119   20.3075 C   0  0  0  0  0  0
  -21.6835   -6.0741   22.5299 C   0  0  0  0  0  0
  -21.4007   -6.5645   23.8238 C   0  0  0  0  0  0
  -21.3653   -5.6802   24.9202 C   0  0  0  0  0  0
  -21.6031   -4.3067   24.7246 C   0  0  0  0  0  0
  -21.8803   -3.8156   23.4367 C   0  0  0  0  0  0
  -21.9188   -4.6967   22.3422 C   0  0  0  0  0  0
  -22.7846  -13.5211   21.1866 C   0  0  0  0  0  0
  -22.1652   -4.2152   21.0994 F   0  0  0  0  0  0
  -21.5643   -3.4552   25.7747 F   0  0  0  0  0  0
  -30.0376  -13.2698   20.4694 N   0  0  0  0  0  0
  -26.3022  -12.9337   20.3390 N   0  0  0  0  0  0
  -25.9327  -11.6497   20.5804 N   0  0  0  0  0  0
  -22.0503  -12.8194   22.0428 N   0  0  0  0  0  0
  -25.4218  -15.1862   20.3869 N   0  0  0  0  0  0
  -31.7921  -14.6572   20.0762 O   0  0  0  0  0  0
  -21.6631   -6.8870   21.4257 O   0  0  0  0  0  0
  -22.3498  -14.5513   20.6730 O   0  0  0  0  0  0
  -24.6143  -31.8683   23.2107 C   0  0  0  0  0  0
  -25.9035  -32.4818   23.8393 C   0  0  1  0  0  0
  -27.2394  -27.4328   20.0898 C   0  0  0  0  0  0
  -25.5887  -33.8620   24.2316 N   0  0  0  0  0  0
  -23.4002  -30.4916   21.5533 C   0  0  2  0  0  0
  -24.8433  -28.9541   20.1211 C   0  0  0  0  0  0
  -22.7395  -29.4669   22.5030 C   0  0  0  0  0  0
  -18.0274  -28.1384   22.8517 C   0  0  0  0  0  0
  -24.1478  -36.7310   23.2645 C   0  0  0  0  0  0
  -25.9299  -30.8301   21.3648 C   0  0  0  0  0  0
  -26.0032  -29.4641   20.7145 C   0  0  0  0  0  0
  -27.1977  -28.7085   20.7007 C   0  0  0  0  0  0
  -26.0467  -26.9253   19.5187 C   0  0  0  0  0  0
  -24.8596  -27.6817   19.5262 C   0  0  0  0  0  0
  -23.6043  -29.8207   20.1703 C   0  0  0  0  0  0
  -25.4104  -36.3113   24.0340 C   0  0  1  0  0  0
  -20.5861  -28.3665   23.1346 C   0  0  2  0  0  0
  -20.6770  -26.9409   22.5432 C   0  0  0  0  0  0
  -19.5746  -26.6394   21.5233 C   0  0  0  0  0  0
  -18.1922  -26.7932   22.1641 C   0  0  0  0  0  0
  -19.1523  -28.8837   23.2927 C   0  0  0  0  0  0
  -18.9445  -30.1445   23.8924 C   0  0  0  0  0  0
  -17.6449  -30.6589   24.0567 C   0  0  0  0  0  0
  -25.9039  -34.9478   23.5133 C   0  0  0  0  0  0
  -16.5341  -29.9092   23.6330 C   0  0  0  0  0  0
  -16.7262  -28.6512   23.0351 C   0  0  0  0  0  0
  -26.4452  -31.6607   25.0728 C   0  0  0  0  0  0
  -25.3705  -31.3726   26.1466 C   0  0  0  0  0  0
  -27.0298  -30.3054   24.6113 C   0  0  0  0  0  0
  -27.6036  -32.4332   25.7474 C   0  0  0  0  0  0
  -27.5582  -37.1809   24.8469 C   0  0  0  0  0  0
  -21.4127  -29.3027   22.3751 N   0  0  0  0  0  0
  -26.4291  -37.3801   23.9414 N   0  0  0  0  0  0
  -24.6662  -31.0793   22.1004 N   0  0  0  0  0  0
  -23.4170  -28.8211   23.3071 O   0  0  0  0  0  0
  -28.4435  -26.7495   20.1059 O   0  0  0  0  0  0
  -26.5613  -34.8931   22.4700 O   0  0  0  0  0  0
  -23.5336  -32.1435   23.7506 O   0  0  0  0  0  0
  -28.1640  -18.5550   20.5876 C   0  0  0  0  0  0
  -28.5046  -17.2705   21.0635 C   0  0  0  0  0  0
  -30.4463  -18.8772   19.8368 C   0  0  0  0  0  0
  -29.1187  -19.3565   19.9211 C   0  0  0  0  0  0
  -29.8074  -16.7520   20.8936 C   0  0  0  0  0  0
  -30.7995  -17.6029   20.3364 C   0  0  0  0  0  0
  -30.5285  -23.8997   19.9547 C   0  0  0  0  0  0
  -30.5150  -22.3938   19.6366 C   0  0  0  0  0  0
  -28.2374  -23.0675   19.8274 C   0  0  0  0  0  0
  -29.0601  -24.3376   20.1380 C   0  0  2  0  0  0
  -28.3301  -21.6366   16.7947 C   0  0  0  0  0  0
  -28.6574  -25.5846   19.2937 C   0  0  0  0  0  0
  -28.9799  -20.5683   17.6927 C   0  0  0  0  0  0
  -28.6807  -20.6569   19.2206 C   0  0  2  0  0  0
  -30.0252  -15.3953   21.2929 N   0  0  0  0  0  0
  -29.1485  -21.8993   19.9252 N   0  3  1  0  0  0
  -32.0972  -17.2268   20.2657 F   0  0  0  0  0  0
  -31.4714  -12.4048   19.1334 H   0  0  0  0  0  0
  -30.3289  -11.2824   19.8105 H   0  0  0  0  0  0
  -29.7378  -11.7909   17.4348 H   0  0  0  0  0  0
  -29.6726  -13.4978   17.7836 H   0  0  0  0  0  0
  -27.8147  -11.3223   18.8050 H   0  0  0  0  0  0
  -27.3768  -12.6712   17.7879 H   0  0  0  0  0  0
  -27.7178  -14.2593   19.6028 H   0  0  0  0  0  0
  -28.6643  -11.9218   21.3277 H   0  0  0  0  0  0
  -28.4458  -13.5410   21.8959 H   0  0  0  0  0  0
  -25.2792   -9.5649   22.4766 H   0  0  0  0  0  0
  -24.0029   -7.4594   22.7454 H   0  0  0  0  0  0
  -21.0874   -8.8778   19.8928 H   0  0  0  0  0  0
  -22.3763  -10.9670   19.6175 H   0  0  0  0  0  0
  -21.1997   -7.6151   23.9741 H   0  0  0  0  0  0
  -21.1493   -6.0543   25.9107 H   0  0  0  0  0  0
  -22.0592   -2.7618   23.2885 H   0  0  0  0  0  0
  -22.4148  -11.9855   22.4806 H   0  0  0  0  0  0
  -21.1108  -13.1189   22.2632 H   0  0  0  0  0  0
  -24.6318  -15.8203   20.4160 H   0  0  0  0  0  0
  -26.2444  -15.6037   19.9711 H   0  0  0  0  0  0
  -26.7098  -32.5517   23.1154 H   0  0  0  0  0  0
  -25.0010  -33.9781   25.0432 H   0  0  0  0  0  0
  -22.6888  -31.3072   21.4164 H   0  0  0  0  0  0
  -23.3748  -35.9638   23.3316 H   0  0  0  0  0  0
  -24.3569  -36.8911   22.2059 H   0  0  0  0  0  0
  -23.7212  -37.6510   23.6641 H   0  0  0  0  0  0
  -26.0455  -31.5935   20.5943 H   0  0  0  0  0  0
  -26.8173  -30.8819   21.9831 H   0  0  0  0  0  0
  -28.0921  -29.1054   21.1604 H   0  0  0  0  0  0
  -25.9825  -25.9426   19.0798 H   0  0  0  0  0  0
  -23.9624  -27.2724   19.0843 H   0  0  0  0  0  0
  -23.7047  -30.5918   19.4070 H   0  0  0  0  0  0
  -22.7283  -29.2356   19.8820 H   0  0  0  0  0  0
  -25.1277  -36.2000   25.0837 H   0  0  0  0  0  0
  -20.9962  -28.3237   24.1463 H   0  0  0  0  0  0
  -20.5726  -26.2259   23.3615 H   0  0  0  0  0  0
  -21.6633  -26.7478   22.1190 H   0  0  0  0  0  0
  -19.6912  -25.6317   21.1235 H   0  0  0  0  0  0
  -19.6686  -27.3225   20.6783 H   0  0  0  0  0  0
  -17.4198  -26.6694   21.4032 H   0  0  0  0  0  0
  -18.0310  -26.0062   22.9029 H   0  0  0  0  0  0
  -19.7915  -30.7259   24.2302 H   0  0  0  0  0  0
  -17.5000  -31.6275   24.5159 H   0  0  0  0  0  0
  -15.5344  -30.2999   23.7633 H   0  0  0  0  0  0
  -15.8665  -28.0836   22.7044 H   0  0  0  0  0  0
  -24.5841  -30.7128   25.7782 H   0  0  0  0  0  0
  -24.8930  -32.2889   26.4947 H   0  0  0  0  0  0
  -25.8029  -30.8842   27.0202 H   0  0  0  0  0  0
  -26.2857  -29.6818   24.1142 H   0  0  0  0  0  0
  -27.4043  -29.7296   25.4587 H   0  0  0  0  0  0
  -27.8693  -30.4386   23.9286 H   0  0  0  0  0  0
  -27.2645  -33.3599   26.2113 H   0  0  0  0  0  0
  -28.3787  -32.6952   25.0260 H   0  0  0  0  0  0
  -28.0759  -31.8419   26.5324 H   0  0  0  0  0  0
  -28.2614  -38.0095   24.7520 H   0  0  0  0  0  0
  -28.1057  -36.2631   24.6287 H   0  0  0  0  0  0
  -27.2299  -37.1454   25.8871 H   0  0  0  0  0  0
  -20.9296  -29.8725   21.6948 H   0  0  0  0  0  0
  -26.0194  -38.2882   24.1411 H   0  0  0  0  0  0
  -27.1426  -18.8902   20.6944 H   0  0  0  0  0  0
  -27.7355  -16.6679   21.5291 H   0  0  0  0  0  0
  -31.2106  -19.4659   19.3537 H   0  0  0  0  0  0
  -31.0397  -24.4395   19.1560 H   0  0  0  0  0  0
  -31.0948  -24.0968   20.8661 H   0  0  0  0  0  0
  -31.2641  -21.8498   20.2140 H   0  0  0  0  0  0
  -30.7657  -22.2728   18.5852 H   0  0  0  0  0  0
  -27.8198  -23.1422   18.8285 H   0  0  0  0  0  0
  -27.3877  -22.9552   20.5021 H   0  0  0  0  0  0
  -28.9084  -24.5657   21.1948 H   0  0  0  0  0  0
  -28.3782  -21.3431   15.7454 H   0  0  0  0  0  0
  -28.8377  -22.5982   16.8743 H   0  0  0  0  0  0
  -27.2761  -21.7798   17.0328 H   0  0  0  0  0  0
  -27.8494  -25.3457   18.6105 H   0  0  0  0  0  0
  -29.4659  -25.8515   18.6138 H   0  0  0  0  0  0
  -30.0477  -20.5141   17.4881 H   0  0  0  0  0  0
  -28.5856  -19.6083   17.3533 H   0  0  0  0  0  0
  -27.5925  -20.6685   19.3031 H   0  0  0  0  0  0
  -29.2506  -14.9935   21.7939 H   0  0  0  0  0  0
  -29.1462  -21.6594   20.9052 H   0  0  0  0  0  0
  1 25  1  0  0  0
  1 30  2  0  0  0
  1 85  1  0  0  0
  2  3  1  0  0  0
  2 25  1  0  0  0
  2 88  1  0  0  0
  2 89  1  0  0  0
  3  4  1  0  0  0
  3 90  1  0  0  0
  3 91  1  0  0  0
  4  5  1  0  0  0
  4 92  1  0  0  0
  4 93  1  0  0  0
  5  6  1  0  0  0
  5 26  1  0  0  0
  5 94  1  0  0  0
  6 25  1  0  0  0
  6 95  1  0  0  0
  6 96  1  0  0  0
  7  8  2  0  0  0
  7 26  1  0  0  0
  7 29  1  0  0  0
  8  9  1  0  0  0
  8 22  1  0  0  0
  9 10  1  0  0  0
  9 27  2  0  0  0
 10 11  2  0  0  0
 10 15  1  0  0  0
 11 12  1  0  0  0
 11 97  1  0  0  0
 12 13  2  0  0  0
 12 98  1  0  0  0
 13 14  1  0  0  0
 13 31  1  0  0  0
 14 15  2  0  0  0
 14 99  1  0  0  0
 15100  1  0  0  0
 16 17  2  0  0  0
 16 21  1  0  0  0
 16 31  1  0  0  0
 17 18  1  0  0  0
 17101  1  0  0  0
 18 19  2  0  0  0
 18102  1  0  0  0
 19 20  1  0  0  0
 19 24  1  0  0  0
 20 21  2  0  0  0
 20103  1  0  0  0
 21 23  1  0  0  0
 22 28  1  0  0  0
 22 32  2  0  0  0
 26 27  1  0  0  0
 28104  1  0  0  0
 28105  1  0  0  0
 29106  1  0  0  0
 29107  1  0  0  0
 33 34  1  0  0  0
 33 66  1  0  0  0
 33 70  2  0  0  0
 34 36  1  0  0  0
 34 59  1  0  0  0
 34108  1  0  0  0
 35 44  2  0  0  0
 35 45  1  0  0  0
 35 68  1  0  0  0
 36 56  1  0  0  0
 36109  1  0  0  0
 37 39  1  0  0  0
 37 47  1  0  0  0
 37 66  1  0  0  0
 37110  1  0  0  0
 38 43  2  0  0  0
 38 46  1  0  0  0
 38 47  1  0  0  0
 39 64  1  0  0  0
 39 67  2  0  0  0
 40 52  1  0  0  0
 40 53  2  0  0  0
 40 58  1  0  0  0
 41111  1  0  0  0
 41112  1  0  0  0
 41113  1  0  0  0
 41 48  1  0  0  0
 42 43  1  0  0  0
 42 66  1  0  0  0
 42114  1  0  0  0
 42115  1  0  0  0
 43 44  1  0  0  0
 44116  1  0  0  0
 45 46  2  0  0  0
 45117  1  0  0  0
 46118  1  0  0  0
 47119  1  0  0  0
 47120  1  0  0  0
 48 56  1  0  0  0
 48 65  1  0  0  0
 48121  1  0  0  0
 49 50  1  0  0  0
 49 53  1  0  0  0
 49 64  1  0  0  0
 49122  1  0  0  0
 50 51  1  0  0  0
 50123  1  0  0  0
 50124  1  0  0  0
 51 52  1  0  0  0
 51125  1  0  0  0
 51126  1  0  0  0
 52127  1  0  0  0
 52128  1  0  0  0
 53 54  1  0  0  0
 54 55  2  0  0  0
 54129  1  0  0  0
 55 57  1  0  0  0
 55130  1  0  0  0
 56 69  2  0  0  0
 57 58  2  0  0  0
 57131  1  0  0  0
 58132  1  0  0  0
 59 60  1  0  0  0
 59 61  1  0  0  0
 59 62  1  0  0  0
 60133  1  0  0  0
 60134  1  0  0  0
 60135  1  0  0  0
 61136  1  0  0  0
 61137  1  0  0  0
 61138  1  0  0  0
 62139  1  0  0  0
 62140  1  0  0  0
 62141  1  0  0  0
 63 65  1  0  0  0
 63142  1  0  0  0
 63143  1  0  0  0
 63144  1  0  0  0
 64145  1  0  0  0
 65146  1  0  0  0
 68 82  1  0  0  0
 71 72  2  0  0  0
 71 74  1  0  0  0
 71147  1  0  0  0
 72 75  1  0  0  0
 72148  1  0  0  0
 73 74  2  0  0  0
 73 76  1  0  0  0
 73149  1  0  0  0
 74 84  1  0  0  0
 75 76  2  0  0  0
 75 85  1  0  0  0
 76 87  1  0  0  0
 77 78  1  0  0  0
 77 80  1  0  0  0
 77150  1  0  0  0
 77151  1  0  0  0
 78152  1  0  0  0
 78153  1  0  0  0
 78 86  1  0  0  0
 79 80  1  0  0  0
 79 86  1  0  0  0
 79154  1  0  0  0
 79155  1  0  0  0
 80 82  1  0  0  0
 80156  1  0  0  0
 81 83  1  0  0  0
 81157  1  0  0  0
 81158  1  0  0  0
 81159  1  0  0  0
 82160  1  0  0  0
 82161  1  0  0  0
 83162  1  0  0  0
 83163  1  0  0  0
 83 84  1  0  0  0
 84 86  1  0  0  0
 84164  1  0  0  0
 85165  1  0  0  0
 86166  1  0  0  0
M  CHG  1  86   1
M  ISO  4   1 100  68 101  82 101  85 100
M  END
> <chiral flag>
0

> <version>
0

> <s_m_source_file>
/data/baiqing/PycharmProjects/Reinvent-master-3.2/result/LINK_invent/BTK/process_docking_weight1_custom_product_contain_oxygen_bond_distance_aromatic_linkinvent_7_9_3/rearranged_h_0097.sdf

> <i_m_source_file_index>
30

> <r_mmod_Potential_Energy-OPLS-2005>
-64.9480133056641

> <r_mmod_Stretch_Energy-OPLS-2005>
41.1044540405273

> <r_mmod_Bend_Energy-OPLS-2005>
137.080139160156

> <r_mmod_Torsional_Energy-OPLS-2005>
318.939880371094

> <r_mmod_Improper_Torsional_Energy-OPLS-2005>
6.03467035293579

> <r_mmod_Van_der_Waal_Energy-OPLS-2005>
156.961761474609

> <r_mmod_Electrostatic_Energy-OPLS-2005>
-282.178070068359

> <r_mmod_Solvation_Energy-OPLS-2005>
-454.290679931641

> <b_mmod_Minimization_Converged-OPLS-2005>
0

> <r_mmod_RMS_Derivative-OPLS-2005>
3.06071877479553

$$$$
30
                    3D
 Structure written by MMmdl.
164173  0  0  1  0            999 V2000
  -30.7415  -14.5341   20.5999 C   0  0  0  0  0  0
  -30.4188  -12.3583   19.4486 C   0  0  0  0  0  0
  -29.4972  -12.5137   18.2218 C   0  0  0  0  0  0
  -28.0203  -12.3582   18.6290 C   0  0  0  0  0  0
  -27.6579  -13.2117   19.8723 C   0  0  2  0  0  0
  -28.7027  -13.0451   21.0039 C   0  0  0  0  0  0
  -25.2574  -13.8158   20.5700 C   0  0  0  0  0  0
  -24.1837  -13.0422   20.9184 C   0  0  0  0  0  0
  -24.6405  -11.6894   20.8741 C   0  0  0  0  0  0
  -23.9066  -10.4284   21.0410 C   0  0  0  0  0  0
  -24.3615   -9.4193   21.9192 C   0  0  0  0  0  0
  -23.6289   -8.2229   22.0759 C   0  0  0  0  0  0
  -22.4271   -8.0273   21.3544 C   0  0  0  0  0  0
  -21.9911   -9.0244   20.4641 C   0  0  0  0  0  0
  -22.7240  -10.2123   20.3057 C   0  0  0  0  0  0
  -21.6843   -6.0730   22.5271 C   0  0  0  0  0  0
  -21.4001   -6.5632   23.8205 C   0  0  0  0  0  0
  -21.3668   -5.6791   24.9170 C   0  0  0  0  0  0
  -21.6051   -4.3057   24.7218 C   0  0  0  0  0  0
  -21.8818   -3.8144   23.4341 C   0  0  0  0  0  0
  -21.9188   -4.6962   22.3396 C   0  0  0  0  0  0
  -22.7851  -13.5221   21.1826 C   0  0  0  0  0  0
  -22.1660   -4.2148   21.0973 F   0  0  0  0  0  0
  -21.5644   -3.4545   25.7736 F   0  0  0  0  0  0
  -30.0266  -13.3716   20.4534 N   0  0  0  0  0  0
  -26.3014  -12.9342   20.3373 N   0  0  0  0  0  0
  -25.9339  -11.6492   20.5781 N   0  0  0  0  0  0
  -22.0485  -12.8218   22.0381 N   0  0  0  0  0  0
  -25.4221  -15.1879   20.4107 N   0  0  0  0  0  0
  -31.8326  -14.6673   20.0359 O   0  0  0  0  0  0
  -21.6630   -6.8870   21.4236 O   0  0  0  0  0  0
  -22.3536  -14.5526   20.6672 O   0  0  0  0  0  0
  -24.6200  -31.8630   23.2034 C   0  0  0  0  0  0
  -25.9070  -32.4794   23.8359 C   0  0  1  0  0  0
  -27.2367  -27.3779   20.1051 C   0  0  0  0  0  0
  -25.5919  -33.8599   24.2280 N   0  0  0  0  0  0
  -23.4112  -30.4862   21.5419 C   0  0  2  0  0  0
  -24.8608  -28.9449   20.1035 C   0  0  0  0  0  0
  -22.7424  -29.4651   22.4922 C   0  0  0  0  0  0
  -18.0289  -28.1374   22.8497 C   0  0  0  0  0  0
  -24.1484  -36.7304   23.2638 C   0  0  0  0  0  0
  -25.9435  -30.8078   21.3690 C   0  0  0  0  0  0
  -26.0183  -29.4381   20.7167 C   0  0  0  0  0  0
  -27.2022  -28.6558   20.7252 C   0  0  0  0  0  0
  -26.0675  -26.9234   19.4612 C   0  0  0  0  0  0
  -24.8831  -27.6890   19.4714 C   0  0  0  0  0  0
  -23.6251  -29.8179   20.1552 C   0  0  0  0  0  0
  -25.4112  -36.3089   24.0317 C   0  0  1  0  0  0
  -20.5885  -28.3695   23.1278 C   0  0  2  0  0  0
  -20.6787  -26.9424   22.5385 C   0  0  0  0  0  0
  -19.5769  -26.6384   21.5188 C   0  0  0  0  0  0
  -18.1946  -26.7918   22.1605 C   0  0  0  0  0  0
  -19.1541  -28.8845   23.2893 C   0  0  0  0  0  0
  -18.9477  -30.1454   23.8912 C   0  0  0  0  0  0
  -17.6491  -30.6599   24.0576 C   0  0  0  0  0  0
  -25.9054  -34.9460   23.5090 C   0  0  0  0  0  0
  -16.5374  -29.9095   23.6341 C   0  0  0  0  0  0
  -16.7275  -28.6509   23.0360 C   0  0  0  0  0  0
  -26.4474  -31.6616   25.0731 C   0  0  0  0  0  0
  -25.3710  -31.3739   26.1470 C   0  0  0  0  0  0
  -27.0345  -30.3061   24.6146 C   0  0  0  0  0  0
  -27.6041  -32.4365   25.7473 C   0  0  0  0  0  0
  -27.5573  -37.1806   24.8470 C   0  0  0  0  0  0
  -21.4146  -29.3060   22.3678 N   0  0  0  0  0  0
  -26.4288  -37.3786   23.9414 N   0  0  0  0  0  0
  -24.6756  -31.0688   22.0955 N   0  0  0  0  0  0
  -23.4162  -28.8193   23.2997 O   0  0  0  0  0  0
  -28.3653  -26.5772   20.2385 O   0  0  0  0  0  0
  -26.5621  -34.8919   22.4652 O   0  0  0  0  0  0
  -23.5385  -32.1419   23.7399 O   0  0  0  0  0  0
  -28.4004  -17.9402   19.6194 C   0  0  0  0  0  0
  -29.7804  -18.8578   21.3720 C   0  0  0  0  0  0
  -28.2802  -19.2265   19.0528 C   0  0  0  0  0  0
  -29.6742  -20.1566   20.7896 C   0  0  0  0  0  0
  -29.1522  -17.7222   20.7896 C   0  0  0  0  0  0
  -28.9336  -20.3708   19.5976 C   0  0  0  0  0  0
  -28.8363  -21.6586   17.5532 C   0  0  0  0  0  0
  -28.0723  -22.7611   16.8421 C   0  0  0  0  0  0
  -28.5318  -24.1182   17.3376 C   0  0  0  0  0  0
  -28.9424  -23.0050   19.6058 C   0  0  0  0  0  0
  -28.3162  -24.2709   18.8528 C   0  0  1  0  0  0
  -31.3937  -16.1142   22.3205 C   0  0  0  0  0  0
  -29.1153  -16.3109   21.4432 C   0  0  0  0  0  0
  -28.8431  -25.7338   19.1692 C   0  0  0  0  0  0
  -28.8326  -21.6642   18.9126 N   0  0  0  0  0  0
  -30.3493  -15.4818   21.5053 N   0  0  0  0  0  0
  -29.4104  -20.8084   16.8616 O   0  0  0  0  0  0
  -31.4629  -12.4426   19.1404 H   0  0  0  0  0  0
  -30.3275  -11.3567   19.8718 H   0  0  0  0  0  0
  -29.7549  -11.7755   17.4601 H   0  0  0  0  0  0
  -29.6525  -13.4915   17.7638 H   0  0  0  0  0  0
  -27.8387  -11.3020   18.8336 H   0  0  0  0  0  0
  -27.3720  -12.6227   17.7925 H   0  0  0  0  0  0
  -27.6807  -14.2453   19.5327 H   0  0  0  0  0  0
  -28.7023  -12.0159   21.3666 H   0  0  0  0  0  0
  -28.4540  -13.6550   21.8717 H   0  0  0  0  0  0
  -25.2763   -9.5672   22.4765 H   0  0  0  0  0  0
  -23.9998   -7.4625   22.7490 H   0  0  0  0  0  0
  -21.0845   -8.8760   19.8945 H   0  0  0  0  0  0
  -22.3706  -10.9663   19.6165 H   0  0  0  0  0  0
  -21.1974   -7.6139   23.9704 H   0  0  0  0  0  0
  -21.1501   -6.0523   25.9074 H   0  0  0  0  0  0
  -22.0590   -2.7607   23.2838 H   0  0  0  0  0  0
  -22.4112  -11.9905   22.4808 H   0  0  0  0  0  0
  -21.1078  -13.1224   22.2533 H   0  0  0  0  0  0
  -24.6496  -15.8325   20.5376 H   0  0  0  0  0  0
  -26.2625  -15.6395   20.0777 H   0  0  0  0  0  0
  -26.7129  -32.5477   23.1111 H   0  0  0  0  0  0
  -25.0124  -33.9785   25.0458 H   0  0  0  0  0  0
  -22.7048  -31.3063   21.3960 H   0  0  0  0  0  0
  -23.3740  -35.9644   23.3310 H   0  0  0  0  0  0
  -24.3557  -36.8921   22.2048 H   0  0  0  0  0  0
  -23.7244  -37.6507   23.6659 H   0  0  0  0  0  0
  -26.0642  -31.5662   20.5947 H   0  0  0  0  0  0
  -26.8285  -30.8608   21.9915 H   0  0  0  0  0  0
  -28.0890  -29.0220   21.2233 H   0  0  0  0  0  0
  -26.0405  -25.9599   18.9792 H   0  0  0  0  0  0
  -23.9954  -27.3046   18.9896 H   0  0  0  0  0  0
  -23.7387  -30.5922   19.3969 H   0  0  0  0  0  0
  -22.7487  -29.2436   19.8546 H   0  0  0  0  0  0
  -25.1273  -36.1932   25.0806 H   0  0  0  0  0  0
  -20.9998  -28.3259   24.1387 H   0  0  0  0  0  0
  -20.5663  -26.2306   23.3577 H   0  0  0  0  0  0
  -21.6670  -26.7432   22.1201 H   0  0  0  0  0  0
  -19.6929  -25.6274   21.1260 H   0  0  0  0  0  0
  -19.6707  -27.3174   20.6697 H   0  0  0  0  0  0
  -17.4200  -26.6685   21.4007 H   0  0  0  0  0  0
  -18.0360  -26.0019   22.8967 H   0  0  0  0  0  0
  -19.7962  -30.7281   24.2257 H   0  0  0  0  0  0
  -17.5050  -31.6281   24.5170 H   0  0  0  0  0  0
  -15.5386  -30.3025   23.7648 H   0  0  0  0  0  0
  -15.8672  -28.0852   22.7043 H   0  0  0  0  0  0
  -24.5918  -30.7026   25.7830 H   0  0  0  0  0  0
  -24.8863  -32.2900   26.4866 H   0  0  0  0  0  0
  -25.8064  -30.8974   27.0269 H   0  0  0  0  0  0
  -26.2929  -29.6793   24.1187 H   0  0  0  0  0  0
  -27.4110  -29.7329   25.4634 H   0  0  0  0  0  0
  -27.8740  -30.4394   23.9313 H   0  0  0  0  0  0
  -27.2658  -33.3686   26.2003 H   0  0  0  0  0  0
  -28.3856  -32.6898   25.0295 H   0  0  0  0  0  0
  -28.0695  -31.8520   26.5420 H   0  0  0  0  0  0
  -28.2593  -38.0106   24.7532 H   0  0  0  0  0  0
  -28.1064  -36.2637   24.6270 H   0  0  0  0  0  0
  -27.2302  -37.1447   25.8879 H   0  0  0  0  0  0
  -20.9301  -29.8792   21.6913 H   0  0  0  0  0  0
  -26.0158  -38.2847   24.1435 H   0  0  0  0  0  0
  -27.8781  -17.1164   19.1546 H   0  0  0  0  0  0
  -30.3351  -18.7469   22.2926 H   0  0  0  0  0  0
  -27.6694  -19.3123   18.1645 H   0  0  0  0  0  0
  -30.1809  -20.9861   21.2633 H   0  0  0  0  0  0
  -27.0077  -22.6219   17.0382 H   0  0  0  0  0  0
  -28.2175  -22.6788   15.7643 H   0  0  0  0  0  0
  -27.9911  -24.8892   16.7864 H   0  0  0  0  0  0
  -29.5896  -24.2536   17.0971 H   0  0  0  0  0  0
  -28.4955  -22.9271   20.5981 H   0  0  0  0  0  0
  -30.0061  -23.1817   19.7720 H   0  0  0  0  0  0
  -27.2425  -24.2310   19.0237 H   0  0  0  0  0  0
  -30.9751  -16.6169   23.1924 H   0  0  0  0  0  0
  -31.9413  -16.8526   21.7335 H   0  0  0  0  0  0
  -32.1122  -15.3799   22.6900 H   0  0  0  0  0  0
  -28.3227  -15.7459   20.9637 H   0  0  0  0  0  0
  -28.7582  -16.4388   22.4666 H   0  0  0  0  0  0
  -28.7378  -26.3583   18.2789 H   0  0  0  0  0  0
  -29.9215  -25.6580   19.3080 H   0  0  0  0  0  0
  1 25  1  0  0  0
  1 30  2  0  0  0
  1 86  1  0  0  0
  2  3  1  0  0  0
  2 25  1  0  0  0
  2 88  1  0  0  0
  2 89  1  0  0  0
  3  4  1  0  0  0
  3 90  1  0  0  0
  3 91  1  0  0  0
  4  5  1  0  0  0
  4 92  1  0  0  0
  4 93  1  0  0  0
  5  6  1  0  0  0
  5 26  1  0  0  0
  5 94  1  0  0  0
  6 25  1  0  0  0
  6 95  1  0  0  0
  6 96  1  0  0  0
  7  8  2  0  0  0
  7 26  1  0  0  0
  7 29  1  0  0  0
  8  9  1  0  0  0
  8 22  1  0  0  0
  9 10  1  0  0  0
  9 27  2  0  0  0
 10 11  2  0  0  0
 10 15  1  0  0  0
 11 12  1  0  0  0
 11 97  1  0  0  0
 12 13  2  0  0  0
 12 98  1  0  0  0
 13 14  1  0  0  0
 13 31  1  0  0  0
 14 15  2  0  0  0
 14 99  1  0  0  0
 15100  1  0  0  0
 16 17  2  0  0  0
 16 21  1  0  0  0
 16 31  1  0  0  0
 17 18  1  0  0  0
 17101  1  0  0  0
 18 19  2  0  0  0
 18102  1  0  0  0
 19 20  1  0  0  0
 19 24  1  0  0  0
 20 21  2  0  0  0
 20103  1  0  0  0
 21 23  1  0  0  0
 22 28  1  0  0  0
 22 32  2  0  0  0
 26 27  1  0  0  0
 28104  1  0  0  0
 28105  1  0  0  0
 29106  1  0  0  0
 29107  1  0  0  0
 33 34  1  0  0  0
 33 66  1  0  0  0
 33 70  2  0  0  0
 34 36  1  0  0  0
 34 59  1  0  0  0
 34108  1  0  0  0
 35 44  2  0  0  0
 35 45  1  0  0  0
 35 68  1  0  0  0
 36 56  1  0  0  0
 36109  1  0  0  0
 37 39  1  0  0  0
 37 47  1  0  0  0
 37 66  1  0  0  0
 37110  1  0  0  0
 38 43  2  0  0  0
 38 46  1  0  0  0
 38 47  1  0  0  0
 39 64  1  0  0  0
 39 67  2  0  0  0
 40 52  1  0  0  0
 40 53  2  0  0  0
 40 58  1  0  0  0
 41111  1  0  0  0
 41112  1  0  0  0
 41113  1  0  0  0
 41 48  1  0  0  0
 42 43  1  0  0  0
 42 66  1  0  0  0
 42114  1  0  0  0
 42115  1  0  0  0
 43 44  1  0  0  0
 44116  1  0  0  0
 45 46  2  0  0  0
 45117  1  0  0  0
 46118  1  0  0  0
 47119  1  0  0  0
 47120  1  0  0  0
 48 56  1  0  0  0
 48 65  1  0  0  0
 48121  1  0  0  0
 49 50  1  0  0  0
 49 53  1  0  0  0
 49 64  1  0  0  0
 49122  1  0  0  0
 50 51  1  0  0  0
 50123  1  0  0  0
 50124  1  0  0  0
 51 52  1  0  0  0
 51125  1  0  0  0
 51126  1  0  0  0
 52127  1  0  0  0
 52128  1  0  0  0
 53 54  1  0  0  0
 54 55  2  0  0  0
 54129  1  0  0  0
 55 57  1  0  0  0
 55130  1  0  0  0
 56 69  2  0  0  0
 57 58  2  0  0  0
 57131  1  0  0  0
 58132  1  0  0  0
 59 60  1  0  0  0
 59 61  1  0  0  0
 59 62  1  0  0  0
 60133  1  0  0  0
 60134  1  0  0  0
 60135  1  0  0  0
 61136  1  0  0  0
 61137  1  0  0  0
 61138  1  0  0  0
 62139  1  0  0  0
 62140  1  0  0  0
 62141  1  0  0  0
 63 65  1  0  0  0
 63142  1  0  0  0
 63143  1  0  0  0
 63144  1  0  0  0
 64145  1  0  0  0
 65146  1  0  0  0
 68 84  1  0  0  0
 71 73  2  0  0  0
 71 75  1  0  0  0
 71147  1  0  0  0
 72 74  1  0  0  0
 72 75  2  0  0  0
 72148  1  0  0  0
 73 76  1  0  0  0
 73149  1  0  0  0
 74 76  2  0  0  0
 74150  1  0  0  0
 75 83  1  0  0  0
 76 85  1  0  0  0
 77 78  1  0  0  0
 77 85  1  0  0  0
 77 87  2  0  0  0
 78 79  1  0  0  0
 78151  1  0  0  0
 78152  1  0  0  0
 79 81  1  0  0  0
 79153  1  0  0  0
 79154  1  0  0  0
 80 81  1  0  0  0
 80 85  1  0  0  0
 80155  1  0  0  0
 80156  1  0  0  0
 81 84  1  0  0  0
 81157  1  0  0  0
 82 86  1  0  0  0
 82158  1  0  0  0
 82159  1  0  0  0
 82160  1  0  0  0
 83 86  1  0  0  0
 83161  1  0  0  0
 83162  1  0  0  0
 84163  1  0  0  0
 84164  1  0  0  0
M  ISO  4   1 100  68 101  84 101  86 100
M  END
> <chiral flag>
0

> <version>
0

> <s_m_source_file>
/data/baiqing/PycharmProjects/Reinvent-master-3.2/result/LINK_invent/BTK/process_docking_weight1_custom_product_contain_oxygen_bond_distance_aromatic_linkinvent_7_9_3/rearranged_h_0097.sdf

> <i_m_source_file_index>
31

> <r_mmod_Potential_Energy-OPLS-2005>
278.313598632812

> <r_mmod_Stretch_Energy-OPLS-2005>
71.1118316650391

> <r_mmod_Bend_Energy-OPLS-2005>
164.40104675293

> <r_mmod_Torsional_Energy-OPLS-2005>
338.899536132812

> <r_mmod_Improper_Torsional_Energy-OPLS-2005>
6.08025789260864

> <r_mmod_Van_der_Waal_Energy-OPLS-2005>
164.846420288086

> <r_mmod_Electrostatic_Energy-OPLS-2005>
-277.244506835938

> <r_mmod_Solvation_Energy-OPLS-2005>
-217.452728271484

> <b_mmod_Minimization_Converged-OPLS-2005>
0

> <r_mmod_RMS_Derivative-OPLS-2005>
2.69350504875183

$$$$
31
                    3D
 Structure written by MMmdl.
152160  0  0  1  0            999 V2000
  -30.5850  -14.9199   20.3972 C   0  0  0  0  0  0
  -30.4251  -12.5616   19.5090 C   0  0  0  0  0  0
  -29.5147  -12.5008   18.2623 C   0  0  0  0  0  0
  -28.0526  -12.2881   18.6905 C   0  0  0  0  0  0
  -27.6248  -13.2451   19.8328 C   0  0  2  0  0  0
  -28.6635  -13.3011   20.9735 C   0  0  0  0  0  0
  -25.2450  -13.8225   20.5728 C   0  0  0  0  0  0
  -24.1760  -13.0447   20.9231 C   0  0  0  0  0  0
  -24.6360  -11.6933   20.8752 C   0  0  0  0  0  0
  -23.9053  -10.4296   21.0402 C   0  0  0  0  0  0
  -24.3604   -9.4206   21.9177 C   0  0  0  0  0  0
  -23.6281   -8.2239   22.0742 C   0  0  0  0  0  0
  -22.4266   -8.0273   21.3537 C   0  0  0  0  0  0
  -21.9896   -9.0250   20.4651 C   0  0  0  0  0  0
  -22.7220  -10.2131   20.3062 C   0  0  0  0  0  0
  -21.6853   -6.0732   22.5279 C   0  0  0  0  0  0
  -21.4017   -6.5635   23.8207 C   0  0  0  0  0  0
  -21.3661   -5.6784   24.9171 C   0  0  0  0  0  0
  -21.6042   -4.3042   24.7221 C   0  0  0  0  0  0
  -21.8820   -3.8143   23.4336 C   0  0  0  0  0  0
  -21.9196   -4.6968   22.3398 C   0  0  0  0  0  0
  -22.7788  -13.5221   21.1890 C   0  0  0  0  0  0
  -22.1662   -4.2156   21.0973 F   0  0  0  0  0  0
  -21.5626   -3.4520   25.7728 F   0  0  0  0  0  0
  -29.9446  -13.6817   20.3717 N   0  0  0  0  0  0
  -26.2851  -12.9444   20.3220 N   0  0  0  0  0  0
  -25.9284  -11.6580   20.5734 N   0  0  0  0  0  0
  -22.0439  -12.8225   22.0460 N   0  0  0  0  0  0
  -25.4155  -15.1950   20.4154 N   0  0  0  0  0  0
  -31.7960  -14.8889   20.1494 O   0  0  0  0  0  0
  -21.6634   -6.8873   21.4240 O   0  0  0  0  0  0
  -22.3483  -14.5520   20.6726 O   0  0  0  0  0  0
  -24.6416  -31.8446   23.1879 C   0  0  0  0  0  0
  -25.9198  -32.4688   23.8262 C   0  0  1  0  0  0
  -27.2047  -27.1368   20.1367 C   0  0  0  0  0  0
  -25.5952  -33.8490   24.2192 N   0  0  0  0  0  0
  -23.4438  -30.4652   21.5332 C   0  0  2  0  0  0
  -24.8883  -28.8915   20.1055 C   0  0  0  0  0  0
  -22.7555  -29.4544   22.4849 C   0  0  0  0  0  0
  -18.0299  -28.1396   22.8487 C   0  0  0  0  0  0
  -24.1493  -36.7270   23.2637 C   0  0  0  0  0  0
  -25.9987  -30.7168   21.3838 C   0  0  0  0  0  0
  -26.0643  -29.3280   20.7258 C   0  0  0  0  0  0
  -27.2203  -28.4631   20.7294 C   0  0  0  0  0  0
  -26.0030  -26.8009   19.4750 C   0  0  0  0  0  0
  -24.8695  -27.6425   19.4669 C   0  0  0  0  0  0
  -23.6676  -29.7971   20.1505 C   0  0  0  0  0  0
  -25.4118  -36.3020   24.0311 C   0  0  1  0  0  0
  -20.5913  -28.3721   23.1239 C   0  0  2  0  0  0
  -20.6798  -26.9436   22.5376 C   0  0  0  0  0  0
  -19.5743  -26.6382   21.5215 C   0  0  0  0  0  0
  -18.1945  -26.7920   22.1667 C   0  0  0  0  0  0
  -19.1557  -28.8876   23.2852 C   0  0  0  0  0  0
  -18.9477  -30.1478   23.8870 C   0  0  0  0  0  0
  -17.6473  -30.6604   24.0553 C   0  0  0  0  0  0
  -25.9071  -34.9400   23.5062 C   0  0  0  0  0  0
  -16.5363  -29.9097   23.6334 C   0  0  0  0  0  0
  -16.7282  -28.6511   23.0362 C   0  0  0  0  0  0
  -26.4533  -31.6547   25.0697 C   0  0  0  0  0  0
  -25.3771  -31.3777   26.1457 C   0  0  0  0  0  0
  -27.0353  -30.2931   24.6257 C   0  0  0  0  0  0
  -27.6095  -32.4287   25.7457 C   0  0  0  0  0  0
  -27.5571  -37.1774   24.8465 C   0  0  0  0  0  0
  -21.4247  -29.3060   22.3618 N   0  0  0  0  0  0
  -26.4278  -37.3736   23.9416 N   0  0  0  0  0  0
  -24.7146  -31.0297   22.0908 N   0  0  0  0  0  0
  -23.4211  -28.8091   23.2986 O   0  0  0  0  0  0
  -28.2705  -26.1755   20.2366 O   0  0  0  0  0  0
  -26.5667  -34.8895   22.4647 O   0  0  0  0  0  0
  -23.5538  -32.1331   23.7106 O   0  0  0  0  0  0
  -28.9696  -19.4688   21.4190 C   0  0  0  0  0  0
  -28.6040  -20.8738   21.5084 C   0  0  0  0  0  0
  -29.7207  -19.8740   19.2223 C   0  0  0  0  0  0
  -29.5792  -18.8852   20.2664 C   0  0  0  0  0  0
  -28.7761  -21.8747   20.4793 C   0  0  0  0  0  0
  -29.3396  -21.2878   19.2953 C   0  0  0  0  0  0
  -28.4570  -23.4432   20.7829 C   0  0  0  0  0  0
  -30.3249  -17.4655   20.1802 C   0  0  0  0  0  0
  -30.0146  -21.6460   17.0058 C   0  0  0  0  0  0
  -28.2408  -24.6955   19.7413 C   0  0  0  0  0  0
  -29.8702  -16.1544   20.4954 N   0  0  0  0  0  0
  -28.3194  -23.7631   21.9682 O   0  0  0  0  0  0
  -31.4630  -17.5944   19.7177 O   0  0  0  0  0  0
  -29.5356  -22.1589   18.2438 O   0  0  0  0  0  0
  -31.4614  -12.6879   19.1957 H   0  0  0  0  0  0
  -30.3946  -11.6191   20.0569 H   0  0  0  0  0  0
  -29.8314  -11.6928   17.6005 H   0  0  0  0  0  0
  -29.6039  -13.4248   17.6881 H   0  0  0  0  0  0
  -27.9662  -11.2569   19.0341 H   0  0  0  0  0  0
  -27.3842  -12.3805   17.8342 H   0  0  0  0  0  0
  -27.5856  -14.2367   19.3792 H   0  0  0  0  0  0
  -28.7400  -12.3397   21.4841 H   0  0  0  0  0  0
  -28.3647  -14.0321   21.7257 H   0  0  0  0  0  0
  -25.2753   -9.5691   22.4746 H   0  0  0  0  0  0
  -24.0006   -7.4630   22.7446 H   0  0  0  0  0  0
  -21.0828   -8.8765   19.8952 H   0  0  0  0  0  0
  -22.3666  -10.9669   19.6174 H   0  0  0  0  0  0
  -21.2006   -7.6142   23.9719 H   0  0  0  0  0  0
  -21.1483   -6.0507   25.9073 H   0  0  0  0  0  0
  -22.0599   -2.7610   23.2832 H   0  0  0  0  0  0
  -22.4058  -11.9906   22.4882 H   0  0  0  0  0  0
  -21.1067  -13.1280   22.2675 H   0  0  0  0  0  0
  -24.6463  -15.8468   20.5241 H   0  0  0  0  0  0
  -26.2558  -15.6321   20.0628 H   0  0  0  0  0  0
  -26.7258  -32.5290   23.0974 H   0  0  0  0  0  0
  -25.0021  -33.9592   25.0287 H   0  0  0  0  0  0
  -22.7452  -31.2906   21.3812 H   0  0  0  0  0  0
  -23.3754  -35.9599   23.3229 H   0  0  0  0  0  0
  -24.3598  -36.8990   22.2071 H   0  0  0  0  0  0
  -23.7245  -37.6440   23.6732 H   0  0  0  0  0  0
  -26.1489  -31.4682   20.6071 H   0  0  0  0  0  0
  -26.8732  -30.7719   22.0207 H   0  0  0  0  0  0
  -28.1156  -28.7849   21.2414 H   0  0  0  0  0  0
  -25.8901  -25.8502   18.9800 H   0  0  0  0  0  0
  -23.9680  -27.3062   18.9724 H   0  0  0  0  0  0
  -23.8078  -30.5737   19.3973 H   0  0  0  0  0  0
  -22.7805  -29.2432   19.8377 H   0  0  0  0  0  0
  -25.1296  -36.1829   25.0797 H   0  0  0  0  0  0
  -21.0000  -28.3293   24.1359 H   0  0  0  0  0  0
  -20.5749  -26.2315   23.3578 H   0  0  0  0  0  0
  -21.6648  -26.7475   22.1127 H   0  0  0  0  0  0
  -19.6905  -25.6287   21.1257 H   0  0  0  0  0  0
  -19.6648  -27.3181   20.6733 H   0  0  0  0  0  0
  -17.4177  -26.6595   21.4123 H   0  0  0  0  0  0
  -18.0410  -26.0101   22.9117 H   0  0  0  0  0  0
  -19.7955  -30.7305   24.2219 H   0  0  0  0  0  0
  -17.5033  -31.6286   24.5153 H   0  0  0  0  0  0
  -15.5369  -30.2999   23.7670 H   0  0  0  0  0  0
  -15.8680  -28.0826   22.7099 H   0  0  0  0  0  0
  -24.5564  -30.7665   25.7696 H   0  0  0  0  0  0
  -24.9487  -32.3028   26.5325 H   0  0  0  0  0  0
  -25.7982  -30.8410   26.9968 H   0  0  0  0  0  0
  -26.2927  -29.6659   24.1310 H   0  0  0  0  0  0
  -27.4013  -29.7228   25.4804 H   0  0  0  0  0  0
  -27.8836  -30.4147   23.9520 H   0  0  0  0  0  0
  -27.2706  -33.3584   26.2039 H   0  0  0  0  0  0
  -28.3893  -32.6859   25.0276 H   0  0  0  0  0  0
  -28.0776  -31.8412   26.5366 H   0  0  0  0  0  0
  -28.2541  -38.0112   24.7541 H   0  0  0  0  0  0
  -28.1105  -36.2636   24.6242 H   0  0  0  0  0  0
  -27.2287  -37.1369   25.8866 H   0  0  0  0  0  0
  -20.9448  -29.8773   21.6811 H   0  0  0  0  0  0
  -26.0128  -38.2788   24.1454 H   0  0  0  0  0  0
  -28.8414  -18.8506   22.2964 H   0  0  0  0  0  0
  -28.1948  -21.2051   22.4527 H   0  0  0  0  0  0
  -30.2111  -19.5096   18.3314 H   0  0  0  0  0  0
  -30.0247  -22.4505   16.2704 H   0  0  0  0  0  0
  -29.3715  -20.8560   16.6135 H   0  0  0  0  0  0
  -31.0355  -21.2705   17.0920 H   0  0  0  0  0  0
  -27.3310  -24.4826   19.1861 H   0  0  0  0  0  0
  -29.0393  -24.6122   19.0055 H   0  0  0  0  0  0
  -28.9047  -16.0882   20.7688 H   0  0  0  0  0  0
  1 25  1  0  0  0
  1 30  2  0  0  0
  1 81  1  0  0  0
  2  3  1  0  0  0
  2 25  1  0  0  0
  2 85  1  0  0  0
  2 86  1  0  0  0
  3  4  1  0  0  0
  3 87  1  0  0  0
  3 88  1  0  0  0
  4  5  1  0  0  0
  4 89  1  0  0  0
  4 90  1  0  0  0
  5  6  1  0  0  0
  5 26  1  0  0  0
  5 91  1  0  0  0
  6 25  1  0  0  0
  6 92  1  0  0  0
  6 93  1  0  0  0
  7  8  2  0  0  0
  7 26  1  0  0  0
  7 29  1  0  0  0
  8  9  1  0  0  0
  8 22  1  0  0  0
  9 10  1  0  0  0
  9 27  2  0  0  0
 10 11  2  0  0  0
 10 15  1  0  0  0
 11 12  1  0  0  0
 11 94  1  0  0  0
 12 13  2  0  0  0
 12 95  1  0  0  0
 13 14  1  0  0  0
 13 31  1  0  0  0
 14 15  2  0  0  0
 14 96  1  0  0  0
 15 97  1  0  0  0
 16 17  2  0  0  0
 16 21  1  0  0  0
 16 31  1  0  0  0
 17 18  1  0  0  0
 17 98  1  0  0  0
 18 19  2  0  0  0
 18 99  1  0  0  0
 19 20  1  0  0  0
 19 24  1  0  0  0
 20 21  2  0  0  0
 20100  1  0  0  0
 21 23  1  0  0  0
 22 28  1  0  0  0
 22 32  2  0  0  0
 26 27  1  0  0  0
 28101  1  0  0  0
 28102  1  0  0  0
 29103  1  0  0  0
 29104  1  0  0  0
 33 34  1  0  0  0
 33 66  1  0  0  0
 33 70  2  0  0  0
 34 36  1  0  0  0
 34 59  1  0  0  0
 34105  1  0  0  0
 35 44  2  0  0  0
 35 45  1  0  0  0
 35 68  1  0  0  0
 36 56  1  0  0  0
 36106  1  0  0  0
 37 39  1  0  0  0
 37 47  1  0  0  0
 37 66  1  0  0  0
 37107  1  0  0  0
 38 43  2  0  0  0
 38 46  1  0  0  0
 38 47  1  0  0  0
 39 64  1  0  0  0
 39 67  2  0  0  0
 40 52  1  0  0  0
 40 53  2  0  0  0
 40 58  1  0  0  0
 41108  1  0  0  0
 41109  1  0  0  0
 41110  1  0  0  0
 41 48  1  0  0  0
 42 43  1  0  0  0
 42 66  1  0  0  0
 42111  1  0  0  0
 42112  1  0  0  0
 43 44  1  0  0  0
 44113  1  0  0  0
 45 46  2  0  0  0
 45114  1  0  0  0
 46115  1  0  0  0
 47116  1  0  0  0
 47117  1  0  0  0
 48 56  1  0  0  0
 48 65  1  0  0  0
 48118  1  0  0  0
 49 50  1  0  0  0
 49 53  1  0  0  0
 49 64  1  0  0  0
 49119  1  0  0  0
 50 51  1  0  0  0
 50120  1  0  0  0
 50121  1  0  0  0
 51 52  1  0  0  0
 51122  1  0  0  0
 51123  1  0  0  0
 52124  1  0  0  0
 52125  1  0  0  0
 53 54  1  0  0  0
 54 55  2  0  0  0
 54126  1  0  0  0
 55 57  1  0  0  0
 55127  1  0  0  0
 56 69  2  0  0  0
 57 58  2  0  0  0
 57128  1  0  0  0
 58129  1  0  0  0
 59 60  1  0  0  0
 59 61  1  0  0  0
 59 62  1  0  0  0
 60130  1  0  0  0
 60131  1  0  0  0
 60132  1  0  0  0
 61133  1  0  0  0
 61134  1  0  0  0
 61135  1  0  0  0
 62136  1  0  0  0
 62137  1  0  0  0
 62138  1  0  0  0
 63 65  1  0  0  0
 63139  1  0  0  0
 63140  1  0  0  0
 63141  1  0  0  0
 64142  1  0  0  0
 65143  1  0  0  0
 68 80  1  0  0  0
 71 72  2  0  0  0
 71 74  1  0  0  0
 71144  1  0  0  0
 72 75  1  0  0  0
 72145  1  0  0  0
 73 74  2  0  0  0
 73 76  1  0  0  0
 73146  1  0  0  0
 74 78  1  0  0  0
 75 76  2  0  0  0
 75 77  1  0  0  0
 76 84  1  0  0  0
 77 80  1  0  0  0
 77 82  2  0  0  0
 78 81  1  0  0  0
 78 83  2  0  0  0
 79 84  1  0  0  0
 79147  1  0  0  0
 79148  1  0  0  0
 79149  1  0  0  0
 80150  1  0  0  0
 80151  1  0  0  0
 81152  1  0  0  0
M  ISO  4   1 100  68 101  80 101  81 100
M  END
> <chiral flag>
0

> <version>
0

> <s_m_source_file>
/data/baiqing/PycharmProjects/Reinvent-master-3.2/result/LINK_invent/BTK/process_docking_weight1_custom_product_contain_oxygen_bond_distance_aromatic_linkinvent_7_9_3/rearranged_h_0097.sdf

> <i_m_source_file_index>
32

> <r_mmod_Potential_Energy-OPLS-2005>
444.819458007812

> <r_mmod_Stretch_Energy-OPLS-2005>
227.054824829102

> <r_mmod_Bend_Energy-OPLS-2005>
270.562713623047

> <r_mmod_Torsional_Energy-OPLS-2005>
247.923263549805

> <r_mmod_Improper_Torsional_Energy-OPLS-2005>
7.20485687255859

> <r_mmod_Van_der_Waal_Energy-OPLS-2005>
148.508514404297

> <r_mmod_Electrostatic_Energy-OPLS-2005>
-389.869659423828

> <r_mmod_Solvation_Energy-OPLS-2005>
-247.105972290039

> <b_mmod_Minimization_Converged-OPLS-2005>
0

> <r_mmod_RMS_Derivative-OPLS-2005>
2.29723262786865

$$$$
32
                    3D
 Structure written by MMmdl.
159168  0  0  1  0            999 V2000
  -30.6135  -14.7489   20.3585 C   0  0  0  0  0  0
  -30.4367  -12.4272   19.4626 C   0  0  0  0  0  0
  -29.4983  -12.3731   18.2342 C   0  0  0  0  0  0
  -28.0205  -12.2780   18.6582 C   0  0  0  0  0  0
  -27.6355  -13.2237   19.8289 C   0  0  2  0  0  0
  -28.6904  -13.2071   20.9529 C   0  0  0  0  0  0
  -25.2525  -13.8205   20.5712 C   0  0  0  0  0  0
  -24.1802  -13.0460   20.9221 C   0  0  0  0  0  0
  -24.6379  -11.6934   20.8783 C   0  0  0  0  0  0
  -23.9059  -10.4305   21.0428 C   0  0  0  0  0  0
  -24.3614   -9.4213   21.9195 C   0  0  0  0  0  0
  -23.6293   -8.2244   22.0756 C   0  0  0  0  0  0
  -22.4276   -8.0283   21.3543 C   0  0  0  0  0  0
  -21.9913   -9.0260   20.4648 C   0  0  0  0  0  0
  -22.7239  -10.2143   20.3068 C   0  0  0  0  0  0
  -21.6853   -6.0737   22.5277 C   0  0  0  0  0  0
  -21.4015   -6.5640   23.8211 C   0  0  0  0  0  0
  -21.3660   -5.6792   24.9173 C   0  0  0  0  0  0
  -21.6044   -4.3055   24.7224 C   0  0  0  0  0  0
  -21.8818   -3.8148   23.4344 C   0  0  0  0  0  0
  -21.9192   -4.6964   22.3401 C   0  0  0  0  0  0
  -22.7822  -13.5242   21.1870 C   0  0  0  0  0  0
  -22.1661   -4.2150   21.0979 F   0  0  0  0  0  0
  -21.5629   -3.4539   25.7736 F   0  0  0  0  0  0
  -29.9782  -13.5293   20.3321 N   0  0  0  0  0  0
  -26.2928  -12.9395   20.3273 N   0  0  0  0  0  0
  -25.9307  -11.6554   20.5819 N   0  0  0  0  0  0
  -22.0466  -12.8230   22.0423 N   0  0  0  0  0  0
  -25.4257  -15.1922   20.4137 N   0  0  0  0  0  0
  -31.8475  -14.7892   20.3454 O   0  0  0  0  0  0
  -21.6641   -6.8880   21.4238 O   0  0  0  0  0  0
  -22.3505  -14.5543   20.6710 O   0  0  0  0  0  0
  -24.6270  -31.8579   23.1999 C   0  0  0  0  0  0
  -25.9109  -32.4768   23.8340 C   0  0  1  0  0  0
  -27.2236  -27.2951   20.1442 C   0  0  0  0  0  0
  -25.5918  -33.8568   24.2268 N   0  0  0  0  0  0
  -23.4229  -30.4782   21.5424 C   0  0  2  0  0  0
  -24.8717  -28.9193   20.1218 C   0  0  0  0  0  0
  -22.7479  -29.4612   22.4935 C   0  0  0  0  0  0
  -18.0287  -28.1385   22.8485 C   0  0  0  0  0  0
  -24.1489  -36.7292   23.2641 C   0  0  0  0  0  0
  -25.9638  -30.7810   21.3744 C   0  0  0  0  0  0
  -26.0392  -29.4009   20.7294 C   0  0  0  0  0  0
  -27.2216  -28.6002   20.7299 C   0  0  0  0  0  0
  -26.0398  -26.8640   19.5160 C   0  0  0  0  0  0
  -24.8734  -27.6558   19.5069 C   0  0  0  0  0  0
  -23.6414  -29.8049   20.1612 C   0  0  0  0  0  0
  -25.4114  -36.3076   24.0328 C   0  0  1  0  0  0
  -20.5886  -28.3691   23.1280 C   0  0  2  0  0  0
  -20.6776  -26.9414   22.5411 C   0  0  0  0  0  0
  -19.5753  -26.6385   21.5213 C   0  0  0  0  0  0
  -18.1933  -26.7929   22.1623 C   0  0  0  0  0  0
  -19.1539  -28.8855   23.2878 C   0  0  0  0  0  0
  -18.9462  -30.1457   23.8895 C   0  0  0  0  0  0
  -17.6462  -30.6588   24.0563 C   0  0  0  0  0  0
  -25.9050  -34.9446   23.5101 C   0  0  0  0  0  0
  -16.5353  -29.9086   23.6329 C   0  0  0  0  0  0
  -16.7274  -28.6504   23.0351 C   0  0  0  0  0  0
  -26.4494  -31.6579   25.0713 C   0  0  0  0  0  0
  -25.3726  -31.3715   26.1440 C   0  0  0  0  0  0
  -27.0341  -30.3003   24.6169 C   0  0  0  0  0  0
  -27.6052  -32.4316   25.7486 C   0  0  0  0  0  0
  -27.5579  -37.1800   24.8465 C   0  0  0  0  0  0
  -21.4192  -29.3042   22.3673 N   0  0  0  0  0  0
  -26.4292  -37.3771   23.9407 N   0  0  0  0  0  0
  -24.6900  -31.0570   22.0960 N   0  0  0  0  0  0
  -23.4191  -28.8161   23.3032 O   0  0  0  0  0  0
  -28.3426  -26.4554   20.0758 O   0  0  0  0  0  0
  -26.5625  -34.8917   22.4672 O   0  0  0  0  0  0
  -23.5428  -32.1387   23.7314 O   0  0  0  0  0  0
  -28.2871  -19.1928   19.3033 C   0  0  0  0  0  0
  -28.6217  -17.8171   19.1958 C   0  0  0  0  0  0
  -26.9535  -23.2680   20.2633 C   0  0  0  0  0  0
  -29.6906  -19.3764   21.2255 C   0  0  0  0  0  0
  -28.2234  -23.8116   20.6104 C   0  0  0  0  0  0
  -28.8000  -20.0388   20.3182 C   0  0  0  0  0  0
  -29.5477  -17.1522   20.0517 C   0  0  0  0  0  0
  -30.0672  -17.9833   21.0978 C   0  0  0  0  0  0
  -27.0499  -21.9033   20.1652 C   0  0  0  0  0  0
  -29.0481  -22.6760   20.6550 C   0  0  0  0  0  0
  -30.2018  -15.6806   18.2149 C   0  0  0  0  0  0
  -28.4902  -25.3205   21.0177 C   0  0  0  0  0  0
  -28.3571  -21.4573   20.3873 N   0  0  0  0  0  0
  -31.0004  -17.4598   21.9933 N   0  0  0  0  0  0
  -29.9562  -15.7682   19.6724 N   0  0  0  0  0  0
  -26.0340  -21.0291   19.9214 O   0  0  0  0  0  0
  -30.3783  -22.6406   20.9463 O   0  0  0  0  0  0
  -31.4702  -12.5653   19.1393 H   0  0  0  0  0  0
  -30.4119  -11.4834   20.0093 H   0  0  0  0  0  0
  -29.7534  -11.5063   17.6229 H   0  0  0  0  0  0
  -29.6384  -13.2241   17.5771 H   0  0  0  0  0  0
  -27.8519  -11.2431   18.9578 H   0  0  0  0  0  0
  -27.3681  -12.4502   17.8014 H   0  0  0  0  0  0
  -27.6160  -14.2299   19.4098 H   0  0  0  0  0  0
  -28.7292  -12.2350   21.4465 H   0  0  0  0  0  0
  -28.4432  -13.9438   21.7196 H   0  0  0  0  0  0
  -25.2757   -9.5688   22.4775 H   0  0  0  0  0  0
  -24.0002   -7.4633   22.7472 H   0  0  0  0  0  0
  -21.0847   -8.8782   19.8950 H   0  0  0  0  0  0
  -22.3698  -10.9686   19.6182 H   0  0  0  0  0  0
  -21.2007   -7.6148   23.9715 H   0  0  0  0  0  0
  -21.1483   -6.0522   25.9075 H   0  0  0  0  0  0
  -22.0597   -2.7610   23.2844 H   0  0  0  0  0  0
  -22.4086  -11.9895   22.4815 H   0  0  0  0  0  0
  -21.1082  -13.1249   22.2627 H   0  0  0  0  0  0
  -24.6669  -15.8532   20.5393 H   0  0  0  0  0  0
  -26.2910  -15.6320   20.1269 H   0  0  0  0  0  0
  -26.7177  -32.5439   23.1088 H   0  0  0  0  0  0
  -25.0055  -33.9710   25.0406 H   0  0  0  0  0  0
  -22.7177  -31.2985   21.3935 H   0  0  0  0  0  0
  -23.3749  -35.9628   23.3304 H   0  0  0  0  0  0
  -24.3581  -36.8913   22.2056 H   0  0  0  0  0  0
  -23.7249  -37.6496   23.6665 H   0  0  0  0  0  0
  -26.0928  -31.5370   20.5985 H   0  0  0  0  0  0
  -26.8453  -30.8383   22.0014 H   0  0  0  0  0  0
  -28.1247  -28.9717   21.1937 H   0  0  0  0  0  0
  -26.0201  -25.9007   19.0273 H   0  0  0  0  0  0
  -23.9803  -27.2824   19.0249 H   0  0  0  0  0  0
  -23.7660  -30.5770   19.4010 H   0  0  0  0  0  0
  -22.7611  -29.2352   19.8583 H   0  0  0  0  0  0
  -25.1294  -36.1929   25.0821 H   0  0  0  0  0  0
  -20.9977  -28.3270   24.1401 H   0  0  0  0  0  0
  -20.5680  -26.2302   23.3611 H   0  0  0  0  0  0
  -21.6646  -26.7446   22.1204 H   0  0  0  0  0  0
  -19.6919  -25.6297   21.1242 H   0  0  0  0  0  0
  -19.6693  -27.3196   20.6743 H   0  0  0  0  0  0
  -17.4203  -26.6673   21.4026 H   0  0  0  0  0  0
  -18.0335  -26.0073   22.9021 H   0  0  0  0  0  0
  -19.7940  -30.7271   24.2267 H   0  0  0  0  0  0
  -17.5018  -31.6268   24.5164 H   0  0  0  0  0  0
  -15.5354  -30.2987   23.7657 H   0  0  0  0  0  0
  -15.8674  -28.0823   22.7065 H   0  0  0  0  0  0
  -24.5906  -30.7058   25.7768 H   0  0  0  0  0  0
  -24.8909  -32.2877   26.4863 H   0  0  0  0  0  0
  -25.8051  -30.8897   27.0218 H   0  0  0  0  0  0
  -26.2916  -29.6746   24.1201 H   0  0  0  0  0  0
  -27.4048  -29.7264   25.4672 H   0  0  0  0  0  0
  -27.8778  -30.4289   23.9386 H   0  0  0  0  0  0
  -27.2664  -33.3619   26.2059 H   0  0  0  0  0  0
  -28.3865  -32.6872   25.0316 H   0  0  0  0  0  0
  -28.0716  -31.8443   26.5406 H   0  0  0  0  0  0
  -28.2595  -38.0097   24.7507 H   0  0  0  0  0  0
  -28.1076  -36.2626   24.6297 H   0  0  0  0  0  0
  -27.2295  -37.1456   25.8868 H   0  0  0  0  0  0
  -20.9377  -29.8755   21.6870 H   0  0  0  0  0  0
  -26.0173  -38.2846   24.1402 H   0  0  0  0  0  0
  -27.6050  -19.6008   18.5717 H   0  0  0  0  0  0
  -28.1639  -17.2761   18.3813 H   0  0  0  0  0  0
  -26.0360  -23.8295   20.1593 H   0  0  0  0  0  0
  -30.1018  -19.9567   22.0388 H   0  0  0  0  0  0
  -29.2817  -15.4283   17.6882 H   0  0  0  0  0  0
  -30.9621  -14.9524   17.9237 H   0  0  0  0  0  0
  -30.5645  -16.6285   17.8141 H   0  0  0  0  0  0
  -29.5169  -25.3641   21.3815 H   0  0  0  0  0  0
  -27.8752  -25.5242   21.8954 H   0  0  0  0  0  0
  -31.5204  -18.1221   22.5601 H   0  0  0  0  0  0
  -31.6043  -16.7214   21.6429 H   0  0  0  0  0  0
  -25.2306  -21.5322   19.8328 H   0  0  0  0  0  0
  -30.6938  -21.7607   20.7688 H   0  0  0  0  0  0
  1 25  1  0  0  0
  1 30  2  0  0  0
  1 85  1  0  0  0
  2  3  1  0  0  0
  2 25  1  0  0  0
  2 88  1  0  0  0
  2 89  1  0  0  0
  3  4  1  0  0  0
  3 90  1  0  0  0
  3 91  1  0  0  0
  4  5  1  0  0  0
  4 92  1  0  0  0
  4 93  1  0  0  0
  5  6  1  0  0  0
  5 26  1  0  0  0
  5 94  1  0  0  0
  6 25  1  0  0  0
  6 95  1  0  0  0
  6 96  1  0  0  0
  7  8  2  0  0  0
  7 26  1  0  0  0
  7 29  1  0  0  0
  8  9  1  0  0  0
  8 22  1  0  0  0
  9 10  1  0  0  0
  9 27  2  0  0  0
 10 11  2  0  0  0
 10 15  1  0  0  0
 11 12  1  0  0  0
 11 97  1  0  0  0
 12 13  2  0  0  0
 12 98  1  0  0  0
 13 14  1  0  0  0
 13 31  1  0  0  0
 14 15  2  0  0  0
 14 99  1  0  0  0
 15100  1  0  0  0
 16 17  2  0  0  0
 16 21  1  0  0  0
 16 31  1  0  0  0
 17 18  1  0  0  0
 17101  1  0  0  0
 18 19  2  0  0  0
 18102  1  0  0  0
 19 20  1  0  0  0
 19 24  1  0  0  0
 20 21  2  0  0  0
 20103  1  0  0  0
 21 23  1  0  0  0
 22 28  1  0  0  0
 22 32  2  0  0  0
 26 27  1  0  0  0
 28104  1  0  0  0
 28105  1  0  0  0
 29106  1  0  0  0
 29107  1  0  0  0
 33 34  1  0  0  0
 33 66  1  0  0  0
 33 70  2  0  0  0
 34 36  1  0  0  0
 34 59  1  0  0  0
 34108  1  0  0  0
 35 44  2  0  0  0
 35 45  1  0  0  0
 35 68  1  0  0  0
 36 56  1  0  0  0
 36109  1  0  0  0
 37 39  1  0  0  0
 37 47  1  0  0  0
 37 66  1  0  0  0
 37110  1  0  0  0
 38 43  2  0  0  0
 38 46  1  0  0  0
 38 47  1  0  0  0
 39 64  1  0  0  0
 39 67  2  0  0  0
 40 52  1  0  0  0
 40 53  2  0  0  0
 40 58  1  0  0  0
 41111  1  0  0  0
 41112  1  0  0  0
 41113  1  0  0  0
 41 48  1  0  0  0
 42 43  1  0  0  0
 42 66  1  0  0  0
 42114  1  0  0  0
 42115  1  0  0  0
 43 44  1  0  0  0
 44116  1  0  0  0
 45 46  2  0  0  0
 45117  1  0  0  0
 46118  1  0  0  0
 47119  1  0  0  0
 47120  1  0  0  0
 48 56  1  0  0  0
 48 65  1  0  0  0
 48121  1  0  0  0
 49 50  1  0  0  0
 49 53  1  0  0  0
 49 64  1  0  0  0
 49122  1  0  0  0
 50 51  1  0  0  0
 50123  1  0  0  0
 50124  1  0  0  0
 51 52  1  0  0  0
 51125  1  0  0  0
 51126  1  0  0  0
 52127  1  0  0  0
 52128  1  0  0  0
 53 54  1  0  0  0
 54 55  2  0  0  0
 54129  1  0  0  0
 55 57  1  0  0  0
 55130  1  0  0  0
 56 69  2  0  0  0
 57 58  2  0  0  0
 57131  1  0  0  0
 58132  1  0  0  0
 59 60  1  0  0  0
 59 61  1  0  0  0
 59 62  1  0  0  0
 60133  1  0  0  0
 60134  1  0  0  0
 60135  1  0  0  0
 61136  1  0  0  0
 61137  1  0  0  0
 61138  1  0  0  0
 62139  1  0  0  0
 62140  1  0  0  0
 62141  1  0  0  0
 63 65  1  0  0  0
 63142  1  0  0  0
 63143  1  0  0  0
 63144  1  0  0  0
 64145  1  0  0  0
 65146  1  0  0  0
 68 82  1  0  0  0
 71 72  2  0  0  0
 71 76  1  0  0  0
 71147  1  0  0  0
 72 77  1  0  0  0
 72148  1  0  0  0
 73 75  1  0  0  0
 73 79  2  0  0  0
 73149  1  0  0  0
 74 76  2  0  0  0
 74 78  1  0  0  0
 74150  1  0  0  0
 75 80  2  0  0  0
 75 82  1  0  0  0
 76 83  1  0  0  0
 77 78  2  0  0  0
 77 85  1  0  0  0
 78 84  1  0  0  0
 79 83  1  0  0  0
 79 86  1  0  0  0
 80 83  1  0  0  0
 80 87  1  0  0  0
 81 85  1  0  0  0
 81151  1  0  0  0
 81152  1  0  0  0
 81153  1  0  0  0
 82154  1  0  0  0
 82155  1  0  0  0
 84156  1  0  0  0
 84157  1  0  0  0
 86158  1  0  0  0
 87159  1  0  0  0
M  ISO  4   1 100  68 101  82 101  85 100
M  END
> <chiral flag>
0

> <version>
0

> <s_m_source_file>
/data/baiqing/PycharmProjects/Reinvent-master-3.2/result/LINK_invent/BTK/process_docking_weight1_custom_product_contain_oxygen_bond_distance_aromatic_linkinvent_7_9_3/rearranged_h_0097.sdf

> <i_m_source_file_index>
33

> <r_mmod_Potential_Energy-OPLS-2005>
352.157806396484

> <r_mmod_Stretch_Energy-OPLS-2005>
104.243896484375

> <r_mmod_Bend_Energy-OPLS-2005>
184.662994384766

> <r_mmod_Torsional_Energy-OPLS-2005>
358.801452636719

> <r_mmod_Improper_Torsional_Energy-OPLS-2005>
36.320068359375

> <r_mmod_Van_der_Waal_Energy-OPLS-2005>
142.829238891602

> <r_mmod_Electrostatic_Energy-OPLS-2005>
-344.288116455078

> <r_mmod_Solvation_Energy-OPLS-2005>
-221.753768920898

> <b_mmod_Minimization_Converged-OPLS-2005>
0

> <r_mmod_RMS_Derivative-OPLS-2005>
0.29179111123085

$$$$
33
                    3D
 Structure written by MMmdl.
161170  0  0  1  0            999 V2000
  -30.8361  -14.1974   20.7723 C   0  0  0  0  0  0
  -30.4121  -12.2400   19.3406 C   0  0  0  0  0  0
  -29.4607  -12.5341   18.1685 C   0  0  0  0  0  0
  -27.9905  -12.3847   18.6004 C   0  0  0  0  0  0
  -27.6760  -13.1891   19.8859 C   0  0  2  0  0  0
  -28.7186  -12.8579   20.9798 C   0  0  0  0  0  0
  -25.2640  -13.8129   20.5616 C   0  0  0  0  0  0
  -24.1881  -13.0427   20.9104 C   0  0  0  0  0  0
  -24.6409  -11.6881   20.8746 C   0  0  0  0  0  0
  -23.9069  -10.4283   21.0446 C   0  0  0  0  0  0
  -24.3620   -9.4187   21.9211 C   0  0  0  0  0  0
  -23.6285   -8.2220   22.0760 C   0  0  0  0  0  0
  -22.4275   -8.0273   21.3541 C   0  0  0  0  0  0
  -21.9910   -9.0252   20.4644 C   0  0  0  0  0  0
  -22.7246  -10.2125   20.3068 C   0  0  0  0  0  0
  -21.6844   -6.0744   22.5292 C   0  0  0  0  0  0
  -21.4032   -6.5659   23.8233 C   0  0  0  0  0  0
  -21.3625   -5.6816   24.9184 C   0  0  0  0  0  0
  -21.6033   -4.3068   24.7235 C   0  0  0  0  0  0
  -21.8829   -3.8148   23.4365 C   0  0  0  0  0  0
  -21.9187   -4.6956   22.3424 C   0  0  0  0  0  0
  -22.7905  -13.5210   21.1825 C   0  0  0  0  0  0
  -22.1688   -4.2165   21.0998 F   0  0  0  0  0  0
  -21.5592   -3.4535   25.7742 F   0  0  0  0  0  0
  -30.0772  -13.1200   20.4663 N   0  0  0  0  0  0
  -26.3114  -12.9290   20.3463 N   0  0  0  0  0  0
  -25.9355  -11.6453   20.5851 N   0  0  0  0  0  0
  -22.0570  -12.8213   22.0402 N   0  0  0  0  0  0
  -25.4433  -15.1820   20.4000 N   0  0  0  0  0  0
  -31.7354  -14.6363   20.0427 O   0  0  0  0  0  0
  -21.6622   -6.8875   21.4265 O   0  0  0  0  0  0
  -22.3577  -14.5505   20.6645 O   0  0  0  0  0  0
  -24.6158  -31.8739   23.2151 C   0  0  0  0  0  0
  -25.9054  -32.4853   23.8437 C   0  0  1  0  0  0
  -27.2147  -27.4533   20.0594 C   0  0  0  0  0  0
  -25.5923  -33.8649   24.2372 N   0  0  0  0  0  0
  -23.3983  -30.5038   21.5620 C   0  0  2  0  0  0
  -24.8287  -28.9727   20.1305 C   0  0  0  0  0  0
  -22.7405  -29.4709   22.5041 C   0  0  0  0  0  0
  -18.0284  -28.1395   22.8489 C   0  0  0  0  0  0
  -24.1494  -36.7299   23.2622 C   0  0  0  0  0  0
  -25.9326  -30.8409   21.3658 C   0  0  0  0  0  0
  -26.0009  -29.4844   20.6964 C   0  0  0  0  0  0
  -27.2000  -28.7378   20.6465 C   0  0  0  0  0  0
  -26.0006  -26.9371   19.5437 C   0  0  0  0  0  0
  -24.8205  -27.6950   19.5575 C   0  0  0  0  0  0
  -23.5982  -29.8442   20.1763 C   0  0  0  0  0  0
  -25.4111  -36.3122   24.0344 C   0  0  1  0  0  0
  -20.5873  -28.3669   23.1317 C   0  0  2  0  0  0
  -20.6786  -26.9408   22.5399 C   0  0  0  0  0  0
  -19.5763  -26.6400   21.5207 C   0  0  0  0  0  0
  -18.1939  -26.7945   22.1617 C   0  0  0  0  0  0
  -19.1529  -28.8860   23.2904 C   0  0  0  0  0  0
  -18.9448  -30.1469   23.8911 C   0  0  0  0  0  0
  -17.6448  -30.6592   24.0568 C   0  0  0  0  0  0
  -25.9046  -34.9488   23.5143 C   0  0  0  0  0  0
  -16.5345  -29.9081   23.6334 C   0  0  0  0  0  0
  -16.7273  -28.6507   23.0343 C   0  0  0  0  0  0
  -26.4480  -31.6627   25.0766 C   0  0  0  0  0  0
  -25.3749  -31.3706   26.1517 C   0  0  0  0  0  0
  -27.0271  -30.3057   24.6145 C   0  0  0  0  0  0
  -27.6095  -32.4327   25.7501 C   0  0  0  0  0  0
  -27.5596  -37.1786   24.8450 C   0  0  0  0  0  0
  -21.4149  -29.3039   22.3732 N   0  0  0  0  0  0
  -26.4289  -37.3810   23.9430 N   0  0  0  0  0  0
  -24.6681  -31.0856   22.1049 N   0  0  0  0  0  0
  -23.4177  -28.8236   23.3069 O   0  0  0  0  0  0
  -28.4175  -26.7790   19.9898 O   0  0  0  0  0  0
  -26.5586  -34.8923   22.4689 O   0  0  0  0  0  0
  -23.5355  -32.1488   23.7553 O   0  0  0  0  0  0
  -30.2806  -20.2105   19.8003 C   0  0  0  0  0  0
  -28.3874  -20.6567   21.2529 C   0  0  0  0  0  0
  -31.2542  -18.2683   21.8557 C   0  0  0  0  0  0
  -29.7689  -21.1059   18.8504 C   0  0  0  0  0  0
  -27.8805  -21.5778   20.3114 C   0  0  0  0  0  0
  -31.5449  -16.9183   22.1229 C   0  0  0  0  0  0
  -28.8702  -17.8074   22.0469 C   0  0  0  0  0  0
  -29.5567  -19.9150   20.9717 C   0  0  0  0  0  0
  -29.9121  -18.6934   21.7077 C   0  0  0  0  0  0
  -28.5396  -21.7488   19.0698 C   0  0  0  0  0  0
  -30.4750  -16.0057   22.2186 C   0  0  0  0  0  0
  -29.1485  -16.4599   22.3012 C   0  0  0  0  0  0
  -28.1223  -24.8991   18.3970 C   0  0  0  0  0  0
  -27.2214  -23.6720   18.2342 C   0  0  0  0  0  0
  -28.4127  -25.3551   19.8341 C   0  0  0  0  0  0
  -30.6759  -14.6320   22.0271 N   0  0  0  0  0  0
  -27.9921  -22.4602   17.9978 N   0  0  0  0  0  0
  -28.6043  -25.4657   17.4124 O   0  0  0  0  0  0
  -28.1298  -15.5862   22.4689 F   0  0  0  0  0  0
  -31.4555  -12.3401   19.0340 H   0  0  0  0  0  0
  -30.2989  -11.2002   19.6566 H   0  0  0  0  0  0
  -29.6629  -11.8656   17.3300 H   0  0  0  0  0  0
  -29.6285  -13.5496   17.8044 H   0  0  0  0  0  0
  -27.7930  -11.3235   18.7705 H   0  0  0  0  0  0
  -27.3301  -12.6888   17.7880 H   0  0  0  0  0  0
  -27.7539  -14.2494   19.6439 H   0  0  0  0  0  0
  -28.6446  -11.7951   21.2166 H   0  0  0  0  0  0
  -28.4871  -13.3680   21.9102 H   0  0  0  0  0  0
  -25.2783   -9.5622   22.4785 H   0  0  0  0  0  0
  -23.9970   -7.4603   22.7473 H   0  0  0  0  0  0
  -21.0844   -8.8784   19.8966 H   0  0  0  0  0  0
  -22.3738  -10.9664   19.6161 H   0  0  0  0  0  0
  -21.2098   -7.6172   23.9734 H   0  0  0  0  0  0
  -21.1405   -6.0557   25.9092 H   0  0  0  0  0  0
  -22.0633   -2.7603   23.2885 H   0  0  0  0  0  0
  -22.4154  -11.9821   22.4733 H   0  0  0  0  0  0
  -21.1188  -13.1252   22.2615 H   0  0  0  0  0  0
  -24.6952  -15.8569   20.5174 H   0  0  0  0  0  0
  -26.3336  -15.6042   20.1741 H   0  0  0  0  0  0
  -26.7113  -32.5542   23.1187 H   0  0  0  0  0  0
  -25.0112  -33.9837   25.0545 H   0  0  0  0  0  0
  -22.6889  -31.3231   21.4293 H   0  0  0  0  0  0
  -23.3783  -35.9595   23.3265 H   0  0  0  0  0  0
  -24.3597  -36.8927   22.2035 H   0  0  0  0  0  0
  -23.7208  -37.6486   23.6643 H   0  0  0  0  0  0
  -26.0631  -31.6200   20.6131 H   0  0  0  0  0  0
  -26.8141  -30.8707   21.9959 H   0  0  0  0  0  0
  -28.1155  -29.1475   21.0479 H   0  0  0  0  0  0
  -25.9093  -25.9576   19.1092 H   0  0  0  0  0  0
  -23.9101  -27.2815   19.1485 H   0  0  0  0  0  0
  -23.7125  -30.6225   19.4204 H   0  0  0  0  0  0
  -22.7191  -29.2715   19.8758 H   0  0  0  0  0  0
  -25.1275  -36.1986   25.0834 H   0  0  0  0  0  0
  -20.9974  -28.3238   24.1440 H   0  0  0  0  0  0
  -20.5733  -26.2272   23.3579 H   0  0  0  0  0  0
  -21.6655  -26.7495   22.1171 H   0  0  0  0  0  0
  -19.6921  -25.6318   21.1232 H   0  0  0  0  0  0
  -19.6707  -27.3220   20.6747 H   0  0  0  0  0  0
  -17.4206  -26.6698   21.4015 H   0  0  0  0  0  0
  -18.0335  -26.0102   22.9030 H   0  0  0  0  0  0
  -19.7919  -30.7292   24.2278 H   0  0  0  0  0  0
  -17.4994  -31.6274   24.5155 H   0  0  0  0  0  0
  -15.5344  -30.2971   23.7677 H   0  0  0  0  0  0
  -15.8677  -28.0834   22.7042 H   0  0  0  0  0  0
  -24.5957  -30.7022   25.7846 H   0  0  0  0  0  0
  -24.8896  -32.2827   26.4994 H   0  0  0  0  0  0
  -25.8114  -30.8869   27.0261 H   0  0  0  0  0  0
  -26.2775  -29.6866   24.1206 H   0  0  0  0  0  0
  -27.3998  -29.7282   25.4614 H   0  0  0  0  0  0
  -27.8661  -30.4355   23.9307 H   0  0  0  0  0  0
  -27.2772  -33.3632   26.2116 H   0  0  0  0  0  0
  -28.3872  -32.6876   25.0290 H   0  0  0  0  0  0
  -28.0802  -31.8425   26.5374 H   0  0  0  0  0  0
  -28.2574  -38.0129   24.7597 H   0  0  0  0  0  0
  -28.1144  -36.2670   24.6160 H   0  0  0  0  0  0
  -27.2325  -37.1287   25.8852 H   0  0  0  0  0  0
  -20.9316  -29.8707   21.6905 H   0  0  0  0  0  0
  -26.0187  -38.2873   24.1501 H   0  0  0  0  0  0
  -31.1729  -19.6545   19.5553 H   0  0  0  0  0  0
  -27.8144  -20.4497   22.1484 H   0  0  0  0  0  0
  -32.0704  -18.9403   21.6289 H   0  0  0  0  0  0
  -30.3055  -21.2180   17.9193 H   0  0  0  0  0  0
  -26.9394  -22.0638   20.5268 H   0  0  0  0  0  0
  -32.5715  -16.5722   22.1043 H   0  0  0  0  0  0
  -27.8356  -18.0970   21.9406 H   0  0  0  0  0  0
  -26.5804  -23.8325   17.3655 H   0  0  0  0  0  0
  -26.5467  -23.5730   19.0838 H   0  0  0  0  0  0
  -29.4160  -24.9973   20.0612 H   0  0  0  0  0  0
  -27.7411  -24.8817   20.5505 H   0  0  0  0  0  0
  -30.0537  -14.0375   22.5540 H   0  0  0  0  0  0
  -28.5554  -22.4945   17.1526 H   0  0  0  0  0  0
  1 25  1  0  0  0
  1 30  2  0  0  0
  1 86  1  0  0  0
  2  3  1  0  0  0
  2 25  1  0  0  0
  2 90  1  0  0  0
  2 91  1  0  0  0
  3  4  1  0  0  0
  3 92  1  0  0  0
  3 93  1  0  0  0
  4  5  1  0  0  0
  4 94  1  0  0  0
  4 95  1  0  0  0
  5  6  1  0  0  0
  5 26  1  0  0  0
  5 96  1  0  0  0
  6 25  1  0  0  0
  6 97  1  0  0  0
  6 98  1  0  0  0
  7  8  2  0  0  0
  7 26  1  0  0  0
  7 29  1  0  0  0
  8  9  1  0  0  0
  8 22  1  0  0  0
  9 10  1  0  0  0
  9 27  2  0  0  0
 10 11  2  0  0  0
 10 15  1  0  0  0
 11 12  1  0  0  0
 11 99  1  0  0  0
 12 13  2  0  0  0
 12100  1  0  0  0
 13 14  1  0  0  0
 13 31  1  0  0  0
 14 15  2  0  0  0
 14101  1  0  0  0
 15102  1  0  0  0
 16 17  2  0  0  0
 16 21  1  0  0  0
 16 31  1  0  0  0
 17 18  1  0  0  0
 17103  1  0  0  0
 18 19  2  0  0  0
 18104  1  0  0  0
 19 20  1  0  0  0
 19 24  1  0  0  0
 20 21  2  0  0  0
 20105  1  0  0  0
 21 23  1  0  0  0
 22 28  1  0  0  0
 22 32  2  0  0  0
 26 27  1  0  0  0
 28106  1  0  0  0
 28107  1  0  0  0
 29108  1  0  0  0
 29109  1  0  0  0
 33 34  1  0  0  0
 33 66  1  0  0  0
 33 70  2  0  0  0
 34 36  1  0  0  0
 34 59  1  0  0  0
 34110  1  0  0  0
 35 44  2  0  0  0
 35 45  1  0  0  0
 35 68  1  0  0  0
 36 56  1  0  0  0
 36111  1  0  0  0
 37 39  1  0  0  0
 37 47  1  0  0  0
 37 66  1  0  0  0
 37112  1  0  0  0
 38 43  2  0  0  0
 38 46  1  0  0  0
 38 47  1  0  0  0
 39 64  1  0  0  0
 39 67  2  0  0  0
 40 52  1  0  0  0
 40 53  2  0  0  0
 40 58  1  0  0  0
 41113  1  0  0  0
 41114  1  0  0  0
 41115  1  0  0  0
 41 48  1  0  0  0
 42 43  1  0  0  0
 42 66  1  0  0  0
 42116  1  0  0  0
 42117  1  0  0  0
 43 44  1  0  0  0
 44118  1  0  0  0
 45 46  2  0  0  0
 45119  1  0  0  0
 46120  1  0  0  0
 47121  1  0  0  0
 47122  1  0  0  0
 48 56  1  0  0  0
 48 65  1  0  0  0
 48123  1  0  0  0
 49 50  1  0  0  0
 49 53  1  0  0  0
 49 64  1  0  0  0
 49124  1  0  0  0
 50 51  1  0  0  0
 50125  1  0  0  0
 50126  1  0  0  0
 51 52  1  0  0  0
 51127  1  0  0  0
 51128  1  0  0  0
 52129  1  0  0  0
 52130  1  0  0  0
 53 54  1  0  0  0
 54 55  2  0  0  0
 54131  1  0  0  0
 55 57  1  0  0  0
 55132  1  0  0  0
 56 69  2  0  0  0
 57 58  2  0  0  0
 57133  1  0  0  0
 58134  1  0  0  0
 59 60  1  0  0  0
 59 61  1  0  0  0
 59 62  1  0  0  0
 60135  1  0  0  0
 60136  1  0  0  0
 60137  1  0  0  0
 61138  1  0  0  0
 61139  1  0  0  0
 61140  1  0  0  0
 62141  1  0  0  0
 62142  1  0  0  0
 62143  1  0  0  0
 63 65  1  0  0  0
 63144  1  0  0  0
 63145  1  0  0  0
 63146  1  0  0  0
 64147  1  0  0  0
 65148  1  0  0  0
 68 85  1  0  0  0
 71 74  2  0  0  0
 71 78  1  0  0  0
 71149  1  0  0  0
 72 75  1  0  0  0
 72 78  2  0  0  0
 72150  1  0  0  0
 73 76  2  0  0  0
 73 79  1  0  0  0
 73151  1  0  0  0
 74 80  1  0  0  0
 74152  1  0  0  0
 75 80  2  0  0  0
 75153  1  0  0  0
 76 81  1  0  0  0
 76154  1  0  0  0
 77 79  2  0  0  0
 77 82  1  0  0  0
 77155  1  0  0  0
 78 79  1  0  0  0
 80 87  1  0  0  0
 81 82  2  0  0  0
 81 86  1  0  0  0
 82 89  1  0  0  0
 83 84  1  0  0  0
 83 85  1  0  0  0
 83 88  2  0  0  0
 84 87  1  0  0  0
 84156  1  0  0  0
 84157  1  0  0  0
 85158  1  0  0  0
 85159  1  0  0  0
 86160  1  0  0  0
 87161  1  0  0  0
M  ISO  4   1 100  68 101  85 101  86 100
M  END
> <chiral flag>
0

> <version>
0

> <s_m_source_file>
/data/baiqing/PycharmProjects/Reinvent-master-3.2/result/LINK_invent/BTK/process_docking_weight1_custom_product_contain_oxygen_bond_distance_aromatic_linkinvent_7_9_3/rearranged_h_0097.sdf

> <i_m_source_file_index>
34

> <r_mmod_Potential_Energy-OPLS-2005>
14.0234804153442

> <r_mmod_Stretch_Energy-OPLS-2005>
32.4228363037109

> <r_mmod_Bend_Energy-OPLS-2005>
108.283615112305

> <r_mmod_Torsional_Energy-OPLS-2005>
284.803741455078

> <r_mmod_Improper_Torsional_Energy-OPLS-2005>
16.8143577575684

> <r_mmod_Van_der_Waal_Energy-OPLS-2005>
180.192947387695

> <r_mmod_Electrostatic_Energy-OPLS-2005>
-392.900054931641

> <r_mmod_Solvation_Energy-OPLS-2005>
-232.098052978516

> <b_mmod_Minimization_Converged-OPLS-2005>
0

> <r_mmod_RMS_Derivative-OPLS-2005>
5.11787176132202

$$$$
34
                    3D
 Structure written by MMmdl.
158167  0  0  1  0            999 V2000
  -30.5710  -14.9114   20.4497 C   0  0  0  0  0  0
  -30.4538  -12.5561   19.5185 C   0  0  0  0  0  0
  -29.5555  -12.4980   18.2665 C   0  0  0  0  0  0
  -28.0841  -12.2840   18.6738 C   0  0  0  0  0  0
  -27.6432  -13.2296   19.8267 C   0  0  2  0  0  0
  -28.6725  -13.2515   20.9795 C   0  0  0  0  0  0
  -25.2628  -13.8149   20.5678 C   0  0  0  0  0  0
  -24.1894  -13.0437   20.9186 C   0  0  0  0  0  0
  -24.6434  -11.6901   20.8730 C   0  0  0  0  0  0
  -23.9114  -10.4291   21.0422 C   0  0  0  0  0  0
  -24.3665   -9.4200   21.9188 C   0  0  0  0  0  0
  -23.6340   -8.2221   22.0680 C   0  0  0  0  0  0
  -22.4321   -8.0272   21.3485 C   0  0  0  0  0  0
  -22.0006   -9.0258   20.4598 C   0  0  0  0  0  0
  -22.7307  -10.2150   20.3055 C   0  0  0  0  0  0
  -21.6882   -6.0749   22.5255 C   0  0  0  0  0  0
  -21.4041   -6.5632   23.8174 C   0  0  0  0  0  0
  -21.3662   -5.6761   24.9132 C   0  0  0  0  0  0
  -21.6036   -4.3011   24.7187 C   0  0  0  0  0  0
  -21.8847   -3.8143   23.4293 C   0  0  0  0  0  0
  -21.9217   -4.6989   22.3372 C   0  0  0  0  0  0
  -22.7934  -13.5251   21.1887 C   0  0  0  0  0  0
  -22.1667   -4.2164   21.0943 F   0  0  0  0  0  0
  -21.5659   -3.4502   25.7690 F   0  0  0  0  0  0
  -29.9655  -13.6517   20.4019 N   0  0  0  0  0  0
  -26.2974  -12.9329   20.3115 N   0  0  0  0  0  0
  -25.9372  -11.6490   20.5637 N   0  0  0  0  0  0
  -22.0528  -12.8218   22.0395 N   0  0  0  0  0  0
  -25.4437  -15.1864   20.4196 N   0  0  0  0  0  0
  -31.7309  -15.0023   20.0357 O   0  0  0  0  0  0
  -21.6665   -6.8898   21.4201 O   0  0  0  0  0  0
  -22.3616  -14.5573   20.6758 O   0  0  0  0  0  0
  -24.6390  -31.8460   23.2022 C   0  0  0  0  0  0
  -25.9132  -32.4757   23.8439 C   0  0  1  0  0  0
  -27.1823  -27.1121   20.1718 C   0  0  0  0  0  0
  -25.5920  -33.8614   24.2394 N   0  0  0  0  0  0
  -23.4406  -30.4659   21.5435 C   0  0  2  0  0  0
  -24.8812  -28.8859   20.1085 C   0  0  0  0  0  0
  -22.7544  -29.4530   22.4930 C   0  0  0  0  0  0
  -18.0303  -28.1228   22.8467 C   0  0  0  0  0  0
  -24.1436  -36.7229   23.2660 C   0  0  0  0  0  0
  -25.9968  -30.7125   21.3985 C   0  0  0  0  0  0
  -26.0567  -29.3266   20.7256 C   0  0  0  0  0  0
  -27.2059  -28.4498   20.7430 C   0  0  0  0  0  0
  -25.9919  -26.7719   19.5020 C   0  0  0  0  0  0
  -24.8645  -27.6255   19.4815 C   0  0  0  0  0  0
  -23.6586  -29.7935   20.1594 C   0  0  0  0  0  0
  -25.4076  -36.3181   24.0428 C   0  0  1  0  0  0
  -20.5913  -28.3621   23.1216 C   0  0  2  0  0  0
  -20.6728  -26.9347   22.5316 C   0  0  0  0  0  0
  -19.5719  -26.6236   21.5162 C   0  0  0  0  0  0
  -18.1929  -26.7745   22.1637 C   0  0  0  0  0  0
  -19.1557  -28.8752   23.2793 C   0  0  0  0  0  0
  -18.9491  -30.1301   23.8834 C   0  0  0  0  0  0
  -17.6486  -30.6460   24.0486 C   0  0  0  0  0  0
  -25.8982  -34.9494   23.5199 C   0  0  0  0  0  0
  -16.5372  -29.8934   23.6311 C   0  0  0  0  0  0
  -16.7305  -28.6287   23.0457 C   0  0  0  0  0  0
  -26.4442  -31.6676   25.0923 C   0  0  0  0  0  0
  -25.3628  -31.3834   26.1649 C   0  0  0  0  0  0
  -27.0323  -30.3106   24.6515 C   0  0  0  0  0  0
  -27.6040  -32.4485   25.7559 C   0  0  0  0  0  0
  -27.5566  -37.1800   24.8502 C   0  0  0  0  0  0
  -21.4239  -29.2988   22.3624 N   0  0  0  0  0  0
  -26.4262  -37.3885   23.9480 N   0  0  0  0  0  0
  -24.7089  -31.0334   22.0979 N   0  0  0  0  0  0
  -23.4192  -28.8088   23.3079 O   0  0  0  0  0  0
  -28.2237  -26.1298   20.3474 O   0  0  0  0  0  0
  -26.5557  -34.8952   22.4788 O   0  0  0  0  0  0
  -23.5506  -32.1322   23.7237 O   0  0  0  0  0  0
  -27.9697  -19.4333   20.3583 C   0  0  0  0  0  0
  -28.3047  -18.0192   20.3987 C   0  0  0  0  0  0
  -30.6033  -18.5545   20.5086 C   0  0  0  0  0  0
  -28.9262  -20.5074   20.4597 C   0  0  0  0  0  0
  -29.6334  -17.4843   20.5213 C   0  0  0  0  0  0
  -30.2722  -19.9774   20.4954 C   0  0  0  0  0  0
  -28.2235  -22.0203   22.1858 C   0  0  0  0  0  0
  -27.1798  -23.0773   22.5104 C   0  0  0  0  0  0
  -26.5709  -23.3625   21.1459 C   0  0  0  0  0  0
  -27.7608  -23.1413   20.1945 C   0  0  2  0  0  0
  -29.9977  -16.0281   22.4481 C   0  0  0  0  0  0
  -28.3579  -24.6767   19.7854 C   0  0  0  0  0  0
  -28.5604  -21.9524   20.8713 N   0  0  0  0  0  0
  -29.8915  -16.0449   20.9887 N   0  0  0  0  0  0
  -28.6668  -21.2981   23.0816 O   0  0  0  0  0  0
  -31.3008  -20.8536   20.6111 F   0  0  0  0  0  0
  -31.4923  -12.6998   19.2220 H   0  0  0  0  0  0
  -30.4283  -11.6059   20.0540 H   0  0  0  0  0  0
  -29.8865  -11.6839   17.6166 H   0  0  0  0  0  0
  -29.6637  -13.4173   17.6905 H   0  0  0  0  0  0
  -27.9982  -11.2468   19.0011 H   0  0  0  0  0  0
  -27.4329  -12.3705   17.8051 H   0  0  0  0  0  0
  -27.6148  -14.2320   19.3957 H   0  0  0  0  0  0
  -28.7455  -12.2768   21.4657 H   0  0  0  0  0  0
  -28.3552  -13.9531   21.7518 H   0  0  0  0  0  0
  -25.2773   -9.5707   22.4785 H   0  0  0  0  0  0
  -24.0052   -7.4635   22.7410 H   0  0  0  0  0  0
  -21.0898   -8.8816   19.8930 H   0  0  0  0  0  0
  -22.3720  -10.9729   19.6215 H   0  0  0  0  0  0
  -21.2006   -7.6124   23.9709 H   0  0  0  0  0  0
  -21.1480   -6.0445   25.9014 H   0  0  0  0  0  0
  -22.0655   -2.7616   23.2761 H   0  0  0  0  0  0
  -22.4065  -11.9852   22.4818 H   0  0  0  0  0  0
  -21.1141  -13.1316   22.2558 H   0  0  0  0  0  0
  -24.7163  -15.8728   20.5629 H   0  0  0  0  0  0
  -26.3295  -15.5916   20.1496 H   0  0  0  0  0  0
  -26.7223  -32.5327   23.1209 H   0  0  0  0  0  0
  -25.0333  -33.9825   25.0733 H   0  0  0  0  0  0
  -22.7372  -31.2885   21.3984 H   0  0  0  0  0  0
  -23.3870  -35.9398   23.3303 H   0  0  0  0  0  0
  -24.3481  -36.8811   22.2057 H   0  0  0  0  0  0
  -23.6971  -37.6357   23.6598 H   0  0  0  0  0  0
  -26.1648  -31.4859   20.6488 H   0  0  0  0  0  0
  -26.8549  -30.7397   22.0559 H   0  0  0  0  0  0
  -28.0905  -28.7764   21.2700 H   0  0  0  0  0  0
  -25.8854  -25.7931   19.0504 H   0  0  0  0  0  0
  -23.9542  -27.2753   19.0141 H   0  0  0  0  0  0
  -23.7915  -30.5695   19.4074 H   0  0  0  0  0  0
  -22.7615  -29.2471   19.8550 H   0  0  0  0  0  0
  -25.1237  -36.2101   25.0931 H   0  0  0  0  0  0
  -21.0011  -28.3102   24.1371 H   0  0  0  0  0  0
  -20.5544  -26.2280   23.3516 H   0  0  0  0  0  0
  -21.6569  -26.7204   22.1195 H   0  0  0  0  0  0
  -19.6836  -25.6138   21.1186 H   0  0  0  0  0  0
  -19.6574  -27.3014   20.6631 H   0  0  0  0  0  0
  -17.4162  -26.6559   21.4037 H   0  0  0  0  0  0
  -18.0322  -25.9846   22.8967 H   0  0  0  0  0  0
  -19.7967  -30.7074   24.2250 H   0  0  0  0  0  0
  -17.5063  -31.6201   24.4961 H   0  0  0  0  0  0
  -15.5363  -30.2852   23.7512 H   0  0  0  0  0  0
  -15.8714  -28.0442   22.7434 H   0  0  0  0  0  0
  -24.5756  -30.7255   25.7930 H   0  0  0  0  0  0
  -24.8839  -32.2972   26.5179 H   0  0  0  0  0  0
  -25.7854  -30.8879   27.0396 H   0  0  0  0  0  0
  -26.2925  -29.6910   24.1406 H   0  0  0  0  0  0
  -27.3820  -29.7370   25.5097 H   0  0  0  0  0  0
  -27.8876  -30.4461   23.9900 H   0  0  0  0  0  0
  -27.2746  -33.3931   26.1932 H   0  0  0  0  0  0
  -28.3774  -32.6862   25.0234 H   0  0  0  0  0  0
  -28.0798  -31.8781   26.5567 H   0  0  0  0  0  0
  -28.2669  -38.0036   24.7621 H   0  0  0  0  0  0
  -28.0963  -36.2592   24.6210 H   0  0  0  0  0  0
  -27.2226  -37.1264   25.8885 H   0  0  0  0  0  0
  -20.9474  -29.8856   21.6916 H   0  0  0  0  0  0
  -26.0190  -38.2973   24.1560 H   0  0  0  0  0  0
  -26.9153  -19.6706   20.3564 H   0  0  0  0  0  0
  -27.4753  -17.3248   20.4221 H   0  0  0  0  0  0
  -31.6504  -18.3010   20.6198 H   0  0  0  0  0  0
  -27.6825  -23.9441   22.9369 H   0  0  0  0  0  0
  -26.4429  -22.7311   23.2382 H   0  0  0  0  0  0
  -26.1186  -24.3506   21.0609 H   0  0  0  0  0  0
  -25.7625  -22.6462   20.9602 H   0  0  0  0  0  0
  -27.3808  -22.7203   19.2582 H   0  0  0  0  0  0
  -29.1254  -16.4977   22.9074 H   0  0  0  0  0  0
  -30.8829  -16.5900   22.7552 H   0  0  0  0  0  0
  -30.0957  -15.0250   22.8737 H   0  0  0  0  0  0
  -28.0657  -24.8084   18.7431 H   0  0  0  0  0  0
  -29.4340  -24.5264   19.7058 H   0  0  0  0  0  0
  1 25  1  0  0  0
  1 30  2  0  0  0
  1 84  1  0  0  0
  2  3  1  0  0  0
  2 25  1  0  0  0
  2 87  1  0  0  0
  2 88  1  0  0  0
  3  4  1  0  0  0
  3 89  1  0  0  0
  3 90  1  0  0  0
  4  5  1  0  0  0
  4 91  1  0  0  0
  4 92  1  0  0  0
  5  6  1  0  0  0
  5 26  1  0  0  0
  5 93  1  0  0  0
  6 25  1  0  0  0
  6 94  1  0  0  0
  6 95  1  0  0  0
  7  8  2  0  0  0
  7 26  1  0  0  0
  7 29  1  0  0  0
  8  9  1  0  0  0
  8 22  1  0  0  0
  9 10  1  0  0  0
  9 27  2  0  0  0
 10 11  2  0  0  0
 10 15  1  0  0  0
 11 12  1  0  0  0
 11 96  1  0  0  0
 12 13  2  0  0  0
 12 97  1  0  0  0
 13 14  1  0  0  0
 13 31  1  0  0  0
 14 15  2  0  0  0
 14 98  1  0  0  0
 15 99  1  0  0  0
 16 17  2  0  0  0
 16 21  1  0  0  0
 16 31  1  0  0  0
 17 18  1  0  0  0
 17100  1  0  0  0
 18 19  2  0  0  0
 18101  1  0  0  0
 19 20  1  0  0  0
 19 24  1  0  0  0
 20 21  2  0  0  0
 20102  1  0  0  0
 21 23  1  0  0  0
 22 28  1  0  0  0
 22 32  2  0  0  0
 26 27  1  0  0  0
 28103  1  0  0  0
 28104  1  0  0  0
 29105  1  0  0  0
 29106  1  0  0  0
 33 34  1  0  0  0
 33 66  1  0  0  0
 33 70  2  0  0  0
 34 36  1  0  0  0
 34 59  1  0  0  0
 34107  1  0  0  0
 35 44  2  0  0  0
 35 45  1  0  0  0
 35 68  1  0  0  0
 36 56  1  0  0  0
 36108  1  0  0  0
 37 39  1  0  0  0
 37 47  1  0  0  0
 37 66  1  0  0  0
 37109  1  0  0  0
 38 43  2  0  0  0
 38 46  1  0  0  0
 38 47  1  0  0  0
 39 64  1  0  0  0
 39 67  2  0  0  0
 40 52  1  0  0  0
 40 53  2  0  0  0
 40 58  1  0  0  0
 41110  1  0  0  0
 41111  1  0  0  0
 41112  1  0  0  0
 41 48  1  0  0  0
 42 43  1  0  0  0
 42 66  1  0  0  0
 42113  1  0  0  0
 42114  1  0  0  0
 43 44  1  0  0  0
 44115  1  0  0  0
 45 46  2  0  0  0
 45116  1  0  0  0
 46117  1  0  0  0
 47118  1  0  0  0
 47119  1  0  0  0
 48 56  1  0  0  0
 48 65  1  0  0  0
 48120  1  0  0  0
 49 50  1  0  0  0
 49 53  1  0  0  0
 49 64  1  0  0  0
 49121  1  0  0  0
 50 51  1  0  0  0
 50122  1  0  0  0
 50123  1  0  0  0
 51 52  1  0  0  0
 51124  1  0  0  0
 51125  1  0  0  0
 52126  1  0  0  0
 52127  1  0  0  0
 53 54  1  0  0  0
 54 55  2  0  0  0
 54128  1  0  0  0
 55 57  1  0  0  0
 55129  1  0  0  0
 56 69  2  0  0  0
 57 58  2  0  0  0
 57130  1  0  0  0
 58131  1  0  0  0
 59 60  1  0  0  0
 59 61  1  0  0  0
 59 62  1  0  0  0
 60132  1  0  0  0
 60133  1  0  0  0
 60134  1  0  0  0
 61135  1  0  0  0
 61136  1  0  0  0
 61137  1  0  0  0
 62138  1  0  0  0
 62139  1  0  0  0
 62140  1  0  0  0
 63 65  1  0  0  0
 63141  1  0  0  0
 63142  1  0  0  0
 63143  1  0  0  0
 64144  1  0  0  0
 65145  1  0  0  0
 68 82  1  0  0  0
 71 72  2  0  0  0
 71 74  1  0  0  0
 71146  1  0  0  0
 72 75  1  0  0  0
 72147  1  0  0  0
 73 75  2  0  0  0
 73 76  1  0  0  0
 73148  1  0  0  0
 74 76  2  0  0  0
 74 83  1  0  0  0
 75 84  1  0  0  0
 76 86  1  0  0  0
 77 78  1  0  0  0
 77 83  1  0  0  0
 77 85  2  0  0  0
 78 79  1  0  0  0
 78149  1  0  0  0
 78150  1  0  0  0
 79 80  1  0  0  0
 79151  1  0  0  0
 79152  1  0  0  0
 80 82  1  0  0  0
 80 83  1  0  0  0
 80153  1  0  0  0
 81 84  1  0  0  0
 81154  1  0  0  0
 81155  1  0  0  0
 81156  1  0  0  0
 82157  1  0  0  0
 82158  1  0  0  0
M  ISO  4   1 100  68 101  82 101  84 100
M  END
> <chiral flag>
0

> <version>
0

> <s_m_source_file>
/data/baiqing/PycharmProjects/Reinvent-master-3.2/result/LINK_invent/BTK/process_docking_weight1_custom_product_contain_oxygen_bond_distance_aromatic_linkinvent_7_9_3/rearranged_h_0097.sdf

> <i_m_source_file_index>
35

> <r_mmod_Potential_Energy-OPLS-2005>
865.083862304688

> <r_mmod_Stretch_Energy-OPLS-2005>
257.062530517578

> <r_mmod_Bend_Energy-OPLS-2005>
364.060302734375

> <r_mmod_Torsional_Energy-OPLS-2005>
425.639251708984

> <r_mmod_Improper_Torsional_Energy-OPLS-2005>
13.0499277114868

> <r_mmod_Van_der_Waal_Energy-OPLS-2005>
122.013046264648

> <r_mmod_Electrostatic_Energy-OPLS-2005>
-303.51904296875

> <r_mmod_Solvation_Energy-OPLS-2005>
-208.000396728516

> <b_mmod_Minimization_Converged-OPLS-2005>
0

> <r_mmod_RMS_Derivative-OPLS-2005>
10.4458274841309

$$$$
35
                    3D
 Structure written by MMmdl.
161170  0  0  1  0            999 V2000
  -30.6609  -14.6356   20.5744 C   0  0  0  0  0  0
  -30.4256  -12.4069   19.4731 C   0  0  0  0  0  0
  -29.5095  -12.5360   18.2375 C   0  0  0  0  0  0
  -28.0322  -12.3673   18.6372 C   0  0  0  0  0  0
  -27.6510  -13.2314   19.8668 C   0  0  2  0  0  0
  -28.6846  -13.0773   21.0000 C   0  0  0  0  0  0
  -25.2528  -13.8212   20.5728 C   0  0  0  0  0  0
  -24.1808  -13.0429   20.9210 C   0  0  0  0  0  0
  -24.6427  -11.6914   20.8752 C   0  0  0  0  0  0
  -23.9116  -10.4270   21.0422 C   0  0  0  0  0  0
  -24.3662   -9.4178   21.9198 C   0  0  0  0  0  0
  -23.6323   -8.2215   22.0767 C   0  0  0  0  0  0
  -22.4299   -8.0273   21.3550 C   0  0  0  0  0  0
  -21.9947   -9.0252   20.4650 C   0  0  0  0  0  0
  -22.7292  -10.2124   20.3074 C   0  0  0  0  0  0
  -21.6847   -6.0754   22.5280 C   0  0  0  0  0  0
  -21.4023   -6.5666   23.8223 C   0  0  0  0  0  0
  -21.3672   -5.6807   24.9177 C   0  0  0  0  0  0
  -21.6052   -4.3071   24.7222 C   0  0  0  0  0  0
  -21.8836   -3.8163   23.4344 C   0  0  0  0  0  0
  -21.9197   -4.6978   22.3399 C   0  0  0  0  0  0
  -22.7823  -13.5185   21.1875 C   0  0  0  0  0  0
  -22.1675   -4.2179   21.0974 F   0  0  0  0  0  0
  -21.5599   -3.4554   25.7736 F   0  0  0  0  0  0
  -30.0058  -13.4287   20.4550 N   0  0  0  0  0  0
  -26.2966  -12.9422   20.3311 N   0  0  0  0  0  0
  -25.9356  -11.6570   20.5738 N   0  0  0  0  0  0
  -22.0482  -12.8153   22.0440 N   0  0  0  0  0  0
  -25.4208  -15.1940   20.4221 N   0  0  0  0  0  0
  -31.7601  -14.8063   20.0386 O   0  0  0  0  0  0
  -21.6637   -6.8890   21.4249 O   0  0  0  0  0  0
  -22.3483  -14.5471   20.6713 O   0  0  0  0  0  0
  -24.6272  -31.8583   23.2026 C   0  0  0  0  0  0
  -25.9122  -32.4774   23.8353 C   0  0  1  0  0  0
  -27.2171  -27.3188   20.1148 C   0  0  0  0  0  0
  -25.5951  -33.8577   24.2289 N   0  0  0  0  0  0
  -23.4185  -30.4830   21.5447 C   0  0  2  0  0  0
  -24.8625  -28.9326   20.1141 C   0  0  0  0  0  0
  -22.7464  -29.4645   22.4942 C   0  0  0  0  0  0
  -18.0285  -28.1401   22.8477 C   0  0  0  0  0  0
  -24.1496  -36.7283   23.2638 C   0  0  0  0  0  0
  -25.9600  -30.7905   21.3705 C   0  0  0  0  0  0
  -26.0331  -29.4167   20.7129 C   0  0  0  0  0  0
  -27.2176  -28.6225   20.6998 C   0  0  0  0  0  0
  -26.0272  -26.8797   19.4989 C   0  0  0  0  0  0
  -24.8597  -27.6688   19.4996 C   0  0  0  0  0  0
  -23.6312  -29.8156   20.1613 C   0  0  0  0  0  0
  -25.4120  -36.3077   24.0330 C   0  0  1  0  0  0
  -20.5880  -28.3720   23.1276 C   0  0  2  0  0  0
  -20.6785  -26.9443   22.5407 C   0  0  0  0  0  0
  -19.5767  -26.6399   21.5206 C   0  0  0  0  0  0
  -18.1939  -26.7945   22.1607 C   0  0  0  0  0  0
  -19.1531  -28.8871   23.2872 C   0  0  0  0  0  0
  -18.9462  -30.1462   23.8896 C   0  0  0  0  0  0
  -17.6469  -30.6597   24.0567 C   0  0  0  0  0  0
  -25.9056  -34.9447   23.5102 C   0  0  0  0  0  0
  -16.5359  -29.9092   23.6334 C   0  0  0  0  0  0
  -16.7276  -28.6513   23.0353 C   0  0  0  0  0  0
  -26.4510  -31.6571   25.0722 C   0  0  0  0  0  0
  -25.3759  -31.3669   26.1461 C   0  0  0  0  0  0
  -27.0370  -30.3008   24.6164 C   0  0  0  0  0  0
  -27.6093  -32.4306   25.7473 C   0  0  0  0  0  0
  -27.5584  -37.1781   24.8455 C   0  0  0  0  0  0
  -21.4185  -29.3049   22.3659 N   0  0  0  0  0  0
  -26.4286  -37.3782   23.9418 N   0  0  0  0  0  0
  -24.6872  -31.0610   22.0958 N   0  0  0  0  0  0
  -23.4185  -28.8192   23.3035 O   0  0  0  0  0  0
  -28.3359  -26.4790   20.1117 O   0  0  0  0  0  0
  -26.5616  -34.8900   22.4666 O   0  0  0  0  0  0
  -23.5448  -32.1407   23.7361 O   0  0  0  0  0  0
  -29.5638  -18.7880   19.0652 C   0  0  0  0  0  0
  -29.5422  -19.5077   21.3477 C   0  0  0  0  0  0
  -29.7303  -17.4271   19.4709 C   0  0  0  0  0  0
  -29.6963  -18.1442   21.7518 C   0  0  0  0  0  0
  -29.5177  -19.8889   19.9821 C   0  0  0  0  0  0
  -29.8438  -17.0521   20.8359 C   0  0  0  0  0  0
  -30.3997  -21.6888   18.5591 C   0  0  0  0  0  0
  -30.4255  -23.1344   18.0357 C   0  0  0  0  0  0
  -30.0846  -24.1858   19.0933 C   0  0  0  0  0  0
  -28.7923  -22.4018   20.3126 C   0  0  0  0  0  0
  -28.7093  -23.8767   19.6729 C   0  0  1  0  0  0
  -30.1427  -15.4529   22.7560 C   0  0  0  0  0  0
  -28.1770  -25.0801   20.5788 C   0  0  0  0  0  0
  -29.5245  -21.3115   19.5437 N   0  0  0  0  0  0
  -30.0692  -15.6574   21.2983 N   0  0  0  0  0  0
  -31.2015  -20.9135   18.0267 O   0  0  0  0  0  0
  -31.4752  -12.5062   19.1903 H   0  0  0  0  0  0
  -30.3361  -11.4112   19.9093 H   0  0  0  0  0  0
  -29.7789  -11.7958   17.4828 H   0  0  0  0  0  0
  -29.6526  -13.5154   17.7765 H   0  0  0  0  0  0
  -27.8635  -11.3107   18.8550 H   0  0  0  0  0  0
  -27.3885  -12.6143   17.7913 H   0  0  0  0  0  0
  -27.6749  -14.2719   19.5378 H   0  0  0  0  0  0
  -28.6894  -12.0567   21.3894 H   0  0  0  0  0  0
  -28.3947  -13.7095   21.8377 H   0  0  0  0  0  0
  -25.2821   -9.5633   22.4756 H   0  0  0  0  0  0
  -24.0050   -7.4611   22.7486 H   0  0  0  0  0  0
  -21.0897   -8.8780   19.8921 H   0  0  0  0  0  0
  -22.3800  -10.9670   19.6171 H   0  0  0  0  0  0
  -21.2037   -7.6182   23.9756 H   0  0  0  0  0  0
  -21.1476   -6.0517   25.9088 H   0  0  0  0  0  0
  -22.0611   -2.7630   23.2831 H   0  0  0  0  0  0
  -22.4136  -11.9818   22.4792 H   0  0  0  0  0  0
  -21.1085  -13.1114   22.2627 H   0  0  0  0  0  0
  -24.6562  -15.8472   20.5497 H   0  0  0  0  0  0
  -26.2800  -15.6417   20.1246 H   0  0  0  0  0  0
  -26.7194  -32.5437   23.1099 H   0  0  0  0  0  0
  -25.0121  -33.9724   25.0449 H   0  0  0  0  0  0
  -22.7140  -31.3042   21.4016 H   0  0  0  0  0  0
  -23.3772  -35.9598   23.3273 H   0  0  0  0  0  0
  -24.3593  -36.8952   22.2059 H   0  0  0  0  0  0
  -23.7222  -37.6460   23.6693 H   0  0  0  0  0  0
  -26.0889  -31.5531   20.6021 H   0  0  0  0  0  0
  -26.8429  -30.8408   21.9975 H   0  0  0  0  0  0
  -28.1210  -28.9893   21.1674 H   0  0  0  0  0  0
  -25.9955  -25.9126   19.0185 H   0  0  0  0  0  0
  -23.9614  -27.2934   19.0293 H   0  0  0  0  0  0
  -23.7533  -30.5918   19.4055 H   0  0  0  0  0  0
  -22.7505  -29.2466   19.8607 H   0  0  0  0  0  0
  -25.1294  -36.1920   25.0822 H   0  0  0  0  0  0
  -20.9970  -28.3308   24.1397 H   0  0  0  0  0  0
  -20.5719  -26.2320   23.3598 H   0  0  0  0  0  0
  -21.6657  -26.7486   22.1190 H   0  0  0  0  0  0
  -19.6943  -25.6307   21.1238 H   0  0  0  0  0  0
  -19.6713  -27.3201   20.6730 H   0  0  0  0  0  0
  -17.4210  -26.6697   21.4005 H   0  0  0  0  0  0
  -18.0341  -26.0085   22.9004 H   0  0  0  0  0  0
  -19.7937  -30.7274   24.2283 H   0  0  0  0  0  0
  -17.5021  -31.6282   24.5168 H   0  0  0  0  0  0
  -15.5354  -30.3006   23.7653 H   0  0  0  0  0  0
  -15.8676  -28.0830   22.7079 H   0  0  0  0  0  0
  -24.5961  -30.6997   25.7765 H   0  0  0  0  0  0
  -24.8912  -32.2814   26.4897 H   0  0  0  0  0  0
  -25.8118  -30.8836   27.0216 H   0  0  0  0  0  0
  -26.2937  -29.6718   24.1266 H   0  0  0  0  0  0
  -27.4168  -29.7307   25.4645 H   0  0  0  0  0  0
  -27.8756  -30.4309   23.9324 H   0  0  0  0  0  0
  -27.2749  -33.3635   26.2016 H   0  0  0  0  0  0
  -28.3904  -32.6815   25.0286 H   0  0  0  0  0  0
  -28.0757  -31.8444   26.5400 H   0  0  0  0  0  0
  -28.2554  -38.0119   24.7579 H   0  0  0  0  0  0
  -28.1132  -36.2662   24.6204 H   0  0  0  0  0  0
  -27.2317  -37.1340   25.8855 H   0  0  0  0  0  0
  -20.9376  -29.8711   21.6811 H   0  0  0  0  0  0
  -26.0165  -38.2844   24.1476 H   0  0  0  0  0  0
  -29.5087  -18.9818   18.0036 H   0  0  0  0  0  0
  -29.4950  -20.2665   22.1180 H   0  0  0  0  0  0
  -29.7878  -16.6678   18.7020 H   0  0  0  0  0  0
  -29.7260  -17.9653   22.8155 H   0  0  0  0  0  0
  -29.7290  -23.2035   17.1993 H   0  0  0  0  0  0
  -31.4122  -23.3486   17.6251 H   0  0  0  0  0  0
  -30.0959  -25.1781   18.6380 H   0  0  0  0  0  0
  -30.8435  -24.1959   19.8788 H   0  0  0  0  0  0
  -27.7819  -22.0489   20.5243 H   0  0  0  0  0  0
  -29.2849  -22.4844   21.2817 H   0  0  0  0  0  0
  -28.0152  -23.8215   18.8298 H   0  0  0  0  0  0
  -29.2289  -15.7895   23.2437 H   0  0  0  0  0  0
  -30.9818  -16.0094   23.1761 H   0  0  0  0  0  0
  -30.2862  -14.4105   23.0442 H   0  0  0  0  0  0
  -28.7041  -25.0336   21.5320 H   0  0  0  0  0  0
  -27.1361  -24.8776   20.8390 H   0  0  0  0  0  0
  1 25  1  0  0  0
  1 30  2  0  0  0
  1 85  1  0  0  0
  2  3  1  0  0  0
  2 25  1  0  0  0
  2 87  1  0  0  0
  2 88  1  0  0  0
  3  4  1  0  0  0
  3 89  1  0  0  0
  3 90  1  0  0  0
  4  5  1  0  0  0
  4 91  1  0  0  0
  4 92  1  0  0  0
  5  6  1  0  0  0
  5 26  1  0  0  0
  5 93  1  0  0  0
  6 25  1  0  0  0
  6 94  1  0  0  0
  6 95  1  0  0  0
  7  8  2  0  0  0
  7 26  1  0  0  0
  7 29  1  0  0  0
  8  9  1  0  0  0
  8 22  1  0  0  0
  9 10  1  0  0  0
  9 27  2  0  0  0
 10 11  2  0  0  0
 10 15  1  0  0  0
 11 12  1  0  0  0
 11 96  1  0  0  0
 12 13  2  0  0  0
 12 97  1  0  0  0
 13 14  1  0  0  0
 13 31  1  0  0  0
 14 15  2  0  0  0
 14 98  1  0  0  0
 15 99  1  0  0  0
 16 17  2  0  0  0
 16 21  1  0  0  0
 16 31  1  0  0  0
 17 18  1  0  0  0
 17100  1  0  0  0
 18 19  2  0  0  0
 18101  1  0  0  0
 19 20  1  0  0  0
 19 24  1  0  0  0
 20 21  2  0  0  0
 20102  1  0  0  0
 21 23  1  0  0  0
 22 28  1  0  0  0
 22 32  2  0  0  0
 26 27  1  0  0  0
 28103  1  0  0  0
 28104  1  0  0  0
 29105  1  0  0  0
 29106  1  0  0  0
 33 34  1  0  0  0
 33 66  1  0  0  0
 33 70  2  0  0  0
 34 36  1  0  0  0
 34 59  1  0  0  0
 34107  1  0  0  0
 35 44  2  0  0  0
 35 45  1  0  0  0
 35 68  1  0  0  0
 36 56  1  0  0  0
 36108  1  0  0  0
 37 39  1  0  0  0
 37 47  1  0  0  0
 37 66  1  0  0  0
 37109  1  0  0  0
 38 43  2  0  0  0
 38 46  1  0  0  0
 38 47  1  0  0  0
 39 64  1  0  0  0
 39 67  2  0  0  0
 40 52  1  0  0  0
 40 53  2  0  0  0
 40 58  1  0  0  0
 41110  1  0  0  0
 41111  1  0  0  0
 41112  1  0  0  0
 41 48  1  0  0  0
 42 43  1  0  0  0
 42 66  1  0  0  0
 42113  1  0  0  0
 42114  1  0  0  0
 43 44  1  0  0  0
 44115  1  0  0  0
 45 46  2  0  0  0
 45116  1  0  0  0
 46117  1  0  0  0
 47118  1  0  0  0
 47119  1  0  0  0
 48 56  1  0  0  0
 48 65  1  0  0  0
 48120  1  0  0  0
 49 50  1  0  0  0
 49 53  1  0  0  0
 49 64  1  0  0  0
 49121  1  0  0  0
 50 51  1  0  0  0
 50122  1  0  0  0
 50123  1  0  0  0
 51 52  1  0  0  0
 51124  1  0  0  0
 51125  1  0  0  0
 52126  1  0  0  0
 52127  1  0  0  0
 53 54  1  0  0  0
 54 55  2  0  0  0
 54128  1  0  0  0
 55 57  1  0  0  0
 55129  1  0  0  0
 56 69  2  0  0  0
 57 58  2  0  0  0
 57130  1  0  0  0
 58131  1  0  0  0
 59 60  1  0  0  0
 59 61  1  0  0  0
 59 62  1  0  0  0
 60132  1  0  0  0
 60133  1  0  0  0
 60134  1  0  0  0
 61135  1  0  0  0
 61136  1  0  0  0
 61137  1  0  0  0
 62138  1  0  0  0
 62139  1  0  0  0
 62140  1  0  0  0
 63 65  1  0  0  0
 63141  1  0  0  0
 63142  1  0  0  0
 63143  1  0  0  0
 64144  1  0  0  0
 65145  1  0  0  0
 68 83  1  0  0  0
 71 73  2  0  0  0
 71 75  1  0  0  0
 71146  1  0  0  0
 72 74  1  0  0  0
 72 75  2  0  0  0
 72147  1  0  0  0
 73 76  1  0  0  0
 73148  1  0  0  0
 74 76  2  0  0  0
 74149  1  0  0  0
 75 84  1  0  0  0
 76 85  1  0  0  0
 77 78  1  0  0  0
 77 84  1  0  0  0
 77 86  2  0  0  0
 78 79  1  0  0  0
 78150  1  0  0  0
 78151  1  0  0  0
 79 81  1  0  0  0
 79152  1  0  0  0
 79153  1  0  0  0
 80 81  1  0  0  0
 80 84  1  0  0  0
 80154  1  0  0  0
 80155  1  0  0  0
 81 83  1  0  0  0
 81156  1  0  0  0
 82 85  1  0  0  0
 82157  1  0  0  0
 82158  1  0  0  0
 82159  1  0  0  0
 83160  1  0  0  0
 83161  1  0  0  0
M  ISO  4   1 100  68 101  83 101  85 100
M  END
> <chiral flag>
0

> <version>
0

> <s_m_source_file>
/data/baiqing/PycharmProjects/Reinvent-master-3.2/result/LINK_invent/BTK/process_docking_weight1_custom_product_contain_oxygen_bond_distance_aromatic_linkinvent_7_9_3/rearranged_h_0097.sdf

> <i_m_source_file_index>
36

> <r_mmod_Potential_Energy-OPLS-2005>
334.823883056641

> <r_mmod_Stretch_Energy-OPLS-2005>
104.514198303223

> <r_mmod_Bend_Energy-OPLS-2005>
148.957931518555

> <r_mmod_Torsional_Energy-OPLS-2005>
344.450317382812

> <r_mmod_Improper_Torsional_Energy-OPLS-2005>
3.49670338630676

> <r_mmod_Van_der_Waal_Energy-OPLS-2005>
162.711791992188

> <r_mmod_Electrostatic_Energy-OPLS-2005>
-267.048675537109

> <r_mmod_Solvation_Energy-OPLS-2005>
-207.603317260742

> <b_mmod_Minimization_Converged-OPLS-2005>
0

> <r_mmod_RMS_Derivative-OPLS-2005>
3.35749626159668

$$$$
36
                    3D
 Structure written by MMmdl.
169178  0  0  1  0            999 V2000
  -30.7684  -14.4671   20.5638 C   0  0  0  0  0  0
  -30.4019  -12.3111   19.4158 C   0  0  0  0  0  0
  -29.4786  -12.4936   18.1985 C   0  0  0  0  0  0
  -28.0040  -12.3426   18.6174 C   0  0  0  0  0  0
  -27.6465  -13.1978   19.8601 C   0  0  2  0  0  0
  -28.6995  -13.0475   20.9836 C   0  0  0  0  0  0
  -25.2547  -13.8131   20.5669 C   0  0  0  0  0  0
  -24.1818  -13.0425   20.9229 C   0  0  0  0  0  0
  -24.6365  -11.6886   20.8790 C   0  0  0  0  0  0
  -23.9041  -10.4280   21.0446 C   0  0  0  0  0  0
  -24.3599   -9.4188   21.9209 C   0  0  0  0  0  0
  -23.6283   -8.2226   22.0763 C   0  0  0  0  0  0
  -22.4271   -8.0272   21.3544 C   0  0  0  0  0  0
  -21.9908   -9.0248   20.4645 C   0  0  0  0  0  0
  -22.7230  -10.2129   20.3074 C   0  0  0  0  0  0
  -21.6835   -6.0732   22.5276 C   0  0  0  0  0  0
  -21.4004   -6.5637   23.8212 C   0  0  0  0  0  0
  -21.3668   -5.6796   24.9179 C   0  0  0  0  0  0
  -21.6053   -4.3060   24.7228 C   0  0  0  0  0  0
  -21.8820   -3.8146   23.4347 C   0  0  0  0  0  0
  -21.9190   -4.6962   22.3399 C   0  0  0  0  0  0
  -22.7843  -13.5229   21.1874 C   0  0  0  0  0  0
  -22.1657   -4.2147   21.0979 F   0  0  0  0  0  0
  -21.5644   -3.4543   25.7738 F   0  0  0  0  0  0
  -30.0246  -13.3308   20.4075 N   0  0  0  0  0  0
  -26.2948  -12.9266   20.3336 N   0  0  0  0  0  0
  -25.9280  -11.6448   20.5805 N   0  0  0  0  0  0
  -22.0465  -12.8219   22.0410 N   0  0  0  0  0  0
  -25.4281  -15.1829   20.3938 N   0  0  0  0  0  0
  -31.9095  -14.5628   20.1026 O   0  0  0  0  0  0
  -21.6627   -6.8875   21.4235 O   0  0  0  0  0  0
  -22.3549  -14.5539   20.6710 O   0  0  0  0  0  0
  -24.6133  -31.8680   23.2107 C   0  0  0  0  0  0
  -25.9026  -32.4828   23.8404 C   0  0  1  0  0  0
  -27.2468  -27.4544   20.0836 C   0  0  0  0  0  0
  -25.5873  -33.8624   24.2320 N   0  0  0  0  0  0
  -23.4025  -30.4891   21.5498 C   0  0  2  0  0  0
  -24.8543  -28.9574   20.1095 C   0  0  0  0  0  0
  -22.7402  -29.4656   22.4989 C   0  0  0  0  0  0
  -18.0271  -28.1384   22.8525 C   0  0  0  0  0  0
  -24.1482  -36.7320   23.2639 C   0  0  0  0  0  0
  -25.9288  -30.8364   21.3638 C   0  0  0  0  0  0
  -26.0101  -29.4717   20.7106 C   0  0  0  0  0  0
  -27.2063  -28.7217   20.7064 C   0  0  0  0  0  0
  -26.0773  -26.9465   19.4828 C   0  0  0  0  0  0
  -24.8814  -27.6918   19.4953 C   0  0  0  0  0  0
  -23.6123  -29.8202   20.1643 C   0  0  0  0  0  0
  -25.4105  -36.3123   24.0338 C   0  0  1  0  0  0
  -20.5862  -28.3672   23.1335 C   0  0  2  0  0  0
  -20.6767  -26.9409   22.5437 C   0  0  0  0  0  0
  -19.5739  -26.6400   21.5235 C   0  0  0  0  0  0
  -18.1914  -26.7940   22.1640 C   0  0  0  0  0  0
  -19.1521  -28.8841   23.2934 C   0  0  0  0  0  0
  -18.9449  -30.1450   23.8941 C   0  0  0  0  0  0
  -17.6452  -30.6600   24.0574 C   0  0  0  0  0  0
  -25.9034  -34.9484   23.5130 C   0  0  0  0  0  0
  -16.5343  -29.9108   23.6321 C   0  0  0  0  0  0
  -16.7261  -28.6512   23.0370 C   0  0  0  0  0  0
  -26.4463  -31.6612   25.0729 C   0  0  0  0  0  0
  -25.3719  -31.3696   26.1462 C   0  0  0  0  0  0
  -27.0302  -30.3056   24.6109 C   0  0  0  0  0  0
  -27.6042  -32.4331   25.7490 C   0  0  0  0  0  0
  -27.5585  -37.1809   24.8458 C   0  0  0  0  0  0
  -21.4130  -29.3029   22.3723 N   0  0  0  0  0  0
  -26.4288  -37.3812   23.9417 N   0  0  0  0  0  0
  -24.6660  -31.0784   22.1003 N   0  0  0  0  0  0
  -23.4173  -28.8205   23.3037 O   0  0  0  0  0  0
  -28.3945  -26.6983   20.1387 O   0  0  0  0  0  0
  -26.5616  -34.8936   22.4704 O   0  0  0  0  0  0
  -23.5318  -32.1426   23.7496 O   0  0  0  0  0  0
  -27.7270  -19.2651   19.5865 C   0  0  0  0  0  0
  -29.7273  -19.7330   20.8825 C   0  0  0  0  0  0
  -27.8618  -20.5013   18.9259 C   0  0  0  0  0  0
  -29.8608  -20.9805   20.2242 C   0  0  0  0  0  0
  -28.6680  -18.8509   20.5559 C   0  0  0  0  0  0
  -28.9446  -21.3639   19.2156 C   0  0  0  0  0  0
  -29.3620  -22.4553   17.1061 C   0  0  0  0  0  0
  -29.3163  -16.3410   20.5215 C   0  0  0  0  0  0
  -29.4538  -23.7113   16.2313 C   0  0  0  0  0  0
  -29.7372  -25.0034   16.9983 C   0  0  0  0  0  0
  -29.1975  -23.8669   19.1543 C   0  0  0  0  0  0
  -28.8760  -25.0989   18.2615 C   0  0  1  0  0  0
  -28.4410  -17.5169   22.7631 C   0  0  0  0  0  0
  -31.0234  -16.0998   22.2826 C   0  0  0  0  0  0
  -29.0994  -26.4848   18.9204 C   0  0  0  0  0  0
  -28.4982  -17.4713   21.2234 C   0  0  1  0  0  0
  -29.1268  -22.5636   18.4458 N   0  0  0  0  0  0
  -30.2125  -15.5422   21.1834 N   0  0  0  0  0  0
  -29.4866  -21.3692   16.5280 O   0  0  0  0  0  0
  -29.0710  -16.1886   19.3172 O   0  0  0  0  0  0
  -31.4458  -12.3780   19.1057 H   0  0  0  0  0  0
  -30.2844  -11.3131   19.8418 H   0  0  0  0  0  0
  -29.7240  -11.7654   17.4242 H   0  0  0  0  0  0
  -29.6377  -13.4788   17.7564 H   0  0  0  0  0  0
  -27.8220  -11.2883   18.8264 H   0  0  0  0  0  0
  -27.3494  -12.6042   17.7849 H   0  0  0  0  0  0
  -27.6530  -14.2254   19.5162 H   0  0  0  0  0  0
  -28.6807  -12.0336   21.3869 H   0  0  0  0  0  0
  -28.4665  -13.7074   21.8204 H   0  0  0  0  0  0
  -25.2741   -9.5658   22.4791 H   0  0  0  0  0  0
  -23.9981   -7.4612   22.7481 H   0  0  0  0  0  0
  -21.0847   -8.8773   19.8939 H   0  0  0  0  0  0
  -22.3699  -10.9679   19.6190 H   0  0  0  0  0  0
  -21.1990   -7.6144   23.9710 H   0  0  0  0  0  0
  -21.1499   -6.0530   25.9085 H   0  0  0  0  0  0
  -22.0597   -2.7607   23.2849 H   0  0  0  0  0  0
  -22.4065  -11.9877   22.4798 H   0  0  0  0  0  0
  -21.1078  -13.1243   22.2607 H   0  0  0  0  0  0
  -24.6421  -15.8210   20.4505 H   0  0  0  0  0  0
  -26.2307  -15.5812   19.9247 H   0  0  0  0  0  0
  -26.7099  -32.5563   23.1174 H   0  0  0  0  0  0
  -24.9990  -33.9798   25.0440 H   0  0  0  0  0  0
  -22.6910  -31.3056   21.4103 H   0  0  0  0  0  0
  -23.3762  -35.9636   23.3284 H   0  0  0  0  0  0
  -24.3571  -36.8961   22.2057 H   0  0  0  0  0  0
  -23.7208  -37.6505   23.6668 H   0  0  0  0  0  0
  -26.0386  -31.6035   20.5960 H   0  0  0  0  0  0
  -26.8169  -30.8921   21.9820 H   0  0  0  0  0  0
  -28.0970  -29.1079   21.1818 H   0  0  0  0  0  0
  -26.0802  -25.9662   19.0294 H   0  0  0  0  0  0
  -23.9901  -27.2859   19.0364 H   0  0  0  0  0  0
  -23.7167  -30.5957   19.4049 H   0  0  0  0  0  0
  -22.7375  -29.2379   19.8702 H   0  0  0  0  0  0
  -25.1273  -36.1987   25.0830 H   0  0  0  0  0  0
  -20.9971  -28.3252   24.1452 H   0  0  0  0  0  0
  -20.5705  -26.2272   23.3621 H   0  0  0  0  0  0
  -21.6633  -26.7470   22.1216 H   0  0  0  0  0  0
  -19.6907  -25.6321   21.1245 H   0  0  0  0  0  0
  -19.6673  -27.3230   20.6781 H   0  0  0  0  0  0
  -17.4192  -26.6723   21.4026 H   0  0  0  0  0  0
  -18.0288  -26.0064   22.9011 H   0  0  0  0  0  0
  -19.7912  -30.7261   24.2338 H   0  0  0  0  0  0
  -17.4997  -31.6277   24.5176 H   0  0  0  0  0  0
  -15.5348  -30.3025   23.7603 H   0  0  0  0  0  0
  -15.8665  -28.0832   22.7082 H   0  0  0  0  0  0
  -24.5897  -30.7051   25.7763 H   0  0  0  0  0  0
  -24.8903  -32.2845   26.4927 H   0  0  0  0  0  0
  -25.8069  -30.8833   27.0206 H   0  0  0  0  0  0
  -26.2853  -29.6812   24.1160 H   0  0  0  0  0  0
  -27.4064  -29.7295   25.4579 H   0  0  0  0  0  0
  -27.8688  -30.4376   23.9266 H   0  0  0  0  0  0
  -27.2678  -33.3634   26.2086 H   0  0  0  0  0  0
  -28.3845  -32.6894   25.0307 H   0  0  0  0  0  0
  -28.0720  -31.8437   26.5390 H   0  0  0  0  0  0
  -28.2585  -38.0125   24.7557 H   0  0  0  0  0  0
  -28.1107  -36.2664   24.6234 H   0  0  0  0  0  0
  -27.2311  -37.1396   25.8861 H   0  0  0  0  0  0
  -20.9283  -29.8724   21.6921 H   0  0  0  0  0  0
  -26.0182  -38.2883   24.1455 H   0  0  0  0  0  0
  -26.9003  -18.6211   19.3195 H   0  0  0  0  0  0
  -30.4589  -19.4527   21.6273 H   0  0  0  0  0  0
  -27.1440  -20.7704   18.1628 H   0  0  0  0  0  0
  -30.6994  -21.6191   20.4651 H   0  0  0  0  0  0
  -28.5070  -23.8056   15.7003 H   0  0  0  0  0  0
  -30.2207  -23.5592   15.4716 H   0  0  0  0  0  0
  -29.5510  -25.8551   16.3417 H   0  0  0  0  0  0
  -30.7970  -25.0506   17.2588 H   0  0  0  0  0  0
  -28.5140  -23.8532   20.0042 H   0  0  0  0  0  0
  -30.2003  -23.9681   19.5707 H   0  0  0  0  0  0
  -27.8308  -25.0368   17.9590 H   0  0  0  0  0  0
  -27.5714  -18.0860   23.0910 H   0  0  0  0  0  0
  -29.3142  -17.9938   23.2057 H   0  0  0  0  0  0
  -28.3356  -16.5164   23.1842 H   0  0  0  0  0  0
  -31.1735  -17.1746   22.1730 H   0  0  0  0  0  0
  -32.0264  -15.6723   22.3482 H   0  0  0  0  0  0
  -30.5562  -15.8983   23.2456 H   0  0  0  0  0  0
  -28.8620  -27.2775   18.2080 H   0  0  0  0  0  0
  -30.1595  -26.6068   19.1463 H   0  0  0  0  0  0
  -27.4801  -17.1714   20.9723 H   0  0  0  0  0  0
  1 25  1  0  0  0
  1 30  2  0  0  0
  1 88  1  0  0  0
  2  3  1  0  0  0
  2 25  1  0  0  0
  2 91  1  0  0  0
  2 92  1  0  0  0
  3  4  1  0  0  0
  3 93  1  0  0  0
  3 94  1  0  0  0
  4  5  1  0  0  0
  4 95  1  0  0  0
  4 96  1  0  0  0
  5  6  1  0  0  0
  5 26  1  0  0  0
  5 97  1  0  0  0
  6 25  1  0  0  0
  6 98  1  0  0  0
  6 99  1  0  0  0
  7  8  2  0  0  0
  7 26  1  0  0  0
  7 29  1  0  0  0
  8  9  1  0  0  0
  8 22  1  0  0  0
  9 10  1  0  0  0
  9 27  2  0  0  0
 10 11  2  0  0  0
 10 15  1  0  0  0
 11 12  1  0  0  0
 11100  1  0  0  0
 12 13  2  0  0  0
 12101  1  0  0  0
 13 14  1  0  0  0
 13 31  1  0  0  0
 14 15  2  0  0  0
 14102  1  0  0  0
 15103  1  0  0  0
 16 17  2  0  0  0
 16 21  1  0  0  0
 16 31  1  0  0  0
 17 18  1  0  0  0
 17104  1  0  0  0
 18 19  2  0  0  0
 18105  1  0  0  0
 19 20  1  0  0  0
 19 24  1  0  0  0
 20 21  2  0  0  0
 20106  1  0  0  0
 21 23  1  0  0  0
 22 28  1  0  0  0
 22 32  2  0  0  0
 26 27  1  0  0  0
 28107  1  0  0  0
 28108  1  0  0  0
 29109  1  0  0  0
 29110  1  0  0  0
 33 34  1  0  0  0
 33 66  1  0  0  0
 33 70  2  0  0  0
 34 36  1  0  0  0
 34 59  1  0  0  0
 34111  1  0  0  0
 35 44  2  0  0  0
 35 45  1  0  0  0
 35 68  1  0  0  0
 36 56  1  0  0  0
 36112  1  0  0  0
 37 39  1  0  0  0
 37 47  1  0  0  0
 37 66  1  0  0  0
 37113  1  0  0  0
 38 43  2  0  0  0
 38 46  1  0  0  0
 38 47  1  0  0  0
 39 64  1  0  0  0
 39 67  2  0  0  0
 40 52  1  0  0  0
 40 53  2  0  0  0
 40 58  1  0  0  0
 41114  1  0  0  0
 41115  1  0  0  0
 41116  1  0  0  0
 41 48  1  0  0  0
 42 43  1  0  0  0
 42 66  1  0  0  0
 42117  1  0  0  0
 42118  1  0  0  0
 43 44  1  0  0  0
 44119  1  0  0  0
 45 46  2  0  0  0
 45120  1  0  0  0
 46121  1  0  0  0
 47122  1  0  0  0
 47123  1  0  0  0
 48 56  1  0  0  0
 48 65  1  0  0  0
 48124  1  0  0  0
 49 50  1  0  0  0
 49 53  1  0  0  0
 49 64  1  0  0  0
 49125  1  0  0  0
 50 51  1  0  0  0
 50126  1  0  0  0
 50127  1  0  0  0
 51 52  1  0  0  0
 51128  1  0  0  0
 51129  1  0  0  0
 52130  1  0  0  0
 52131  1  0  0  0
 53 54  1  0  0  0
 54 55  2  0  0  0
 54132  1  0  0  0
 55 57  1  0  0  0
 55133  1  0  0  0
 56 69  2  0  0  0
 57 58  2  0  0  0
 57134  1  0  0  0
 58135  1  0  0  0
 59 60  1  0  0  0
 59 61  1  0  0  0
 59 62  1  0  0  0
 60136  1  0  0  0
 60137  1  0  0  0
 60138  1  0  0  0
 61139  1  0  0  0
 61140  1  0  0  0
 61141  1  0  0  0
 62142  1  0  0  0
 62143  1  0  0  0
 62144  1  0  0  0
 63 65  1  0  0  0
 63145  1  0  0  0
 63146  1  0  0  0
 63147  1  0  0  0
 64148  1  0  0  0
 65149  1  0  0  0
 68 85  1  0  0  0
 71 73  2  0  0  0
 71 75  1  0  0  0
 71150  1  0  0  0
 72 74  1  0  0  0
 72 75  2  0  0  0
 72151  1  0  0  0
 73 76  1  0  0  0
 73152  1  0  0  0
 74 76  2  0  0  0
 74153  1  0  0  0
 75 86  1  0  0  0
 76 87  1  0  0  0
 77 79  1  0  0  0
 77 87  1  0  0  0
 77 89  2  0  0  0
 78 86  1  0  0  0
 78 88  1  0  0  0
 78 90  2  0  0  0
 79 80  1  0  0  0
 79154  1  0  0  0
 79155  1  0  0  0
 80 82  1  0  0  0
 80156  1  0  0  0
 80157  1  0  0  0
 81 82  1  0  0  0
 81 87  1  0  0  0
 81158  1  0  0  0
 81159  1  0  0  0
 82 85  1  0  0  0
 82160  1  0  0  0
 83161  1  0  0  0
 83162  1  0  0  0
 83163  1  0  0  0
 83 86  1  0  0  0
 84 88  1  0  0  0
 84164  1  0  0  0
 84165  1  0  0  0
 84166  1  0  0  0
 85167  1  0  0  0
 85168  1  0  0  0
 86169  1  0  0  0
M  ISO  4   1 100  68 101  85 101  88 100
M  END
> <chiral flag>
0

> <version>
0

> <s_m_source_file>
/data/baiqing/PycharmProjects/Reinvent-master-3.2/result/LINK_invent/BTK/process_docking_weight1_custom_product_contain_oxygen_bond_distance_aromatic_linkinvent_7_9_3/rearranged_h_0097.sdf

> <i_m_source_file_index>
37

> <r_mmod_Potential_Energy-OPLS-2005>
267.779235839844

> <r_mmod_Stretch_Energy-OPLS-2005>
47.7006072998047

> <r_mmod_Bend_Energy-OPLS-2005>
131.502639770508

> <r_mmod_Torsional_Energy-OPLS-2005>
390.259521484375

> <r_mmod_Improper_Torsional_Energy-OPLS-2005>
4.84011888504028

> <r_mmod_Van_der_Waal_Energy-OPLS-2005>
171.90087890625

> <r_mmod_Electrostatic_Energy-OPLS-2005>
-284.751098632812

> <r_mmod_Solvation_Energy-OPLS-2005>
-210.882904052734

> <b_mmod_Minimization_Converged-OPLS-2005>
0

> <r_mmod_RMS_Derivative-OPLS-2005>
1.52674174308777

$$$$
37
                    3D
 Structure written by MMmdl.
160169  0  0  1  0            999 V2000
  -30.6318  -14.6187   20.5031 C   0  0  0  0  0  0
  -30.4371  -12.3777   19.4503 C   0  0  0  0  0  0
  -29.5063  -12.5028   18.2224 C   0  0  0  0  0  0
  -28.0304  -12.3405   18.6381 C   0  0  0  0  0  0
  -27.6563  -13.2121   19.8665 C   0  0  2  0  0  0
  -28.7008  -13.0570   20.9961 C   0  0  0  0  0  0
  -25.2577  -13.8165   20.5683 C   0  0  0  0  0  0
  -24.1833  -13.0440   20.9179 C   0  0  0  0  0  0
  -24.6389  -11.6907   20.8734 C   0  0  0  0  0  0
  -23.9057  -10.4294   21.0405 C   0  0  0  0  0  0
  -24.3609   -9.4207   21.9181 C   0  0  0  0  0  0
  -23.6283   -8.2244   22.0760 C   0  0  0  0  0  0
  -22.4261   -8.0286   21.3560 C   0  0  0  0  0  0
  -21.9892   -9.0257   20.4661 C   0  0  0  0  0  0
  -22.7227  -10.2133   20.3064 C   0  0  0  0  0  0
  -21.6848   -6.0732   22.5278 C   0  0  0  0  0  0
  -21.4012   -6.5635   23.8212 C   0  0  0  0  0  0
  -21.3658   -5.6790   24.9172 C   0  0  0  0  0  0
  -21.6044   -4.3053   24.7224 C   0  0  0  0  0  0
  -21.8818   -3.8147   23.4346 C   0  0  0  0  0  0
  -21.9189   -4.6963   22.3401 C   0  0  0  0  0  0
  -22.7857  -13.5242   21.1843 C   0  0  0  0  0  0
  -22.1662   -4.2149   21.0981 F   0  0  0  0  0  0
  -21.5629   -3.4537   25.7737 F   0  0  0  0  0  0
  -30.0210  -13.3943   20.4364 N   0  0  0  0  0  0
  -26.3003  -12.9337   20.3331 N   0  0  0  0  0  0
  -25.9320  -11.6493   20.5755 N   0  0  0  0  0  0
  -22.0495  -12.8249   22.0405 N   0  0  0  0  0  0
  -25.4298  -15.1881   20.4099 N   0  0  0  0  0  0
  -31.7797  -14.7914   20.0828 O   0  0  0  0  0  0
  -21.6642   -6.8874   21.4242 O   0  0  0  0  0  0
  -22.3549  -14.5550   20.6689 O   0  0  0  0  0  0
  -24.6251  -31.8602   23.2044 C   0  0  0  0  0  0
  -25.9106  -32.4782   23.8364 C   0  0  1  0  0  0
  -27.2222  -27.3335   20.1136 C   0  0  0  0  0  0
  -25.5922  -33.8582   24.2289 N   0  0  0  0  0  0
  -23.4181  -30.4846   21.5467 C   0  0  2  0  0  0
  -24.8640  -28.9428   20.1118 C   0  0  0  0  0  0
  -22.7472  -29.4622   22.4941 C   0  0  0  0  0  0
  -18.0282  -28.1379   22.8483 C   0  0  0  0  0  0
  -24.1486  -36.7298   23.2642 C   0  0  0  0  0  0
  -25.9592  -30.7931   21.3769 C   0  0  0  0  0  0
  -26.0326  -29.4228   20.7177 C   0  0  0  0  0  0
  -27.2166  -28.6296   20.7094 C   0  0  0  0  0  0
  -26.0369  -26.9083   19.4735 C   0  0  0  0  0  0
  -24.8677  -27.6898   19.4801 C   0  0  0  0  0  0
  -23.6322  -29.8219   20.1609 C   0  0  0  0  0  0
  -25.4109  -36.3087   24.0332 C   0  0  1  0  0  0
  -20.5884  -28.3678   23.1283 C   0  0  2  0  0  0
  -20.6768  -26.9401   22.5407 C   0  0  0  0  0  0
  -19.5743  -26.6386   21.5204 C   0  0  0  0  0  0
  -18.1923  -26.7922   22.1620 C   0  0  0  0  0  0
  -19.1536  -28.8843   23.2881 C   0  0  0  0  0  0
  -18.9465  -30.1445   23.8902 C   0  0  0  0  0  0
  -17.6464  -30.6582   24.0564 C   0  0  0  0  0  0
  -25.9043  -34.9454   23.5110 C   0  0  0  0  0  0
  -16.5356  -29.9081   23.6332 C   0  0  0  0  0  0
  -16.7272  -28.6500   23.0353 C   0  0  0  0  0  0
  -26.4499  -31.6595   25.0735 C   0  0  0  0  0  0
  -25.3748  -31.3741   26.1480 C   0  0  0  0  0  0
  -27.0341  -30.3016   24.6197 C   0  0  0  0  0  0
  -27.6062  -32.4337   25.7491 C   0  0  0  0  0  0
  -27.5577  -37.1803   24.8467 C   0  0  0  0  0  0
  -21.4185  -29.3033   22.3684 N   0  0  0  0  0  0
  -26.4291  -37.3778   23.9406 N   0  0  0  0  0  0
  -24.6859  -31.0626   22.0992 N   0  0  0  0  0  0
  -23.4199  -28.8161   23.3018 O   0  0  0  0  0  0
  -28.3410  -26.4921   20.1298 O   0  0  0  0  0  0
  -26.5612  -34.8921   22.4677 O   0  0  0  0  0  0
  -23.5419  -32.1397   23.7379 O   0  0  0  0  0  0
  -30.6224  -19.1716   19.5953 C   0  0  0  0  0  0
  -30.6592  -17.7541   19.7445 C   0  0  0  0  0  0
  -29.1402  -17.9407   21.5928 C   0  0  0  0  0  0
  -29.8638  -20.0368   20.4433 C   0  0  0  0  0  0
  -29.9199  -17.0969   20.7582 C   0  0  0  0  0  0
  -29.1147  -19.3622   21.4560 C   0  0  0  0  0  0
  -31.6484  -23.3442   20.4322 C   0  0  0  0  0  0
  -30.5725  -24.4108   20.6408 C   0  0  0  0  0  0
  -31.2288  -22.0020   19.8106 C   0  0  0  0  0  0
  -28.8607  -22.4901   20.5602 C   0  0  0  0  0  0
  -29.1902  -23.9884   20.1086 C   0  0  1  0  0  0
  -28.1203  -25.0834   20.5239 C   0  0  0  0  0  0
  -29.9409  -21.4793   20.2967 N   0  0  0  0  0  0
  -28.3761  -20.0887   22.3877 N   0  0  0  0  0  0
  -29.8500  -15.6493   20.9454 N   0  0  0  0  0  0
  -32.8179  -23.5589   20.7583 O   0  0  0  0  0  0
  -31.4797  -12.4957   19.1504 H   0  0  0  0  0  0
  -30.3659  -11.3805   19.8864 H   0  0  0  0  0  0
  -29.7649  -11.7538   17.4723 H   0  0  0  0  0  0
  -29.6503  -13.4736   17.7445 H   0  0  0  0  0  0
  -27.8680  -11.2874   18.8720 H   0  0  0  0  0  0
  -27.3741  -12.5689   17.7977 H   0  0  0  0  0  0
  -27.6800  -14.2484   19.5278 H   0  0  0  0  0  0
  -28.7070  -12.0341   21.3752 H   0  0  0  0  0  0
  -28.4466  -13.6835   21.8529 H   0  0  0  0  0  0
  -25.2753   -9.5678   22.4756 H   0  0  0  0  0  0
  -23.9994   -7.4629   22.7472 H   0  0  0  0  0  0
  -21.0825   -8.8773   19.8965 H   0  0  0  0  0  0
  -22.3680  -10.9673   19.6179 H   0  0  0  0  0  0
  -21.2005   -7.6142   23.9707 H   0  0  0  0  0  0
  -21.1484   -6.0526   25.9072 H   0  0  0  0  0  0
  -22.0596   -2.7608   23.2847 H   0  0  0  0  0  0
  -22.4114  -11.9922   22.4818 H   0  0  0  0  0  0
  -21.1125  -13.1305   22.2621 H   0  0  0  0  0  0
  -24.6618  -15.8422   20.5167 H   0  0  0  0  0  0
  -26.2788  -15.6268   20.0763 H   0  0  0  0  0  0
  -26.7176  -32.5451   23.1114 H   0  0  0  0  0  0
  -25.0070  -33.9725   25.0434 H   0  0  0  0  0  0
  -22.7118  -31.3050   21.4053 H   0  0  0  0  0  0
  -23.3740  -35.9641   23.3324 H   0  0  0  0  0  0
  -24.3573  -36.8896   22.2052 H   0  0  0  0  0  0
  -23.7253  -37.6513   23.6649 H   0  0  0  0  0  0
  -26.0965  -31.5575   20.6111 H   0  0  0  0  0  0
  -26.8378  -30.8361   22.0092 H   0  0  0  0  0  0
  -28.1150  -28.9938   21.1886 H   0  0  0  0  0  0
  -25.9985  -25.9627   18.9531 H   0  0  0  0  0  0
  -23.9770  -27.3210   18.9900 H   0  0  0  0  0  0
  -23.7534  -30.5997   19.4059 H   0  0  0  0  0  0
  -22.7521  -29.2521   19.8570 H   0  0  0  0  0  0
  -25.1290  -36.1945   25.0826 H   0  0  0  0  0  0
  -20.9972  -28.3247   24.1405 H   0  0  0  0  0  0
  -20.5655  -26.2285   23.3603 H   0  0  0  0  0  0
  -21.6638  -26.7415   22.1211 H   0  0  0  0  0  0
  -19.6900  -25.6299   21.1228 H   0  0  0  0  0  0
  -19.6679  -27.3205   20.6740 H   0  0  0  0  0  0
  -17.4187  -26.6663   21.4030 H   0  0  0  0  0  0
  -18.0328  -26.0065   22.9018 H   0  0  0  0  0  0
  -19.7943  -30.7254   24.2277 H   0  0  0  0  0  0
  -17.5023  -31.6265   24.5159 H   0  0  0  0  0  0
  -15.5355  -30.2984   23.7652 H   0  0  0  0  0  0
  -15.8672  -28.0818   22.7068 H   0  0  0  0  0  0
  -24.5903  -30.7104   25.7827 H   0  0  0  0  0  0
  -24.8969  -32.2914   26.4928 H   0  0  0  0  0  0
  -25.8090  -30.8909   27.0242 H   0  0  0  0  0  0
  -26.2915  -29.6764   24.1227 H   0  0  0  0  0  0
  -27.4040  -29.7279   25.4706 H   0  0  0  0  0  0
  -27.8789  -30.4297   23.9425 H   0  0  0  0  0  0
  -27.2666  -33.3626   26.2087 H   0  0  0  0  0  0
  -28.3850  -32.6919   25.0303 H   0  0  0  0  0  0
  -28.0762  -31.8464   26.5391 H   0  0  0  0  0  0
  -28.2615  -38.0079   24.7485 H   0  0  0  0  0  0
  -28.1048  -36.2610   24.6321 H   0  0  0  0  0  0
  -27.2295  -37.1495   25.8872 H   0  0  0  0  0  0
  -20.9360  -29.8760   21.6899 H   0  0  0  0  0  0
  -26.0177  -38.2858   24.1395 H   0  0  0  0  0  0
  -31.2103  -19.5870   18.7909 H   0  0  0  0  0  0
  -31.2561  -17.1775   19.0521 H   0  0  0  0  0  0
  -28.5540  -17.4810   22.3754 H   0  0  0  0  0  0
  -30.8915  -25.3367   20.1617 H   0  0  0  0  0  0
  -30.5068  -24.6112   21.7092 H   0  0  0  0  0  0
  -32.0339  -21.2966   20.0188 H   0  0  0  0  0  0
  -31.1801  -22.1249   18.7281 H   0  0  0  0  0  0
  -27.9420  -22.1577   20.0723 H   0  0  0  0  0  0
  -28.6451  -22.5245   21.6267 H   0  0  0  0  0  0
  -29.2370  -23.9936   19.0183 H   0  0  0  0  0  0
  -28.0455  -25.0829   21.6121 H   0  0  0  0  0  0
  -27.1567  -24.7113   20.1840 H   0  0  0  0  0  0
  -28.2773  -19.6723   23.3064 H   0  0  0  0  0  0
  -28.6441  -21.0643   22.4435 H   0  0  0  0  0  0
  -29.0059  -15.3277   21.3932 H   0  0  0  0  0  0
  1 25  1  0  0  0
  1 30  2  0  0  0
  1 85  1  0  0  0
  2  3  1  0  0  0
  2 25  1  0  0  0
  2 87  1  0  0  0
  2 88  1  0  0  0
  3  4  1  0  0  0
  3 89  1  0  0  0
  3 90  1  0  0  0
  4  5  1  0  0  0
  4 91  1  0  0  0
  4 92  1  0  0  0
  5  6  1  0  0  0
  5 26  1  0  0  0
  5 93  1  0  0  0
  6 25  1  0  0  0
  6 94  1  0  0  0
  6 95  1  0  0  0
  7  8  2  0  0  0
  7 26  1  0  0  0
  7 29  1  0  0  0
  8  9  1  0  0  0
  8 22  1  0  0  0
  9 10  1  0  0  0
  9 27  2  0  0  0
 10 11  2  0  0  0
 10 15  1  0  0  0
 11 12  1  0  0  0
 11 96  1  0  0  0
 12 13  2  0  0  0
 12 97  1  0  0  0
 13 14  1  0  0  0
 13 31  1  0  0  0
 14 15  2  0  0  0
 14 98  1  0  0  0
 15 99  1  0  0  0
 16 17  2  0  0  0
 16 21  1  0  0  0
 16 31  1  0  0  0
 17 18  1  0  0  0
 17100  1  0  0  0
 18 19  2  0  0  0
 18101  1  0  0  0
 19 20  1  0  0  0
 19 24  1  0  0  0
 20 21  2  0  0  0
 20102  1  0  0  0
 21 23  1  0  0  0
 22 28  1  0  0  0
 22 32  2  0  0  0
 26 27  1  0  0  0
 28103  1  0  0  0
 28104  1  0  0  0
 29105  1  0  0  0
 29106  1  0  0  0
 33 34  1  0  0  0
 33 66  1  0  0  0
 33 70  2  0  0  0
 34 36  1  0  0  0
 34 59  1  0  0  0
 34107  1  0  0  0
 35 44  2  0  0  0
 35 45  1  0  0  0
 35 68  1  0  0  0
 36 56  1  0  0  0
 36108  1  0  0  0
 37 39  1  0  0  0
 37 47  1  0  0  0
 37 66  1  0  0  0
 37109  1  0  0  0
 38 43  2  0  0  0
 38 46  1  0  0  0
 38 47  1  0  0  0
 39 64  1  0  0  0
 39 67  2  0  0  0
 40 52  1  0  0  0
 40 53  2  0  0  0
 40 58  1  0  0  0
 41110  1  0  0  0
 41111  1  0  0  0
 41112  1  0  0  0
 41 48  1  0  0  0
 42 43  1  0  0  0
 42 66  1  0  0  0
 42113  1  0  0  0
 42114  1  0  0  0
 43 44  1  0  0  0
 44115  1  0  0  0
 45 46  2  0  0  0
 45116  1  0  0  0
 46117  1  0  0  0
 47118  1  0  0  0
 47119  1  0  0  0
 48 56  1  0  0  0
 48 65  1  0  0  0
 48120  1  0  0  0
 49 50  1  0  0  0
 49 53  1  0  0  0
 49 64  1  0  0  0
 49121  1  0  0  0
 50 51  1  0  0  0
 50122  1  0  0  0
 50123  1  0  0  0
 51 52  1  0  0  0
 51124  1  0  0  0
 51125  1  0  0  0
 52126  1  0  0  0
 52127  1  0  0  0
 53 54  1  0  0  0
 54 55  2  0  0  0
 54128  1  0  0  0
 55 57  1  0  0  0
 55129  1  0  0  0
 56 69  2  0  0  0
 57 58  2  0  0  0
 57130  1  0  0  0
 58131  1  0  0  0
 59 60  1  0  0  0
 59 61  1  0  0  0
 59 62  1  0  0  0
 60132  1  0  0  0
 60133  1  0  0  0
 60134  1  0  0  0
 61135  1  0  0  0
 61136  1  0  0  0
 61137  1  0  0  0
 62138  1  0  0  0
 62139  1  0  0  0
 62140  1  0  0  0
 63 65  1  0  0  0
 63141  1  0  0  0
 63142  1  0  0  0
 63143  1  0  0  0
 64144  1  0  0  0
 65145  1  0  0  0
 68 82  1  0  0  0
 71 72  2  0  0  0
 71 74  1  0  0  0
 71146  1  0  0  0
 72 75  1  0  0  0
 72147  1  0  0  0
 73 75  2  0  0  0
 73 76  1  0  0  0
 73148  1  0  0  0
 74 76  2  0  0  0
 74 83  1  0  0  0
 75 85  1  0  0  0
 76 84  1  0  0  0
 77 78  1  0  0  0
 77 79  1  0  0  0
 77 86  2  0  0  0
 78 81  1  0  0  0
 78149  1  0  0  0
 78150  1  0  0  0
 79 83  1  0  0  0
 79151  1  0  0  0
 79152  1  0  0  0
 80 81  1  0  0  0
 80 83  1  0  0  0
 80153  1  0  0  0
 80154  1  0  0  0
 81 82  1  0  0  0
 81155  1  0  0  0
 82156  1  0  0  0
 82157  1  0  0  0
 84158  1  0  0  0
 84159  1  0  0  0
 85160  1  0  0  0
M  ISO  4   1 100  68 101  82 101  85 100
M  END
> <chiral flag>
0

> <version>
0

> <s_m_source_file>
/data/baiqing/PycharmProjects/Reinvent-master-3.2/result/LINK_invent/BTK/process_docking_weight1_custom_product_contain_oxygen_bond_distance_aromatic_linkinvent_7_9_3/rearranged_h_0097.sdf

> <i_m_source_file_index>
38

> <r_mmod_Potential_Energy-OPLS-2005>
66.5186996459961

> <r_mmod_Stretch_Energy-OPLS-2005>
79.5757904052734

> <r_mmod_Bend_Energy-OPLS-2005>
148.526824951172

> <r_mmod_Torsional_Energy-OPLS-2005>
256.684295654297

> <r_mmod_Improper_Torsional_Energy-OPLS-2005>
8.19517421722412

> <r_mmod_Van_der_Waal_Energy-OPLS-2005>
160.560974121094

> <r_mmod_Electrostatic_Energy-OPLS-2005>
-385.666076660156

> <r_mmod_Solvation_Energy-OPLS-2005>
-243.128265380859

> <b_mmod_Minimization_Converged-OPLS-2005>
0

> <r_mmod_RMS_Derivative-OPLS-2005>
1.43529462814331

$$$$
38
                    3D
 Structure written by MMmdl.
158167  0  0  1  0            999 V2000
  -30.6789  -14.4732   20.5973 C   0  0  0  0  0  0
  -30.4327  -12.3144   19.4214 C   0  0  0  0  0  0
  -29.4987  -12.4991   18.2058 C   0  0  0  0  0  0
  -28.0176  -12.3682   18.6146 C   0  0  0  0  0  0
  -27.6650  -13.2014   19.8767 C   0  0  2  0  0  0
  -28.7033  -12.9554   20.9944 C   0  0  0  0  0  0
  -25.2585  -13.8145   20.5666 C   0  0  0  0  0  0
  -24.1844  -13.0444   20.9188 C   0  0  0  0  0  0
  -24.6394  -11.6908   20.8774 C   0  0  0  0  0  0
  -23.9065  -10.4306   21.0438 C   0  0  0  0  0  0
  -24.3623   -9.4212   21.9187 C   0  0  0  0  0  0
  -23.6313   -8.2244   22.0739 C   0  0  0  0  0  0
  -22.4288   -8.0291   21.3552 C   0  0  0  0  0  0
  -21.9922   -9.0265   20.4647 C   0  0  0  0  0  0
  -22.7246  -10.2149   20.3070 C   0  0  0  0  0  0
  -21.6841   -6.0752   22.5295 C   0  0  0  0  0  0
  -21.4013   -6.5648   23.8234 C   0  0  0  0  0  0
  -21.3663   -5.6789   24.9187 C   0  0  0  0  0  0
  -21.6032   -4.3053   24.7226 C   0  0  0  0  0  0
  -21.8823   -3.8160   23.4347 C   0  0  0  0  0  0
  -21.9190   -4.6981   22.3411 C   0  0  0  0  0  0
  -22.7866  -13.5259   21.1840 C   0  0  0  0  0  0
  -22.1655   -4.2167   21.0987 F   0  0  0  0  0  0
  -21.5623   -3.4538   25.7739 F   0  0  0  0  0  0
  -30.0365  -13.2802   20.4584 N   0  0  0  0  0  0
  -26.3021  -12.9315   20.3357 N   0  0  0  0  0  0
  -25.9308  -11.6479   20.5792 N   0  0  0  0  0  0
  -22.0500  -12.8294   22.0416 N   0  0  0  0  0  0
  -25.4287  -15.1861   20.4047 N   0  0  0  0  0  0
  -31.7785  -14.6871   20.0813 O   0  0  0  0  0  0
  -21.6631   -6.8908   21.4265 O   0  0  0  0  0  0
  -22.3572  -14.5563   20.6650 O   0  0  0  0  0  0
  -24.6168  -31.8659   23.2068 C   0  0  0  0  0  0
  -25.9051  -32.4817   23.8373 C   0  0  1  0  0  0
  -27.2316  -27.4134   20.1201 C   0  0  0  0  0  0
  -25.5905  -33.8613   24.2306 N   0  0  0  0  0  0
  -23.4062  -30.4886   21.5441 C   0  0  2  0  0  0
  -24.8551  -28.9444   20.1173 C   0  0  0  0  0  0
  -22.7414  -29.4669   22.4961 C   0  0  0  0  0  0
  -18.0276  -28.1383   22.8494 C   0  0  0  0  0  0
  -24.1486  -36.7304   23.2642 C   0  0  0  0  0  0
  -25.9357  -30.8227   21.3645 C   0  0  0  0  0  0
  -26.0132  -29.4533   20.7197 C   0  0  0  0  0  0
  -27.2070  -28.6937   20.7213 C   0  0  0  0  0  0
  -26.0641  -26.9214   19.5062 C   0  0  0  0  0  0
  -24.8751  -27.6767   19.5068 C   0  0  0  0  0  0
  -23.6190  -29.8149   20.1610 C   0  0  0  0  0  0
  -25.4111  -36.3102   24.0342 C   0  0  1  0  0  0
  -20.5872  -28.3680   23.1314 C   0  0  2  0  0  0
  -20.6772  -26.9416   22.5421 C   0  0  0  0  0  0
  -19.5754  -26.6397   21.5211 C   0  0  0  0  0  0
  -18.1931  -26.7933   22.1619 C   0  0  0  0  0  0
  -19.1526  -28.8849   23.2903 C   0  0  0  0  0  0
  -18.9459  -30.1457   23.8916 C   0  0  0  0  0  0
  -17.6468  -30.6592   24.0574 C   0  0  0  0  0  0
  -25.9036  -34.9471   23.5113 C   0  0  0  0  0  0
  -16.5359  -29.9095   23.6335 C   0  0  0  0  0  0
  -16.7270  -28.6512   23.0352 C   0  0  0  0  0  0
  -26.4481  -31.6598   25.0707 C   0  0  0  0  0  0
  -25.3766  -31.3715   26.1471 C   0  0  0  0  0  0
  -27.0307  -30.3037   24.6083 C   0  0  0  0  0  0
  -27.6046  -32.4333   25.7487 C   0  0  0  0  0  0
  -27.5575  -37.1810   24.8467 C   0  0  0  0  0  0
  -21.4144  -29.3040   22.3708 N   0  0  0  0  0  0
  -26.4289  -37.3793   23.9413 N   0  0  0  0  0  0
  -24.6704  -31.0754   22.0965 N   0  0  0  0  0  0
  -23.4174  -28.8224   23.3025 O   0  0  0  0  0  0
  -28.3742  -26.6425   20.1039 O   0  0  0  0  0  0
  -26.5602  -34.8937   22.4674 O   0  0  0  0  0  0
  -23.5353  -32.1418   23.7448 O   0  0  0  0  0  0
  -28.6594  -18.8714   20.5575 C   0  0  0  0  0  0
  -28.7251  -17.4888   20.8628 C   0  0  0  0  0  0
  -31.0821  -18.9779   20.6062 C   0  0  0  0  0  0
  -29.8436  -19.6331   20.4054 C   0  0  0  0  0  0
  -29.9695  -16.8279   21.0137 C   0  0  0  0  0  0
  -31.1508  -17.6064   20.9355 C   0  0  0  0  0  0
  -29.8411  -21.0650   19.8997 C   0  0  0  0  0  0
  -28.0483  -23.3760   22.1871 C   0  0  0  0  0  0
  -28.2960  -21.9288   21.7194 C   0  0  0  0  0  0
  -29.1512  -23.4486   20.0711 C   0  0  0  0  0  0
  -28.1491  -24.2456   20.9278 C   0  0  2  0  0  0
  -28.5165  -25.7358   21.2141 C   0  0  0  0  0  0
  -29.1029  -22.0370   20.5038 N   0  0  0  0  0  0
  -29.9758  -15.4156   21.2635 N   0  0  0  0  0  0
  -30.5678  -21.3270   18.9373 O   0  0  0  0  0  0
  -32.3622  -17.0596   21.1901 F   0  0  0  0  0  0
  -31.4735  -12.4295   19.1170 H   0  0  0  0  0  0
  -30.3531  -11.2988   19.8111 H   0  0  0  0  0  0
  -29.7368  -11.7613   17.4380 H   0  0  0  0  0  0
  -29.6672  -13.4772   17.7547 H   0  0  0  0  0  0
  -27.8210  -11.3135   18.8053 H   0  0  0  0  0  0
  -27.3709  -12.6467   17.7819 H   0  0  0  0  0  0
  -27.7219  -14.2548   19.5970 H   0  0  0  0  0  0
  -28.6794  -11.9079   21.2966 H   0  0  0  0  0  0
  -28.4497  -13.5162   21.8962 H   0  0  0  0  0  0
  -25.2782   -9.5677   22.4740 H   0  0  0  0  0  0
  -24.0017   -7.4638   22.7448 H   0  0  0  0  0  0
  -21.0842   -8.8804   19.8977 H   0  0  0  0  0  0
  -22.3719  -10.9679   19.6175 H   0  0  0  0  0  0
  -21.2011   -7.6156   23.9758 H   0  0  0  0  0  0
  -21.1466   -6.0506   25.9090 H   0  0  0  0  0  0
  -22.0597   -2.7623   23.2841 H   0  0  0  0  0  0
  -22.4096  -11.9984   22.4862 H   0  0  0  0  0  0
  -21.1110  -13.1322   22.2591 H   0  0  0  0  0  0
  -24.6548  -15.8333   20.5063 H   0  0  0  0  0  0
  -26.2607  -15.6185   20.0262 H   0  0  0  0  0  0
  -26.7118  -32.5521   23.1131 H   0  0  0  0  0  0
  -25.0097  -33.9769   25.0477 H   0  0  0  0  0  0
  -22.6965  -31.3065   21.3990 H   0  0  0  0  0  0
  -23.3742  -35.9643   23.3332 H   0  0  0  0  0  0
  -24.3580  -36.8876   22.2048 H   0  0  0  0  0  0
  -23.7251  -37.6525   23.6633 H   0  0  0  0  0  0
  -26.0539  -31.5824   20.5906 H   0  0  0  0  0  0
  -26.8225  -30.8787   21.9840 H   0  0  0  0  0  0
  -28.1036  -29.0789   21.1873 H   0  0  0  0  0  0
  -26.0749  -25.9490   19.0349 H   0  0  0  0  0  0
  -23.9859  -27.2767   19.0389 H   0  0  0  0  0  0
  -23.7337  -30.5845   19.3982 H   0  0  0  0  0  0
  -22.7436  -29.2358   19.8626 H   0  0  0  0  0  0
  -25.1288  -36.1959   25.0838 H   0  0  0  0  0  0
  -20.9985  -28.3244   24.1418 H   0  0  0  0  0  0
  -20.5664  -26.2283   23.3609 H   0  0  0  0  0  0
  -21.6644  -26.7440   22.1217 H   0  0  0  0  0  0
  -19.6911  -25.6305   21.1228 H   0  0  0  0  0  0
  -19.6689  -27.3218   20.6757 H   0  0  0  0  0  0
  -17.4199  -26.6692   21.4016 H   0  0  0  0  0  0
  -18.0320  -26.0067   22.9009 H   0  0  0  0  0  0
  -19.7943  -30.7265   24.2274 H   0  0  0  0  0  0
  -17.5028  -31.6267   24.5171 H   0  0  0  0  0  0
  -15.5360  -30.3000   23.7660 H   0  0  0  0  0  0
  -15.8670  -28.0845   22.7045 H   0  0  0  0  0  0
  -24.5934  -30.7049   25.7828 H   0  0  0  0  0  0
  -24.8979  -32.2874   26.4940 H   0  0  0  0  0  0
  -25.8159  -30.8887   27.0204 H   0  0  0  0  0  0
  -26.2828  -29.6821   24.1133 H   0  0  0  0  0  0
  -27.4057  -29.7267   25.4541 H   0  0  0  0  0  0
  -27.8687  -30.4355   23.9238 H   0  0  0  0  0  0
  -27.2626  -33.3603   26.2114 H   0  0  0  0  0  0
  -28.3850  -32.6945   25.0321 H   0  0  0  0  0  0
  -28.0721  -31.8428   26.5373 H   0  0  0  0  0  0
  -28.2611  -38.0091   24.7506 H   0  0  0  0  0  0
  -28.1056  -36.2623   24.6300 H   0  0  0  0  0  0
  -27.2302  -37.1468   25.8875 H   0  0  0  0  0  0
  -20.9300  -29.8765   21.6937 H   0  0  0  0  0  0
  -26.0174  -38.2869   24.1402 H   0  0  0  0  0  0
  -27.6942  -19.3272   20.3800 H   0  0  0  0  0  0
  -27.8024  -16.9300   20.9455 H   0  0  0  0  0  0
  -32.0033  -19.5308   20.4937 H   0  0  0  0  0  0
  -28.8242  -23.6655   22.8988 H   0  0  0  0  0  0
  -27.0889  -23.4902   22.6929 H   0  0  0  0  0  0
  -27.3498  -21.4419   21.4777 H   0  0  0  0  0  0
  -28.7929  -21.3327   22.4887 H   0  0  0  0  0  0
  -30.1643  -23.8214   20.2266 H   0  0  0  0  0  0
  -28.9229  -23.5419   19.0074 H   0  0  0  0  0  0
  -27.1767  -24.2126   20.4358 H   0  0  0  0  0  0
  -29.5525  -25.7874   21.5504 H   0  0  0  0  0  0
  -27.9267  -26.0931   22.0609 H   0  0  0  0  0  0
  -29.1325  -15.0483   21.6741 H   0  0  0  0  0  0
  1 25  1  0  0  0
  1 30  2  0  0  0
  1 84  1  0  0  0
  2  3  1  0  0  0
  2 25  1  0  0  0
  2 87  1  0  0  0
  2 88  1  0  0  0
  3  4  1  0  0  0
  3 89  1  0  0  0
  3 90  1  0  0  0
  4  5  1  0  0  0
  4 91  1  0  0  0
  4 92  1  0  0  0
  5  6  1  0  0  0
  5 26  1  0  0  0
  5 93  1  0  0  0
  6 25  1  0  0  0
  6 94  1  0  0  0
  6 95  1  0  0  0
  7  8  2  0  0  0
  7 26  1  0  0  0
  7 29  1  0  0  0
  8  9  1  0  0  0
  8 22  1  0  0  0
  9 10  1  0  0  0
  9 27  2  0  0  0
 10 11  2  0  0  0
 10 15  1  0  0  0
 11 12  1  0  0  0
 11 96  1  0  0  0
 12 13  2  0  0  0
 12 97  1  0  0  0
 13 14  1  0  0  0
 13 31  1  0  0  0
 14 15  2  0  0  0
 14 98  1  0  0  0
 15 99  1  0  0  0
 16 17  2  0  0  0
 16 21  1  0  0  0
 16 31  1  0  0  0
 17 18  1  0  0  0
 17100  1  0  0  0
 18 19  2  0  0  0
 18101  1  0  0  0
 19 20  1  0  0  0
 19 24  1  0  0  0
 20 21  2  0  0  0
 20102  1  0  0  0
 21 23  1  0  0  0
 22 28  1  0  0  0
 22 32  2  0  0  0
 26 27  1  0  0  0
 28103  1  0  0  0
 28104  1  0  0  0
 29105  1  0  0  0
 29106  1  0  0  0
 33 34  1  0  0  0
 33 66  1  0  0  0
 33 70  2  0  0  0
 34 36  1  0  0  0
 34 59  1  0  0  0
 34107  1  0  0  0
 35 44  2  0  0  0
 35 45  1  0  0  0
 35 68  1  0  0  0
 36 56  1  0  0  0
 36108  1  0  0  0
 37 39  1  0  0  0
 37 47  1  0  0  0
 37 66  1  0  0  0
 37109  1  0  0  0
 38 43  2  0  0  0
 38 46  1  0  0  0
 38 47  1  0  0  0
 39 64  1  0  0  0
 39 67  2  0  0  0
 40 52  1  0  0  0
 40 53  2  0  0  0
 40 58  1  0  0  0
 41110  1  0  0  0
 41111  1  0  0  0
 41112  1  0  0  0
 41 48  1  0  0  0
 42 43  1  0  0  0
 42 66  1  0  0  0
 42113  1  0  0  0
 42114  1  0  0  0
 43 44  1  0  0  0
 44115  1  0  0  0
 45 46  2  0  0  0
 45116  1  0  0  0
 46117  1  0  0  0
 47118  1  0  0  0
 47119  1  0  0  0
 48 56  1  0  0  0
 48 65  1  0  0  0
 48120  1  0  0  0
 49 50  1  0  0  0
 49 53  1  0  0  0
 49 64  1  0  0  0
 49121  1  0  0  0
 50 51  1  0  0  0
 50122  1  0  0  0
 50123  1  0  0  0
 51 52  1  0  0  0
 51124  1  0  0  0
 51125  1  0  0  0
 52126  1  0  0  0
 52127  1  0  0  0
 53 54  1  0  0  0
 54 55  2  0  0  0
 54128  1  0  0  0
 55 57  1  0  0  0
 55129  1  0  0  0
 56 69  2  0  0  0
 57 58  2  0  0  0
 57130  1  0  0  0
 58131  1  0  0  0
 59 60  1  0  0  0
 59 61  1  0  0  0
 59 62  1  0  0  0
 60132  1  0  0  0
 60133  1  0  0  0
 60134  1  0  0  0
 61135  1  0  0  0
 61136  1  0  0  0
 61137  1  0  0  0
 62138  1  0  0  0
 62139  1  0  0  0
 62140  1  0  0  0
 63 65  1  0  0  0
 63141  1  0  0  0
 63142  1  0  0  0
 63143  1  0  0  0
 64144  1  0  0  0
 65145  1  0  0  0
 68 82  1  0  0  0
 71 72  2  0  0  0
 71 74  1  0  0  0
 71146  1  0  0  0
 72 75  1  0  0  0
 72147  1  0  0  0
 73 74  2  0  0  0
 73 76  1  0  0  0
 73148  1  0  0  0
 74 77  1  0  0  0
 75 76  2  0  0  0
 75 84  1  0  0  0
 76 86  1  0  0  0
 77 83  1  0  0  0
 77 85  2  0  0  0
 78 79  1  0  0  0
 78 81  1  0  0  0
 78149  1  0  0  0
 78150  1  0  0  0
 79 83  1  0  0  0
 79151  1  0  0  0
 79152  1  0  0  0
 80 81  1  0  0  0
 80 83  1  0  0  0
 80153  1  0  0  0
 80154  1  0  0  0
 81 82  1  0  0  0
 81155  1  0  0  0
 82156  1  0  0  0
 82157  1  0  0  0
 84158  1  0  0  0
M  ISO  4   1 100  68 101  82 101  84 100
M  END
> <chiral flag>
0

> <version>
0

> <s_m_source_file>
/data/baiqing/PycharmProjects/Reinvent-master-3.2/result/LINK_invent/BTK/process_docking_weight1_custom_product_contain_oxygen_bond_distance_aromatic_linkinvent_7_9_3/rearranged_h_0097.sdf

> <i_m_source_file_index>
39

> <r_mmod_Potential_Energy-OPLS-2005>
61.5994758605957

> <r_mmod_Stretch_Energy-OPLS-2005>
42.0884399414062

> <r_mmod_Bend_Energy-OPLS-2005>
121.888999938965

> <r_mmod_Torsional_Energy-OPLS-2005>
345.329681396484

> <r_mmod_Improper_Torsional_Energy-OPLS-2005>
5.24740695953369

> <r_mmod_Van_der_Waal_Energy-OPLS-2005>
143.141616821289

> <r_mmod_Electrostatic_Energy-OPLS-2005>
-371.111633300781

> <r_mmod_Solvation_Energy-OPLS-2005>
-238.52311706543

> <b_mmod_Minimization_Converged-OPLS-2005>
0

> <r_mmod_RMS_Derivative-OPLS-2005>
3.09271645545959

$$$$
39
                    3D
 Structure written by MMmdl.
160169  0  0  1  0            999 V2000
  -30.5973  -14.7338   20.4578 C   0  0  0  0  0  0
  -30.4297  -12.4487   19.4572 C   0  0  0  0  0  0
  -29.4988  -12.5063   18.2263 C   0  0  0  0  0  0
  -28.0257  -12.3307   18.6454 C   0  0  0  0  0  0
  -27.6379  -13.2271   19.8504 C   0  0  2  0  0  0
  -28.6872  -13.1548   20.9805 C   0  0  0  0  0  0
  -25.2502  -13.8197   20.5723 C   0  0  0  0  0  0
  -24.1799  -13.0454   20.9234 C   0  0  0  0  0  0
  -24.6383  -11.6928   20.8770 C   0  0  0  0  0  0
  -23.9059  -10.4308   21.0418 C   0  0  0  0  0  0
  -24.3616   -9.4225   21.9191 C   0  0  0  0  0  0
  -23.6312   -8.2248   22.0747 C   0  0  0  0  0  0
  -22.4292   -8.0282   21.3539 C   0  0  0  0  0  0
  -21.9926   -9.0246   20.4638 C   0  0  0  0  0  0
  -22.7233  -10.2140   20.3059 C   0  0  0  0  0  0
  -21.6860   -6.0749   22.5280 C   0  0  0  0  0  0
  -21.4009   -6.5650   23.8214 C   0  0  0  0  0  0
  -21.3663   -5.6800   24.9174 C   0  0  0  0  0  0
  -21.6049   -4.3065   24.7226 C   0  0  0  0  0  0
  -21.8818   -3.8162   23.4346 C   0  0  0  0  0  0
  -21.9197   -4.6977   22.3399 C   0  0  0  0  0  0
  -22.7821  -13.5224   21.1909 C   0  0  0  0  0  0
  -22.1671   -4.2167   21.0980 F   0  0  0  0  0  0
  -21.5633   -3.4545   25.7734 F   0  0  0  0  0  0
  -29.9819  -13.5075   20.3879 N   0  0  0  0  0  0
  -26.2919  -12.9395   20.3309 N   0  0  0  0  0  0
  -25.9306  -11.6541   20.5780 N   0  0  0  0  0  0
  -22.0482  -12.8179   22.0448 N   0  0  0  0  0  0
  -25.4205  -15.1924   20.4126 N   0  0  0  0  0  0
  -31.8003  -14.8312   20.1953 O   0  0  0  0  0  0
  -21.6655   -6.8887   21.4240 O   0  0  0  0  0  0
  -22.3500  -14.5547   20.6783 O   0  0  0  0  0  0
  -24.6291  -31.8522   23.1982 C   0  0  0  0  0  0
  -25.9116  -32.4738   23.8320 C   0  0  1  0  0  0
  -27.2199  -27.2734   20.1415 C   0  0  0  0  0  0
  -25.5900  -33.8540   24.2236 N   0  0  0  0  0  0
  -23.4241  -30.4719   21.5425 C   0  0  2  0  0  0
  -24.8703  -28.9073   20.1229 C   0  0  0  0  0  0
  -22.7470  -29.4576   22.4953 C   0  0  0  0  0  0
  -18.0266  -28.1394   22.8484 C   0  0  0  0  0  0
  -24.1490  -36.7287   23.2645 C   0  0  0  0  0  0
  -25.9655  -30.7721   21.3707 C   0  0  0  0  0  0
  -26.0402  -29.3903   20.7229 C   0  0  0  0  0  0
  -27.2219  -28.5865   20.7142 C   0  0  0  0  0  0
  -26.0273  -26.8375   19.5339 C   0  0  0  0  0  0
  -24.8663  -27.6381   19.5186 C   0  0  0  0  0  0
  -23.6417  -29.7949   20.1626 C   0  0  0  0  0  0
  -25.4114  -36.3054   24.0324 C   0  0  1  0  0  0
  -20.5868  -28.3677   23.1293 C   0  0  2  0  0  0
  -20.6748  -26.9400   22.5418 C   0  0  0  0  0  0
  -19.5736  -26.6391   21.5201 C   0  0  0  0  0  0
  -18.1916  -26.7937   22.1611 C   0  0  0  0  0  0
  -19.1519  -28.8855   23.2881 C   0  0  0  0  0  0
  -18.9455  -30.1459   23.8902 C   0  0  0  0  0  0
  -17.6458  -30.6598   24.0561 C   0  0  0  0  0  0
  -25.9053  -34.9425   23.5086 C   0  0  0  0  0  0
  -16.5345  -29.9095   23.6341 C   0  0  0  0  0  0
  -16.7255  -28.6510   23.0365 C   0  0  0  0  0  0
  -26.4498  -31.6582   25.0724 C   0  0  0  0  0  0
  -25.3732  -31.3703   26.1449 C   0  0  0  0  0  0
  -27.0363  -30.3011   24.6210 C   0  0  0  0  0  0
  -27.6047  -32.4342   25.7490 C   0  0  0  0  0  0
  -27.5577  -37.1795   24.8463 C   0  0  0  0  0  0
  -21.4181  -29.3024   22.3698 N   0  0  0  0  0  0
  -26.4277  -37.3767   23.9422 N   0  0  0  0  0  0
  -24.6925  -31.0499   22.0946 N   0  0  0  0  0  0
  -23.4187  -28.8111   23.3032 O   0  0  0  0  0  0
  -28.3479  -26.4411   20.0783 O   0  0  0  0  0  0
  -26.5638  -34.8907   22.4670 O   0  0  0  0  0  0
  -23.5452  -32.1318   23.7296 O   0  0  0  0  0  0
  -30.7752  -20.0392   21.3214 C   0  0  0  0  0  0
  -29.3156  -18.4171   20.2546 C   0  0  0  0  0  0
  -31.2367  -17.6329   21.5232 C   0  0  0  0  0  0
  -29.6358  -19.8237   20.5099 C   0  0  0  0  0  0
  -31.5668  -18.9754   21.8013 C   0  0  0  0  0  0
  -30.1094  -17.2948   20.7433 C   0  0  0  0  0  0
  -28.4934  -21.0393   18.6720 C   0  0  0  0  0  0
  -27.8677  -22.3064   18.0489 C   0  0  0  0  0  0
  -28.3984  -23.6436   18.6006 C   0  0  0  0  0  0
  -28.9578  -22.3914   20.6989 C   0  0  0  0  0  0
  -28.1708  -23.6734   20.1039 C   0  0  1  0  0  0
  -28.3988  -25.1261   20.7836 C   0  0  0  0  0  0
  -28.9312  -21.0380   19.9667 N   0  0  0  0  0  0
  -32.7066  -19.2576   22.5542 N   0  0  0  0  0  0
  -29.7832  -15.8580   20.5502 N   0  0  0  0  0  0
  -28.5519  -20.0463   17.9388 O   0  0  0  0  0  0
  -31.4686  -12.5800   19.1506 H   0  0  0  0  0  0
  -30.3786  -11.4705   19.9371 H   0  0  0  0  0  0
  -29.7746  -11.7386   17.5023 H   0  0  0  0  0  0
  -29.6191  -13.4647   17.7191 H   0  0  0  0  0  0
  -27.8781  -11.2808   18.9012 H   0  0  0  0  0  0
  -27.3651  -12.5325   17.8015 H   0  0  0  0  0  0
  -27.6325  -14.2485   19.4703 H   0  0  0  0  0  0
  -28.7250  -12.1563   21.4184 H   0  0  0  0  0  0
  -28.4323  -13.8348   21.7953 H   0  0  0  0  0  0
  -25.2750   -9.5722   22.4774 H   0  0  0  0  0  0
  -24.0042   -7.4641   22.7455 H   0  0  0  0  0  0
  -21.0868   -8.8741   19.8931 H   0  0  0  0  0  0
  -22.3672  -10.9679   19.6182 H   0  0  0  0  0  0
  -21.1984   -7.6151   23.9723 H   0  0  0  0  0  0
  -21.1492   -6.0528   25.9080 H   0  0  0  0  0  0
  -22.0593   -2.7622   23.2836 H   0  0  0  0  0  0
  -22.4124  -11.9802   22.4747 H   0  0  0  0  0  0
  -21.1098  -13.1168   22.2704 H   0  0  0  0  0  0
  -24.6519  -15.8445   20.5206 H   0  0  0  0  0  0
  -26.2582  -15.6292   20.0517 H   0  0  0  0  0  0
  -26.7182  -32.5401   23.1064 H   0  0  0  0  0  0
  -25.0013  -33.9672   25.0356 H   0  0  0  0  0  0
  -22.7204  -31.2930   21.3916 H   0  0  0  0  0  0
  -23.3754  -35.9613   23.3270 H   0  0  0  0  0  0
  -24.3576  -36.8958   22.2064 H   0  0  0  0  0  0
  -23.7237  -37.6474   23.6706 H   0  0  0  0  0  0
  -26.0943  -31.5277   20.5945 H   0  0  0  0  0  0
  -26.8462  -30.8289   21.9990 H   0  0  0  0  0  0
  -28.1289  -28.9585   21.1699 H   0  0  0  0  0  0
  -25.9945  -25.8628   19.0684 H   0  0  0  0  0  0
  -23.9669  -27.2632   19.0489 H   0  0  0  0  0  0
  -23.7682  -30.5637   19.3999 H   0  0  0  0  0  0
  -22.7614  -29.2240   19.8611 H   0  0  0  0  0  0
  -25.1303  -36.1871   25.0812 H   0  0  0  0  0  0
  -20.9938  -28.3240   24.1419 H   0  0  0  0  0  0
  -20.5615  -26.2281   23.3610 H   0  0  0  0  0  0
  -21.6624  -26.7420   22.1226 H   0  0  0  0  0  0
  -19.6896  -25.6293   21.1246 H   0  0  0  0  0  0
  -19.6698  -27.3193   20.6725 H   0  0  0  0  0  0
  -17.4179  -26.6675   21.4022 H   0  0  0  0  0  0
  -18.0336  -26.0074   22.9005 H   0  0  0  0  0  0
  -19.7934  -30.7268   24.2289 H   0  0  0  0  0  0
  -17.5012  -31.6283   24.5151 H   0  0  0  0  0  0
  -15.5349  -30.2999   23.7679 H   0  0  0  0  0  0
  -15.8645  -28.0827   22.7107 H   0  0  0  0  0  0
  -24.5947  -30.7001   25.7782 H   0  0  0  0  0  0
  -24.8890  -32.2857   26.4862 H   0  0  0  0  0  0
  -25.8078  -30.8911   27.0234 H   0  0  0  0  0  0
  -26.2949  -29.6739   24.1257 H   0  0  0  0  0  0
  -27.4065  -29.7292   25.4728 H   0  0  0  0  0  0
  -27.8801  -30.4298   23.9431 H   0  0  0  0  0  0
  -27.2657  -33.3663   26.2020 H   0  0  0  0  0  0
  -28.3876  -32.6872   25.0330 H   0  0  0  0  0  0
  -28.0691  -31.8505   26.5445 H   0  0  0  0  0  0
  -28.2571  -38.0118   24.7542 H   0  0  0  0  0  0
  -28.1101  -36.2652   24.6246 H   0  0  0  0  0  0
  -27.2304  -37.1385   25.8868 H   0  0  0  0  0  0
  -20.9363  -29.8745   21.6905 H   0  0  0  0  0  0
  -26.0141  -38.2823   24.1477 H   0  0  0  0  0  0
  -31.0883  -21.0434   21.5610 H   0  0  0  0  0  0
  -28.4468  -18.1895   19.6533 H   0  0  0  0  0  0
  -31.8533  -16.8473   21.9352 H   0  0  0  0  0  0
  -26.7889  -22.2481   18.1973 H   0  0  0  0  0  0
  -28.0175  -22.2788   16.9689 H   0  0  0  0  0  0
  -27.8776  -24.4726   18.1211 H   0  0  0  0  0  0
  -29.4574  -23.7665   18.3727 H   0  0  0  0  0  0
  -28.6295  -22.2260   21.7252 H   0  0  0  0  0  0
  -30.0027  -22.6909   20.7649 H   0  0  0  0  0  0
  -27.1079  -23.4758   20.2498 H   0  0  0  0  0  0
  -29.4042  -25.1054   21.2043 H   0  0  0  0  0  0
  -27.7494  -25.1926   21.6579 H   0  0  0  0  0  0
  -33.1223  -20.1788   22.4534 H   0  0  0  0  0  0
  -33.4160  -18.5346   22.6221 H   0  0  0  0  0  0
  -28.7980  -15.6467   20.5241 H   0  0  0  0  0  0
  1 25  1  0  0  0
  1 30  2  0  0  0
  1 85  1  0  0  0
  2  3  1  0  0  0
  2 25  1  0  0  0
  2 87  1  0  0  0
  2 88  1  0  0  0
  3  4  1  0  0  0
  3 89  1  0  0  0
  3 90  1  0  0  0
  4  5  1  0  0  0
  4 91  1  0  0  0
  4 92  1  0  0  0
  5  6  1  0  0  0
  5 26  1  0  0  0
  5 93  1  0  0  0
  6 25  1  0  0  0
  6 94  1  0  0  0
  6 95  1  0  0  0
  7  8  2  0  0  0
  7 26  1  0  0  0
  7 29  1  0  0  0
  8  9  1  0  0  0
  8 22  1  0  0  0
  9 10  1  0  0  0
  9 27  2  0  0  0
 10 11  2  0  0  0
 10 15  1  0  0  0
 11 12  1  0  0  0
 11 96  1  0  0  0
 12 13  2  0  0  0
 12 97  1  0  0  0
 13 14  1  0  0  0
 13 31  1  0  0  0
 14 15  2  0  0  0
 14 98  1  0  0  0
 15 99  1  0  0  0
 16 17  2  0  0  0
 16 21  1  0  0  0
 16 31  1  0  0  0
 17 18  1  0  0  0
 17100  1  0  0  0
 18 19  2  0  0  0
 18101  1  0  0  0
 19 20  1  0  0  0
 19 24  1  0  0  0
 20 21  2  0  0  0
 20102  1  0  0  0
 21 23  1  0  0  0
 22 28  1  0  0  0
 22 32  2  0  0  0
 26 27  1  0  0  0
 28103  1  0  0  0
 28104  1  0  0  0
 29105  1  0  0  0
 29106  1  0  0  0
 33 34  1  0  0  0
 33 66  1  0  0  0
 33 70  2  0  0  0
 34 36  1  0  0  0
 34 59  1  0  0  0
 34107  1  0  0  0
 35 44  2  0  0  0
 35 45  1  0  0  0
 35 68  1  0  0  0
 36 56  1  0  0  0
 36108  1  0  0  0
 37 39  1  0  0  0
 37 47  1  0  0  0
 37 66  1  0  0  0
 37109  1  0  0  0
 38 43  2  0  0  0
 38 46  1  0  0  0
 38 47  1  0  0  0
 39 64  1  0  0  0
 39 67  2  0  0  0
 40 52  1  0  0  0
 40 53  2  0  0  0
 40 58  1  0  0  0
 41110  1  0  0  0
 41111  1  0  0  0
 41112  1  0  0  0
 41 48  1  0  0  0
 42 43  1  0  0  0
 42 66  1  0  0  0
 42113  1  0  0  0
 42114  1  0  0  0
 43 44  1  0  0  0
 44115  1  0  0  0
 45 46  2  0  0  0
 45116  1  0  0  0
 46117  1  0  0  0
 47118  1  0  0  0
 47119  1  0  0  0
 48 56  1  0  0  0
 48 65  1  0  0  0
 48120  1  0  0  0
 49 50  1  0  0  0
 49 53  1  0  0  0
 49 64  1  0  0  0
 49121  1  0  0  0
 50 51  1  0  0  0
 50122  1  0  0  0
 50123  1  0  0  0
 51 52  1  0  0  0
 51124  1  0  0  0
 51125  1  0  0  0
 52126  1  0  0  0
 52127  1  0  0  0
 53 54  1  0  0  0
 54 55  2  0  0  0
 54128  1  0  0  0
 55 57  1  0  0  0
 55129  1  0  0  0
 56 69  2  0  0  0
 57 58  2  0  0  0
 57130  1  0  0  0
 58131  1  0  0  0
 59 60  1  0  0  0
 59 61  1  0  0  0
 59 62  1  0  0  0
 60132  1  0  0  0
 60133  1  0  0  0
 60134  1  0  0  0
 61135  1  0  0  0
 61136  1  0  0  0
 61137  1  0  0  0
 62138  1  0  0  0
 62139  1  0  0  0
 62140  1  0  0  0
 63 65  1  0  0  0
 63141  1  0  0  0
 63142  1  0  0  0
 63143  1  0  0  0
 64144  1  0  0  0
 65145  1  0  0  0
 68 82  1  0  0  0
 71 74  2  0  0  0
 71 75  1  0  0  0
 71146  1  0  0  0
 72 74  1  0  0  0
 72 76  2  0  0  0
 72147  1  0  0  0
 73 75  2  0  0  0
 73 76  1  0  0  0
 73148  1  0  0  0
 74 83  1  0  0  0
 75 84  1  0  0  0
 76 85  1  0  0  0
 77 78  1  0  0  0
 77 83  1  0  0  0
 77 86  2  0  0  0
 78 79  1  0  0  0
 78149  1  0  0  0
 78150  1  0  0  0
 79 81  1  0  0  0
 79151  1  0  0  0
 79152  1  0  0  0
 80 81  1  0  0  0
 80 83  1  0  0  0
 80153  1  0  0  0
 80154  1  0  0  0
 81 82  1  0  0  0
 81155  1  0  0  0
 82156  1  0  0  0
 82157  1  0  0  0
 84158  1  0  0  0
 84159  1  0  0  0
 85160  1  0  0  0
M  ISO  4   1 100  68 101  82 101  85 100
M  END
> <chiral flag>
0

> <version>
0

> <s_m_source_file>
/data/baiqing/PycharmProjects/Reinvent-master-3.2/result/LINK_invent/BTK/process_docking_weight1_custom_product_contain_oxygen_bond_distance_aromatic_linkinvent_7_9_3/rearranged_h_0097.sdf

> <i_m_source_file_index>
40

> <r_mmod_Potential_Energy-OPLS-2005>
288.1630859375

> <r_mmod_Stretch_Energy-OPLS-2005>
128.865798950195

> <r_mmod_Bend_Energy-OPLS-2005>
175.549606323242

> <r_mmod_Torsional_Energy-OPLS-2005>
305.311798095703

> <r_mmod_Improper_Torsional_Energy-OPLS-2005>
11.1395893096924

> <r_mmod_Van_der_Waal_Energy-OPLS-2005>
145.537887573242

> <r_mmod_Electrostatic_Energy-OPLS-2005>
-321.185638427734

> <r_mmod_Solvation_Energy-OPLS-2005>
-232.821563720703

> <b_mmod_Minimization_Converged-OPLS-2005>
0

> <r_mmod_RMS_Derivative-OPLS-2005>
1.9400509595871

$$$$
40
                    3D
 Structure written by MMmdl.
157166  0  0  1  0            999 V2000
  -30.6252  -14.6611   20.4812 C   0  0  0  0  0  0
  -30.4381  -12.3732   19.4617 C   0  0  0  0  0  0
  -29.5120  -12.5132   18.2299 C   0  0  0  0  0  0
  -28.0333  -12.3462   18.6351 C   0  0  0  0  0  0
  -27.6513  -13.2110   19.8671 C   0  0  2  0  0  0
  -28.6907  -13.0734   21.0032 C   0  0  0  0  0  0
  -25.2564  -13.8140   20.5742 C   0  0  0  0  0  0
  -24.1820  -13.0413   20.9189 C   0  0  0  0  0  0
  -24.6384  -11.6880   20.8726 C   0  0  0  0  0  0
  -23.9053  -10.4277   21.0407 C   0  0  0  0  0  0
  -24.3611   -9.4206   21.9199 C   0  0  0  0  0  0
  -23.6281   -8.2242   22.0756 C   0  0  0  0  0  0
  -22.4268   -8.0283   21.3538 C   0  0  0  0  0  0
  -21.9922   -9.0258   20.4630 C   0  0  0  0  0  0
  -22.7241  -10.2134   20.3046 C   0  0  0  0  0  0
  -21.6864   -6.0731   22.5292 C   0  0  0  0  0  0
  -21.4027   -6.5645   23.8223 C   0  0  0  0  0  0
  -21.3659   -5.6800   24.9188 C   0  0  0  0  0  0
  -21.6033   -4.3057   24.7256 C   0  0  0  0  0  0
  -21.8820   -3.8145   23.4383 C   0  0  0  0  0  0
  -21.9207   -4.6952   22.3428 C   0  0  0  0  0  0
  -22.7845  -13.5194   21.1859 C   0  0  0  0  0  0
  -22.1670   -4.2128   21.1010 F   0  0  0  0  0  0
  -21.5618   -3.4560   25.7773 F   0  0  0  0  0  0
  -30.0130  -13.3829   20.4481 N   0  0  0  0  0  0
  -26.2975  -12.9309   20.3328 N   0  0  0  0  0  0
  -25.9295  -11.6462   20.5718 N   0  0  0  0  0  0
  -22.0502  -12.8154   22.0395 N   0  0  0  0  0  0
  -25.4322  -15.1871   20.4263 N   0  0  0  0  0  0
  -31.7455  -14.8902   20.0237 O   0  0  0  0  0  0
  -21.6622   -6.8884   21.4254 O   0  0  0  0  0  0
  -22.3524  -14.5515   20.6749 O   0  0  0  0  0  0
  -24.6265  -31.8610   23.1989 C   0  0  0  0  0  0
  -25.9104  -32.4774   23.8338 C   0  0  1  0  0  0
  -27.2245  -27.3045   20.1015 C   0  0  0  0  0  0
  -25.5906  -33.8577   24.2246 N   0  0  0  0  0  0
  -23.4170  -30.4840   21.5420 C   0  0  2  0  0  0
  -24.8625  -28.9330   20.1053 C   0  0  0  0  0  0
  -22.7449  -29.4654   22.4932 C   0  0  0  0  0  0
  -18.0280  -28.1381   22.8516 C   0  0  0  0  0  0
  -24.1498  -36.7294   23.2635 C   0  0  0  0  0  0
  -25.9582  -30.7901   21.3648 C   0  0  0  0  0  0
  -26.0324  -29.4166   20.7024 C   0  0  0  0  0  0
  -27.2125  -28.6126   20.6875 C   0  0  0  0  0  0
  -26.0219  -26.8676   19.5161 C   0  0  0  0  0  0
  -24.8607  -27.6648   19.5034 C   0  0  0  0  0  0
  -23.6272  -29.8092   20.1587 C   0  0  0  0  0  0
  -25.4120  -36.3069   24.0326 C   0  0  1  0  0  0
  -20.5874  -28.3716   23.1277 C   0  0  2  0  0  0
  -20.6763  -26.9440   22.5404 C   0  0  0  0  0  0
  -19.5747  -26.6394   21.5207 C   0  0  0  0  0  0
  -18.1921  -26.7937   22.1626 C   0  0  0  0  0  0
  -19.1532  -28.8865   23.2895 C   0  0  0  0  0  0
  -18.9443  -30.1451   23.8935 C   0  0  0  0  0  0
  -17.6448  -30.6603   24.0556 C   0  0  0  0  0  0
  -25.9074  -34.9456   23.5102 C   0  0  0  0  0  0
  -16.5343  -29.9104   23.6308 C   0  0  0  0  0  0
  -16.7268  -28.6494   23.0390 C   0  0  0  0  0  0
  -26.4481  -31.6580   25.0723 C   0  0  0  0  0  0
  -25.3693  -31.3662   26.1411 C   0  0  0  0  0  0
  -27.0342  -30.3016   24.6170 C   0  0  0  0  0  0
  -27.6054  -32.4305   25.7488 C   0  0  0  0  0  0
  -27.5596  -37.1755   24.8439 C   0  0  0  0  0  0
  -21.4164  -29.3074   22.3668 N   0  0  0  0  0  0
  -26.4276  -37.3779   23.9436 N   0  0  0  0  0  0
  -24.6856  -31.0625   22.0919 N   0  0  0  0  0  0
  -23.4181  -28.8210   23.3014 O   0  0  0  0  0  0
  -28.3561  -26.4759   20.2086 O   0  0  0  0  0  0
  -26.5677  -34.8933   22.4686 O   0  0  0  0  0  0
  -23.5422  -32.1416   23.7318 O   0  0  0  0  0  0
  -28.0583  -18.5097   19.2433 C   0  0  0  0  0  0
  -28.4902  -17.2034   19.5751 C   0  0  0  0  0  0
  -29.8573  -19.4600   20.4929 C   0  0  0  0  0  0
  -28.7154  -19.7105   19.6704 C   0  0  0  0  0  0
  -29.5866  -16.9614   20.4271 C   0  0  0  0  0  0
  -30.2671  -18.1321   20.8778 C   0  0  0  0  0  0
  -27.2581  -21.1680   18.3113 C   0  0  0  0  0  0
  -26.2930  -22.3372   18.3664 C   0  0  0  0  0  0
  -27.1299  -23.5934   18.2323 C   0  0  0  0  0  0
  -28.7151  -22.4100   19.8433 C   0  0  0  0  0  0
  -27.8900  -23.8003   19.5523 C   0  0  1  0  0  0
  -28.6500  -25.2207   19.4617 C   0  0  0  0  0  0
  -28.1924  -21.0682   19.3002 N   0  0  0  0  0  0
  -27.1836  -20.4266   17.3268 O   0  0  0  0  0  0
  -29.7491  -15.6603   20.9551 O   0  0  0  0  0  0
  -31.3040  -17.9960   21.7391 F   0  0  0  0  0  0
  -31.4791  -12.5024   19.1689 H   0  0  0  0  0  0
  -30.3583  -11.3716   19.8895 H   0  0  0  0  0  0
  -29.7750  -11.7761   17.4718 H   0  0  0  0  0  0
  -29.6589  -13.4917   17.7678 H   0  0  0  0  0  0
  -27.8693  -11.2932   18.8621 H   0  0  0  0  0  0
  -27.3839  -12.5766   17.7902 H   0  0  0  0  0  0
  -27.6660  -14.2412   19.5285 H   0  0  0  0  0  0
  -28.6811  -12.0580   21.3969 H   0  0  0  0  0  0
  -28.4356  -13.7253   21.8422 H   0  0  0  0  0  0
  -25.2781   -9.5663   22.4752 H   0  0  0  0  0  0
  -23.9990   -7.4628   22.7484 H   0  0  0  0  0  0
  -21.0866   -8.8779   19.8911 H   0  0  0  0  0  0
  -22.3731  -10.9677   19.6130 H   0  0  0  0  0  0
  -21.2017   -7.6152   23.9718 H   0  0  0  0  0  0
  -21.1475   -6.0540   25.9087 H   0  0  0  0  0  0
  -22.0600   -2.7603   23.2909 H   0  0  0  0  0  0
  -22.4164  -11.9801   22.4720 H   0  0  0  0  0  0
  -21.1110  -13.1156   22.2636 H   0  0  0  0  0  0
  -24.6795  -15.8539   20.5577 H   0  0  0  0  0  0
  -26.3115  -15.6255   20.1917 H   0  0  0  0  0  0
  -26.7173  -32.5445   23.1088 H   0  0  0  0  0  0
  -24.9907  -33.9709   25.0283 H   0  0  0  0  0  0
  -22.7100  -31.3039   21.3956 H   0  0  0  0  0  0
  -23.3795  -35.9576   23.3210 H   0  0  0  0  0  0
  -24.3581  -36.9042   22.2060 H   0  0  0  0  0  0
  -23.7216  -37.6447   23.6746 H   0  0  0  0  0  0
  -26.0830  -31.5544   20.5959 H   0  0  0  0  0  0
  -26.8415  -30.8441   21.9880 H   0  0  0  0  0  0
  -28.1135  -28.9807   21.1590 H   0  0  0  0  0  0
  -25.9300  -25.8790   19.1237 H   0  0  0  0  0  0
  -23.9520  -27.2756   19.0640 H   0  0  0  0  0  0
  -23.7268  -30.5800   19.3943 H   0  0  0  0  0  0
  -22.7500  -29.2269   19.8715 H   0  0  0  0  0  0
  -25.1278  -36.1898   25.0810 H   0  0  0  0  0  0
  -20.9959  -28.3319   24.1412 H   0  0  0  0  0  0
  -20.5659  -26.2330   23.3615 H   0  0  0  0  0  0
  -21.6638  -26.7472   22.1214 H   0  0  0  0  0  0
  -19.6913  -25.6312   21.1247 H   0  0  0  0  0  0
  -19.6686  -27.3193   20.6726 H   0  0  0  0  0  0
  -17.4188  -26.6698   21.4032 H   0  0  0  0  0  0
  -18.0336  -26.0064   22.9006 H   0  0  0  0  0  0
  -19.7917  -30.7220   24.2380 H   0  0  0  0  0  0
  -17.5015  -31.6302   24.5123 H   0  0  0  0  0  0
  -15.5347  -30.3023   23.7604 H   0  0  0  0  0  0
  -15.8659  -28.0781   22.7165 H   0  0  0  0  0  0
  -24.5872  -30.7048   25.7651 H   0  0  0  0  0  0
  -24.8863  -32.2800   26.4878 H   0  0  0  0  0  0
  -25.7968  -30.8753   27.0151 H   0  0  0  0  0  0
  -26.2916  -29.6754   24.1198 H   0  0  0  0  0  0
  -27.4050  -29.7282   25.4665 H   0  0  0  0  0  0
  -27.8778  -30.4327   23.9394 H   0  0  0  0  0  0
  -27.2670  -33.3552   26.2152 H   0  0  0  0  0  0
  -28.3788  -32.6932   25.0274 H   0  0  0  0  0  0
  -28.0808  -31.8393   26.5310 H   0  0  0  0  0  0
  -28.2491  -38.0162   24.7637 H   0  0  0  0  0  0
  -28.1212  -36.2707   24.6075 H   0  0  0  0  0  0
  -27.2334  -37.1173   25.8834 H   0  0  0  0  0  0
  -20.9336  -29.8788   21.6866 H   0  0  0  0  0  0
  -26.0163  -38.2823   24.1552 H   0  0  0  0  0  0
  -27.1589  -18.5254   18.6471 H   0  0  0  0  0  0
  -27.9093  -16.3756   19.1988 H   0  0  0  0  0  0
  -30.4240  -20.2952   20.8780 H   0  0  0  0  0  0
  -25.7354  -22.3078   19.3075 H   0  0  0  0  0  0
  -25.5597  -22.2688   17.5633 H   0  0  0  0  0  0
  -26.5065  -24.4225   17.9195 H   0  0  0  0  0  0
  -27.8451  -23.4778   17.4130 H   0  0  0  0  0  0
  -28.8460  -22.3088   20.9216 H   0  0  0  0  0  0
  -29.7200  -22.5230   19.4373 H   0  0  0  0  0  0
  -27.1592  -23.9014   20.3553 H   0  0  0  0  0  0
  -28.7437  -25.5076   18.4145 H   0  0  0  0  0  0
  -29.6781  -25.0059   19.7560 H   0  0  0  0  0  0
  1 25  1  0  0  0
  1 30  2  0  0  0
  1 85  1  0  0  0
  2  3  1  0  0  0
  2 25  1  0  0  0
  2 87  1  0  0  0
  2 88  1  0  0  0
  3  4  1  0  0  0
  3 89  1  0  0  0
  3 90  1  0  0  0
  4  5  1  0  0  0
  4 91  1  0  0  0
  4 92  1  0  0  0
  5  6  1  0  0  0
  5 26  1  0  0  0
  5 93  1  0  0  0
  6 25  1  0  0  0
  6 94  1  0  0  0
  6 95  1  0  0  0
  7  8  2  0  0  0
  7 26  1  0  0  0
  7 29  1  0  0  0
  8  9  1  0  0  0
  8 22  1  0  0  0
  9 10  1  0  0  0
  9 27  2  0  0  0
 10 11  2  0  0  0
 10 15  1  0  0  0
 11 12  1  0  0  0
 11 96  1  0  0  0
 12 13  2  0  0  0
 12 97  1  0  0  0
 13 14  1  0  0  0
 13 31  1  0  0  0
 14 15  2  0  0  0
 14 98  1  0  0  0
 15 99  1  0  0  0
 16 17  2  0  0  0
 16 21  1  0  0  0
 16 31  1  0  0  0
 17 18  1  0  0  0
 17100  1  0  0  0
 18 19  2  0  0  0
 18101  1  0  0  0
 19 20  1  0  0  0
 19 24  1  0  0  0
 20 21  2  0  0  0
 20102  1  0  0  0
 21 23  1  0  0  0
 22 28  1  0  0  0
 22 32  2  0  0  0
 26 27  1  0  0  0
 28103  1  0  0  0
 28104  1  0  0  0
 29105  1  0  0  0
 29106  1  0  0  0
 33 34  1  0  0  0
 33 66  1  0  0  0
 33 70  2  0  0  0
 34 36  1  0  0  0
 34 59  1  0  0  0
 34107  1  0  0  0
 35 44  2  0  0  0
 35 45  1  0  0  0
 35 68  1  0  0  0
 36 56  1  0  0  0
 36108  1  0  0  0
 37 39  1  0  0  0
 37 47  1  0  0  0
 37 66  1  0  0  0
 37109  1  0  0  0
 38 43  2  0  0  0
 38 46  1  0  0  0
 38 47  1  0  0  0
 39 64  1  0  0  0
 39 67  2  0  0  0
 40 52  1  0  0  0
 40 53  2  0  0  0
 40 58  1  0  0  0
 41110  1  0  0  0
 41111  1  0  0  0
 41112  1  0  0  0
 41 48  1  0  0  0
 42 43  1  0  0  0
 42 66  1  0  0  0
 42113  1  0  0  0
 42114  1  0  0  0
 43 44  1  0  0  0
 44115  1  0  0  0
 45 46  2  0  0  0
 45116  1  0  0  0
 46117  1  0  0  0
 47118  1  0  0  0
 47119  1  0  0  0
 48 56  1  0  0  0
 48 65  1  0  0  0
 48120  1  0  0  0
 49 50  1  0  0  0
 49 53  1  0  0  0
 49 64  1  0  0  0
 49121  1  0  0  0
 50 51  1  0  0  0
 50122  1  0  0  0
 50123  1  0  0  0
 51 52  1  0  0  0
 51124  1  0  0  0
 51125  1  0  0  0
 52126  1  0  0  0
 52127  1  0  0  0
 53 54  1  0  0  0
 54 55  2  0  0  0
 54128  1  0  0  0
 55 57  1  0  0  0
 55129  1  0  0  0
 56 69  2  0  0  0
 57 58  2  0  0  0
 57130  1  0  0  0
 58131  1  0  0  0
 59 60  1  0  0  0
 59 61  1  0  0  0
 59 62  1  0  0  0
 60132  1  0  0  0
 60133  1  0  0  0
 60134  1  0  0  0
 61135  1  0  0  0
 61136  1  0  0  0
 61137  1  0  0  0
 62138  1  0  0  0
 62139  1  0  0  0
 62140  1  0  0  0
 63 65  1  0  0  0
 63141  1  0  0  0
 63142  1  0  0  0
 63143  1  0  0  0
 64144  1  0  0  0
 65145  1  0  0  0
 68 82  1  0  0  0
 71 72  2  0  0  0
 71 74  1  0  0  0
 71146  1  0  0  0
 72 75  1  0  0  0
 72147  1  0  0  0
 73 74  2  0  0  0
 73 76  1  0  0  0
 73148  1  0  0  0
 74 83  1  0  0  0
 75 76  2  0  0  0
 75 85  1  0  0  0
 76 86  1  0  0  0
 77 78  1  0  0  0
 77 83  1  0  0  0
 77 84  2  0  0  0
 78 79  1  0  0  0
 78149  1  0  0  0
 78150  1  0  0  0
 79 81  1  0  0  0
 79151  1  0  0  0
 79152  1  0  0  0
 80 81  1  0  0  0
 80 83  1  0  0  0
 80153  1  0  0  0
 80154  1  0  0  0
 81 82  1  0  0  0
 81155  1  0  0  0
 82156  1  0  0  0
 82157  1  0  0  0
M  ISO  4   1 100  68 101  82 101  85 100
M  END
> <chiral flag>
0

> <version>
0

> <s_m_source_file>
/data/baiqing/PycharmProjects/Reinvent-master-3.2/result/LINK_invent/BTK/process_docking_weight1_custom_product_contain_oxygen_bond_distance_aromatic_linkinvent_7_9_3/rearranged_h_0097.sdf

> <i_m_source_file_index>
41

> <r_mmod_Potential_Energy-OPLS-2005>
300.113067626953

> <r_mmod_Stretch_Energy-OPLS-2005>
117.945365905762

> <r_mmod_Bend_Energy-OPLS-2005>
202.584671020508

> <r_mmod_Torsional_Energy-OPLS-2005>
260.944946289062

> <r_mmod_Improper_Torsional_Energy-OPLS-2005>
6.40316343307495

> <r_mmod_Van_der_Waal_Energy-OPLS-2005>
160.212188720703

> <r_mmod_Electrostatic_Energy-OPLS-2005>
-293.998992919922

> <r_mmod_Solvation_Energy-OPLS-2005>
-208.168884277344

> <b_mmod_Minimization_Converged-OPLS-2005>
0

> <r_mmod_RMS_Derivative-OPLS-2005>
4.34068250656128

$$$$
41
                    3D
 Structure written by MMmdl.
158167  0  0  1  0            999 V2000
  -30.6368  -14.7235   20.5478 C   0  0  0  0  0  0
  -30.4352  -12.4642   19.4666 C   0  0  0  0  0  0
  -29.5082  -12.5327   18.2320 C   0  0  0  0  0  0
  -28.0348  -12.3475   18.6406 C   0  0  0  0  0  0
  -27.6466  -13.2263   19.8572 C   0  0  2  0  0  0
  -28.6862  -13.1077   20.9881 C   0  0  0  0  0  0
  -25.2531  -13.8184   20.5685 C   0  0  0  0  0  0
  -24.1806  -13.0436   20.9181 C   0  0  0  0  0  0
  -24.6388  -11.6910   20.8722 C   0  0  0  0  0  0
  -23.9062  -10.4287   21.0396 C   0  0  0  0  0  0
  -24.3618   -9.4204   21.9173 C   0  0  0  0  0  0
  -23.6294   -8.2240   22.0751 C   0  0  0  0  0  0
  -22.4276   -8.0273   21.3540 C   0  0  0  0  0  0
  -21.9907   -9.0244   20.4641 C   0  0  0  0  0  0
  -22.7234  -10.2124   20.3043 C   0  0  0  0  0  0
  -21.6857   -6.0728   22.5274 C   0  0  0  0  0  0
  -21.4017   -6.5634   23.8205 C   0  0  0  0  0  0
  -21.3659   -5.6787   24.9168 C   0  0  0  0  0  0
  -21.6048   -4.3051   24.7221 C   0  0  0  0  0  0
  -21.8819   -3.8141   23.4343 C   0  0  0  0  0  0
  -21.9197   -4.6956   22.3399 C   0  0  0  0  0  0
  -22.7829  -13.5225   21.1854 C   0  0  0  0  0  0
  -22.1664   -4.2140   21.0975 F   0  0  0  0  0  0
  -21.5632   -3.4536   25.7738 F   0  0  0  0  0  0
  -29.9962  -13.4987   20.4374 N   0  0  0  0  0  0
  -26.2955  -12.9379   20.3283 N   0  0  0  0  0  0
  -25.9315  -11.6523   20.5718 N   0  0  0  0  0  0
  -22.0486  -12.8209   22.0415 N   0  0  0  0  0  0
  -25.4243  -15.1908   20.4151 N   0  0  0  0  0  0
  -31.7488  -14.8711   20.0304 O   0  0  0  0  0  0
  -21.6640   -6.8873   21.4235 O   0  0  0  0  0  0
  -22.3508  -14.5534   20.6714 O   0  0  0  0  0  0
  -24.6325  -31.8545   23.1987 C   0  0  0  0  0  0
  -25.9144  -32.4753   23.8337 C   0  0  1  0  0  0
  -27.2237  -27.2646   20.1100 C   0  0  0  0  0  0
  -25.5932  -33.8555   24.2253 N   0  0  0  0  0  0
  -23.4298  -30.4784   21.5422 C   0  0  2  0  0  0
  -24.8767  -28.9284   20.1074 C   0  0  0  0  0  0
  -22.7505  -29.4608   22.4908 C   0  0  0  0  0  0
  -18.0304  -28.1376   22.8483 C   0  0  0  0  0  0
  -24.1487  -36.7284   23.2640 C   0  0  0  0  0  0
  -25.9773  -30.7666   21.3796 C   0  0  0  0  0  0
  -26.0504  -29.3910   20.7165 C   0  0  0  0  0  0
  -27.2258  -28.5702   20.7111 C   0  0  0  0  0  0
  -26.0168  -26.8644   19.4906 C   0  0  0  0  0  0
  -24.8646  -27.6722   19.4855 C   0  0  0  0  0  0
  -23.6477  -29.8151   20.1578 C   0  0  0  0  0  0
  -25.4114  -36.3068   24.0326 C   0  0  1  0  0  0
  -20.5904  -28.3701   23.1260 C   0  0  2  0  0  0
  -20.6797  -26.9416   22.5401 C   0  0  0  0  0  0
  -19.5768  -26.6373   21.5209 C   0  0  0  0  0  0
  -18.1953  -26.7916   22.1628 C   0  0  0  0  0  0
  -19.1556  -28.8853   23.2870 C   0  0  0  0  0  0
  -18.9472  -30.1453   23.8888 C   0  0  0  0  0  0
  -17.6469  -30.6575   24.0562 C   0  0  0  0  0  0
  -25.9055  -34.9437   23.5096 C   0  0  0  0  0  0
  -16.5363  -29.9067   23.6335 C   0  0  0  0  0  0
  -16.7288  -28.6488   23.0352 C   0  0  0  0  0  0
  -26.4503  -31.6582   25.0732 C   0  0  0  0  0  0
  -25.3722  -31.3735   26.1452 C   0  0  0  0  0  0
  -27.0353  -30.2994   24.6234 C   0  0  0  0  0  0
  -27.6045  -32.4335   25.7512 C   0  0  0  0  0  0
  -27.5579  -37.1798   24.8465 C   0  0  0  0  0  0
  -21.4207  -29.3062   22.3656 N   0  0  0  0  0  0
  -26.4288  -37.3769   23.9409 N   0  0  0  0  0  0
  -24.6991  -31.0506   22.0963 N   0  0  0  0  0  0
  -23.4198  -28.8143   23.3006 O   0  0  0  0  0  0
  -28.2930  -26.3370   20.1902 O   0  0  0  0  0  0
  -26.5630  -34.8915   22.4666 O   0  0  0  0  0  0
  -23.5472  -32.1365   23.7279 O   0  0  0  0  0  0
  -30.0081  -19.7036   21.1142 C   0  0  0  0  0  0
  -30.3112  -18.3422   21.4683 C   0  0  0  0  0  0
  -29.0928  -17.5448   19.5885 C   0  0  0  0  0  0
  -29.2267  -20.0556   19.9778 C   0  0  0  0  0  0
  -29.8513  -17.1975   20.7364 C   0  0  0  0  0  0
  -28.7861  -18.9012   19.2293 C   0  0  0  0  0  0
  -28.6595  -23.9183   19.2584 C   0  0  0  0  0  0
  -29.1041  -16.3117   23.4397 C   0  0  0  0  0  0
  -28.3852  -25.2869   19.2446 C   0  0  0  0  0  0
  -29.8735  -15.5824   22.6090 C   0  0  0  0  0  0
  -28.6547  -23.1899   17.9325 C   0  0  0  0  0  0
  -28.9784  -22.7754   20.2989 C   0  0  0  0  0  0
  -28.4771  -21.6945   18.2197 C   0  0  0  0  0  0
  -28.9274  -21.4391   19.5842 N   0  0  0  0  0  0
  -30.0283  -15.7865   21.2207 N   0  0  0  0  0  0
  -28.0080  -19.0586   18.1305 F   0  0  0  0  0  0
  -31.4737  -12.5950   19.1581 H   0  0  0  0  0  0
  -30.3920  -11.4744   19.9237 H   0  0  0  0  0  0
  -29.7915  -11.7716   17.5036 H   0  0  0  0  0  0
  -29.6310  -13.4952   17.7331 H   0  0  0  0  0  0
  -27.8889  -11.2945   18.8848 H   0  0  0  0  0  0
  -27.3760  -12.5572   17.7973 H   0  0  0  0  0  0
  -27.6569  -14.2598   19.5110 H   0  0  0  0  0  0
  -28.7272  -12.0855   21.3666 H   0  0  0  0  0  0
  -28.3741  -13.7162   21.8335 H   0  0  0  0  0  0
  -25.2762   -9.5688   22.4744 H   0  0  0  0  0  0
  -24.0003   -7.4635   22.7474 H   0  0  0  0  0  0
  -21.0837   -8.8760   19.8948 H   0  0  0  0  0  0
  -22.3688  -10.9660   19.6150 H   0  0  0  0  0  0
  -21.2005   -7.6139   23.9707 H   0  0  0  0  0  0
  -21.1488   -6.0518   25.9072 H   0  0  0  0  0  0
  -22.0601   -2.7602   23.2847 H   0  0  0  0  0  0
  -22.4130  -11.9879   22.4800 H   0  0  0  0  0  0
  -21.1100  -13.1223   22.2625 H   0  0  0  0  0  0
  -24.6634  -15.8497   20.5401 H   0  0  0  0  0  0
  -26.2938  -15.6346   20.1488 H   0  0  0  0  0  0
  -26.7211  -32.5396   23.1077 H   0  0  0  0  0  0
  -25.0066  -33.9689   25.0393 H   0  0  0  0  0  0
  -22.7270  -31.3018   21.3972 H   0  0  0  0  0  0
  -23.3753  -35.9614   23.3298 H   0  0  0  0  0  0
  -24.3575  -36.8914   22.2056 H   0  0  0  0  0  0
  -23.7240  -37.6483   23.6670 H   0  0  0  0  0  0
  -26.1198  -31.5294   20.6132 H   0  0  0  0  0  0
  -26.8532  -30.8114   22.0156 H   0  0  0  0  0  0
  -28.1223  -28.9155   21.2067 H   0  0  0  0  0  0
  -25.9293  -25.8884   19.0357 H   0  0  0  0  0  0
  -23.9623  -27.3063   19.0146 H   0  0  0  0  0  0
  -23.7726  -30.5927   19.4034 H   0  0  0  0  0  0
  -22.7660  -29.2496   19.8518 H   0  0  0  0  0  0
  -25.1297  -36.1916   25.0820 H   0  0  0  0  0  0
  -20.9999  -28.3278   24.1378 H   0  0  0  0  0  0
  -20.5700  -26.2308   23.3605 H   0  0  0  0  0  0
  -21.6669  -26.7446   22.1194 H   0  0  0  0  0  0
  -19.6703  -27.3178   20.6731 H   0  0  0  0  0  0
  -19.6925  -25.6280   21.1247 H   0  0  0  0  0  0
  -18.0376  -26.0069   22.9041 H   0  0  0  0  0  0
  -17.4210  -26.6641   21.4048 H   0  0  0  0  0  0
  -19.7946  -30.7277   24.2247 H   0  0  0  0  0  0
  -17.5021  -31.6253   24.5166 H   0  0  0  0  0  0
  -15.5361  -30.2967   23.7667 H   0  0  0  0  0  0
  -15.8687  -28.0802   22.7068 H   0  0  0  0  0  0
  -24.5904  -30.7074   25.7786 H   0  0  0  0  0  0
  -24.8906  -32.2901   26.4865 H   0  0  0  0  0  0
  -25.8039  -30.8927   27.0239 H   0  0  0  0  0  0
  -26.2942  -29.6744   24.1237 H   0  0  0  0  0  0
  -27.3998  -29.7262   25.4771 H   0  0  0  0  0  0
  -27.8839  -30.4265   23.9509 H   0  0  0  0  0  0
  -27.2637  -33.3642   26.2068 H   0  0  0  0  0  0
  -28.3866  -32.6890   25.0348 H   0  0  0  0  0  0
  -28.0701  -31.8478   26.5449 H   0  0  0  0  0  0
  -28.2592  -38.0099   24.7512 H   0  0  0  0  0  0
  -28.1078  -36.2629   24.6291 H   0  0  0  0  0  0
  -27.2295  -37.1448   25.8868 H   0  0  0  0  0  0
  -20.9395  -29.8790   21.6864 H   0  0  0  0  0  0
  -26.0167  -38.2843   24.1410 H   0  0  0  0  0  0
  -30.3979  -20.4918   21.7407 H   0  0  0  0  0  0
  -30.9003  -18.1837   22.3607 H   0  0  0  0  0  0
  -28.6813  -16.7574   18.9751 H   0  0  0  0  0  0
  -28.5044  -17.1446   23.1016 H   0  0  0  0  0  0
  -29.0623  -16.0729   24.4926 H   0  0  0  0  0  0
  -28.2101  -25.7207   18.2687 H   0  0  0  0  0  0
  -30.4480  -14.7504   23.0006 H   0  0  0  0  0  0
  -29.6199  -23.3567   17.4522 H   0  0  0  0  0  0
  -27.8852  -23.5660   17.2560 H   0  0  0  0  0  0
  -28.2607  -22.8064   21.1202 H   0  0  0  0  0  0
  -29.9724  -22.9353   20.7183 H   0  0  0  0  0  0
  -29.0317  -21.1064   17.4866 H   0  0  0  0  0  0
  -27.4216  -21.4289   18.1383 H   0  0  0  0  0  0
  1 25  1  0  0  0
  1 30  2  0  0  0
  1 85  1  0  0  0
  2  3  1  0  0  0
  2 25  1  0  0  0
  2 87  1  0  0  0
  2 88  1  0  0  0
  3  4  1  0  0  0
  3 89  1  0  0  0
  3 90  1  0  0  0
  4  5  1  0  0  0
  4 91  1  0  0  0
  4 92  1  0  0  0
  5  6  1  0  0  0
  5 26  1  0  0  0
  5 93  1  0  0  0
  6 25  1  0  0  0
  6 94  1  0  0  0
  6 95  1  0  0  0
  7  8  2  0  0  0
  7 26  1  0  0  0
  7 29  1  0  0  0
  8  9  1  0  0  0
  8 22  1  0  0  0
  9 10  1  0  0  0
  9 27  2  0  0  0
 10 11  2  0  0  0
 10 15  1  0  0  0
 11 12  1  0  0  0
 11 96  1  0  0  0
 12 13  2  0  0  0
 12 97  1  0  0  0
 13 14  1  0  0  0
 13 31  1  0  0  0
 14 15  2  0  0  0
 14 98  1  0  0  0
 15 99  1  0  0  0
 16 17  2  0  0  0
 16 21  1  0  0  0
 16 31  1  0  0  0
 17 18  1  0  0  0
 17100  1  0  0  0
 18 19  2  0  0  0
 18101  1  0  0  0
 19 20  1  0  0  0
 19 24  1  0  0  0
 20 21  2  0  0  0
 20102  1  0  0  0
 21 23  1  0  0  0
 22 28  1  0  0  0
 22 32  2  0  0  0
 26 27  1  0  0  0
 28103  1  0  0  0
 28104  1  0  0  0
 29105  1  0  0  0
 29106  1  0  0  0
 33 34  1  0  0  0
 33 66  1  0  0  0
 33 70  2  0  0  0
 34 36  1  0  0  0
 34 59  1  0  0  0
 34107  1  0  0  0
 35 44  2  0  0  0
 35 45  1  0  0  0
 35 68  1  0  0  0
 36 56  1  0  0  0
 36108  1  0  0  0
 37 39  1  0  0  0
 37 47  1  0  0  0
 37 66  1  0  0  0
 37109  1  0  0  0
 38 43  2  0  0  0
 38 46  1  0  0  0
 38 47  1  0  0  0
 39 64  1  0  0  0
 39 67  2  0  0  0
 40 52  1  0  0  0
 40 53  2  0  0  0
 40 58  1  0  0  0
 41110  1  0  0  0
 41111  1  0  0  0
 41112  1  0  0  0
 41 48  1  0  0  0
 42 43  1  0  0  0
 42 66  1  0  0  0
 42113  1  0  0  0
 42114  1  0  0  0
 43 44  1  0  0  0
 44115  1  0  0  0
 45 46  2  0  0  0
 45116  1  0  0  0
 46117  1  0  0  0
 47118  1  0  0  0
 47119  1  0  0  0
 48 56  1  0  0  0
 48 65  1  0  0  0
 48120  1  0  0  0
 49 50  1  0  0  0
 49 53  1  0  0  0
 49 64  1  0  0  0
 49121  1  0  0  0
 50 51  1  0  0  0
 50122  1  0  0  0
 50123  1  0  0  0
 51 52  1  0  0  0
 51124  1  0  0  0
 51125  1  0  0  0
 52126  1  0  0  0
 52127  1  0  0  0
 53 54  1  0  0  0
 54 55  2  0  0  0
 54128  1  0  0  0
 55 57  1  0  0  0
 55129  1  0  0  0
 56 69  2  0  0  0
 57 58  2  0  0  0
 57130  1  0  0  0
 58131  1  0  0  0
 59 60  1  0  0  0
 59 61  1  0  0  0
 59 62  1  0  0  0
 60132  1  0  0  0
 60133  1  0  0  0
 60134  1  0  0  0
 61135  1  0  0  0
 61136  1  0  0  0
 61137  1  0  0  0
 62138  1  0  0  0
 62139  1  0  0  0
 62140  1  0  0  0
 63 65  1  0  0  0
 63141  1  0  0  0
 63142  1  0  0  0
 63143  1  0  0  0
 64144  1  0  0  0
 65145  1  0  0  0
 68 79  1  0  0  0
 71 72  2  0  0  0
 71 74  1  0  0  0
 71146  1  0  0  0
 72 75  1  0  0  0
 72147  1  0  0  0
 73 75  2  0  0  0
 73 76  1  0  0  0
 73148  1  0  0  0
 74 76  2  0  0  0
 74 84  1  0  0  0
 75 85  1  0  0  0
 76 86  1  0  0  0
 77 79  2  0  0  0
 77 81  1  0  0  0
 77 82  1  0  0  0
 78 80  2  0  0  0
 78149  1  0  0  0
 78150  1  0  0  0
 79151  1  0  0  0
 80 85  1  0  0  0
 80152  1  0  0  0
 81 83  1  0  0  0
 81153  1  0  0  0
 81154  1  0  0  0
 82 84  1  0  0  0
 82155  1  0  0  0
 82156  1  0  0  0
 83 84  1  0  0  0
 83157  1  0  0  0
 83158  1  0  0  0
M  ISO  4   1 100  68 101  79 101  85 100
M  END
> <chiral flag>
0

> <version>
0

> <s_m_source_file>
/data/baiqing/PycharmProjects/Reinvent-master-3.2/result/LINK_invent/BTK/process_docking_weight1_custom_product_contain_oxygen_bond_distance_aromatic_linkinvent_7_9_3/rearranged_h_0097.sdf

> <i_m_source_file_index>
42

> <r_mmod_Potential_Energy-OPLS-2005>
467.889892578125

> <r_mmod_Stretch_Energy-OPLS-2005>
122.131950378418

> <r_mmod_Bend_Energy-OPLS-2005>
254.279144287109

> <r_mmod_Torsional_Energy-OPLS-2005>
314.984405517578

> <r_mmod_Improper_Torsional_Energy-OPLS-2005>
3.17866826057434

> <r_mmod_Van_der_Waal_Energy-OPLS-2005>
157.079467773438

> <r_mmod_Electrostatic_Energy-OPLS-2005>
-254.995025634766

> <r_mmod_Solvation_Energy-OPLS-2005>
-208.933044433594

> <b_mmod_Minimization_Converged-OPLS-2005>
0

> <r_mmod_RMS_Derivative-OPLS-2005>
1.01998686790466

$$$$
42
                    3D
 Structure written by MMmdl.
167176  0  0  1  0            999 V2000
  -29.7508  -16.5800   20.4463 C   0  0  0  0  0  0
  -30.2733  -13.8233   19.6437 C   0  0  0  0  0  0
  -29.5695  -12.9918   18.4847 C   0  0  0  0  0  0
  -28.2297  -12.3999   18.9227 C   0  0  0  0  0  0
  -27.5531  -13.4189   19.8526 C   0  0  2  0  0  0
  -28.4483  -14.0645   20.9614 C   0  0  0  0  0  0
  -25.2000  -13.8460   20.5943 C   0  0  0  0  0  0
  -24.1525  -13.0447   20.9341 C   0  0  0  0  0  0
  -24.6396  -11.7004   20.8749 C   0  0  0  0  0  0
  -23.9155  -10.4303   21.0354 C   0  0  0  0  0  0
  -24.3687   -9.4224   21.9149 C   0  0  0  0  0  0
  -23.6343   -8.2264   22.0742 C   0  0  0  0  0  0
  -22.4310   -8.0293   21.3544 C   0  0  0  0  0  0
  -21.9966   -9.0262   20.4627 C   0  0  0  0  0  0
  -22.7316  -10.2128   20.3017 C   0  0  0  0  0  0
  -21.6874   -6.0742   22.5277 C   0  0  0  0  0  0
  -21.4037   -6.5644   23.8211 C   0  0  0  0  0  0
  -21.3669   -5.6794   24.9169 C   0  0  0  0  0  0
  -21.6051   -4.3056   24.7220 C   0  0  0  0  0  0
  -21.8816   -3.8149   23.4339 C   0  0  0  0  0  0
  -21.9199   -4.6966   22.3397 C   0  0  0  0  0  0
  -22.7524  -13.5093   21.1975 C   0  0  0  0  0  0
  -22.1661   -4.2151   21.0975 F   0  0  0  0  0  0
  -21.5625   -3.4535   25.7733 F   0  0  0  0  0  0
  -29.4360  -15.0229   20.3264 N   0  0  0  0  0  0
  -26.2554  -12.9986   20.3447 N   0  0  0  0  0  0
  -25.9385  -11.6930   20.5700 N   0  0  0  0  0  0
  -22.0257  -12.8019   22.0538 N   0  0  0  0  0  0
  -25.3437  -15.2225   20.4423 N   0  0  0  0  0  0
  -30.9945  -16.4316   20.2134 O   0  0  0  0  0  0
  -21.6664   -6.8890   21.4242 O   0  0  0  0  0  0
  -22.3169  -14.5404   20.6847 O   0  0  0  0  0  0
  -24.6709  -31.6946   23.1586 C   0  0  0  0  0  0
  -25.9287  -32.3833   23.7917 C   0  0  1  0  0  0
  -28.1961  -26.8813   19.5091 C   0  0  0  0  0  0
  -25.5791  -33.7837   24.1557 N   0  0  0  0  0  0
  -23.5092  -30.1726   21.5704 C   0  0  2  0  0  0
  -24.7239  -27.9334   20.5096 C   0  0  0  0  0  0
  -22.7255  -29.3562   22.5815 C   0  0  0  0  0  0
  -18.0099  -28.1384   22.8463 C   0  0  0  0  0  0
  -24.1497  -36.6951   23.2661 C   0  0  0  0  0  0
  -26.0207  -29.9892   21.7884 C   0  0  0  0  0  0
  -26.0992  -28.3600   21.4349 C   0  0  0  0  0  0
  -27.7260  -27.7667   21.0420 C   0  0  0  0  0  0
  -26.9981  -26.5307   18.4348 C   0  0  0  0  0  0
  -24.8882  -27.0028   19.0265 C   0  0  0  0  0  0
  -23.7303  -29.1745   20.3645 C   0  0  0  0  0  0
  -25.4168  -36.2594   24.0214 C   0  0  1  0  0  0
  -20.5558  -28.3495   23.1538 C   0  0  2  0  0  0
  -20.6509  -26.9252   22.5586 C   0  0  0  0  0  0
  -19.5611  -26.6352   21.5250 C   0  0  0  0  0  0
  -18.1753  -26.7942   22.1566 C   0  0  0  0  0  0
  -19.1324  -28.8806   23.2939 C   0  0  0  0  0  0
  -18.9321  -30.1422   23.8943 C   0  0  0  0  0  0
  -17.6348  -30.6603   24.0565 C   0  0  0  0  0  0
  -25.9161  -34.8960   23.4822 C   0  0  0  0  0  0
  -16.5231  -29.9136   23.6287 C   0  0  0  0  0  0
  -16.7113  -28.6552   23.0289 C   0  0  0  0  0  0
  -26.4536  -31.6429   25.0916 C   0  0  0  0  0  0
  -25.3455  -31.4098   26.1483 C   0  0  0  0  0  0
  -27.0708  -30.2586   24.7981 C   0  0  0  0  0  0
  -27.5915  -32.4617   25.7465 C   0  0  0  0  0  0
  -27.5553  -37.1584   24.8444 C   0  0  0  0  0  0
  -21.4022  -29.2723   22.4107 N   0  0  0  0  0  0
  -26.4238  -37.3440   23.9404 N   0  0  0  0  0  0
  -24.7602  -30.6809   22.2113 N   0  0  0  0  0  0
  -23.3353  -28.7395   23.4569 O   0  0  0  0  0  0
  -28.4473  -25.5012   19.0665 O   0  0  0  0  0  0
  -26.5994  -34.8629   22.4573 O   0  0  0  0  0  0
  -23.5726  -32.0984   23.5720 O   0  0  0  0  0  0
  -26.7310  -22.6438   21.2320 C   0  0  0  0  0  0
  -28.4410  -23.1615   20.3979 C   0  0  0  0  0  0
  -27.2043  -21.0476   21.2262 C   0  0  0  0  0  0
  -27.1741  -24.1245   20.7658 C   0  0  0  0  0  0
  -28.4112  -20.1206   20.7094 C   0  0  0  0  0  0
  -28.9425  -21.5782   20.3210 C   0  0  0  0  0  0
  -26.5344  -28.5777   19.0949 C   0  0  0  0  0  0
  -25.9101  -28.3049   17.2774 C   0  0  0  0  0  0
  -25.4360  -26.4448   16.6375 C   0  0  0  0  0  0
  -25.5158  -24.7543   19.4137 C   0  0  0  0  0  0
  -25.7992  -24.7511   17.6370 C   0  0  1  0  0  0
  -26.1677  -20.1931   21.9425 C   0  0  0  0  0  0
  -30.0208  -18.7848   22.9323 C   0  0  0  0  0  0
  -27.5676  -24.4323   17.9558 C   0  0  0  0  0  0
  -28.8714  -17.9910   22.2779 C   0  0  0  0  0  0
  -26.3006  -26.0304   20.4307 N   0  0  0  0  0  0
  -28.9296  -18.1425   20.8181 N   0  0  0  0  0  0
  -27.2056  -29.6195   19.2498 O   0  0  0  0  0  0
  -30.1769  -21.5000   19.7658 F   0  0  0  0  0  0
  -31.1752  -14.2453   19.2066 H   0  0  0  0  0  0
  -30.6638  -13.1415   20.4054 H   0  0  0  0  0  0
  -30.2301  -12.2056   18.1147 H   0  0  0  0  0  0
  -29.3959  -13.6635   17.6428 H   0  0  0  0  0  0
  -28.4052  -11.4687   19.4642 H   0  0  0  0  0  0
  -27.6005  -12.1629   18.0643 H   0  0  0  0  0  0
  -27.3272  -14.2404   19.1708 H   0  0  0  0  0  0
  -28.8996  -13.3110   21.6124 H   0  0  0  0  0  0
  -27.8275  -14.6638   21.6289 H   0  0  0  0  0  0
  -25.2820   -9.5697   22.4731 H   0  0  0  0  0  0
  -24.0037   -7.4666   22.7475 H   0  0  0  0  0  0
  -21.0892   -8.8791   19.8936 H   0  0  0  0  0  0
  -22.3776  -10.9658   19.6120 H   0  0  0  0  0  0
  -21.2046   -7.6153   23.9716 H   0  0  0  0  0  0
  -21.1493   -6.0521   25.9075 H   0  0  0  0  0  0
  -22.0586   -2.7607   23.2837 H   0  0  0  0  0  0
  -22.3986  -11.9717   22.4892 H   0  0  0  0  0  0
  -21.0865  -13.0942   22.2820 H   0  0  0  0  0  0
  -24.5651  -15.8616   20.5494 H   0  0  0  0  0  0
  -26.1880  -15.6727   20.1182 H   0  0  0  0  0  0
  -26.7250  -32.3990   23.0434 H   0  0  0  0  0  0
  -24.9557  -33.8886   24.9427 H   0  0  0  0  0  0
  -22.9010  -31.0149   21.2403 H   0  0  0  0  0  0
  -23.3791  -35.9260   23.3177 H   0  0  0  0  0  0
  -24.3535  -36.8810   22.2114 H   0  0  0  0  0  0
  -23.7235  -37.6052   23.6897 H   0  0  0  0  0  0
  -26.2029  -30.6206   20.9332 H   0  0  0  0  0  0
  -26.8908  -30.2314   22.3716 H   0  0  0  0  0  0
  -28.5480  -28.2104   21.5920 H   0  0  0  0  0  0
  -27.4687  -26.5613   17.4411 H   0  0  0  0  0  0
  -24.0045  -26.9941   18.3977 H   0  0  0  0  0  0
  -24.0525  -29.7666   19.5085 H   0  0  0  0  0  0
  -22.7669  -28.7666   20.0495 H   0  0  0  0  0  0
  -25.1401  -36.1302   25.0706 H   0  0  0  0  0  0
  -20.9371  -28.2978   24.1767 H   0  0  0  0  0  0
  -20.5282  -26.2097   23.3736 H   0  0  0  0  0  0
  -21.6410  -26.7240   22.1485 H   0  0  0  0  0  0
  -19.6762  -25.6280   21.1233 H   0  0  0  0  0  0
  -19.6670  -27.3210   20.6833 H   0  0  0  0  0  0
  -17.4076  -26.6759   21.3897 H   0  0  0  0  0  0
  -18.0052  -26.0063   22.8912 H   0  0  0  0  0  0
  -19.7813  -30.7172   24.2368 H   0  0  0  0  0  0
  -17.4918  -31.6286   24.5175 H   0  0  0  0  0  0
  -15.5235  -30.3080   23.7578 H   0  0  0  0  0  0
  -15.8498  -28.0920   22.6950 H   0  0  0  0  0  0
  -24.5708  -30.7277   25.7913 H   0  0  0  0  0  0
  -24.8489  -32.3399   26.4257 H   0  0  0  0  0  0
  -25.7491  -30.9788   27.0650 H   0  0  0  0  0  0
  -26.3483  -29.5449   24.3995 H   0  0  0  0  0  0
  -27.4415  -29.8116   25.7214 H   0  0  0  0  0  0
  -27.9420  -30.3162   24.1500 H   0  0  0  0  0  0
  -27.2565  -33.4326   26.1119 H   0  0  0  0  0  0
  -28.0204  -31.9400   26.6055 H   0  0  0  0  0  0
  -28.4057  -32.6360   25.0440 H   0  0  0  0  0  0
  -28.2469  -37.9963   24.7524 H   0  0  0  0  0  0
  -28.1136  -36.2485   24.6219 H   0  0  0  0  0  0
  -27.2264  -37.1133   25.8833 H   0  0  0  0  0  0
  -20.9652  -29.8104   21.6743 H   0  0  0  0  0  0
  -26.0007  -38.2456   24.1440 H   0  0  0  0  0  0
  -25.7557  -22.7379   21.6923 H   0  0  0  0  0  0
  -29.2714  -23.7097   19.9957 H   0  0  0  0  0  0
  -26.6672  -28.7208   16.6130 H   0  0  0  0  0  0
  -25.0390  -28.9490   17.1355 H   0  0  0  0  0  0
  -25.9026  -26.3336   15.6548 H   0  0  0  0  0  0
  -24.3734  -26.4491   16.3786 H   0  0  0  0  0  0
  -25.4289  -23.6959   19.6237 H   0  0  0  0  0  0
  -24.4401  -24.8180   19.5965 H   0  0  0  0  0  0
  -25.3351  -23.9007   17.1407 H   0  0  0  0  0  0
  -26.4974  -19.9665   22.9562 H   0  0  0  0  0  0
  -25.2006  -20.6835   22.0362 H   0  0  0  0  0  0
  -25.9986  -19.2604   21.4060 H   0  0  0  0  0  0
  -30.2165  -18.4472   23.9497 H   0  0  0  0  0  0
  -29.7986  -19.8529   22.9837 H   0  0  0  0  0  0
  -30.9470  -18.6859   22.3591 H   0  0  0  0  0  0
  -28.0813  -24.5385   16.9939 H   0  0  0  0  0  0
  -27.7130  -23.3685   18.1330 H   0  0  0  0  0  0
  -28.8677  -16.9603   22.6414 H   0  0  0  0  0  0
  -27.9329  -18.3852   22.6489 H   0  0  0  0  0  0
  1 25  1  0  0  0
  1 30  2  0  0  0
  1 87  1  0  0  0
  2  3  1  0  0  0
  2 25  1  0  0  0
  2 90  1  0  0  0
  2 91  1  0  0  0
  3  4  1  0  0  0
  3 92  1  0  0  0
  3 93  1  0  0  0
  4  5  1  0  0  0
  4 94  1  0  0  0
  4 95  1  0  0  0
  5  6  1  0  0  0
  5 26  1  0  0  0
  5 96  1  0  0  0
  6 25  1  0  0  0
  6 97  1  0  0  0
  6 98  1  0  0  0
  7  8  2  0  0  0
  7 26  1  0  0  0
  7 29  1  0  0  0
  8  9  1  0  0  0
  8 22  1  0  0  0
  9 10  1  0  0  0
  9 27  2  0  0  0
 10 11  2  0  0  0
 10 15  1  0  0  0
 11 12  1  0  0  0
 11 99  1  0  0  0
 12 13  2  0  0  0
 12100  1  0  0  0
 13 14  1  0  0  0
 13 31  1  0  0  0
 14 15  2  0  0  0
 14101  1  0  0  0
 15102  1  0  0  0
 16 17  2  0  0  0
 16 21  1  0  0  0
 16 31  1  0  0  0
 17 18  1  0  0  0
 17103  1  0  0  0
 18 19  2  0  0  0
 18104  1  0  0  0
 19 20  1  0  0  0
 19 24  1  0  0  0
 20 21  2  0  0  0
 20105  1  0  0  0
 21 23  1  0  0  0
 22 28  1  0  0  0
 22 32  2  0  0  0
 26 27  1  0  0  0
 28106  1  0  0  0
 28107  1  0  0  0
 29108  1  0  0  0
 29109  1  0  0  0
 33 34  1  0  0  0
 33 66  1  0  0  0
 33 70  2  0  0  0
 34 36  1  0  0  0
 34 59  1  0  0  0
 34110  1  0  0  0
 35 44  2  0  0  0
 35 45  1  0  0  0
 35 68  1  0  0  0
 36 56  1  0  0  0
 36111  1  0  0  0
 37 39  1  0  0  0
 37 47  1  0  0  0
 37 66  1  0  0  0
 37112  1  0  0  0
 38 43  2  0  0  0
 38 46  1  0  0  0
 38 47  1  0  0  0
 39 64  1  0  0  0
 39 67  2  0  0  0
 40 52  1  0  0  0
 40 53  2  0  0  0
 40 58  1  0  0  0
 41113  1  0  0  0
 41114  1  0  0  0
 41115  1  0  0  0
 41 48  1  0  0  0
 42 43  1  0  0  0
 42 66  1  0  0  0
 42116  1  0  0  0
 42117  1  0  0  0
 43 44  1  0  0  0
 44118  1  0  0  0
 45 46  2  0  0  0
 45119  1  0  0  0
 46120  1  0  0  0
 47121  1  0  0  0
 47122  1  0  0  0
 48 56  1  0  0  0
 48 65  1  0  0  0
 48123  1  0  0  0
 49 50  1  0  0  0
 49 53  1  0  0  0
 49 64  1  0  0  0
 49124  1  0  0  0
 50 51  1  0  0  0
 50125  1  0  0  0
 50126  1  0  0  0
 51 52  1  0  0  0
 51127  1  0  0  0
 51128  1  0  0  0
 52129  1  0  0  0
 52130  1  0  0  0
 53 54  1  0  0  0
 54 55  2  0  0  0
 54131  1  0  0  0
 55 57  1  0  0  0
 55132  1  0  0  0
 56 69  2  0  0  0
 57 58  2  0  0  0
 57133  1  0  0  0
 58134  1  0  0  0
 59 60  1  0  0  0
 59 61  1  0  0  0
 59 62  1  0  0  0
 60135  1  0  0  0
 60136  1  0  0  0
 60137  1  0  0  0
 61138  1  0  0  0
 61139  1  0  0  0
 61140  1  0  0  0
 62141  1  0  0  0
 62142  1  0  0  0
 62143  1  0  0  0
 63 65  1  0  0  0
 63144  1  0  0  0
 63145  1  0  0  0
 63146  1  0  0  0
 64147  1  0  0  0
 65148  1  0  0  0
 68 84  1  0  0  0
 71 73  2  0  0  0
 71 74  1  0  0  0
 71149  1  0  0  0
 72 74  2  0  0  0
 72 76  1  0  0  0
 72150  1  0  0  0
 73 75  1  0  0  0
 73 82  1  0  0  0
 74 86  1  0  0  0
 75 76  2  0  0  0
 75 87  1  0  0  0
 76 89  1  0  0  0
 77 78  1  0  0  0
 77 86  1  0  0  0
 77 88  2  0  0  0
 78 79  1  0  0  0
 78151  1  0  0  0
 78152  1  0  0  0
 79 81  1  0  0  0
 79153  1  0  0  0
 79154  1  0  0  0
 80 81  1  0  0  0
 80 86  1  0  0  0
 80155  1  0  0  0
 80156  1  0  0  0
 81 84  1  0  0  0
 81157  1  0  0  0
 82158  1  0  0  0
 82159  1  0  0  0
 82160  1  0  0  0
 83 85  1  0  0  0
 83161  1  0  0  0
 83162  1  0  0  0
 83163  1  0  0  0
 84164  1  0  0  0
 84165  1  0  0  0
 85 87  1  0  0  0
 85166  1  0  0  0
 85167  1  0  0  0
M  ISO  4   1 100  68 101  84 101  87 100
M  END
> <chiral flag>
0

> <version>
0

> <s_m_source_file>
/data/baiqing/PycharmProjects/Reinvent-master-3.2/result/LINK_invent/BTK/process_docking_weight1_custom_product_contain_oxygen_bond_distance_aromatic_linkinvent_7_9_3/rearranged_h_0097.sdf

> <i_m_source_file_index>
43

> <r_mmod_Potential_Energy-OPLS-2005>
21208.484375

> <r_mmod_Stretch_Energy-OPLS-2005>
11604.4189453125

> <r_mmod_Bend_Energy-OPLS-2005>
2032.52770996094

> <r_mmod_Torsional_Energy-OPLS-2005>
675.057922363281

> <r_mmod_Improper_Torsional_Energy-OPLS-2005>
96.9983444213867

> <r_mmod_Van_der_Waal_Energy-OPLS-2005>
4165.7255859375

> <r_mmod_Electrostatic_Energy-OPLS-2005>
-289.575225830078

> <r_mmod_Solvation_Energy-OPLS-2005>
-206.820159912109

> <b_mmod_Minimization_Converged-OPLS-2005>
0

> <r_mmod_RMS_Derivative-OPLS-2005>
13.7169790267944

$$$$
43
                    3D
 Structure written by MMmdl.
157166  0  0  1  0            999 V2000
  -30.6831  -14.6573   20.4666 C   0  0  0  0  0  0
  -30.4071  -12.3950   19.4728 C   0  0  0  0  0  0
  -29.5037  -12.5002   18.2296 C   0  0  0  0  0  0
  -28.0275  -12.3429   18.6396 C   0  0  0  0  0  0
  -27.6429  -13.2326   19.8547 C   0  0  2  0  0  0
  -28.6871  -13.1567   20.9908 C   0  0  0  0  0  0
  -25.2525  -13.8212   20.5706 C   0  0  0  0  0  0
  -24.1808  -13.0445   20.9209 C   0  0  0  0  0  0
  -24.6396  -11.6919   20.8730 C   0  0  0  0  0  0
  -23.9077  -10.4287   21.0397 C   0  0  0  0  0  0
  -24.3625   -9.4208   21.9179 C   0  0  0  0  0  0
  -23.6296   -8.2244   22.0755 C   0  0  0  0  0  0
  -22.4279   -8.0276   21.3551 C   0  0  0  0  0  0
  -21.9907   -9.0258   20.4660 C   0  0  0  0  0  0
  -22.7236  -10.2141   20.3059 C   0  0  0  0  0  0
  -21.6863   -6.0729   22.5276 C   0  0  0  0  0  0
  -21.4008   -6.5641   23.8201 C   0  0  0  0  0  0
  -21.3645   -5.6802   24.9175 C   0  0  0  0  0  0
  -21.6041   -4.3063   24.7238 C   0  0  0  0  0  0
  -21.8820   -3.8146   23.4363 C   0  0  0  0  0  0
  -21.9198   -4.6954   22.3412 C   0  0  0  0  0  0
  -22.7837  -13.5231   21.1871 C   0  0  0  0  0  0
  -22.1677   -4.2137   21.0997 F   0  0  0  0  0  0
  -21.5621   -3.4548   25.7754 F   0  0  0  0  0  0
  -29.9925  -13.4706   20.4017 N   0  0  0  0  0  0
  -26.2944  -12.9411   20.3293 N   0  0  0  0  0  0
  -25.9327  -11.6552   20.5734 N   0  0  0  0  0  0
  -22.0506  -12.8192   22.0424 N   0  0  0  0  0  0
  -25.4232  -15.1932   20.4158 N   0  0  0  0  0  0
  -31.8774  -14.6483   20.1572 O   0  0  0  0  0  0
  -21.6650   -6.8870   21.4235 O   0  0  0  0  0  0
  -22.3505  -14.5538   20.6737 O   0  0  0  0  0  0
  -24.6314  -31.8563   23.2049 C   0  0  0  0  0  0
  -25.9164  -32.4744   23.8350 C   0  0  1  0  0  0
  -27.1999  -27.2786   20.1039 C   0  0  0  0  0  0
  -25.5970  -33.8551   24.2256 N   0  0  0  0  0  0
  -23.4206  -30.4868   21.5496 C   0  0  2  0  0  0
  -24.8565  -28.9383   20.1145 C   0  0  0  0  0  0
  -22.7474  -29.4649   22.4963 C   0  0  0  0  0  0
  -18.0327  -28.1367   22.8486 C   0  0  0  0  0  0
  -24.1493  -36.7266   23.2641 C   0  0  0  0  0  0
  -25.9703  -30.7726   21.3835 C   0  0  0  0  0  0
  -26.0323  -29.4004   20.7178 C   0  0  0  0  0  0
  -27.2045  -28.5826   20.7014 C   0  0  0  0  0  0
  -25.9936  -26.8818   19.4797 C   0  0  0  0  0  0
  -24.8412  -27.6852   19.4895 C   0  0  0  0  0  0
  -23.6294  -29.8249   20.1648 C   0  0  0  0  0  0
  -25.4121  -36.3050   24.0324 C   0  0  1  0  0  0
  -20.5921  -28.3693   23.1311 C   0  0  2  0  0  0
  -20.6841  -26.9407   22.5450 C   0  0  0  0  0  0
  -19.5831  -26.6385   21.5236 C   0  0  0  0  0  0
  -18.2008  -26.7908   22.1646 C   0  0  0  0  0  0
  -19.1566  -28.8849   23.2892 C   0  0  0  0  0  0
  -18.9457  -30.1459   23.8885 C   0  0  0  0  0  0
  -17.6444  -30.6566   24.0546 C   0  0  0  0  0  0
  -25.9072  -34.9424   23.5083 C   0  0  0  0  0  0
  -16.5352  -29.9047   23.6315 C   0  0  0  0  0  0
  -16.7307  -28.6478   23.0325 C   0  0  0  0  0  0
  -26.4521  -31.6576   25.0745 C   0  0  0  0  0  0
  -25.3756  -31.3730   26.1475 C   0  0  0  0  0  0
  -27.0380  -30.2985   24.6274 C   0  0  0  0  0  0
  -27.6064  -32.4336   25.7516 C   0  0  0  0  0  0
  -27.5573  -37.1789   24.8466 C   0  0  0  0  0  0
  -21.4199  -29.3044   22.3676 N   0  0  0  0  0  0
  -26.4287  -37.3755   23.9404 N   0  0  0  0  0  0
  -24.6929  -31.0576   22.0996 N   0  0  0  0  0  0
  -23.4195  -28.8182   23.3043 O   0  0  0  0  0  0
  -28.3248  -26.4280   20.1471 O   0  0  0  0  0  0
  -26.5632  -34.8899   22.4648 O   0  0  0  0  0  0
  -23.5483  -32.1378   23.7379 O   0  0  0  0  0  0
  -30.1930  -19.5501   19.8085 C   0  0  0  0  0  0
  -29.6181  -20.8606   19.8497 C   0  0  0  0  0  0
  -27.9834  -20.0230   21.3889 C   0  0  0  0  0  0
  -29.6976  -18.4356   20.5570 C   0  0  0  0  0  0
  -28.4887  -21.1508   20.6559 C   0  0  0  0  0  0
  -28.5568  -18.7130   21.3487 C   0  0  0  0  0  0
  -26.5982  -22.6416   21.1840 C   0  0  0  0  0  0
  -30.5226  -17.1230   20.6203 C   0  0  0  0  0  0
  -26.4380  -23.8739   22.0598 C   0  0  0  0  0  0
  -27.8808  -24.3420   22.2109 C   0  0  0  0  0  0
  -28.5435  -23.8516   20.9163 C   0  0  2  0  0  0
  -28.2638  -24.9705   19.7938 C   0  0  0  0  0  0
  -27.8673  -22.5001   20.7421 N   0  0  0  0  0  0
  -29.9869  -15.8436   20.6458 N   0  0  0  0  0  0
  -25.6477  -21.8961   20.9277 O   0  0  0  0  0  0
  -31.7461  -17.3084   20.6132 O   0  0  0  0  0  0
  -28.0209  -17.7390   22.1253 F   0  0  0  0  0  0
  -31.4582  -12.4531   19.1852 H   0  0  0  0  0  0
  -30.2871  -11.4177   19.9449 H   0  0  0  0  0  0
  -29.7738  -11.7353   17.4992 H   0  0  0  0  0  0
  -29.6552  -13.4632   17.7379 H   0  0  0  0  0  0
  -27.8670  -11.2916   18.8788 H   0  0  0  0  0  0
  -27.3745  -12.5626   17.7944 H   0  0  0  0  0  0
  -27.6440  -14.2591   19.4884 H   0  0  0  0  0  0
  -28.7008  -12.1627   21.4414 H   0  0  0  0  0  0
  -28.4413  -13.8523   21.7942 H   0  0  0  0  0  0
  -25.2773   -9.5677   22.4759 H   0  0  0  0  0  0
  -24.0005   -7.4631   22.7471 H   0  0  0  0  0  0
  -21.0832   -8.8778   19.8979 H   0  0  0  0  0  0
  -22.3680  -10.9688   19.6178 H   0  0  0  0  0  0
  -21.1996   -7.6150   23.9689 H   0  0  0  0  0  0
  -21.1463   -6.0552   25.9074 H   0  0  0  0  0  0
  -22.0608   -2.7606   23.2886 H   0  0  0  0  0  0
  -22.4164  -11.9863   22.4785 H   0  0  0  0  0  0
  -21.1128  -13.1204   22.2670 H   0  0  0  0  0  0
  -24.6651  -15.8495   20.5641 H   0  0  0  0  0  0
  -26.2654  -15.6375   20.0745 H   0  0  0  0  0  0
  -26.7229  -32.5353   23.1080 H   0  0  0  0  0  0
  -25.0072  -33.9677   25.0367 H   0  0  0  0  0  0
  -22.7182  -31.3115   21.4115 H   0  0  0  0  0  0
  -23.3748  -35.9606   23.3310 H   0  0  0  0  0  0
  -24.3574  -36.8879   22.2053 H   0  0  0  0  0  0
  -23.7265  -37.6480   23.6659 H   0  0  0  0  0  0
  -26.1285  -31.5417   20.6263 H   0  0  0  0  0  0
  -26.8426  -30.7997   22.0250 H   0  0  0  0  0  0
  -28.1061  -28.9356   21.1801 H   0  0  0  0  0  0
  -25.8732  -25.9411   18.9710 H   0  0  0  0  0  0
  -23.9383  -27.3262   19.0147 H   0  0  0  0  0  0
  -23.7479  -30.6014   19.4089 H   0  0  0  0  0  0
  -22.7452  -29.2599   19.8622 H   0  0  0  0  0  0
  -25.1313  -36.1886   25.0820 H   0  0  0  0  0  0
  -21.0031  -28.3309   24.1427 H   0  0  0  0  0  0
  -20.5795  -26.2274   23.3645 H   0  0  0  0  0  0
  -21.6708  -26.7467   22.1229 H   0  0  0  0  0  0
  -19.7020  -25.6312   21.1229 H   0  0  0  0  0  0
  -19.6771  -27.3233   20.6798 H   0  0  0  0  0  0
  -17.4284  -26.6639   21.4040 H   0  0  0  0  0  0
  -18.0440  -26.0059   22.9059 H   0  0  0  0  0  0
  -19.7921  -30.7306   24.2248 H   0  0  0  0  0  0
  -17.4976  -31.6240   24.5136 H   0  0  0  0  0  0
  -15.5339  -30.2922   23.7656 H   0  0  0  0  0  0
  -15.8725  -28.0791   22.7015 H   0  0  0  0  0  0
  -24.5918  -30.7092   25.7811 H   0  0  0  0  0  0
  -24.8967  -32.2895   26.4929 H   0  0  0  0  0  0
  -25.8093  -30.8887   27.0233 H   0  0  0  0  0  0
  -26.2987  -29.6743   24.1247 H   0  0  0  0  0  0
  -27.3968  -29.7258   25.4838 H   0  0  0  0  0  0
  -27.8907  -30.4235   23.9600 H   0  0  0  0  0  0
  -27.2644  -33.3617   26.2107 H   0  0  0  0  0  0
  -28.3860  -32.6937   25.0343 H   0  0  0  0  0  0
  -28.0751  -31.8462   26.5419 H   0  0  0  0  0  0
  -28.2602  -38.0073   24.7491 H   0  0  0  0  0  0
  -28.1055  -36.2607   24.6320 H   0  0  0  0  0  0
  -27.2278  -37.1467   25.8864 H   0  0  0  0  0  0
  -20.9380  -29.8705   21.6837 H   0  0  0  0  0  0
  -26.0160  -38.2833   24.1384 H   0  0  0  0  0  0
  -31.0770  -19.4077   19.2010 H   0  0  0  0  0  0
  -30.0596  -21.6450   19.2496 H   0  0  0  0  0  0
  -27.1368  -20.1447   22.0499 H   0  0  0  0  0  0
  -25.9867  -23.6327   23.0230 H   0  0  0  0  0  0
  -25.8219  -24.6165   21.5527 H   0  0  0  0  0  0
  -28.3459  -23.8526   23.0683 H   0  0  0  0  0  0
  -27.9552  -25.4171   22.3748 H   0  0  0  0  0  0
  -29.6176  -23.7328   21.0638 H   0  0  0  0  0  0
  -27.3550  -24.6848   19.2801 H   0  0  0  0  0  0
  -29.0208  -24.8280   19.0214 H   0  0  0  0  0  0
  -28.9895  -15.7725   20.7553 H   0  0  0  0  0  0
  1 25  1  0  0  0
  1 30  2  0  0  0
  1 84  1  0  0  0
  2  3  1  0  0  0
  2 25  1  0  0  0
  2 88  1  0  0  0
  2 89  1  0  0  0
  3  4  1  0  0  0
  3 90  1  0  0  0
  3 91  1  0  0  0
  4  5  1  0  0  0
  4 92  1  0  0  0
  4 93  1  0  0  0
  5  6  1  0  0  0
  5 26  1  0  0  0
  5 94  1  0  0  0
  6 25  1  0  0  0
  6 95  1  0  0  0
  6 96  1  0  0  0
  7  8  2  0  0  0
  7 26  1  0  0  0
  7 29  1  0  0  0
  8  9  1  0  0  0
  8 22  1  0  0  0
  9 10  1  0  0  0
  9 27  2  0  0  0
 10 11  2  0  0  0
 10 15  1  0  0  0
 11 12  1  0  0  0
 11 97  1  0  0  0
 12 13  2  0  0  0
 12 98  1  0  0  0
 13 14  1  0  0  0
 13 31  1  0  0  0
 14 15  2  0  0  0
 14 99  1  0  0  0
 15100  1  0  0  0
 16 17  2  0  0  0
 16 21  1  0  0  0
 16 31  1  0  0  0
 17 18  1  0  0  0
 17101  1  0  0  0
 18 19  2  0  0  0
 18102  1  0  0  0
 19 20  1  0  0  0
 19 24  1  0  0  0
 20 21  2  0  0  0
 20103  1  0  0  0
 21 23  1  0  0  0
 22 28  1  0  0  0
 22 32  2  0  0  0
 26 27  1  0  0  0
 28104  1  0  0  0
 28105  1  0  0  0
 29106  1  0  0  0
 29107  1  0  0  0
 33 34  1  0  0  0
 33 66  1  0  0  0
 33 70  2  0  0  0
 34 36  1  0  0  0
 34 59  1  0  0  0
 34108  1  0  0  0
 35 44  2  0  0  0
 35 45  1  0  0  0
 35 68  1  0  0  0
 36 56  1  0  0  0
 36109  1  0  0  0
 37 39  1  0  0  0
 37 47  1  0  0  0
 37 66  1  0  0  0
 37110  1  0  0  0
 38 43  2  0  0  0
 38 46  1  0  0  0
 38 47  1  0  0  0
 39 64  1  0  0  0
 39 67  2  0  0  0
 40 52  1  0  0  0
 40 53  2  0  0  0
 40 58  1  0  0  0
 41111  1  0  0  0
 41112  1  0  0  0
 41113  1  0  0  0
 41 48  1  0  0  0
 42 43  1  0  0  0
 42 66  1  0  0  0
 42114  1  0  0  0
 42115  1  0  0  0
 43 44  1  0  0  0
 44116  1  0  0  0
 45 46  2  0  0  0
 45117  1  0  0  0
 46118  1  0  0  0
 47119  1  0  0  0
 47120  1  0  0  0
 48 56  1  0  0  0
 48 65  1  0  0  0
 48121  1  0  0  0
 49 50  1  0  0  0
 49 53  1  0  0  0
 49 64  1  0  0  0
 49122  1  0  0  0
 50 51  1  0  0  0
 50123  1  0  0  0
 50124  1  0  0  0
 51 52  1  0  0  0
 51125  1  0  0  0
 51126  1  0  0  0
 52127  1  0  0  0
 52128  1  0  0  0
 53 54  1  0  0  0
 54 55  2  0  0  0
 54129  1  0  0  0
 55 57  1  0  0  0
 55130  1  0  0  0
 56 69  2  0  0  0
 57 58  2  0  0  0
 57131  1  0  0  0
 58132  1  0  0  0
 59 60  1  0  0  0
 59 61  1  0  0  0
 59 62  1  0  0  0
 60133  1  0  0  0
 60134  1  0  0  0
 60135  1  0  0  0
 61136  1  0  0  0
 61137  1  0  0  0
 61138  1  0  0  0
 62139  1  0  0  0
 62140  1  0  0  0
 62141  1  0  0  0
 63 65  1  0  0  0
 63142  1  0  0  0
 63143  1  0  0  0
 63144  1  0  0  0
 64145  1  0  0  0
 65146  1  0  0  0
 68 82  1  0  0  0
 71 72  2  0  0  0
 71 74  1  0  0  0
 71147  1  0  0  0
 72 75  1  0  0  0
 72148  1  0  0  0
 73 75  2  0  0  0
 73 76  1  0  0  0
 73149  1  0  0  0
 74 76  2  0  0  0
 74 78  1  0  0  0
 75 83  1  0  0  0
 76 87  1  0  0  0
 77 79  1  0  0  0
 77 83  1  0  0  0
 77 85  2  0  0  0
 78 84  1  0  0  0
 78 86  2  0  0  0
 79 80  1  0  0  0
 79150  1  0  0  0
 79151  1  0  0  0
 80 81  1  0  0  0
 80152  1  0  0  0
 80153  1  0  0  0
 81 82  1  0  0  0
 81 83  1  0  0  0
 81154  1  0  0  0
 82155  1  0  0  0
 82156  1  0  0  0
 84157  1  0  0  0
M  ISO  4   1 100  68 101  82 101  84 100
M  END
> <chiral flag>
0

> <version>
0

> <s_m_source_file>
/data/baiqing/PycharmProjects/Reinvent-master-3.2/result/LINK_invent/BTK/process_docking_weight1_custom_product_contain_oxygen_bond_distance_aromatic_linkinvent_7_9_3/rearranged_h_0097.sdf

> <i_m_source_file_index>
44

> <r_mmod_Potential_Energy-OPLS-2005>
208.275039672852

> <r_mmod_Stretch_Energy-OPLS-2005>
104.455131530762

> <r_mmod_Bend_Energy-OPLS-2005>
205.543487548828

> <r_mmod_Torsional_Energy-OPLS-2005>
296.558807373047

> <r_mmod_Improper_Torsional_Energy-OPLS-2005>
7.26000165939331

> <r_mmod_Van_der_Waal_Energy-OPLS-2005>
158.337097167969

> <r_mmod_Electrostatic_Energy-OPLS-2005>
-403.225402832031

> <r_mmod_Solvation_Energy-OPLS-2005>
-223.970764160156

> <b_mmod_Minimization_Converged-OPLS-2005>
0

> <r_mmod_RMS_Derivative-OPLS-2005>
2.43434715270996

$$$$
44
                    3D
 Structure written by MMmdl.
161170  0  0  1  0            999 V2000
  -30.6772  -14.6129   20.6039 C   0  0  0  0  0  0
  -30.4312  -12.4073   19.4505 C   0  0  0  0  0  0
  -29.5052  -12.5298   18.2211 C   0  0  0  0  0  0
  -28.0286  -12.3572   18.6256 C   0  0  0  0  0  0
  -27.6519  -13.2177   19.8584 C   0  0  2  0  0  0
  -28.6871  -13.0514   20.9863 C   0  0  0  0  0  0
  -25.2565  -13.8175   20.5684 C   0  0  0  0  0  0
  -24.1825  -13.0441   20.9175 C   0  0  0  0  0  0
  -24.6389  -11.6907   20.8709 C   0  0  0  0  0  0
  -23.9054  -10.4292   21.0393 C   0  0  0  0  0  0
  -24.3608   -9.4213   21.9177 C   0  0  0  0  0  0
  -23.6287   -8.2248   22.0752 C   0  0  0  0  0  0
  -22.4268   -8.0280   21.3546 C   0  0  0  0  0  0
  -21.9897   -9.0251   20.4649 C   0  0  0  0  0  0
  -22.7222  -10.2132   20.3052 C   0  0  0  0  0  0
  -21.6854   -6.0732   22.5278 C   0  0  0  0  0  0
  -21.4016   -6.5635   23.8210 C   0  0  0  0  0  0
  -21.3661   -5.6787   24.9172 C   0  0  0  0  0  0
  -21.6044   -4.3052   24.7222 C   0  0  0  0  0  0
  -21.8820   -3.8144   23.4343 C   0  0  0  0  0  0
  -21.9196   -4.6961   22.3400 C   0  0  0  0  0  0
  -22.7853  -13.5243   21.1848 C   0  0  0  0  0  0
  -22.1666   -4.2147   21.0979 F   0  0  0  0  0  0
  -21.5626   -3.4535   25.7736 F   0  0  0  0  0  0
  -30.0114  -13.4154   20.4506 N   0  0  0  0  0  0
  -26.2972  -12.9352   20.3259 N   0  0  0  0  0  0
  -25.9310  -11.6504   20.5689 N   0  0  0  0  0  0
  -22.0491  -12.8241   22.0405 N   0  0  0  0  0  0
  -25.4304  -15.1901   20.4174 N   0  0  0  0  0  0
  -31.7711  -14.7887   20.0570 O   0  0  0  0  0  0
  -21.6639   -6.8875   21.4239 O   0  0  0  0  0  0
  -22.3537  -14.5547   20.6693 O   0  0  0  0  0  0
  -24.6264  -31.8603   23.2037 C   0  0  0  0  0  0
  -25.9115  -32.4779   23.8362 C   0  0  1  0  0  0
  -27.2202  -27.3195   20.1097 C   0  0  0  0  0  0
  -25.5932  -33.8580   24.2287 N   0  0  0  0  0  0
  -23.4196  -30.4860   21.5466 C   0  0  2  0  0  0
  -24.8644  -28.9438   20.1113 C   0  0  0  0  0  0
  -22.7477  -29.4629   22.4936 C   0  0  0  0  0  0
  -18.0287  -28.1381   22.8485 C   0  0  0  0  0  0
  -24.1489  -36.7293   23.2636 C   0  0  0  0  0  0
  -25.9621  -30.7910   21.3756 C   0  0  0  0  0  0
  -26.0351  -29.4197   20.7149 C   0  0  0  0  0  0
  -27.2168  -28.6197   20.7039 C   0  0  0  0  0  0
  -26.0230  -26.8986   19.4838 C   0  0  0  0  0  0
  -24.8601  -27.6885   19.4878 C   0  0  0  0  0  0
  -23.6337  -29.8244   20.1611 C   0  0  0  0  0  0
  -25.4110  -36.3083   24.0331 C   0  0  1  0  0  0
  -20.5888  -28.3687   23.1283 C   0  0  2  0  0  0
  -20.6777  -26.9411   22.5408 C   0  0  0  0  0  0
  -19.5752  -26.6383   21.5209 C   0  0  0  0  0  0
  -18.1932  -26.7924   22.1622 C   0  0  0  0  0  0
  -19.1540  -28.8850   23.2880 C   0  0  0  0  0  0
  -18.9461  -30.1451   23.8895 C   0  0  0  0  0  0
  -17.6462  -30.6585   24.0559 C   0  0  0  0  0  0
  -25.9050  -34.9452   23.5107 C   0  0  0  0  0  0
  -16.5353  -29.9084   23.6328 C   0  0  0  0  0  0
  -16.7274  -28.6501   23.0350 C   0  0  0  0  0  0
  -26.4498  -31.6585   25.0731 C   0  0  0  0  0  0
  -25.3734  -31.3732   26.1462 C   0  0  0  0  0  0
  -27.0330  -30.3004   24.6187 C   0  0  0  0  0  0
  -27.6064  -32.4313   25.7496 C   0  0  0  0  0  0
  -27.5584  -37.1792   24.8458 C   0  0  0  0  0  0
  -21.4191  -29.3044   22.3678 N   0  0  0  0  0  0
  -26.4285  -37.3780   23.9418 N   0  0  0  0  0  0
  -24.6882  -31.0620   22.0985 N   0  0  0  0  0  0
  -23.4203  -28.8162   23.3009 O   0  0  0  0  0  0
  -28.3351  -26.4651   20.1543 O   0  0  0  0  0  0
  -26.5616  -34.8918   22.4672 O   0  0  0  0  0  0
  -23.5428  -32.1401   23.7365 O   0  0  0  0  0  0
  -30.6385  -19.1777   19.9334 C   0  0  0  0  0  0
  -30.7012  -17.7531   20.0575 C   0  0  0  0  0  0
  -29.0175  -17.8533   21.7652 C   0  0  0  0  0  0
  -29.7877  -19.9792   20.7485 C   0  0  0  0  0  0
  -29.9312  -17.0442   21.0244 C   0  0  0  0  0  0
  -28.9451  -19.2708   21.6394 C   0  0  0  0  0  0
  -30.9323  -21.8865   21.6626 C   0  0  0  0  0  0
  -31.1239  -23.3897   21.9240 C   0  0  0  0  0  0
  -29.8602  -24.2386   21.7470 C   0  0  0  0  0  0
  -28.9109  -22.4123   20.3032 C   0  0  0  0  0  0
  -29.2536  -23.9754   20.3741 C   0  0  1  0  0  0
  -30.0091  -15.3193   22.8074 C   0  0  0  0  0  0
  -28.0868  -25.0061   20.0519 C   0  0  0  0  0  0
  -29.9358  -21.4402   20.8462 N   0  0  0  0  0  0
  -30.0939  -15.6110   21.3647 N   0  0  0  0  0  0
  -31.7442  -21.1258   22.2028 O   0  0  0  0  0  0
  -28.1050  -19.9603   22.4489 F   0  0  0  0  0  0
  -31.4727  -12.5277   19.1480 H   0  0  0  0  0  0
  -30.3677  -11.4055   19.8788 H   0  0  0  0  0  0
  -29.7757  -11.7878   17.4689 H   0  0  0  0  0  0
  -29.6441  -13.5056   17.7528 H   0  0  0  0  0  0
  -27.8659  -11.3017   18.8473 H   0  0  0  0  0  0
  -27.3763  -12.5950   17.7846 H   0  0  0  0  0  0
  -27.6792  -14.2591   19.5360 H   0  0  0  0  0  0
  -28.7013  -12.0214   21.3451 H   0  0  0  0  0  0
  -28.3795  -13.6472   21.8403 H   0  0  0  0  0  0
  -25.2752   -9.5694   22.4751 H   0  0  0  0  0  0
  -24.0002   -7.4641   22.7470 H   0  0  0  0  0  0
  -21.0828   -8.8761   19.8960 H   0  0  0  0  0  0
  -22.3672  -10.9667   19.6160 H   0  0  0  0  0  0
  -21.2006   -7.6141   23.9709 H   0  0  0  0  0  0
  -21.1485   -6.0519   25.9074 H   0  0  0  0  0  0
  -22.0600   -2.7606   23.2839 H   0  0  0  0  0  0
  -22.4104  -11.9906   22.4801 H   0  0  0  0  0  0
  -21.1111  -13.1278   22.2608 H   0  0  0  0  0  0
  -24.6718  -15.8499   20.5502 H   0  0  0  0  0  0
  -26.2946  -15.6318   20.1290 H   0  0  0  0  0  0
  -26.7180  -32.5448   23.1109 H   0  0  0  0  0  0
  -25.0085  -33.9727   25.0435 H   0  0  0  0  0  0
  -22.7131  -31.3066   21.4055 H   0  0  0  0  0  0
  -23.3755  -35.9619   23.3281 H   0  0  0  0  0  0
  -24.3589  -36.8930   22.2055 H   0  0  0  0  0  0
  -23.7232  -37.6485   23.6668 H   0  0  0  0  0  0
  -26.0958  -31.5558   20.6092 H   0  0  0  0  0  0
  -26.8416  -30.8366   22.0062 H   0  0  0  0  0  0
  -28.1148  -28.9800   21.1860 H   0  0  0  0  0  0
  -25.9499  -25.9425   18.9894 H   0  0  0  0  0  0
  -23.9629  -27.3188   19.0109 H   0  0  0  0  0  0
  -23.7556  -30.6023   19.4065 H   0  0  0  0  0  0
  -22.7531  -29.2562   19.8562 H   0  0  0  0  0  0
  -25.1284  -36.1931   25.0821 H   0  0  0  0  0  0
  -20.9982  -28.3258   24.1402 H   0  0  0  0  0  0
  -20.5680  -26.2295   23.3606 H   0  0  0  0  0  0
  -21.6644  -26.7442   22.1200 H   0  0  0  0  0  0
  -19.6916  -25.6293   21.1239 H   0  0  0  0  0  0
  -19.6690  -27.3192   20.6738 H   0  0  0  0  0  0
  -17.4203  -26.6669   21.4023 H   0  0  0  0  0  0
  -18.0336  -26.0067   22.9021 H   0  0  0  0  0  0
  -19.7939  -30.7264   24.2268 H   0  0  0  0  0  0
  -17.5018  -31.6265   24.5163 H   0  0  0  0  0  0
  -15.5353  -30.2983   23.7653 H   0  0  0  0  0  0
  -15.8675  -28.0818   22.7064 H   0  0  0  0  0  0
  -24.5901  -30.7089   25.7796 H   0  0  0  0  0  0
  -24.8937  -32.2903   26.4891 H   0  0  0  0  0  0
  -25.8060  -30.8906   27.0236 H   0  0  0  0  0  0
  -26.2897  -29.6760   24.1215 H   0  0  0  0  0  0
  -27.4022  -29.7256   25.4692 H   0  0  0  0  0  0
  -27.8775  -30.4277   23.9411 H   0  0  0  0  0  0
  -27.2682  -33.3614   26.2078 H   0  0  0  0  0  0
  -28.3872  -32.6872   25.0320 H   0  0  0  0  0  0
  -28.0738  -31.8436   26.5407 H   0  0  0  0  0  0
  -28.2576  -38.0114   24.7540 H   0  0  0  0  0  0
  -28.1103  -36.2647   24.6228 H   0  0  0  0  0  0
  -27.2314  -37.1378   25.8863 H   0  0  0  0  0  0
  -20.9368  -29.8770   21.6894 H   0  0  0  0  0  0
  -26.0164  -38.2849   24.1443 H   0  0  0  0  0  0
  -31.3184  -19.6651   19.2488 H   0  0  0  0  0  0
  -31.4208  -17.2268   19.4470 H   0  0  0  0  0  0
  -28.3751  -17.3980   22.5030 H   0  0  0  0  0  0
  -31.9024  -23.7448   21.2478 H   0  0  0  0  0  0
  -31.5102  -23.5260   22.9345 H   0  0  0  0  0  0
  -30.1142  -25.2940   21.8518 H   0  0  0  0  0  0
  -29.1364  -24.0132   22.5320 H   0  0  0  0  0  0
  -28.6976  -22.1389   19.2698 H   0  0  0  0  0  0
  -27.9862  -22.2346   20.8532 H   0  0  0  0  0  0
  -30.0313  -24.1662   19.6325 H   0  0  0  0  0  0
  -30.5729  -16.0604   23.3758 H   0  0  0  0  0  0
  -30.4182  -14.3441   23.0823 H   0  0  0  0  0  0
  -28.9779  -15.3474   23.1589 H   0  0  0  0  0  0
  -27.2452  -24.7588   20.7012 H   0  0  0  0  0  0
  -27.7657  -24.7908   19.0325 H   0  0  0  0  0  0
  1 25  1  0  0  0
  1 30  2  0  0  0
  1 85  1  0  0  0
  2  3  1  0  0  0
  2 25  1  0  0  0
  2 88  1  0  0  0
  2 89  1  0  0  0
  3  4  1  0  0  0
  3 90  1  0  0  0
  3 91  1  0  0  0
  4  5  1  0  0  0
  4 92  1  0  0  0
  4 93  1  0  0  0
  5  6  1  0  0  0
  5 26  1  0  0  0
  5 94  1  0  0  0
  6 25  1  0  0  0
  6 95  1  0  0  0
  6 96  1  0  0  0
  7  8  2  0  0  0
  7 26  1  0  0  0
  7 29  1  0  0  0
  8  9  1  0  0  0
  8 22  1  0  0  0
  9 10  1  0  0  0
  9 27  2  0  0  0
 10 11  2  0  0  0
 10 15  1  0  0  0
 11 12  1  0  0  0
 11 97  1  0  0  0
 12 13  2  0  0  0
 12 98  1  0  0  0
 13 14  1  0  0  0
 13 31  1  0  0  0
 14 15  2  0  0  0
 14 99  1  0  0  0
 15100  1  0  0  0
 16 17  2  0  0  0
 16 21  1  0  0  0
 16 31  1  0  0  0
 17 18  1  0  0  0
 17101  1  0  0  0
 18 19  2  0  0  0
 18102  1  0  0  0
 19 20  1  0  0  0
 19 24  1  0  0  0
 20 21  2  0  0  0
 20103  1  0  0  0
 21 23  1  0  0  0
 22 28  1  0  0  0
 22 32  2  0  0  0
 26 27  1  0  0  0
 28104  1  0  0  0
 28105  1  0  0  0
 29106  1  0  0  0
 29107  1  0  0  0
 33 34  1  0  0  0
 33 66  1  0  0  0
 33 70  2  0  0  0
 34 36  1  0  0  0
 34 59  1  0  0  0
 34108  1  0  0  0
 35 44  2  0  0  0
 35 45  1  0  0  0
 35 68  1  0  0  0
 36 56  1  0  0  0
 36109  1  0  0  0
 37 39  1  0  0  0
 37 47  1  0  0  0
 37 66  1  0  0  0
 37110  1  0  0  0
 38 43  2  0  0  0
 38 46  1  0  0  0
 38 47  1  0  0  0
 39 64  1  0  0  0
 39 67  2  0  0  0
 40 52  1  0  0  0
 40 53  2  0  0  0
 40 58  1  0  0  0
 41111  1  0  0  0
 41112  1  0  0  0
 41113  1  0  0  0
 41 48  1  0  0  0
 42 43  1  0  0  0
 42 66  1  0  0  0
 42114  1  0  0  0
 42115  1  0  0  0
 43 44  1  0  0  0
 44116  1  0  0  0
 45 46  2  0  0  0
 45117  1  0  0  0
 46118  1  0  0  0
 47119  1  0  0  0
 47120  1  0  0  0
 48 56  1  0  0  0
 48 65  1  0  0  0
 48121  1  0  0  0
 49 50  1  0  0  0
 49 53  1  0  0  0
 49 64  1  0  0  0
 49122  1  0  0  0
 50 51  1  0  0  0
 50123  1  0  0  0
 50124  1  0  0  0
 51 52  1  0  0  0
 51125  1  0  0  0
 51126  1  0  0  0
 52127  1  0  0  0
 52128  1  0  0  0
 53 54  1  0  0  0
 54 55  2  0  0  0
 54129  1  0  0  0
 55 57  1  0  0  0
 55130  1  0  0  0
 56 69  2  0  0  0
 57 58  2  0  0  0
 57131  1  0  0  0
 58132  1  0  0  0
 59 60  1  0  0  0
 59 61  1  0  0  0
 59 62  1  0  0  0
 60133  1  0  0  0
 60134  1  0  0  0
 60135  1  0  0  0
 61136  1  0  0  0
 61137  1  0  0  0
 61138  1  0  0  0
 62139  1  0  0  0
 62140  1  0  0  0
 62141  1  0  0  0
 63 65  1  0  0  0
 63142  1  0  0  0
 63143  1  0  0  0
 63144  1  0  0  0
 64145  1  0  0  0
 65146  1  0  0  0
 68 83  1  0  0  0
 71 72  2  0  0  0
 71 74  1  0  0  0
 71147  1  0  0  0
 72 75  1  0  0  0
 72148  1  0  0  0
 73 75  2  0  0  0
 73 76  1  0  0  0
 73149  1  0  0  0
 74 76  2  0  0  0
 74 84  1  0  0  0
 75 85  1  0  0  0
 76 87  1  0  0  0
 77 78  1  0  0  0
 77 84  1  0  0  0
 77 86  2  0  0  0
 78 79  1  0  0  0
 78150  1  0  0  0
 78151  1  0  0  0
 79 81  1  0  0  0
 79152  1  0  0  0
 79153  1  0  0  0
 80 81  1  0  0  0
 80 84  1  0  0  0
 80154  1  0  0  0
 80155  1  0  0  0
 81 83  1  0  0  0
 81156  1  0  0  0
 82 85  1  0  0  0
 82157  1  0  0  0
 82158  1  0  0  0
 82159  1  0  0  0
 83160  1  0  0  0
 83161  1  0  0  0
M  ISO  4   1 100  68 101  83 101  85 100
M  END
> <chiral flag>
0

> <version>
0

> <s_m_source_file>
/data/baiqing/PycharmProjects/Reinvent-master-3.2/result/LINK_invent/BTK/process_docking_weight1_custom_product_contain_oxygen_bond_distance_aromatic_linkinvent_7_9_3/rearranged_h_0097.sdf

> <i_m_source_file_index>
45

> <r_mmod_Potential_Energy-OPLS-2005>
319.719573974609

> <r_mmod_Stretch_Energy-OPLS-2005>
93.9299240112305

> <r_mmod_Bend_Energy-OPLS-2005>
144.268081665039

> <r_mmod_Torsional_Energy-OPLS-2005>
363.361602783203

> <r_mmod_Improper_Torsional_Energy-OPLS-2005>
4.88285446166992

> <r_mmod_Van_der_Waal_Energy-OPLS-2005>
164.681228637695

> <r_mmod_Electrostatic_Energy-OPLS-2005>
-293.840515136719

> <r_mmod_Solvation_Energy-OPLS-2005>
-200.488433837891

> <b_mmod_Minimization_Converged-OPLS-2005>
0

> <r_mmod_RMS_Derivative-OPLS-2005>
0.57062166929245

$$$$
45
                    3D
 Structure written by MMmdl.
171180  0  0  1  0            999 V2000
  -30.7990  -14.4883   20.3887 C   0  0  0  0  0  0
  -30.3947  -12.2871   19.3886 C   0  0  0  0  0  0
  -29.4448  -12.3978   18.1790 C   0  0  0  0  0  0
  -27.9797  -12.3103   18.6353 C   0  0  0  0  0  0
  -27.6444  -13.2166   19.8504 C   0  0  2  0  0  0
  -28.7238  -13.1218   20.9554 C   0  0  0  0  0  0
  -25.2532  -13.8209   20.5706 C   0  0  0  0  0  0
  -24.1790  -13.0457   20.9227 C   0  0  0  0  0  0
  -24.6370  -11.6958   20.8818 C   0  0  0  0  0  0
  -23.9051  -10.4338   21.0416 C   0  0  0  0  0  0
  -24.3614   -9.4245   21.9174 C   0  0  0  0  0  0
  -23.6320   -8.2259   22.0734 C   0  0  0  0  0  0
  -22.4301   -8.0297   21.3525 C   0  0  0  0  0  0
  -21.9923   -9.0273   20.4635 C   0  0  0  0  0  0
  -22.7223  -10.2171   20.3060 C   0  0  0  0  0  0
  -21.6876   -6.0755   22.5250 C   0  0  0  0  0  0
  -21.4002   -6.5641   23.8172 C   0  0  0  0  0  0
  -21.3656   -5.6786   24.9128 C   0  0  0  0  0  0
  -21.6040   -4.3046   24.7176 C   0  0  0  0  0  0
  -21.8839   -3.8154   23.4304 C   0  0  0  0  0  0
  -21.9205   -4.6978   22.3367 C   0  0  0  0  0  0
  -22.7814  -13.5251   21.1864 C   0  0  0  0  0  0
  -22.1678   -4.2154   21.0951 F   0  0  0  0  0  0
  -21.5642   -3.4537   25.7699 F   0  0  0  0  0  0
  -30.0352  -13.3584   20.3333 N   0  0  0  0  0  0
  -26.2989  -12.9387   20.3470 N   0  0  0  0  0  0
  -25.9321  -11.6551   20.5968 N   0  0  0  0  0  0
  -22.0446  -12.8227   22.0398 N   0  0  0  0  0  0
  -25.4233  -15.1908   20.3994 N   0  0  0  0  0  0
  -32.0061  -14.4412   20.1655 O   0  0  0  0  0  0
  -21.6669   -6.8888   21.4215 O   0  0  0  0  0  0
  -22.3522  -14.5569   20.6744 O   0  0  0  0  0  0
  -24.6155  -31.8618   23.2090 C   0  0  0  0  0  0
  -25.9044  -32.4789   23.8374 C   0  0  1  0  0  0
  -27.2640  -27.4254   20.0859 C   0  0  0  0  0  0
  -25.5899  -33.8584   24.2296 N   0  0  0  0  0  0
  -23.4075  -30.4831   21.5445 C   0  0  2  0  0  0
  -24.8589  -28.9337   20.1142 C   0  0  0  0  0  0
  -22.7410  -29.4627   22.4957 C   0  0  0  0  0  0
  -18.0257  -28.1382   22.8517 C   0  0  0  0  0  0
  -24.1464  -36.7284   23.2648 C   0  0  0  0  0  0
  -25.9390  -30.8055   21.3802 C   0  0  0  0  0  0
  -26.0100  -29.4414   20.7242 C   0  0  0  0  0  0
  -27.2048  -28.6883   20.7139 C   0  0  0  0  0  0
  -26.0934  -26.9159   19.4773 C   0  0  0  0  0  0
  -24.8954  -27.6719   19.4879 C   0  0  0  0  0  0
  -23.6216  -29.8096   20.1594 C   0  0  0  0  0  0
  -25.4106  -36.3094   24.0340 C   0  0  1  0  0  0
  -20.5859  -28.3651   23.1331 C   0  0  2  0  0  0
  -20.6750  -26.9393   22.5429 C   0  0  0  0  0  0
  -19.5723  -26.6412   21.5214 C   0  0  0  0  0  0
  -18.1896  -26.7948   22.1630 C   0  0  0  0  0  0
  -19.1512  -28.8836   23.2925 C   0  0  0  0  0  0
  -18.9451  -30.1448   23.8927 C   0  0  0  0  0  0
  -17.6456  -30.6588   24.0581 C   0  0  0  0  0  0
  -25.9055  -34.9455   23.5127 C   0  0  0  0  0  0
  -16.5342  -29.9092   23.6354 C   0  0  0  0  0  0
  -16.7254  -28.6516   23.0372 C   0  0  0  0  0  0
  -26.4493  -31.6606   25.0724 C   0  0  0  0  0  0
  -25.3785  -31.3726   26.1500 C   0  0  0  0  0  0
  -27.0343  -30.3035   24.6165 C   0  0  0  0  0  0
  -27.6054  -32.4377   25.7469 C   0  0  0  0  0  0
  -27.5577  -37.1808   24.8473 C   0  0  0  0  0  0
  -21.4141  -29.3017   22.3723 N   0  0  0  0  0  0
  -26.4285  -37.3791   23.9420 N   0  0  0  0  0  0
  -24.6706  -31.0678   22.1010 N   0  0  0  0  0  0
  -23.4165  -28.8164   23.3016 O   0  0  0  0  0  0
  -28.4989  -26.8029   20.0952 O   0  0  0  0  0  0
  -26.5594  -34.8928   22.4673 O   0  0  0  0  0  0
  -23.5344  -32.1404   23.7477 O   0  0  0  0  0  0
  -31.7342  -18.8574   21.3818 C   0  0  0  0  0  0
  -29.3549  -17.8931   20.3140 C   0  0  0  0  0  0
  -31.5411  -17.4585   21.2873 C   0  0  0  0  0  0
  -30.8064  -19.7752   20.8510 C   0  0  0  0  0  0
  -30.3664  -16.9554   20.6375 C   0  0  0  0  0  0
  -29.5770  -19.2923   20.3549 C   0  0  0  0  0  0
  -30.5055  -22.6605   22.5153 C   0  0  0  0  0  0
  -29.8427  -23.9483   23.0082 C   0  0  0  0  0  0
  -29.6633  -24.9956   21.9027 C   0  0  0  0  0  0
  -29.6997  -23.1548   20.1867 C   0  0  0  0  0  0
  -28.9314  -24.4152   20.6887 C   0  0  2  0  0  0
  -32.6905  -16.6193   21.8259 C   0  0  0  0  0  0
  -29.9523  -15.7510   18.5669 C   0  0  0  0  0  0
  -27.5179  -19.7410   19.1877 C   0  0  0  0  0  0
  -31.2409  -21.2387   20.6707 C   0  0  0  0  0  0
  -28.7686  -25.4940   19.5726 C   0  0  0  0  0  0
  -30.3782  -22.3123   21.2119 N   0  0  0  0  0  0
  -30.1749  -15.6444   20.0354 N   0  0  0  0  0  0
  -31.1624  -22.0010   23.3279 O   0  0  0  0  0  0
  -28.6874  -20.2095   19.8445 O   0  0  0  0  0  0
  -31.4283  -12.3486   19.0364 H   0  0  0  0  0  0
  -30.2961  -11.3076   19.8590 H   0  0  0  0  0  0
  -29.6528  -11.5951   17.4697 H   0  0  0  0  0  0
  -29.5997  -13.3129   17.6161 H   0  0  0  0  0  0
  -27.7949  -11.2681   18.9017 H   0  0  0  0  0  0
  -27.3073  -12.5341   17.8065 H   0  0  0  0  0  0
  -27.6363  -14.2404   19.4849 H   0  0  0  0  0  0
  -28.7075  -12.1360   21.4210 H   0  0  0  0  0  0
  -28.5303  -13.8485   21.7446 H   0  0  0  0  0  0
  -25.2736   -9.5763   22.4766 H   0  0  0  0  0  0
  -24.0054   -7.4646   22.7451 H   0  0  0  0  0  0
  -21.0844   -8.8792   19.8958 H   0  0  0  0  0  0
  -22.3629  -10.9741   19.6212 H   0  0  0  0  0  0
  -21.1986   -7.6146   23.9667 H   0  0  0  0  0  0
  -21.1447   -6.0507   25.9027 H   0  0  0  0  0  0
  -22.0632   -2.7635   23.2772 H   0  0  0  0  0  0
  -22.4080  -11.9890   22.4775 H   0  0  0  0  0  0
  -21.1060  -13.1265   22.2597 H   0  0  0  0  0  0
  -24.6617  -15.8547   20.4854 H   0  0  0  0  0  0
  -26.2847  -15.6190   20.0877 H   0  0  0  0  0  0
  -26.7093  -32.5468   23.1106 H   0  0  0  0  0  0
  -25.0111  -33.9723   25.0481 H   0  0  0  0  0  0
  -22.7034  -31.3057   21.4032 H   0  0  0  0  0  0
  -23.3728  -35.9621   23.3376 H   0  0  0  0  0  0
  -24.3561  -36.8820   22.2056 H   0  0  0  0  0  0
  -23.7229  -37.6515   23.6613 H   0  0  0  0  0  0
  -26.0849  -31.5712   20.6187 H   0  0  0  0  0  0
  -26.8139  -30.8378   22.0171 H   0  0  0  0  0  0
  -28.0953  -29.0719   21.1940 H   0  0  0  0  0  0
  -26.0894  -25.9555   18.9834 H   0  0  0  0  0  0
  -24.0150  -27.2836   18.9965 H   0  0  0  0  0  0
  -23.7515  -30.5829   19.4021 H   0  0  0  0  0  0
  -22.7396  -29.2455   19.8528 H   0  0  0  0  0  0
  -25.1304  -36.1954   25.0838 H   0  0  0  0  0  0
  -20.9985  -28.3203   24.1434 H   0  0  0  0  0  0
  -20.5624  -26.2265   23.3614 H   0  0  0  0  0  0
  -21.6623  -26.7414   22.1225 H   0  0  0  0  0  0
  -19.6869  -25.6332   21.1204 H   0  0  0  0  0  0
  -19.6641  -27.3269   20.6772 H   0  0  0  0  0  0
  -17.4185  -26.6727   21.4008 H   0  0  0  0  0  0
  -18.0268  -26.0062   22.8996 H   0  0  0  0  0  0
  -19.7915  -30.7256   24.2306 H   0  0  0  0  0  0
  -17.5008  -31.6264   24.5188 H   0  0  0  0  0  0
  -15.5349  -30.2997   23.7670 H   0  0  0  0  0  0
  -15.8665  -28.0837   22.7071 H   0  0  0  0  0  0
  -24.5856  -30.7196   25.7845 H   0  0  0  0  0  0
  -24.9117  -32.2898   26.5093 H   0  0  0  0  0  0
  -25.8167  -30.8763   27.0162 H   0  0  0  0  0  0
  -26.2877  -29.6761   24.1282 H   0  0  0  0  0  0
  -27.4148  -29.7329   25.4645 H   0  0  0  0  0  0
  -27.8715  -30.4338   23.9308 H   0  0  0  0  0  0
  -27.2625  -33.3660   26.2055 H   0  0  0  0  0  0
  -28.3836  -32.6981   25.0281 H   0  0  0  0  0  0
  -28.0756  -31.8519   26.5379 H   0  0  0  0  0  0
  -28.2636  -38.0063   24.7517 H   0  0  0  0  0  0
  -28.1027  -36.2618   24.6308 H   0  0  0  0  0  0
  -27.2305  -37.1470   25.8871 H   0  0  0  0  0  0
  -20.9318  -29.8753   21.6955 H   0  0  0  0  0  0
  -26.0171  -38.2863   24.1421 H   0  0  0  0  0  0
  -32.6647  -19.2292   21.7907 H   0  0  0  0  0  0
  -28.4459  -17.5074   19.8786 H   0  0  0  0  0  0
  -30.4526  -24.3764   23.8047 H   0  0  0  0  0  0
  -28.8814  -23.6896   23.4519 H   0  0  0  0  0  0
  -30.6335  -25.3909   21.5931 H   0  0  0  0  0  0
  -29.1004  -25.8362   22.3068 H   0  0  0  0  0  0
  -30.4729  -23.4675   19.4837 H   0  0  0  0  0  0
  -29.0116  -22.5448   19.6053 H   0  0  0  0  0  0
  -27.9349  -24.1027   21.0082 H   0  0  0  0  0  0
  -33.2429  -17.1453   22.6066 H   0  0  0  0  0  0
  -33.4042  -16.3969   21.0300 H   0  0  0  0  0  0
  -32.3442  -15.6963   22.2869 H   0  0  0  0  0  0
  -28.9492  -15.4437   18.2736 H   0  0  0  0  0  0
  -30.6692  -15.1661   17.9852 H   0  0  0  0  0  0
  -30.0876  -16.7616   18.1825 H   0  0  0  0  0  0
  -27.0441  -20.5705   18.6632 H   0  0  0  0  0  0
  -26.8033  -19.3480   19.9119 H   0  0  0  0  0  0
  -27.7367  -18.9799   18.4377 H   0  0  0  0  0  0
  -31.3720  -21.3877   19.5997 H   0  0  0  0  0  0
  -32.2508  -21.3616   21.0690 H   0  0  0  0  0  0
  -28.1171  -25.1832   18.7556 H   0  0  0  0  0  0
  -29.7504  -25.6057   19.1097 H   0  0  0  0  0  0
  1 25  1  0  0  0
  1 30  2  0  0  0
  1 88  1  0  0  0
  2  3  1  0  0  0
  2 25  1  0  0  0
  2 91  1  0  0  0
  2 92  1  0  0  0
  3  4  1  0  0  0
  3 93  1  0  0  0
  3 94  1  0  0  0
  4  5  1  0  0  0
  4 95  1  0  0  0
  4 96  1  0  0  0
  5  6  1  0  0  0
  5 26  1  0  0  0
  5 97  1  0  0  0
  6 25  1  0  0  0
  6 98  1  0  0  0
  6 99  1  0  0  0
  7  8  2  0  0  0
  7 26  1  0  0  0
  7 29  1  0  0  0
  8  9  1  0  0  0
  8 22  1  0  0  0
  9 10  1  0  0  0
  9 27  2  0  0  0
 10 11  2  0  0  0
 10 15  1  0  0  0
 11 12  1  0  0  0
 11100  1  0  0  0
 12 13  2  0  0  0
 12101  1  0  0  0
 13 14  1  0  0  0
 13 31  1  0  0  0
 14 15  2  0  0  0
 14102  1  0  0  0
 15103  1  0  0  0
 16 17  2  0  0  0
 16 21  1  0  0  0
 16 31  1  0  0  0
 17 18  1  0  0  0
 17104  1  0  0  0
 18 19  2  0  0  0
 18105  1  0  0  0
 19 20  1  0  0  0
 19 24  1  0  0  0
 20 21  2  0  0  0
 20106  1  0  0  0
 21 23  1  0  0  0
 22 28  1  0  0  0
 22 32  2  0  0  0
 26 27  1  0  0  0
 28107  1  0  0  0
 28108  1  0  0  0
 29109  1  0  0  0
 29110  1  0  0  0
 33 34  1  0  0  0
 33 66  1  0  0  0
 33 70  2  0  0  0
 34 36  1  0  0  0
 34 59  1  0  0  0
 34111  1  0  0  0
 35 44  2  0  0  0
 35 45  1  0  0  0
 35 68  1  0  0  0
 36 56  1  0  0  0
 36112  1  0  0  0
 37 39  1  0  0  0
 37 47  1  0  0  0
 37 66  1  0  0  0
 37113  1  0  0  0
 38 43  2  0  0  0
 38 46  1  0  0  0
 38 47  1  0  0  0
 39 64  1  0  0  0
 39 67  2  0  0  0
 40 52  1  0  0  0
 40 53  2  0  0  0
 40 58  1  0  0  0
 41114  1  0  0  0
 41115  1  0  0  0
 41116  1  0  0  0
 41 48  1  0  0  0
 42 43  1  0  0  0
 42 66  1  0  0  0
 42117  1  0  0  0
 42118  1  0  0  0
 43 44  1  0  0  0
 44119  1  0  0  0
 45 46  2  0  0  0
 45120  1  0  0  0
 46121  1  0  0  0
 47122  1  0  0  0
 47123  1  0  0  0
 48 56  1  0  0  0
 48 65  1  0  0  0
 48124  1  0  0  0
 49 50  1  0  0  0
 49 53  1  0  0  0
 49 64  1  0  0  0
 49125  1  0  0  0
 50 51  1  0  0  0
 50126  1  0  0  0
 50127  1  0  0  0
 51 52  1  0  0  0
 51128  1  0  0  0
 51129  1  0  0  0
 52130  1  0  0  0
 52131  1  0  0  0
 53 54  1  0  0  0
 54 55  2  0  0  0
 54132  1  0  0  0
 55 57  1  0  0  0
 55133  1  0  0  0
 56 69  2  0  0  0
 57 58  2  0  0  0
 57134  1  0  0  0
 58135  1  0  0  0
 59 60  1  0  0  0
 59 61  1  0  0  0
 59 62  1  0  0  0
 60136  1  0  0  0
 60137  1  0  0  0
 60138  1  0  0  0
 61139  1  0  0  0
 61140  1  0  0  0
 61141  1  0  0  0
 62142  1  0  0  0
 62143  1  0  0  0
 62144  1  0  0  0
 63 65  1  0  0  0
 63145  1  0  0  0
 63146  1  0  0  0
 63147  1  0  0  0
 64148  1  0  0  0
 65149  1  0  0  0
 68 86  1  0  0  0
 71 73  2  0  0  0
 71 74  1  0  0  0
 71150  1  0  0  0
 72 75  2  0  0  0
 72 76  1  0  0  0
 72151  1  0  0  0
 73 75  1  0  0  0
 73 82  1  0  0  0
 74 76  2  0  0  0
 74 85  1  0  0  0
 75 88  1  0  0  0
 76 90  1  0  0  0
 77 78  1  0  0  0
 77 87  1  0  0  0
 77 89  2  0  0  0
 78 79  1  0  0  0
 78152  1  0  0  0
 78153  1  0  0  0
 79 81  1  0  0  0
 79154  1  0  0  0
 79155  1  0  0  0
 80 81  1  0  0  0
 80 87  1  0  0  0
 80156  1  0  0  0
 80157  1  0  0  0
 81 86  1  0  0  0
 81158  1  0  0  0
 82159  1  0  0  0
 82160  1  0  0  0
 82161  1  0  0  0
 83 88  1  0  0  0
 83162  1  0  0  0
 83163  1  0  0  0
 83164  1  0  0  0
 84 90  1  0  0  0
 84165  1  0  0  0
 84166  1  0  0  0
 84167  1  0  0  0
 85 87  1  0  0  0
 85168  1  0  0  0
 85169  1  0  0  0
 86170  1  0  0  0
 86171  1  0  0  0
M  ISO  4   1 100  68 101  86 101  88 100
M  END
> <chiral flag>
0

> <version>
0

> <s_m_source_file>
/data/baiqing/PycharmProjects/Reinvent-master-3.2/result/LINK_invent/BTK/process_docking_weight1_custom_product_contain_oxygen_bond_distance_aromatic_linkinvent_7_9_3/rearranged_h_0097.sdf

> <i_m_source_file_index>
46

> <r_mmod_Potential_Energy-OPLS-2005>
304.394348144531

> <r_mmod_Stretch_Energy-OPLS-2005>
52.1680564880371

> <r_mmod_Bend_Energy-OPLS-2005>
174.325424194336

> <r_mmod_Torsional_Energy-OPLS-2005>
352.153045654297

> <r_mmod_Improper_Torsional_Energy-OPLS-2005>
30.303165435791

> <r_mmod_Van_der_Waal_Energy-OPLS-2005>
188.687133789062

> <r_mmod_Electrostatic_Energy-OPLS-2005>
-322.351409912109

> <r_mmod_Solvation_Energy-OPLS-2005>
-212.824600219727

> <b_mmod_Minimization_Converged-OPLS-2005>
0

> <r_mmod_RMS_Derivative-OPLS-2005>
5.61966800689697

$$$$
46
                    3D
 Structure written by MMmdl.
161170  0  0  1  0            999 V2000
  -30.6902  -14.6358   20.5649 C   0  0  0  0  0  0
  -30.4251  -12.4112   19.4589 C   0  0  0  0  0  0
  -29.5035  -12.5274   18.2268 C   0  0  0  0  0  0
  -28.0317  -12.3488   18.6392 C   0  0  0  0  0  0
  -27.6511  -13.2270   19.8593 C   0  0  2  0  0  0
  -28.6912  -13.1102   20.9940 C   0  0  0  0  0  0
  -25.2554  -13.8194   20.5690 C   0  0  0  0  0  0
  -24.1825  -13.0447   20.9178 C   0  0  0  0  0  0
  -24.6402  -11.6924   20.8728 C   0  0  0  0  0  0
  -23.9076  -10.4301   21.0392 C   0  0  0  0  0  0
  -24.3630   -9.4214   21.9169 C   0  0  0  0  0  0
  -23.6309   -8.2247   22.0745 C   0  0  0  0  0  0
  -22.4291   -8.0277   21.3538 C   0  0  0  0  0  0
  -21.9917   -9.0248   20.4644 C   0  0  0  0  0  0
  -22.7243  -10.2126   20.3045 C   0  0  0  0  0  0
  -21.6856   -6.0737   22.5287 C   0  0  0  0  0  0
  -21.4009   -6.5646   23.8217 C   0  0  0  0  0  0
  -21.3658   -5.6792   24.9180 C   0  0  0  0  0  0
  -21.6042   -4.3055   24.7227 C   0  0  0  0  0  0
  -21.8821   -3.8144   23.4353 C   0  0  0  0  0  0
  -21.9195   -4.6964   22.3412 C   0  0  0  0  0  0
  -22.7851  -13.5231   21.1851 C   0  0  0  0  0  0
  -22.1664   -4.2151   21.0991 F   0  0  0  0  0  0
  -21.5629   -3.4536   25.7741 F   0  0  0  0  0  0
  -30.0138  -13.4426   20.4393 N   0  0  0  0  0  0
  -26.2985  -12.9395   20.3304 N   0  0  0  0  0  0
  -25.9333  -11.6541   20.5731 N   0  0  0  0  0  0
  -22.0510  -12.8219   22.0419 N   0  0  0  0  0  0
  -25.4294  -15.1911   20.4145 N   0  0  0  0  0  0
  -31.7870  -14.7932   20.0209 O   0  0  0  0  0  0
  -21.6647   -6.8877   21.4243 O   0  0  0  0  0  0
  -22.3528  -14.5533   20.6701 O   0  0  0  0  0  0
  -24.6291  -31.8572   23.2015 C   0  0  0  0  0  0
  -25.9137  -32.4762   23.8352 C   0  0  1  0  0  0
  -27.2152  -27.2851   20.1051 C   0  0  0  0  0  0
  -25.5952  -33.8565   24.2274 N   0  0  0  0  0  0
  -23.4236  -30.4819   21.5440 C   0  0  2  0  0  0
  -24.8686  -28.9360   20.1042 C   0  0  0  0  0  0
  -22.7498  -29.4607   22.4917 C   0  0  0  0  0  0
  -18.0297  -28.1383   22.8487 C   0  0  0  0  0  0
  -24.1496  -36.7276   23.2631 C   0  0  0  0  0  0
  -25.9686  -30.7722   21.3825 C   0  0  0  0  0  0
  -26.0373  -29.3982   20.7223 C   0  0  0  0  0  0
  -27.2073  -28.5769   20.7268 C   0  0  0  0  0  0
  -26.0280  -26.8938   19.4585 C   0  0  0  0  0  0
  -24.8670  -27.6882   19.4652 C   0  0  0  0  0  0
  -23.6394  -29.8196   20.1573 C   0  0  0  0  0  0
  -25.4112  -36.3069   24.0334 C   0  0  1  0  0  0
  -20.5901  -28.3687   23.1278 C   0  0  2  0  0  0
  -20.6784  -26.9410   22.5401 C   0  0  0  0  0  0
  -19.5755  -26.6377   21.5213 C   0  0  0  0  0  0
  -18.1937  -26.7921   22.1625 C   0  0  0  0  0  0
  -19.1548  -28.8852   23.2875 C   0  0  0  0  0  0
  -18.9461  -30.1458   23.8882 C   0  0  0  0  0  0
  -17.6457  -30.6581   24.0558 C   0  0  0  0  0  0
  -25.9061  -34.9446   23.5101 C   0  0  0  0  0  0
  -16.5352  -29.9073   23.6342 C   0  0  0  0  0  0
  -16.7280  -28.6496   23.0356 C   0  0  0  0  0  0
  -26.4502  -31.6583   25.0741 C   0  0  0  0  0  0
  -25.3732  -31.3753   26.1478 C   0  0  0  0  0  0
  -27.0312  -30.2984   24.6223 C   0  0  0  0  0  0
  -27.6086  -32.4313   25.7488 C   0  0  0  0  0  0
  -27.5594  -37.1768   24.8438 C   0  0  0  0  0  0
  -21.4207  -29.3034   22.3663 N   0  0  0  0  0  0
  -26.4265  -37.3788   23.9447 N   0  0  0  0  0  0
  -24.6925  -31.0562   22.0982 N   0  0  0  0  0  0
  -23.4214  -28.8155   23.3009 O   0  0  0  0  0  0
  -28.3081  -26.4017   20.2046 O   0  0  0  0  0  0
  -26.5621  -34.8922   22.4666 O   0  0  0  0  0  0
  -23.5452  -32.1383   23.7334 O   0  0  0  0  0  0
  -28.8497  -18.6987   19.3425 C   0  0  0  0  0  0
  -29.7301  -19.5113   21.4126 C   0  0  0  0  0  0
  -29.2589  -17.3651   19.6606 C   0  0  0  0  0  0
  -30.1238  -18.1731   21.7410 C   0  0  0  0  0  0
  -29.0324  -19.8152   20.2168 C   0  0  0  0  0  0
  -29.8759  -17.0424   20.8962 C   0  0  0  0  0  0
  -26.7230  -23.3051   19.0378 C   0  0  0  0  0  0
  -26.1130  -22.1659   19.8375 C   0  0  0  0  0  0
  -26.9634  -20.8934   19.6880 C   0  0  0  0  0  0
  -28.8569  -22.4985   20.2712 C   0  0  0  0  0  0
  -28.1767  -23.6584   19.3677 C   0  0  2  0  0  0
  -30.3504  -15.4423   22.7718 C   0  0  0  0  0  0
  -28.5548  -25.2476   19.2902 C   0  0  0  0  0  0
  -28.4027  -21.0889   19.9317 N   0  0  0  0  0  0
  -30.1484  -15.6494   21.3311 N   0  0  0  0  0  0
  -26.1148  -23.8075   18.0879 O   0  0  0  0  0  0
  -31.4704  -12.5090   19.1611 H   0  0  0  0  0  0
  -30.3409  -11.4187   19.9047 H   0  0  0  0  0  0
  -29.7763  -11.7827   17.4784 H   0  0  0  0  0  0
  -29.6384  -13.5026   17.7548 H   0  0  0  0  0  0
  -27.8832  -11.2958   18.8824 H   0  0  0  0  0  0
  -27.3723  -12.5619   17.7980 H   0  0  0  0  0  0
  -27.6644  -14.2597   19.5096 H   0  0  0  0  0  0
  -28.7037  -12.1012   21.4086 H   0  0  0  0  0  0
  -28.4086  -13.7689   21.8145 H   0  0  0  0  0  0
  -25.2778   -9.5698   22.4731 H   0  0  0  0  0  0
  -24.0028   -7.4637   22.7459 H   0  0  0  0  0  0
  -21.0844   -8.8757   19.8955 H   0  0  0  0  0  0
  -22.3697  -10.9655   19.6149 H   0  0  0  0  0  0
  -21.1995   -7.6153   23.9726 H   0  0  0  0  0  0
  -21.1475   -6.0521   25.9082 H   0  0  0  0  0  0
  -22.0597   -2.7607   23.2849 H   0  0  0  0  0  0
  -22.4134  -11.9873   22.4791 H   0  0  0  0  0  0
  -21.1120  -13.1220   22.2634 H   0  0  0  0  0  0
  -24.6725  -15.8536   20.5374 H   0  0  0  0  0  0
  -26.2988  -15.6288   20.1372 H   0  0  0  0  0  0
  -26.7208  -32.5405   23.1101 H   0  0  0  0  0  0
  -25.0149  -33.9707   25.0451 H   0  0  0  0  0  0
  -22.7189  -31.3038   21.4027 H   0  0  0  0  0  0
  -23.3795  -35.9563   23.3195 H   0  0  0  0  0  0
  -24.3606  -36.8986   22.2063 H   0  0  0  0  0  0
  -23.7182  -37.6425   23.6703 H   0  0  0  0  0  0
  -26.1122  -31.5358   20.6168 H   0  0  0  0  0  0
  -26.8457  -30.8139   22.0169 H   0  0  0  0  0  0
  -28.0965  -28.9178   21.2383 H   0  0  0  0  0  0
  -25.9587  -25.9460   18.9683 H   0  0  0  0  0  0
  -23.9734  -27.3262   18.9764 H   0  0  0  0  0  0
  -23.7601  -30.5982   19.4038 H   0  0  0  0  0  0
  -22.7584  -29.2521   19.8532 H   0  0  0  0  0  0
  -25.1284  -36.1894   25.0819 H   0  0  0  0  0  0
  -20.9997  -28.3254   24.1402 H   0  0  0  0  0  0
  -20.5682  -26.2307   23.3608 H   0  0  0  0  0  0
  -21.6650  -26.7424   22.1195 H   0  0  0  0  0  0
  -19.6910  -25.6284   21.1252 H   0  0  0  0  0  0
  -19.6703  -27.3182   20.6744 H   0  0  0  0  0  0
  -17.4218  -26.6694   21.4017 H   0  0  0  0  0  0
  -18.0316  -26.0051   22.9011 H   0  0  0  0  0  0
  -19.7933  -30.7285   24.2240 H   0  0  0  0  0  0
  -17.5008  -31.6258   24.5163 H   0  0  0  0  0  0
  -15.5347  -30.2963   23.7668 H   0  0  0  0  0  0
  -15.8690  -28.0802   22.7073 H   0  0  0  0  0  0
  -24.5889  -30.7118   25.7812 H   0  0  0  0  0  0
  -24.8954  -32.2937   26.4905 H   0  0  0  0  0  0
  -25.8058  -30.8922   27.0249 H   0  0  0  0  0  0
  -26.2862  -29.6760   24.1251 H   0  0  0  0  0  0
  -27.3962  -29.7236   25.4741 H   0  0  0  0  0  0
  -27.8782  -30.4223   23.9473 H   0  0  0  0  0  0
  -27.2714  -33.3638   26.2026 H   0  0  0  0  0  0
  -28.3908  -32.6814   25.0308 H   0  0  0  0  0  0
  -28.0735  -31.8449   26.5422 H   0  0  0  0  0  0
  -28.2521  -38.0160   24.7639 H   0  0  0  0  0  0
  -28.1182  -36.2706   24.6055 H   0  0  0  0  0  0
  -27.2351  -37.1153   25.8840 H   0  0  0  0  0  0
  -20.9391  -29.8772   21.6883 H   0  0  0  0  0  0
  -26.0133  -38.2836   24.1546 H   0  0  0  0  0  0
  -28.3409  -18.8465   18.4014 H   0  0  0  0  0  0
  -29.9092  -20.2943   22.1360 H   0  0  0  0  0  0
  -29.0362  -16.5778   18.9548 H   0  0  0  0  0  0
  -30.6035  -18.0331   22.6980 H   0  0  0  0  0  0
  -25.0955  -21.9789   19.4941 H   0  0  0  0  0  0
  -26.0473  -22.4647   20.8834 H   0  0  0  0  0  0
  -26.8244  -20.5040   18.6789 H   0  0  0  0  0  0
  -26.5702  -20.1325   20.3650 H   0  0  0  0  0  0
  -28.6532  -22.6930   21.3253 H   0  0  0  0  0  0
  -29.9401  -22.5467   20.1573 H   0  0  0  0  0  0
  -28.6121  -23.3658   18.4115 H   0  0  0  0  0  0
  -29.5897  -15.9652   23.3518 H   0  0  0  0  0  0
  -31.3320  -15.8119   23.0734 H   0  0  0  0  0  0
  -30.2991  -14.3911   23.0667 H   0  0  0  0  0  0
  -28.2151  -25.5906   18.3122 H   0  0  0  0  0  0
  -29.6394  -25.2569   19.1807 H   0  0  0  0  0  0
  1 25  1  0  0  0
  1 30  2  0  0  0
  1 85  1  0  0  0
  2  3  1  0  0  0
  2 25  1  0  0  0
  2 87  1  0  0  0
  2 88  1  0  0  0
  3  4  1  0  0  0
  3 89  1  0  0  0
  3 90  1  0  0  0
  4  5  1  0  0  0
  4 91  1  0  0  0
  4 92  1  0  0  0
  5  6  1  0  0  0
  5 26  1  0  0  0
  5 93  1  0  0  0
  6 25  1  0  0  0
  6 94  1  0  0  0
  6 95  1  0  0  0
  7  8  2  0  0  0
  7 26  1  0  0  0
  7 29  1  0  0  0
  8  9  1  0  0  0
  8 22  1  0  0  0
  9 10  1  0  0  0
  9 27  2  0  0  0
 10 11  2  0  0  0
 10 15  1  0  0  0
 11 12  1  0  0  0
 11 96  1  0  0  0
 12 13  2  0  0  0
 12 97  1  0  0  0
 13 14  1  0  0  0
 13 31  1  0  0  0
 14 15  2  0  0  0
 14 98  1  0  0  0
 15 99  1  0  0  0
 16 17  2  0  0  0
 16 21  1  0  0  0
 16 31  1  0  0  0
 17 18  1  0  0  0
 17100  1  0  0  0
 18 19  2  0  0  0
 18101  1  0  0  0
 19 20  1  0  0  0
 19 24  1  0  0  0
 20 21  2  0  0  0
 20102  1  0  0  0
 21 23  1  0  0  0
 22 28  1  0  0  0
 22 32  2  0  0  0
 26 27  1  0  0  0
 28103  1  0  0  0
 28104  1  0  0  0
 29105  1  0  0  0
 29106  1  0  0  0
 33 34  1  0  0  0
 33 66  1  0  0  0
 33 70  2  0  0  0
 34 36  1  0  0  0
 34 59  1  0  0  0
 34107  1  0  0  0
 35 44  2  0  0  0
 35 45  1  0  0  0
 35 68  1  0  0  0
 36 56  1  0  0  0
 36108  1  0  0  0
 37 39  1  0  0  0
 37 47  1  0  0  0
 37 66  1  0  0  0
 37109  1  0  0  0
 38 43  2  0  0  0
 38 46  1  0  0  0
 38 47  1  0  0  0
 39 64  1  0  0  0
 39 67  2  0  0  0
 40 52  1  0  0  0
 40 53  2  0  0  0
 40 58  1  0  0  0
 41110  1  0  0  0
 41111  1  0  0  0
 41112  1  0  0  0
 41 48  1  0  0  0
 42 43  1  0  0  0
 42 66  1  0  0  0
 42113  1  0  0  0
 42114  1  0  0  0
 43 44  1  0  0  0
 44115  1  0  0  0
 45 46  2  0  0  0
 45116  1  0  0  0
 46117  1  0  0  0
 47118  1  0  0  0
 47119  1  0  0  0
 48 56  1  0  0  0
 48 65  1  0  0  0
 48120  1  0  0  0
 49 50  1  0  0  0
 49 53  1  0  0  0
 49 64  1  0  0  0
 49121  1  0  0  0
 50 51  1  0  0  0
 50122  1  0  0  0
 50123  1  0  0  0
 51 52  1  0  0  0
 51124  1  0  0  0
 51125  1  0  0  0
 52126  1  0  0  0
 52127  1  0  0  0
 53 54  1  0  0  0
 54 55  2  0  0  0
 54128  1  0  0  0
 55 57  1  0  0  0
 55129  1  0  0  0
 56 69  2  0  0  0
 57 58  2  0  0  0
 57130  1  0  0  0
 58131  1  0  0  0
 59 60  1  0  0  0
 59 61  1  0  0  0
 59 62  1  0  0  0
 60132  1  0  0  0
 60133  1  0  0  0
 60134  1  0  0  0
 61135  1  0  0  0
 61136  1  0  0  0
 61137  1  0  0  0
 62138  1  0  0  0
 62139  1  0  0  0
 62140  1  0  0  0
 63 65  1  0  0  0
 63141  1  0  0  0
 63142  1  0  0  0
 63143  1  0  0  0
 64144  1  0  0  0
 65145  1  0  0  0
 68 83  1  0  0  0
 71 73  2  0  0  0
 71 75  1  0  0  0
 71146  1  0  0  0
 72 74  1  0  0  0
 72 75  2  0  0  0
 72147  1  0  0  0
 73 76  1  0  0  0
 73148  1  0  0  0
 74 76  2  0  0  0
 74149  1  0  0  0
 75 84  1  0  0  0
 76 85  1  0  0  0
 77 78  1  0  0  0
 77 81  1  0  0  0
 77 86  2  0  0  0
 78 79  1  0  0  0
 78150  1  0  0  0
 78151  1  0  0  0
 79 84  1  0  0  0
 79152  1  0  0  0
 79153  1  0  0  0
 80 81  1  0  0  0
 80 84  1  0  0  0
 80154  1  0  0  0
 80155  1  0  0  0
 81 83  1  0  0  0
 81156  1  0  0  0
 82 85  1  0  0  0
 82157  1  0  0  0
 82158  1  0  0  0
 82159  1  0  0  0
 83160  1  0  0  0
 83161  1  0  0  0
M  ISO  4   1 100  68 101  83 101  85 100
M  END
> <chiral flag>
0

> <version>
0

> <s_m_source_file>
/data/baiqing/PycharmProjects/Reinvent-master-3.2/result/LINK_invent/BTK/process_docking_weight1_custom_product_contain_oxygen_bond_distance_aromatic_linkinvent_7_9_3/rearranged_h_0097.sdf

> <i_m_source_file_index>
47

> <r_mmod_Potential_Energy-OPLS-2005>
314.339324951172

> <r_mmod_Stretch_Energy-OPLS-2005>
111.414611816406

> <r_mmod_Bend_Energy-OPLS-2005>
245.382202148438

> <r_mmod_Torsional_Energy-OPLS-2005>
276.338134765625

> <r_mmod_Improper_Torsional_Energy-OPLS-2005>
6.72298336029053

> <r_mmod_Van_der_Waal_Energy-OPLS-2005>
156.745651245117

> <r_mmod_Electrostatic_Energy-OPLS-2005>
-323.425231933594

> <r_mmod_Solvation_Energy-OPLS-2005>
-217.113861083984

> <b_mmod_Minimization_Converged-OPLS-2005>
0

> <r_mmod_RMS_Derivative-OPLS-2005>
1.73458468914032

$$$$
47
                    3D
 Structure written by MMmdl.
159168  0  0  1  0            999 V2000
  -30.7241  -14.4544   20.6156 C   0  0  0  0  0  0
  -30.4205  -12.3172   19.4100 C   0  0  0  0  0  0
  -29.4893  -12.5159   18.1980 C   0  0  0  0  0  0
  -28.0125  -12.3706   18.6142 C   0  0  0  0  0  0
  -27.6603  -13.2085   19.8724 C   0  0  2  0  0  0
  -28.7022  -12.9858   20.9906 C   0  0  0  0  0  0
  -25.2582  -13.8165   20.5679 C   0  0  0  0  0  0
  -24.1836  -13.0438   20.9172 C   0  0  0  0  0  0
  -24.6394  -11.6905   20.8730 C   0  0  0  0  0  0
  -23.9065  -10.4289   21.0404 C   0  0  0  0  0  0
  -24.3619   -9.4207   21.9183 C   0  0  0  0  0  0
  -23.6292   -8.2243   22.0753 C   0  0  0  0  0  0
  -22.4274   -8.0282   21.3544 C   0  0  0  0  0  0
  -21.9908   -9.0254   20.4646 C   0  0  0  0  0  0
  -22.7238  -10.2132   20.3054 C   0  0  0  0  0  0
  -21.6852   -6.0740   22.5280 C   0  0  0  0  0  0
  -21.4011   -6.5641   23.8212 C   0  0  0  0  0  0
  -21.3656   -5.6791   24.9172 C   0  0  0  0  0  0
  -21.6043   -4.3056   24.7224 C   0  0  0  0  0  0
  -21.8820   -3.8148   23.4344 C   0  0  0  0  0  0
  -21.9191   -4.6966   22.3402 C   0  0  0  0  0  0
  -22.7858  -13.5237   21.1842 C   0  0  0  0  0  0
  -22.1660   -4.2152   21.0980 F   0  0  0  0  0  0
  -21.5630   -3.4540   25.7737 F   0  0  0  0  0  0
  -30.0327  -13.2952   20.4384 N   0  0  0  0  0  0
  -26.3018  -12.9337   20.3355 N   0  0  0  0  0  0
  -25.9322  -11.6494   20.5756 N   0  0  0  0  0  0
  -22.0501  -12.8230   22.0401 N   0  0  0  0  0  0
  -25.4307  -15.1885   20.4109 N   0  0  0  0  0  0
  -31.8258  -14.6609   20.0998 O   0  0  0  0  0  0
  -21.6637   -6.8883   21.4242 O   0  0  0  0  0  0
  -22.3543  -14.5547   20.6696 O   0  0  0  0  0  0
  -24.6161  -31.8672   23.2093 C   0  0  0  0  0  0
  -25.9054  -32.4818   23.8391 C   0  0  1  0  0  0
  -27.2337  -27.4293   20.0985 C   0  0  0  0  0  0
  -25.5911  -33.8615   24.2329 N   0  0  0  0  0  0
  -23.4040  -30.4908   21.5500 C   0  0  2  0  0  0
  -24.8497  -28.9549   20.1158 C   0  0  0  0  0  0
  -22.7413  -29.4660   22.4987 C   0  0  0  0  0  0
  -18.0272  -28.1375   22.8489 C   0  0  0  0  0  0
  -24.1479  -36.7298   23.2637 C   0  0  0  0  0  0
  -25.9334  -30.8324   21.3617 C   0  0  0  0  0  0
  -26.0118  -29.4671   20.7071 C   0  0  0  0  0  0
  -27.2100  -28.7146   20.6888 C   0  0  0  0  0  0
  -26.0534  -26.9327   19.5036 C   0  0  0  0  0  0
  -24.8655  -27.6873   19.5092 C   0  0  0  0  0  0
  -23.6116  -29.8219   20.1653 C   0  0  0  0  0  0
  -25.4102  -36.3106   24.0341 C   0  0  1  0  0  0
  -20.5863  -28.3663   23.1310 C   0  0  2  0  0  0
  -20.6763  -26.9396   22.5415 C   0  0  0  0  0  0
  -19.5744  -26.6380   21.5211 C   0  0  0  0  0  0
  -18.1919  -26.7924   22.1616 C   0  0  0  0  0  0
  -19.1522  -28.8835   23.2899 C   0  0  0  0  0  0
  -18.9453  -30.1441   23.8909 C   0  0  0  0  0  0
  -17.6455  -30.6582   24.0565 C   0  0  0  0  0  0
  -25.9034  -34.9474   23.5129 C   0  0  0  0  0  0
  -16.5345  -29.9085   23.6330 C   0  0  0  0  0  0
  -16.7261  -28.6499   23.0353 C   0  0  0  0  0  0
  -26.4478  -31.6596   25.0719 C   0  0  0  0  0  0
  -25.3758  -31.3736   26.1487 C   0  0  0  0  0  0
  -27.0270  -30.3020   24.6097 C   0  0  0  0  0  0
  -27.6081  -32.4291   25.7459 C   0  0  0  0  0  0
  -27.5582  -37.1792   24.8462 C   0  0  0  0  0  0
  -21.4140  -29.3036   22.3723 N   0  0  0  0  0  0
  -26.4285  -37.3795   23.9424 N   0  0  0  0  0  0
  -24.6696  -31.0775   22.0989 N   0  0  0  0  0  0
  -23.4182  -28.8206   23.3035 O   0  0  0  0  0  0
  -28.3900  -26.6742   20.0961 O   0  0  0  0  0  0
  -26.5591  -34.8928   22.4686 O   0  0  0  0  0  0
  -23.5354  -32.1419   23.7491 O   0  0  0  0  0  0
  -30.8977  -18.3795   20.0153 C   0  0  0  0  0  0
  -30.5899  -19.6496   19.4779 C   0  0  0  0  0  0
  -29.3219  -18.7716   21.8116 C   0  0  0  0  0  0
  -30.2817  -17.9352   21.2016 C   0  0  0  0  0  0
  -29.6545  -20.5203   20.1003 C   0  0  0  0  0  0
  -29.0101  -20.0421   21.2748 C   0  0  0  0  0  0
  -29.0313  -22.9591   20.2821 C   0  0  0  0  0  0
  -28.6299  -24.1508   19.7656 C   0  0  0  0  0  0
  -28.4842  -24.2506   18.2904 C   0  0  0  0  0  0
  -28.5077  -22.9404   17.5011 C   0  0  0  0  0  0
  -29.4888  -21.9136   18.0947 C   0  0  0  0  0  0
  -30.7203  -16.6280   21.8687 C   0  0  0  0  0  0
  -28.2690  -25.3509   20.6643 C   0  0  0  0  0  0
  -29.3729  -21.8083   19.5537 N   0  0  0  0  0  0
  -30.1111  -15.3950   21.3553 N   0  0  0  0  0  0
  -28.3228  -25.3025   17.6661 O   0  0  0  0  0  0
  -28.0723  -20.7925   21.9043 F   0  0  0  0  0  0
  -31.4642  -12.4182   19.1070 H   0  0  0  0  0  0
  -30.3244  -11.3040   19.8036 H   0  0  0  0  0  0
  -29.7295  -11.7950   17.4156 H   0  0  0  0  0  0
  -29.6536  -13.5039   17.7647 H   0  0  0  0  0  0
  -27.8263  -11.3138   18.8093 H   0  0  0  0  0  0
  -27.3592  -12.6441   17.7850 H   0  0  0  0  0  0
  -27.7053  -14.2577   19.5788 H   0  0  0  0  0  0
  -28.6807  -11.9479   21.3258 H   0  0  0  0  0  0
  -28.4548  -13.5773   21.8729 H   0  0  0  0  0  0
  -25.2769   -9.5680   22.4753 H   0  0  0  0  0  0
  -24.0002   -7.4635   22.7469 H   0  0  0  0  0  0
  -21.0840   -8.8771   19.8954 H   0  0  0  0  0  0
  -22.3699  -10.9670   19.6158 H   0  0  0  0  0  0
  -21.2000   -7.6148   23.9718 H   0  0  0  0  0  0
  -21.1475   -6.0521   25.9076 H   0  0  0  0  0  0
  -22.0604   -2.7612   23.2842 H   0  0  0  0  0  0
  -22.4111  -11.9888   22.4788 H   0  0  0  0  0  0
  -21.1120  -13.1260   22.2615 H   0  0  0  0  0  0
  -24.6666  -15.8461   20.5232 H   0  0  0  0  0  0
  -26.2903  -15.6290   20.1065 H   0  0  0  0  0  0
  -26.7126  -32.5526   23.1157 H   0  0  0  0  0  0
  -25.0114  -33.9780   25.0510 H   0  0  0  0  0  0
  -22.6940  -31.3085   21.4106 H   0  0  0  0  0  0
  -23.3763  -35.9605   23.3278 H   0  0  0  0  0  0
  -24.3587  -36.8933   22.2057 H   0  0  0  0  0  0
  -23.7193  -37.6478   23.6665 H   0  0  0  0  0  0
  -26.0474  -31.5999   20.5949 H   0  0  0  0  0  0
  -26.8206  -30.8839   21.9810 H   0  0  0  0  0  0
  -28.1089  -29.1081   21.1422 H   0  0  0  0  0  0
  -26.0496  -25.9612   19.0310 H   0  0  0  0  0  0
  -23.9728  -27.2881   19.0476 H   0  0  0  0  0  0
  -23.7187  -30.5959   19.4044 H   0  0  0  0  0  0
  -22.7356  -29.2411   19.8709 H   0  0  0  0  0  0
  -25.1275  -36.1967   25.0833 H   0  0  0  0  0  0
  -20.9957  -28.3226   24.1431 H   0  0  0  0  0  0
  -20.5657  -26.2275   23.3605 H   0  0  0  0  0  0
  -21.6636  -26.7437   22.1212 H   0  0  0  0  0  0
  -19.6907  -25.6293   21.1238 H   0  0  0  0  0  0
  -19.6693  -27.3197   20.6750 H   0  0  0  0  0  0
  -17.4197  -26.6688   21.4006 H   0  0  0  0  0  0
  -18.0306  -26.0052   22.8992 H   0  0  0  0  0  0
  -19.7932  -30.7250   24.2284 H   0  0  0  0  0  0
  -17.5014  -31.6271   24.5151 H   0  0  0  0  0  0
  -15.5347  -30.2995   23.7644 H   0  0  0  0  0  0
  -15.8660  -28.0825   22.7065 H   0  0  0  0  0  0
  -24.5869  -30.7152   25.7836 H   0  0  0  0  0  0
  -24.9037  -32.2916   26.4997 H   0  0  0  0  0  0
  -25.8108  -30.8840   27.0209 H   0  0  0  0  0  0
  -26.2783  -29.6790   24.1185 H   0  0  0  0  0  0
  -27.4053  -29.7256   25.4552 H   0  0  0  0  0  0
  -27.8629  -30.4315   23.9218 H   0  0  0  0  0  0
  -27.2749  -33.3620   26.2021 H   0  0  0  0  0  0
  -28.3897  -32.6790   25.0270 H   0  0  0  0  0  0
  -28.0727  -31.8405   26.5380 H   0  0  0  0  0  0
  -28.2598  -38.0094   24.7537 H   0  0  0  0  0  0
  -28.1079  -36.2631   24.6246 H   0  0  0  0  0  0
  -27.2315  -37.1392   25.8869 H   0  0  0  0  0  0
  -20.9296  -29.8765   21.6955 H   0  0  0  0  0  0
  -26.0173  -38.2865   24.1460 H   0  0  0  0  0  0
  -31.6421  -17.7614   19.5311 H   0  0  0  0  0  0
  -31.1209  -19.9558   18.5887 H   0  0  0  0  0  0
  -28.8311  -18.4560   22.7210 H   0  0  0  0  0  0
  -29.1444  -22.8482   21.3518 H   0  0  0  0  0  0
  -28.7548  -23.1380   16.4580 H   0  0  0  0  0  0
  -27.4981  -22.5310   17.5146 H   0  0  0  0  0  0
  -30.5116  -22.1966   17.8413 H   0  0  0  0  0  0
  -29.2976  -20.9526   17.6154 H   0  0  0  0  0  0
  -30.4894  -16.6860   22.9332 H   0  0  0  0  0  0
  -31.8092  -16.5665   21.8217 H   0  0  0  0  0  0
  -28.9341  -25.3239   21.5278 H   0  0  0  0  0  0
  -27.2727  -25.1709   21.0722 H   0  0  0  0  0  0
  -29.1928  -15.1649   21.7028 H   0  0  0  0  0  0
  1 25  1  0  0  0
  1 30  2  0  0  0
  1 85  1  0  0  0
  2  3  1  0  0  0
  2 25  1  0  0  0
  2 88  1  0  0  0
  2 89  1  0  0  0
  3  4  1  0  0  0
  3 90  1  0  0  0
  3 91  1  0  0  0
  4  5  1  0  0  0
  4 92  1  0  0  0
  4 93  1  0  0  0
  5  6  1  0  0  0
  5 26  1  0  0  0
  5 94  1  0  0  0
  6 25  1  0  0  0
  6 95  1  0  0  0
  6 96  1  0  0  0
  7  8  2  0  0  0
  7 26  1  0  0  0
  7 29  1  0  0  0
  8  9  1  0  0  0
  8 22  1  0  0  0
  9 10  1  0  0  0
  9 27  2  0  0  0
 10 11  2  0  0  0
 10 15  1  0  0  0
 11 12  1  0  0  0
 11 97  1  0  0  0
 12 13  2  0  0  0
 12 98  1  0  0  0
 13 14  1  0  0  0
 13 31  1  0  0  0
 14 15  2  0  0  0
 14 99  1  0  0  0
 15100  1  0  0  0
 16 17  2  0  0  0
 16 21  1  0  0  0
 16 31  1  0  0  0
 17 18  1  0  0  0
 17101  1  0  0  0
 18 19  2  0  0  0
 18102  1  0  0  0
 19 20  1  0  0  0
 19 24  1  0  0  0
 20 21  2  0  0  0
 20103  1  0  0  0
 21 23  1  0  0  0
 22 28  1  0  0  0
 22 32  2  0  0  0
 26 27  1  0  0  0
 28104  1  0  0  0
 28105  1  0  0  0
 29106  1  0  0  0
 29107  1  0  0  0
 33 34  1  0  0  0
 33 66  1  0  0  0
 33 70  2  0  0  0
 34 36  1  0  0  0
 34 59  1  0  0  0
 34108  1  0  0  0
 35 44  2  0  0  0
 35 45  1  0  0  0
 35 68  1  0  0  0
 36 56  1  0  0  0
 36109  1  0  0  0
 37 39  1  0  0  0
 37 47  1  0  0  0
 37 66  1  0  0  0
 37110  1  0  0  0
 38 43  2  0  0  0
 38 46  1  0  0  0
 38 47  1  0  0  0
 39 64  1  0  0  0
 39 67  2  0  0  0
 40 52  1  0  0  0
 40 53  2  0  0  0
 40 58  1  0  0  0
 41111  1  0  0  0
 41112  1  0  0  0
 41113  1  0  0  0
 41 48  1  0  0  0
 42 43  1  0  0  0
 42 66  1  0  0  0
 42114  1  0  0  0
 42115  1  0  0  0
 43 44  1  0  0  0
 44116  1  0  0  0
 45 46  2  0  0  0
 45117  1  0  0  0
 46118  1  0  0  0
 47119  1  0  0  0
 47120  1  0  0  0
 48 56  1  0  0  0
 48 65  1  0  0  0
 48121  1  0  0  0
 49 50  1  0  0  0
 49 53  1  0  0  0
 49 64  1  0  0  0
 49122  1  0  0  0
 50 51  1  0  0  0
 50123  1  0  0  0
 50124  1  0  0  0
 51 52  1  0  0  0
 51125  1  0  0  0
 51126  1  0  0  0
 52127  1  0  0  0
 52128  1  0  0  0
 53 54  1  0  0  0
 54 55  2  0  0  0
 54129  1  0  0  0
 55 57  1  0  0  0
 55130  1  0  0  0
 56 69  2  0  0  0
 57 58  2  0  0  0
 57131  1  0  0  0
 58132  1  0  0  0
 59 60  1  0  0  0
 59 61  1  0  0  0
 59 62  1  0  0  0
 60133  1  0  0  0
 60134  1  0  0  0
 60135  1  0  0  0
 61136  1  0  0  0
 61137  1  0  0  0
 61138  1  0  0  0
 62139  1  0  0  0
 62140  1  0  0  0
 62141  1  0  0  0
 63 65  1  0  0  0
 63142  1  0  0  0
 63143  1  0  0  0
 63144  1  0  0  0
 64145  1  0  0  0
 65146  1  0  0  0
 68 83  1  0  0  0
 71 72  2  0  0  0
 71 74  1  0  0  0
 71147  1  0  0  0
 72 75  1  0  0  0
 72148  1  0  0  0
 73 74  2  0  0  0
 73 76  1  0  0  0
 73149  1  0  0  0
 74 82  1  0  0  0
 75 76  2  0  0  0
 75 84  1  0  0  0
 76 87  1  0  0  0
 77 78  2  0  0  0
 77 84  1  0  0  0
 77150  1  0  0  0
 78 79  1  0  0  0
 78 83  1  0  0  0
 79 80  1  0  0  0
 79 86  2  0  0  0
 80 81  1  0  0  0
 80151  1  0  0  0
 80152  1  0  0  0
 81 84  1  0  0  0
 81153  1  0  0  0
 81154  1  0  0  0
 82 85  1  0  0  0
 82155  1  0  0  0
 82156  1  0  0  0
 83157  1  0  0  0
 83158  1  0  0  0
 85159  1  0  0  0
M  ISO  4   1 100  68 101  83 101  85 100
M  END
> <chiral flag>
0

> <version>
0

> <s_m_source_file>
/data/baiqing/PycharmProjects/Reinvent-master-3.2/result/LINK_invent/BTK/process_docking_weight1_custom_product_contain_oxygen_bond_distance_aromatic_linkinvent_7_9_3/rearranged_h_0097.sdf

> <i_m_source_file_index>
48

> <r_mmod_Potential_Energy-OPLS-2005>
-53.6502456665039

> <r_mmod_Stretch_Energy-OPLS-2005>
43.284610748291

> <r_mmod_Bend_Energy-OPLS-2005>
100.540893554688

> <r_mmod_Torsional_Energy-OPLS-2005>
200.344100952148

> <r_mmod_Improper_Torsional_Energy-OPLS-2005>
2.34701347351074

> <r_mmod_Van_der_Waal_Energy-OPLS-2005>
170.195831298828

> <r_mmod_Electrostatic_Energy-OPLS-2005>
-357.547271728516

> <r_mmod_Solvation_Energy-OPLS-2005>
-224.457962036133

> <b_mmod_Minimization_Converged-OPLS-2005>
0

> <r_mmod_RMS_Derivative-OPLS-2005>
0.637308895587921

$$$$
48
                    3D
 Structure written by MMmdl.
162171  0  0  1  0            999 V2000
  -30.6258  -14.7868   20.4471 C   0  0  0  0  0  0
  -30.4349  -12.4520   19.5036 C   0  0  0  0  0  0
  -29.5234  -12.5092   18.2559 C   0  0  0  0  0  0
  -28.0457  -12.3358   18.6575 C   0  0  0  0  0  0
  -27.6398  -13.2442   19.8496 C   0  0  2  0  0  0
  -28.6700  -13.2005   20.9966 C   0  0  0  0  0  0
  -25.2490  -13.8231   20.5694 C   0  0  0  0  0  0
  -24.1790  -13.0452   20.9182 C   0  0  0  0  0  0
  -24.6398  -11.6937   20.8725 C   0  0  0  0  0  0
  -23.9081  -10.4304   21.0390 C   0  0  0  0  0  0
  -24.3633   -9.4221   21.9173 C   0  0  0  0  0  0
  -23.6302   -8.2260   22.0749 C   0  0  0  0  0  0
  -22.4284   -8.0290   21.3541 C   0  0  0  0  0  0
  -21.9919   -9.0263   20.4648 C   0  0  0  0  0  0
  -22.7249  -10.2140   20.3046 C   0  0  0  0  0  0
  -21.6858   -6.0738   22.5277 C   0  0  0  0  0  0
  -21.4021   -6.5641   23.8210 C   0  0  0  0  0  0
  -21.3658   -5.6795   24.9175 C   0  0  0  0  0  0
  -21.6041   -4.3055   24.7223 C   0  0  0  0  0  0
  -21.8820   -3.8148   23.4344 C   0  0  0  0  0  0
  -21.9195   -4.6966   22.3402 C   0  0  0  0  0  0
  -22.7811  -13.5215   21.1858 C   0  0  0  0  0  0
  -22.1662   -4.2151   21.0976 F   0  0  0  0  0  0
  -21.5626   -3.4539   25.7735 F   0  0  0  0  0  0
  -29.9849  -13.5116   20.4351 N   0  0  0  0  0  0
  -26.2919  -12.9461   20.3251 N   0  0  0  0  0  0
  -25.9330  -11.6588   20.5719 N   0  0  0  0  0  0
  -22.0477  -12.8200   22.0428 N   0  0  0  0  0  0
  -25.4192  -15.1961   20.4162 N   0  0  0  0  0  0
  -31.7933  -14.9134   20.0705 O   0  0  0  0  0  0
  -21.6643   -6.8889   21.4241 O   0  0  0  0  0  0
  -22.3483  -14.5517   20.6711 O   0  0  0  0  0  0
  -24.6358  -31.8531   23.1981 C   0  0  0  0  0  0
  -25.9167  -32.4748   23.8339 C   0  0  1  0  0  0
  -27.2097  -27.2105   20.1432 C   0  0  0  0  0  0
  -25.5941  -33.8549   24.2254 N   0  0  0  0  0  0
  -23.4351  -30.4776   21.5414 C   0  0  2  0  0  0
  -24.8828  -28.9221   20.1085 C   0  0  0  0  0  0
  -22.7531  -29.4600   22.4887 C   0  0  0  0  0  0
  -18.0300  -28.1398   22.8493 C   0  0  0  0  0  0
  -24.1481  -36.7263   23.2645 C   0  0  0  0  0  0
  -25.9860  -30.7472   21.3911 C   0  0  0  0  0  0
  -26.0552  -29.3652   20.7357 C   0  0  0  0  0  0
  -27.2172  -28.5186   20.7515 C   0  0  0  0  0  0
  -26.0276  -26.8756   19.4415 C   0  0  0  0  0  0
  -24.8770  -27.6857   19.4501 C   0  0  0  0  0  0
  -23.6575  -29.8165   20.1563 C   0  0  0  0  0  0
  -25.4113  -36.3062   24.0332 C   0  0  1  0  0  0
  -20.5907  -28.3719   23.1248 C   0  0  2  0  0  0
  -20.6772  -26.9426   22.5407 C   0  0  0  0  0  0
  -19.5745  -26.6387   21.5212 C   0  0  0  0  0  0
  -18.1931  -26.7946   22.1629 C   0  0  0  0  0  0
  -19.1554  -28.8876   23.2868 C   0  0  0  0  0  0
  -18.9482  -30.1464   23.8905 C   0  0  0  0  0  0
  -17.6479  -30.6597   24.0567 C   0  0  0  0  0  0
  -25.9060  -34.9436   23.5100 C   0  0  0  0  0  0
  -16.5370  -29.9095   23.6333 C   0  0  0  0  0  0
  -16.7283  -28.6504   23.0374 C   0  0  0  0  0  0
  -26.4516  -31.6590   25.0747 C   0  0  0  0  0  0
  -25.3727  -31.3772   26.1462 C   0  0  0  0  0  0
  -27.0360  -30.2992   24.6281 C   0  0  0  0  0  0
  -27.6054  -32.4342   25.7528 C   0  0  0  0  0  0
  -27.5577  -37.1789   24.8474 C   0  0  0  0  0  0
  -21.4231  -29.3061   22.3630 N   0  0  0  0  0  0
  -26.4281  -37.3767   23.9423 N   0  0  0  0  0  0
  -24.7047  -31.0460   22.0985 N   0  0  0  0  0  0
  -23.4209  -28.8136   23.2999 O   0  0  0  0  0  0
  -28.2606  -26.2456   20.2187 O   0  0  0  0  0  0
  -26.5633  -34.8915   22.4671 O   0  0  0  0  0  0
  -23.5493  -32.1364   23.7250 O   0  0  0  0  0  0
  -30.0968  -19.8187   18.8179 C   0  0  0  0  0  0
  -30.3324  -17.3784   18.8594 C   0  0  0  0  0  0
  -29.5228  -18.5651   20.8387 C   0  0  0  0  0  0
  -29.6156  -19.8673   20.1447 C   0  0  0  0  0  0
  -30.4438  -18.6093   18.1859 C   0  0  0  0  0  0
  -29.8794  -17.2786   20.1965 C   0  0  0  0  0  0
  -28.7278  -23.6746   20.3543 C   0  0  0  0  0  0
  -28.4923  -17.6019   22.9548 C   0  0  0  0  0  0
  -29.0180  -18.6057   22.2294 C   0  0  0  0  0  0
  -27.9476  -24.8333   20.2721 C   0  0  0  0  0  0
  -30.2252  -23.5564   20.5024 C   0  0  0  0  0  0
  -30.5384  -22.0727   20.8966 C   0  0  0  0  0  0
  -28.2436  -22.1709   20.3370 C   0  0  1  0  0  0
  -27.5470  -21.8319   19.0106 C   0  0  0  0  0  0
  -29.3600  -21.2129   20.6870 N   0  0  0  0  0  0
  -30.9076  -18.6285   16.8700 N   0  0  0  0  0  0
  -29.7595  -15.9487   20.7499 O   0  0  0  0  0  0
  -31.4802  -12.5767   19.2155 H   0  0  0  0  0  0
  -30.3708  -11.4753   19.9857 H   0  0  0  0  0  0
  -29.8109  -11.7368   17.5413 H   0  0  0  0  0  0
  -29.6582  -13.4637   17.7443 H   0  0  0  0  0  0
  -27.9010  -11.2887   18.9259 H   0  0  0  0  0  0
  -27.3971  -12.5235   17.8014 H   0  0  0  0  0  0
  -27.6326  -14.2628   19.4605 H   0  0  0  0  0  0
  -28.6875  -12.2159   21.4659 H   0  0  0  0  0  0
  -28.4065  -13.9125   21.7802 H   0  0  0  0  0  0
  -25.2782   -9.5694   22.4744 H   0  0  0  0  0  0
  -24.0010   -7.4649   22.7464 H   0  0  0  0  0  0
  -21.0852   -8.8784   19.8954 H   0  0  0  0  0  0
  -22.3711  -10.9675   19.6149 H   0  0  0  0  0  0
  -21.2019   -7.6151   23.9717 H   0  0  0  0  0  0
  -21.1474   -6.0524   25.9075 H   0  0  0  0  0  0
  -22.0601   -2.7610   23.2846 H   0  0  0  0  0  0
  -22.4101  -11.9865   22.4820 H   0  0  0  0  0  0
  -21.1086  -13.1207   22.2628 H   0  0  0  0  0  0
  -24.6593  -15.8558   20.5399 H   0  0  0  0  0  0
  -26.2843  -15.6386   20.1324 H   0  0  0  0  0  0
  -26.7246  -32.5385   23.1085 H   0  0  0  0  0  0
  -25.0084  -33.9688   25.0397 H   0  0  0  0  0  0
  -22.7337  -31.3020   21.3966 H   0  0  0  0  0  0
  -23.3754  -35.9583   23.3309 H   0  0  0  0  0  0
  -24.3563  -36.8881   22.2058 H   0  0  0  0  0  0
  -23.7215  -37.6459   23.6661 H   0  0  0  0  0  0
  -26.1366  -31.5045   20.6206 H   0  0  0  0  0  0
  -26.8594  -30.7962   22.0295 H   0  0  0  0  0  0
  -28.1058  -28.8455   21.2729 H   0  0  0  0  0  0
  -25.9600  -25.9496   18.8897 H   0  0  0  0  0  0
  -23.9877  -27.3486   18.9345 H   0  0  0  0  0  0
  -23.7911  -30.5958   19.4053 H   0  0  0  0  0  0
  -22.7734  -29.2584   19.8440 H   0  0  0  0  0  0
  -25.1281  -36.1914   25.0821 H   0  0  0  0  0  0
  -21.0000  -28.3310   24.1366 H   0  0  0  0  0  0
  -20.5652  -26.2338   23.3623 H   0  0  0  0  0  0
  -21.6643  -26.7427   22.1216 H   0  0  0  0  0  0
  -19.6892  -25.6293   21.1250 H   0  0  0  0  0  0
  -19.6675  -27.3195   20.6739 H   0  0  0  0  0  0
  -17.4190  -26.6706   21.4038 H   0  0  0  0  0  0
  -18.0327  -26.0088   22.9025 H   0  0  0  0  0  0
  -19.7959  -30.7273   24.2286 H   0  0  0  0  0  0
  -17.5040  -31.6285   24.5160 H   0  0  0  0  0  0
  -15.5373  -30.3002   23.7647 H   0  0  0  0  0  0
  -15.8682  -28.0806   22.7108 H   0  0  0  0  0  0
  -24.5914  -30.7097   25.7817 H   0  0  0  0  0  0
  -24.8914  -32.2956   26.4833 H   0  0  0  0  0  0
  -25.8045  -30.9005   27.0272 H   0  0  0  0  0  0
  -26.2964  -29.6752   24.1256 H   0  0  0  0  0  0
  -27.3957  -29.7254   25.4833 H   0  0  0  0  0  0
  -27.8879  -30.4245   23.9594 H   0  0  0  0  0  0
  -27.2647  -33.3653   26.2069 H   0  0  0  0  0  0
  -28.3883  -32.6885   25.0372 H   0  0  0  0  0  0
  -28.0695  -31.8494   26.5481 H   0  0  0  0  0  0
  -28.2594  -38.0088   24.7515 H   0  0  0  0  0  0
  -28.1063  -36.2613   24.6284 H   0  0  0  0  0  0
  -27.2298  -37.1436   25.8880 H   0  0  0  0  0  0
  -20.9416  -29.8789   21.6841 H   0  0  0  0  0  0
  -26.0155  -38.2837   24.1429 H   0  0  0  0  0  0
  -30.2154  -20.7448   18.2744 H   0  0  0  0  0  0
  -30.5947  -16.4796   18.3197 H   0  0  0  0  0  0
  -28.1789  -17.7772   23.9744 H   0  0  0  0  0  0
  -28.3515  -16.6032   22.5741 H   0  0  0  0  0  0
  -29.1012  -19.5639   22.7224 H   0  0  0  0  0  0
  -26.8825  -24.6663   20.2376 H   0  0  0  0  0  0
  -30.6071  -24.2668   21.2368 H   0  0  0  0  0  0
  -30.6833  -23.7935   19.5418 H   0  0  0  0  0  0
  -30.7974  -22.0286   21.9556 H   0  0  0  0  0  0
  -31.4113  -21.7090   20.3511 H   0  0  0  0  0  0
  -27.5000  -22.0792   21.1309 H   0  0  0  0  0  0
  -28.2164  -21.9546   18.1587 H   0  0  0  0  0  0
  -26.6913  -22.4864   18.8429 H   0  0  0  0  0  0
  -27.1730  -20.8081   19.0021 H   0  0  0  0  0  0
  -30.7317  -19.4483   16.2965 H   0  0  0  0  0  0
  -30.9146  -17.7664   16.3328 H   0  0  0  0  0  0
  1 25  1  0  0  0
  1 30  2  0  0  0
  1 87  1  0  0  0
  2  3  1  0  0  0
  2 25  1  0  0  0
  2 88  1  0  0  0
  2 89  1  0  0  0
  3  4  1  0  0  0
  3 90  1  0  0  0
  3 91  1  0  0  0
  4  5  1  0  0  0
  4 92  1  0  0  0
  4 93  1  0  0  0
  5  6  1  0  0  0
  5 26  1  0  0  0
  5 94  1  0  0  0
  6 25  1  0  0  0
  6 95  1  0  0  0
  6 96  1  0  0  0
  7  8  2  0  0  0
  7 26  1  0  0  0
  7 29  1  0  0  0
  8  9  1  0  0  0
  8 22  1  0  0  0
  9 10  1  0  0  0
  9 27  2  0  0  0
 10 11  2  0  0  0
 10 15  1  0  0  0
 11 12  1  0  0  0
 11 97  1  0  0  0
 12 13  2  0  0  0
 12 98  1  0  0  0
 13 14  1  0  0  0
 13 31  1  0  0  0
 14 15  2  0  0  0
 14 99  1  0  0  0
 15100  1  0  0  0
 16 17  2  0  0  0
 16 21  1  0  0  0
 16 31  1  0  0  0
 17 18  1  0  0  0
 17101  1  0  0  0
 18 19  2  0  0  0
 18102  1  0  0  0
 19 20  1  0  0  0
 19 24  1  0  0  0
 20 21  2  0  0  0
 20103  1  0  0  0
 21 23  1  0  0  0
 22 28  1  0  0  0
 22 32  2  0  0  0
 26 27  1  0  0  0
 28104  1  0  0  0
 28105  1  0  0  0
 29106  1  0  0  0
 29107  1  0  0  0
 33 34  1  0  0  0
 33 66  1  0  0  0
 33 70  2  0  0  0
 34 36  1  0  0  0
 34 59  1  0  0  0
 34108  1  0  0  0
 35 44  2  0  0  0
 35 45  1  0  0  0
 35 68  1  0  0  0
 36 56  1  0  0  0
 36109  1  0  0  0
 37 39  1  0  0  0
 37 47  1  0  0  0
 37 66  1  0  0  0
 37110  1  0  0  0
 38 43  2  0  0  0
 38 46  1  0  0  0
 38 47  1  0  0  0
 39 64  1  0  0  0
 39 67  2  0  0  0
 40 52  1  0  0  0
 40 53  2  0  0  0
 40 58  1  0  0  0
 41111  1  0  0  0
 41112  1  0  0  0
 41113  1  0  0  0
 41 48  1  0  0  0
 42 43  1  0  0  0
 42 66  1  0  0  0
 42114  1  0  0  0
 42115  1  0  0  0
 43 44  1  0  0  0
 44116  1  0  0  0
 45 46  2  0  0  0
 45117  1  0  0  0
 46118  1  0  0  0
 47119  1  0  0  0
 47120  1  0  0  0
 48 56  1  0  0  0
 48 65  1  0  0  0
 48121  1  0  0  0
 49 50  1  0  0  0
 49 53  1  0  0  0
 49 64  1  0  0  0
 49122  1  0  0  0
 50 51  1  0  0  0
 50123  1  0  0  0
 50124  1  0  0  0
 51 52  1  0  0  0
 51125  1  0  0  0
 51126  1  0  0  0
 52127  1  0  0  0
 52128  1  0  0  0
 53 54  1  0  0  0
 54 55  2  0  0  0
 54129  1  0  0  0
 55 57  1  0  0  0
 55130  1  0  0  0
 56 69  2  0  0  0
 57 58  2  0  0  0
 57131  1  0  0  0
 58132  1  0  0  0
 59 60  1  0  0  0
 59 61  1  0  0  0
 59 62  1  0  0  0
 60133  1  0  0  0
 60134  1  0  0  0
 60135  1  0  0  0
 61136  1  0  0  0
 61137  1  0  0  0
 61138  1  0  0  0
 62139  1  0  0  0
 62140  1  0  0  0
 62141  1  0  0  0
 63 65  1  0  0  0
 63142  1  0  0  0
 63143  1  0  0  0
 63144  1  0  0  0
 64145  1  0  0  0
 65146  1  0  0  0
 68 80  1  0  0  0
 71 74  2  0  0  0
 71 75  1  0  0  0
 71147  1  0  0  0
 72 75  2  0  0  0
 72 76  1  0  0  0
 72148  1  0  0  0
 73 74  1  0  0  0
 73 76  2  0  0  0
 73 79  1  0  0  0
 74 85  1  0  0  0
 75 86  1  0  0  0
 76 87  1  0  0  0
 77 80  2  0  0  0
 77 81  1  0  0  0
 77 83  1  0  0  0
 78 79  2  0  0  0
 78149  1  0  0  0
 78150  1  0  0  0
 79151  1  0  0  0
 80152  1  0  0  0
 81 82  1  0  0  0
 81153  1  0  0  0
 81154  1  0  0  0
 82 85  1  0  0  0
 82155  1  0  0  0
 82156  1  0  0  0
 83 84  1  0  0  0
 83 85  1  0  0  0
 83157  1  0  0  0
 84158  1  0  0  0
 84159  1  0  0  0
 84160  1  0  0  0
 86161  1  0  0  0
 86162  1  0  0  0
M  ISO  4   1 100  68 101  80 101  87 100
M  END
> <chiral flag>
0

> <version>
0

> <s_m_source_file>
/data/baiqing/PycharmProjects/Reinvent-master-3.2/result/LINK_invent/BTK/process_docking_weight1_custom_product_contain_oxygen_bond_distance_aromatic_linkinvent_7_9_3/rearranged_h_0097.sdf

> <i_m_source_file_index>
49

> <r_mmod_Potential_Energy-OPLS-2005>
420.474029541016

> <r_mmod_Stretch_Energy-OPLS-2005>
159.403366088867

> <r_mmod_Bend_Energy-OPLS-2005>
215.129730224609

> <r_mmod_Torsional_Energy-OPLS-2005>
245.251708984375

> <r_mmod_Improper_Torsional_Energy-OPLS-2005>
10.4386978149414

> <r_mmod_Van_der_Waal_Energy-OPLS-2005>
137.693801879883

> <r_mmod_Electrostatic_Energy-OPLS-2005>
-257.306396484375

> <r_mmod_Solvation_Energy-OPLS-2005>
-203.904769897461

> <b_mmod_Minimization_Converged-OPLS-2005>
0

> <r_mmod_RMS_Derivative-OPLS-2005>
1.46892631053925

$$$$
49
                    3D
 Structure written by MMmdl.
176186  0  0  1  0            999 V2000
  -30.6670  -14.6443   20.3742 C   0  0  0  0  0  0
  -30.4256  -12.3934   19.4085 C   0  0  0  0  0  0
  -29.4749  -12.4876   18.2016 C   0  0  0  0  0  0
  -27.9927  -12.3638   18.6136 C   0  0  0  0  0  0
  -27.6347  -13.1907   19.8839 C   0  0  2  0  0  0
  -28.7194  -13.0835   20.9864 C   0  0  0  0  0  0
  -25.2377  -13.7523   20.6107 C   0  0  0  0  0  0
  -24.1691  -12.9887   20.9425 C   0  0  0  0  0  0
  -24.6357  -11.6434   20.8796 C   0  0  0  0  0  0
  -23.9053  -10.3951   21.0380 C   0  0  0  0  0  0
  -24.3607   -9.3967   21.9226 C   0  0  0  0  0  0
  -23.6276   -8.2058   22.0846 C   0  0  0  0  0  0
  -22.4293   -8.0133   21.3556 C   0  0  0  0  0  0
  -21.9843   -9.0076   20.4699 C   0  0  0  0  0  0
  -22.7202  -10.1888   20.3037 C   0  0  0  0  0  0
  -21.6857   -6.0713   22.5246 C   0  0  0  0  0  0
  -21.4085   -6.5682   23.8147 C   0  0  0  0  0  0
  -21.3604   -5.6851   24.9092 C   0  0  0  0  0  0
  -21.5982   -4.3108   24.7156 C   0  0  0  0  0  0
  -21.8848   -3.8186   23.4300 C   0  0  0  0  0  0
  -21.9212   -4.6973   22.3357 C   0  0  0  0  0  0
  -22.7655  -13.4688   21.2028 C   0  0  0  0  0  0
  -22.1737   -4.2196   21.0931 F   0  0  0  0  0  0
  -21.5488   -3.4595   25.7665 F   0  0  0  0  0  0
  -30.0011  -13.4447   20.3509 N   0  0  0  0  0  0
  -26.2925  -12.8905   20.3641 N   0  0  0  0  0  0
  -25.9294  -11.6043   20.5818 N   0  0  0  0  0  0
  -22.0282  -12.7882   22.0695 N   0  0  0  0  0  0
  -25.3793  -15.1141   20.4589 N   0  0  0  0  0  0
  -31.9002  -14.6531   20.3596 O   0  0  0  0  0  0
  -21.6610   -6.8825   21.4219 O   0  0  0  0  0  0
  -22.3358  -14.4918   20.6655 O   0  0  0  0  0  0
  -24.6158  -31.8609   23.2032 C   0  0  0  0  0  0
  -25.9036  -32.4773   23.8327 C   0  0  1  0  0  0
  -27.2930  -27.4141   20.1122 C   0  0  0  0  0  0
  -25.5840  -33.8571   24.2243 N   0  0  0  0  0  0
  -23.4058  -30.4795   21.5378 C   0  0  2  0  0  0
  -24.8670  -28.9167   20.1325 C   0  0  0  0  0  0
  -22.7380  -29.4638   22.4934 C   0  0  0  0  0  0
  -18.0269  -28.1329   22.8522 C   0  0  0  0  0  0
  -24.1443  -36.7302   23.2648 C   0  0  0  0  0  0
  -25.9343  -30.8237   21.3568 C   0  0  0  0  0  0
  -26.0243  -29.4478   20.7167 C   0  0  0  0  0  0
  -27.2302  -28.7062   20.6948 C   0  0  0  0  0  0
  -26.1139  -26.9000   19.5275 C   0  0  0  0  0  0
  -24.9058  -27.6367   19.5430 C   0  0  0  0  0  0
  -23.6254  -29.7863   20.1635 C   0  0  0  0  0  0
  -25.4055  -36.3045   24.0336 C   0  0  1  0  0  0
  -20.5871  -28.3631   23.1289 C   0  0  2  0  0  0
  -20.6723  -26.9346   22.5415 C   0  0  0  0  0  0
  -19.5689  -26.6365   21.5201 C   0  0  0  0  0  0
  -18.1886  -26.7871   22.1652 C   0  0  0  0  0  0
  -19.1526  -28.8785   23.2909 C   0  0  0  0  0  0
  -18.9477  -30.1386   23.8928 C   0  0  0  0  0  0
  -17.6492  -30.6562   24.0548 C   0  0  0  0  0  0
  -25.9031  -34.9437   23.5109 C   0  0  0  0  0  0
  -16.5373  -29.9088   23.6286 C   0  0  0  0  0  0
  -16.7263  -28.6471   23.0364 C   0  0  0  0  0  0
  -26.4477  -31.6559   25.0674 C   0  0  0  0  0  0
  -25.3805  -31.3731   26.1484 C   0  0  0  0  0  0
  -27.0303  -30.2972   24.6093 C   0  0  0  0  0  0
  -27.5983  -32.4312   25.7485 C   0  0  0  0  0  0
  -27.5539  -37.1769   24.8459 C   0  0  0  0  0  0
  -21.4109  -29.3029   22.3692 N   0  0  0  0  0  0
  -26.4216  -37.3770   23.9466 N   0  0  0  0  0  0
  -24.6688  -31.0692   22.0922 N   0  0  0  0  0  0
  -23.4129  -28.8215   23.3004 O   0  0  0  0  0  0
  -28.5117  -26.7428   20.0565 O   0  0  0  0  0  0
  -26.5611  -34.8934   22.4694 O   0  0  0  0  0  0
  -23.5334  -32.1339   23.7426 O   0  0  0  0  0  0
  -29.8043  -19.5883   20.0721 C   0  0  0  0  0  0
  -31.7366  -18.1694   20.3410 C   0  0  0  0  0  0
  -30.3356  -18.2589   20.1832 C   0  0  0  0  0  0
  -30.5980  -20.7765   20.0704 C   0  0  0  0  0  0
  -32.0062  -20.6105   20.1891 C   0  0  0  0  0  0
  -32.5479  -19.3210   20.3782 C   0  0  0  0  0  0
  -30.8360  -23.3022   21.9208 C   0  0  0  0  0  0
  -31.2166  -24.6807   22.4134 C   0  0  0  0  0  0
  -31.0034  -25.5643   21.1866 C   0  0  0  0  0  0
  -27.5137  -17.6183   21.6053 C   0  0  0  0  0  0
  -27.0417  -17.8053   20.1634 C   0  0  0  0  0  0
  -28.7916  -16.7687   21.5517 C   0  0  0  0  0  0
  -28.1634  -17.2090   19.2884 C   0  0  0  0  0  0
  -30.0672  -24.7604   20.2503 C   0  0  2  0  0  0
  -29.4290  -16.9596   20.1603 C   0  0  0  0  0  0
  -30.5232  -15.8218   18.2656 C   0  0  0  0  0  0
  -29.9077  -22.1709   19.8533 C   0  0  0  0  0  0
  -28.5988  -25.3249   20.3642 C   0  0  0  0  0  0
  -30.2471  -23.3480   20.7102 N   0  0  0  0  0  0
  -32.9110  -21.6766   20.1090 N   0  0  0  0  0  0
  -30.0597  -15.6664   19.6670 N   0  0  0  0  0  0
  -31.1026  -22.2985   22.5831 O   0  0  0  0  0  0
  -33.8822  -19.1925   20.5914 F   0  0  0  0  0  0
  -31.4535  -12.5137   19.0586 H   0  0  0  0  0  0
  -30.3768  -11.4084   19.8738 H   0  0  0  0  0  0
  -29.7442  -11.7589   17.4362 H   0  0  0  0  0  0
  -29.5990  -13.4548   17.7233 H   0  0  0  0  0  0
  -27.7222  -11.3139   18.7393 H   0  0  0  0  0  0
  -27.3758  -12.7047   17.7802 H   0  0  0  0  0  0
  -27.6160  -14.2260   19.5686 H   0  0  0  0  0  0
  -28.7727  -12.0692   21.3843 H   0  0  0  0  0  0
  -28.4900  -13.6896   21.8627 H   0  0  0  0  0  0
  -25.2745   -9.5450   22.4832 H   0  0  0  0  0  0
  -23.9907   -7.4517   22.7699 H   0  0  0  0  0  0
  -21.0682   -8.8576   19.9192 H   0  0  0  0  0  0
  -22.3680  -10.9403   19.6141 H   0  0  0  0  0  0
  -21.2329   -7.6246   23.9604 H   0  0  0  0  0  0
  -21.1349   -6.0662   25.8933 H   0  0  0  0  0  0
  -22.0754   -2.7692   23.2747 H   0  0  0  0  0  0
  -22.3667  -11.9547   22.5333 H   0  0  0  0  0  0
  -21.0896  -13.1030   22.2761 H   0  0  0  0  0  0
  -24.5248  -15.6586   20.4002 H   0  0  0  0  0  0
  -26.1504  -15.4975   19.9355 H   0  0  0  0  0  0
  -26.7107  -32.5525   23.1086 H   0  0  0  0  0  0
  -24.9849  -33.9690   25.0274 H   0  0  0  0  0  0
  -22.6985  -31.2967   21.3788 H   0  0  0  0  0  0
  -23.3692  -35.9655   23.3251 H   0  0  0  0  0  0
  -24.3552  -36.8997   22.2081 H   0  0  0  0  0  0
  -23.7200  -37.6490   23.6726 H   0  0  0  0  0  0
  -26.0449  -31.5846   20.5821 H   0  0  0  0  0  0
  -26.8201  -30.8918   21.9744 H   0  0  0  0  0  0
  -28.1270  -29.1271   21.1268 H   0  0  0  0  0  0
  -26.1399  -25.9429   19.0274 H   0  0  0  0  0  0
  -24.0130  -27.2140   19.0934 H   0  0  0  0  0  0
  -23.7401  -30.5492   19.3947 H   0  0  0  0  0  0
  -22.7536  -29.2048   19.8594 H   0  0  0  0  0  0
  -25.1219  -36.1860   25.0823 H   0  0  0  0  0  0
  -20.9996  -28.3193   24.1390 H   0  0  0  0  0  0
  -20.5530  -26.2262   23.3627 H   0  0  0  0  0  0
  -21.6612  -26.7293   22.1273 H   0  0  0  0  0  0
  -19.6856  -25.6290   21.1193 H   0  0  0  0  0  0
  -19.6599  -27.3219   20.6761 H   0  0  0  0  0  0
  -17.4137  -26.6609   21.4070 H   0  0  0  0  0  0
  -18.0290  -25.9971   22.9010 H   0  0  0  0  0  0
  -19.7972  -30.7154   24.2322 H   0  0  0  0  0  0
  -17.5081  -31.6259   24.5129 H   0  0  0  0  0  0
  -15.5387  -30.3044   23.7554 H   0  0  0  0  0  0
  -15.8648  -28.0804   22.7088 H   0  0  0  0  0  0
  -24.5929  -30.7077   25.7936 H   0  0  0  0  0  0
  -24.9103  -32.2956   26.4914 H   0  0  0  0  0  0
  -25.8267  -30.8962   27.0232 H   0  0  0  0  0  0
  -26.2867  -29.6713   24.1158 H   0  0  0  0  0  0
  -27.4027  -29.7203   25.4570 H   0  0  0  0  0  0
  -27.8721  -30.4191   23.9274 H   0  0  0  0  0  0
  -27.2467  -33.3539   26.2103 H   0  0  0  0  0  0
  -28.3825  -32.6988   25.0400 H   0  0  0  0  0  0
  -28.0627  -31.8440   26.5408 H   0  0  0  0  0  0
  -28.2508  -38.0099   24.7527 H   0  0  0  0  0  0
  -28.1051  -36.2640   24.6192 H   0  0  0  0  0  0
  -27.2308  -37.1328   25.8870 H   0  0  0  0  0  0
  -20.9224  -29.8795   21.6990 H   0  0  0  0  0  0
  -26.0054  -38.2819   24.1573 H   0  0  0  0  0  0
  -28.7464  -19.7201   19.9476 H   0  0  0  0  0  0
  -32.2200  -17.2114   20.4102 H   0  0  0  0  0  0
  -32.2357  -24.7207   22.8048 H   0  0  0  0  0  0
  -30.5314  -24.9443   23.2172 H   0  0  0  0  0  0
  -31.9550  -25.7830   20.7020 H   0  0  0  0  0  0
  -30.5864  -26.5245   21.4881 H   0  0  0  0  0  0
  -26.7608  -17.1613   22.2516 H   0  0  0  0  0  0
  -27.7441  -18.6023   22.0107 H   0  0  0  0  0  0
  -26.8940  -18.8654   19.9752 H   0  0  0  0  0  0
  -26.0561  -17.3963   19.9464 H   0  0  0  0  0  0
  -28.4499  -15.7456   21.6644 H   0  0  0  0  0  0
  -29.4894  -16.9607   22.3674 H   0  0  0  0  0  0
  -28.3896  -17.8052   18.4040 H   0  0  0  0  0  0
  -27.7880  -16.2691   18.8934 H   0  0  0  0  0  0
  -30.4254  -24.8543   19.2225 H   0  0  0  0  0  0
  -31.2319  -15.0501   17.9676 H   0  0  0  0  0  0
  -29.6942  -15.7329   17.5597 H   0  0  0  0  0  0
  -31.0286  -16.7681   18.0742 H   0  0  0  0  0  0
  -28.8228  -22.0544   19.9162 H   0  0  0  0  0  0
  -30.1058  -22.4481   18.8156 H   0  0  0  0  0  0
  -28.2584  -25.1985   21.3947 H   0  0  0  0  0  0
  -27.9335  -24.7423   19.7252 H   0  0  0  0  0  0
  -32.5946  -22.6168   20.3105 H   0  0  0  0  0  0
  -33.8514  -21.4913   20.4483 H   0  0  0  0  0  0
  1 25  1  0  0  0
  1 30  2  0  0  0
  1 91  1  0  0  0
  2  3  1  0  0  0
  2 25  1  0  0  0
  2 94  1  0  0  0
  2 95  1  0  0  0
  3  4  1  0  0  0
  3 96  1  0  0  0
  3 97  1  0  0  0
  4  5  1  0  0  0
  4 98  1  0  0  0
  4 99  1  0  0  0
  5  6  1  0  0  0
  5 26  1  0  0  0
  5100  1  0  0  0
  6 25  1  0  0  0
  6101  1  0  0  0
  6102  1  0  0  0
  7  8  2  0  0  0
  7 26  1  0  0  0
  7 29  1  0  0  0
  8  9  1  0  0  0
  8 22  1  0  0  0
  9 10  1  0  0  0
  9 27  2  0  0  0
 10 11  2  0  0  0
 10 15  1  0  0  0
 11 12  1  0  0  0
 11103  1  0  0  0
 12 13  2  0  0  0
 12104  1  0  0  0
 13 14  1  0  0  0
 13 31  1  0  0  0
 14 15  2  0  0  0
 14105  1  0  0  0
 15106  1  0  0  0
 16 17  2  0  0  0
 16 21  1  0  0  0
 16 31  1  0  0  0
 17 18  1  0  0  0
 17107  1  0  0  0
 18 19  2  0  0  0
 18108  1  0  0  0
 19 20  1  0  0  0
 19 24  1  0  0  0
 20 21  2  0  0  0
 20109  1  0  0  0
 21 23  1  0  0  0
 22 28  1  0  0  0
 22 32  2  0  0  0
 26 27  1  0  0  0
 28110  1  0  0  0
 28111  1  0  0  0
 29112  1  0  0  0
 29113  1  0  0  0
 33 34  1  0  0  0
 33 66  1  0  0  0
 33 70  2  0  0  0
 34 36  1  0  0  0
 34 59  1  0  0  0
 34114  1  0  0  0
 35 44  2  0  0  0
 35 45  1  0  0  0
 35 68  1  0  0  0
 36 56  1  0  0  0
 36115  1  0  0  0
 37 39  1  0  0  0
 37 47  1  0  0  0
 37 66  1  0  0  0
 37116  1  0  0  0
 38 43  2  0  0  0
 38 46  1  0  0  0
 38 47  1  0  0  0
 39 64  1  0  0  0
 39 67  2  0  0  0
 40 52  1  0  0  0
 40 53  2  0  0  0
 40 58  1  0  0  0
 41117  1  0  0  0
 41118  1  0  0  0
 41119  1  0  0  0
 41 48  1  0  0  0
 42 43  1  0  0  0
 42 66  1  0  0  0
 42120  1  0  0  0
 42121  1  0  0  0
 43 44  1  0  0  0
 44122  1  0  0  0
 45 46  2  0  0  0
 45123  1  0  0  0
 46124  1  0  0  0
 47125  1  0  0  0
 47126  1  0  0  0
 48 56  1  0  0  0
 48 65  1  0  0  0
 48127  1  0  0  0
 49 50  1  0  0  0
 49 53  1  0  0  0
 49 64  1  0  0  0
 49128  1  0  0  0
 50 51  1  0  0  0
 50129  1  0  0  0
 50130  1  0  0  0
 51 52  1  0  0  0
 51131  1  0  0  0
 51132  1  0  0  0
 52133  1  0  0  0
 52134  1  0  0  0
 53 54  1  0  0  0
 54 55  2  0  0  0
 54135  1  0  0  0
 55 57  1  0  0  0
 55136  1  0  0  0
 56 69  2  0  0  0
 57 58  2  0  0  0
 57137  1  0  0  0
 58138  1  0  0  0
 59 60  1  0  0  0
 59 61  1  0  0  0
 59 62  1  0  0  0
 60139  1  0  0  0
 60140  1  0  0  0
 60141  1  0  0  0
 61142  1  0  0  0
 61143  1  0  0  0
 61144  1  0  0  0
 62145  1  0  0  0
 62146  1  0  0  0
 62147  1  0  0  0
 63 65  1  0  0  0
 63148  1  0  0  0
 63149  1  0  0  0
 63150  1  0  0  0
 64151  1  0  0  0
 65152  1  0  0  0
 68 88  1  0  0  0
 71 73  2  0  0  0
 71 74  1  0  0  0
 71153  1  0  0  0
 72 73  1  0  0  0
 72 76  2  0  0  0
 72154  1  0  0  0
 73 85  1  0  0  0
 74 75  2  0  0  0
 74 87  1  0  0  0
 75 76  1  0  0  0
 75 90  1  0  0  0
 76 93  1  0  0  0
 77 78  1  0  0  0
 77 89  1  0  0  0
 77 92  2  0  0  0
 78 79  1  0  0  0
 78155  1  0  0  0
 78156  1  0  0  0
 79 84  1  0  0  0
 79157  1  0  0  0
 79158  1  0  0  0
 80 81  1  0  0  0
 80 82  1  0  0  0
 80159  1  0  0  0
 80160  1  0  0  0
 81 83  1  0  0  0
 81161  1  0  0  0
 81162  1  0  0  0
 82 85  1  0  0  0
 82163  1  0  0  0
 82164  1  0  0  0
 83 85  1  0  0  0
 83165  1  0  0  0
 83166  1  0  0  0
 84 88  1  0  0  0
 84 89  1  0  0  0
 84167  1  0  0  0
 85 91  1  0  0  0
 86 91  1  0  0  0
 86168  1  0  0  0
 86169  1  0  0  0
 86170  1  0  0  0
 87 89  1  0  0  0
 87171  1  0  0  0
 87172  1  0  0  0
 88173  1  0  0  0
 88174  1  0  0  0
 90175  1  0  0  0
 90176  1  0  0  0
M  ISO  4   1 100  68 101  88 101  91 100
M  END
> <chiral flag>
0

> <version>
0

> <s_m_source_file>
/data/baiqing/PycharmProjects/Reinvent-master-3.2/result/LINK_invent/BTK/process_docking_weight1_custom_product_contain_oxygen_bond_distance_aromatic_linkinvent_7_9_3/rearranged_h_0097.sdf

> <i_m_source_file_index>
50

> <r_mmod_Potential_Energy-OPLS-2005>
400.478637695312

> <r_mmod_Stretch_Energy-OPLS-2005>
80.3908309936523

> <r_mmod_Bend_Energy-OPLS-2005>
200.16682434082

> <r_mmod_Torsional_Energy-OPLS-2005>
418.865112304688

> <r_mmod_Improper_Torsional_Energy-OPLS-2005>
38.1902084350586

> <r_mmod_Van_der_Waal_Energy-OPLS-2005>
157.559967041016

> <r_mmod_Electrostatic_Energy-OPLS-2005>
-338.595031738281

> <r_mmod_Solvation_Energy-OPLS-2005>
-210.314987182617

> <b_mmod_Minimization_Converged-OPLS-2005>
0

> <r_mmod_RMS_Derivative-OPLS-2005>
10.7029838562012

$$$$
50
                    3D
 Structure written by MMmdl.
164173  0  0  1  0            999 V2000
  -30.5982  -14.7473   20.2971 C   0  0  0  0  0  0
  -30.4582  -12.3832   19.4980 C   0  0  0  0  0  0
  -29.5298  -12.1961   18.2733 C   0  0  0  0  0  0
  -28.0254  -12.2552   18.6411 C   0  0  0  0  0  0
  -27.6366  -13.2057   19.8153 C   0  0  2  0  0  0
  -28.6890  -13.2033   20.9388 C   0  0  0  0  0  0
  -25.2568  -13.8156   20.5662 C   0  0  0  0  0  0
  -24.1824  -13.0449   20.9206 C   0  0  0  0  0  0
  -24.6380  -11.6914   20.8776 C   0  0  0  0  0  0
  -23.9044  -10.4304   21.0429 C   0  0  0  0  0  0
  -24.3591   -9.4209   21.9195 C   0  0  0  0  0  0
  -23.6266   -8.2243   22.0743 C   0  0  0  0  0  0
  -22.4233   -8.0284   21.3555 C   0  0  0  0  0  0
  -21.9884   -9.0251   20.4661 C   0  0  0  0  0  0
  -22.7216  -10.2138   20.3077 C   0  0  0  0  0  0
  -21.6835   -6.0717   22.5273 C   0  0  0  0  0  0
  -21.4013   -6.5623   23.8214 C   0  0  0  0  0  0
  -21.3655   -5.6778   24.9173 C   0  0  0  0  0  0
  -21.6039   -4.3039   24.7209 C   0  0  0  0  0  0
  -21.8824   -3.8135   23.4331 C   0  0  0  0  0  0
  -21.9190   -4.6948   22.3391 C   0  0  0  0  0  0
  -22.7862  -13.5236   21.1865 C   0  0  0  0  0  0
  -22.1675   -4.2162   21.0964 F   0  0  0  0  0  0
  -21.5624   -3.4528   25.7714 F   0  0  0  0  0  0
  -29.9795  -13.5169   20.3152 N   0  0  0  0  0  0
  -26.2943  -12.9307   20.3204 N   0  0  0  0  0  0
  -25.9286  -11.6493   20.5788 N   0  0  0  0  0  0
  -22.0493  -12.8233   22.0412 N   0  0  0  0  0  0
  -25.4299  -15.1865   20.4072 N   0  0  0  0  0  0
  -31.8302  -14.8127   20.2611 O   0  0  0  0  0  0
  -21.6620   -6.8854   21.4236 O   0  0  0  0  0  0
  -22.3536  -14.5555   20.6715 O   0  0  0  0  0  0
  -24.6223  -31.8631   23.2036 C   0  0  0  0  0  0
  -25.9088  -32.4792   23.8349 C   0  0  1  0  0  0
  -27.2278  -27.3455   20.1211 C   0  0  0  0  0  0
  -25.5920  -33.8590   24.2277 N   0  0  0  0  0  0
  -23.4137  -30.4872   21.5456 C   0  0  2  0  0  0
  -24.8611  -28.9463   20.1129 C   0  0  0  0  0  0
  -22.7434  -29.4651   22.4935 C   0  0  0  0  0  0
  -18.0277  -28.1388   22.8470 C   0  0  0  0  0  0
  -24.1493  -36.7297   23.2638 C   0  0  0  0  0  0
  -25.9527  -30.8025   21.3707 C   0  0  0  0  0  0
  -26.0283  -29.4308   20.7175 C   0  0  0  0  0  0
  -27.2132  -28.6412   20.7147 C   0  0  0  0  0  0
  -26.0409  -26.9133   19.4839 C   0  0  0  0  0  0
  -24.8690  -27.6910   19.4876 C   0  0  0  0  0  0
  -23.6267  -29.8221   20.1602 C   0  0  0  0  0  0
  -25.4110  -36.3081   24.0324 C   0  0  1  0  0  0
  -20.5876  -28.3686   23.1277 C   0  0  2  0  0  0
  -20.6778  -26.9413   22.5401 C   0  0  0  0  0  0
  -19.5760  -26.6392   21.5194 C   0  0  0  0  0  0
  -18.1932  -26.7927   22.1609 C   0  0  0  0  0  0
  -19.1533  -28.8852   23.2873 C   0  0  0  0  0  0
  -18.9466  -30.1447   23.8900 C   0  0  0  0  0  0
  -17.6475  -30.6586   24.0564 C   0  0  0  0  0  0
  -25.9050  -34.9456   23.5093 C   0  0  0  0  0  0
  -16.5359  -29.9091   23.6333 C   0  0  0  0  0  0
  -16.7270  -28.6514   23.0336 C   0  0  0  0  0  0
  -26.4489  -31.6587   25.0704 C   0  0  0  0  0  0
  -25.3742  -31.3710   26.1438 C   0  0  0  0  0  0
  -27.0321  -30.3016   24.6128 C   0  0  0  0  0  0
  -27.6043  -32.4317   25.7480 C   0  0  0  0  0  0
  -27.5569  -37.1799   24.8455 C   0  0  0  0  0  0
  -21.4156  -29.3044   22.3668 N   0  0  0  0  0  0
  -26.4280  -37.3780   23.9406 N   0  0  0  0  0  0
  -24.6817  -31.0666   22.0975 N   0  0  0  0  0  0
  -23.4179  -28.8187   23.2996 O   0  0  0  0  0  0
  -28.3586  -26.5218   20.1618 O   0  0  0  0  0  0
  -26.5617  -34.8926   22.4656 O   0  0  0  0  0  0
  -23.5396  -32.1419   23.7393 O   0  0  0  0  0  0
  -30.4868  -19.2059   21.5734 C   0  0  0  0  0  0
  -29.2114  -19.6153   19.5946 C   0  0  0  0  0  0
  -30.4570  -17.7937   21.3298 C   0  0  0  0  0  0
  -29.1441  -18.2201   19.3820 C   0  0  0  0  0  0
  -29.9180  -20.1741   20.6809 C   0  0  0  0  0  0
  -29.8220  -17.2436   20.1830 C   0  0  0  0  0  0
  -31.3686  -22.1076   21.0815 C   0  0  0  0  0  0
  -29.0993  -22.5551   20.5009 C   0  0  0  0  0  0
  -30.4107  -17.0879   16.4235 C   0  0  0  0  0  0
  -30.6175  -16.1926   17.4021 C   0  0  0  0  0  0
  -31.6738  -23.6130   21.2124 C   0  0  0  0  0  0
  -30.4300  -24.4863   21.4069 C   0  0  0  0  0  0
  -29.3886  -24.1067   20.3588 C   0  0  2  0  0  0
  -29.5355  -15.6512   18.3265 C   0  0  0  0  0  0
  -28.1353  -25.0767   20.3635 C   0  0  0  0  0  0
  -30.1113  -21.6442   20.7857 N   0  0  0  0  0  0
  -29.8598  -15.8125   19.7657 N   0  0  0  0  0  0
  -32.3468  -21.3634   21.2305 O   0  0  0  0  0  0
  -27.9246  -22.1920   20.3593 O   0  0  0  0  0  0
  -31.4895  -12.5161   19.1651 H   0  0  0  0  0  0
  -30.4576  -11.4783   20.1083 H   0  0  0  0  0  0
  -29.7250  -11.2007   17.8717 H   0  0  0  0  0  0
  -29.8029  -12.8240   17.4277 H   0  0  0  0  0  0
  -27.7622  -11.2337   18.9157 H   0  0  0  0  0  0
  -27.4281  -12.4802   17.7563 H   0  0  0  0  0  0
  -27.5969  -14.2081   19.3984 H   0  0  0  0  0  0
  -28.7181  -12.2380   21.4478 H   0  0  0  0  0  0
  -28.4325  -13.9543   21.6884 H   0  0  0  0  0  0
  -25.2750   -9.5676   22.4759 H   0  0  0  0  0  0
  -23.9991   -7.4611   22.7414 H   0  0  0  0  0  0
  -21.0841   -8.8765   19.8938 H   0  0  0  0  0  0
  -22.3688  -10.9662   19.6171 H   0  0  0  0  0  0
  -21.2024   -7.6134   23.9714 H   0  0  0  0  0  0
  -21.1470   -6.0513   25.9078 H   0  0  0  0  0  0
  -22.0614   -2.7597   23.2830 H   0  0  0  0  0  0
  -22.4069  -11.9871   22.4809 H   0  0  0  0  0  0
  -21.1115  -13.1270   22.2578 H   0  0  0  0  0  0
  -24.6743  -15.8494   20.5431 H   0  0  0  0  0  0
  -26.2962  -15.6247   20.1169 H   0  0  0  0  0  0
  -26.7154  -32.5482   23.1099 H   0  0  0  0  0  0
  -25.0034  -33.9749   25.0399 H   0  0  0  0  0  0
  -22.7072  -31.3072   21.4033 H   0  0  0  0  0  0
  -23.3753  -35.9632   23.3299 H   0  0  0  0  0  0
  -24.3583  -36.8927   22.2052 H   0  0  0  0  0  0
  -23.7271  -37.6504   23.6669 H   0  0  0  0  0  0
  -26.0776  -31.5660   20.6018 H   0  0  0  0  0  0
  -26.8372  -30.8554   21.9929 H   0  0  0  0  0  0
  -28.1058  -29.0073   21.2030 H   0  0  0  0  0  0
  -25.9888  -25.9695   18.9650 H   0  0  0  0  0  0
  -23.9783  -27.3152   19.0020 H   0  0  0  0  0  0
  -23.7414  -30.5984   19.4025 H   0  0  0  0  0  0
  -22.7492  -29.2473   19.8592 H   0  0  0  0  0  0
  -25.1296  -36.1910   25.0817 H   0  0  0  0  0  0
  -20.9975  -28.3277   24.1395 H   0  0  0  0  0  0
  -20.5661  -26.2297   23.3593 H   0  0  0  0  0  0
  -21.6651  -26.7434   22.1213 H   0  0  0  0  0  0
  -19.6919  -25.6307   21.1215 H   0  0  0  0  0  0
  -19.6690  -27.3209   20.6726 H   0  0  0  0  0  0
  -17.4184  -26.6637   21.4027 H   0  0  0  0  0  0
  -18.0348  -26.0077   22.9021 H   0  0  0  0  0  0
  -19.7951  -30.7245   24.2273 H   0  0  0  0  0  0
  -17.5040  -31.6268   24.5165 H   0  0  0  0  0  0
  -15.5362  -30.2999   23.7675 H   0  0  0  0  0  0
  -15.8659  -28.0847   22.7047 H   0  0  0  0  0  0
  -24.5910  -30.7065   25.7774 H   0  0  0  0  0  0
  -24.8946  -32.2874   26.4881 H   0  0  0  0  0  0
  -25.8092  -30.8874   27.0193 H   0  0  0  0  0  0
  -26.2870  -29.6761   24.1196 H   0  0  0  0  0  0
  -27.4080  -29.7266   25.4602 H   0  0  0  0  0  0
  -27.8715  -30.4304   23.9293 H   0  0  0  0  0  0
  -27.2641  -33.3604   26.2062 H   0  0  0  0  0  0
  -28.3856  -32.6891   25.0323 H   0  0  0  0  0  0
  -28.0698  -31.8435   26.5398 H   0  0  0  0  0  0
  -28.2580  -38.0104   24.7509 H   0  0  0  0  0  0
  -28.1075  -36.2634   24.6268 H   0  0  0  0  0  0
  -27.2279  -37.1433   25.8857 H   0  0  0  0  0  0
  -20.9308  -29.8764   21.6892 H   0  0  0  0  0  0
  -26.0150  -38.2841   24.1440 H   0  0  0  0  0  0
  -31.0236  -19.5420   22.4493 H   0  0  0  0  0  0
  -28.7320  -20.2580   18.8673 H   0  0  0  0  0  0
  -30.9711  -17.1420   22.0201 H   0  0  0  0  0  0
  -28.5720  -17.9661   18.5072 H   0  0  0  0  0  0
  -31.2278  -17.4283   15.8013 H   0  0  0  0  0  0
  -29.4315  -17.4978   16.2251 H   0  0  0  0  0  0
  -31.6176  -15.8109   17.5574 H   0  0  0  0  0  0
  -32.1901  -23.9110   20.2981 H   0  0  0  0  0  0
  -32.3810  -23.7707   22.0275 H   0  0  0  0  0  0
  -30.7022  -25.5369   21.3045 H   0  0  0  0  0  0
  -30.0272  -24.3673   22.4147 H   0  0  0  0  0  0
  -29.8466  -24.2232   19.3751 H   0  0  0  0  0  0
  -29.3977  -14.6319   18.0593 H   0  0  0  0  0  0
  -28.5510  -16.0338   18.0726 H   0  0  0  0  0  0
  -27.5921  -24.9502   21.3019 H   0  0  0  0  0  0
  -27.4806  -24.6966   19.5826 H   0  0  0  0  0  0
  1 25  1  0  0  0
  1 30  2  0  0  0
  1 87  1  0  0  0
  2  3  1  0  0  0
  2 25  1  0  0  0
  2 90  1  0  0  0
  2 91  1  0  0  0
  3  4  1  0  0  0
  3 92  1  0  0  0
  3 93  1  0  0  0
  4  5  1  0  0  0
  4 94  1  0  0  0
  4 95  1  0  0  0
  5  6  1  0  0  0
  5 26  1  0  0  0
  5 96  1  0  0  0
  6 25  1  0  0  0
  6 97  1  0  0  0
  6 98  1  0  0  0
  7  8  2  0  0  0
  7 26  1  0  0  0
  7 29  1  0  0  0
  8  9  1  0  0  0
  8 22  1  0  0  0
  9 10  1  0  0  0
  9 27  2  0  0  0
 10 11  2  0  0  0
 10 15  1  0  0  0
 11 12  1  0  0  0
 11 99  1  0  0  0
 12 13  2  0  0  0
 12100  1  0  0  0
 13 14  1  0  0  0
 13 31  1  0  0  0
 14 15  2  0  0  0
 14101  1  0  0  0
 15102  1  0  0  0
 16 17  2  0  0  0
 16 21  1  0  0  0
 16 31  1  0  0  0
 17 18  1  0  0  0
 17103  1  0  0  0
 18 19  2  0  0  0
 18104  1  0  0  0
 19 20  1  0  0  0
 19 24  1  0  0  0
 20 21  2  0  0  0
 20105  1  0  0  0
 21 23  1  0  0  0
 22 28  1  0  0  0
 22 32  2  0  0  0
 26 27  1  0  0  0
 28106  1  0  0  0
 28107  1  0  0  0
 29108  1  0  0  0
 29109  1  0  0  0
 33 34  1  0  0  0
 33 66  1  0  0  0
 33 70  2  0  0  0
 34 36  1  0  0  0
 34 59  1  0  0  0
 34110  1  0  0  0
 35 44  2  0  0  0
 35 45  1  0  0  0
 35 68  1  0  0  0
 36 56  1  0  0  0
 36111  1  0  0  0
 37 39  1  0  0  0
 37 47  1  0  0  0
 37 66  1  0  0  0
 37112  1  0  0  0
 38 43  2  0  0  0
 38 46  1  0  0  0
 38 47  1  0  0  0
 39 64  1  0  0  0
 39 67  2  0  0  0
 40 52  1  0  0  0
 40 53  2  0  0  0
 40 58  1  0  0  0
 41113  1  0  0  0
 41114  1  0  0  0
 41115  1  0  0  0
 41 48  1  0  0  0
 42 43  1  0  0  0
 42 66  1  0  0  0
 42116  1  0  0  0
 42117  1  0  0  0
 43 44  1  0  0  0
 44118  1  0  0  0
 45 46  2  0  0  0
 45119  1  0  0  0
 46120  1  0  0  0
 47121  1  0  0  0
 47122  1  0  0  0
 48 56  1  0  0  0
 48 65  1  0  0  0
 48123  1  0  0  0
 49 50  1  0  0  0
 49 53  1  0  0  0
 49 64  1  0  0  0
 49124  1  0  0  0
 50 51  1  0  0  0
 50125  1  0  0  0
 50126  1  0  0  0
 51 52  1  0  0  0
 51127  1  0  0  0
 51128  1  0  0  0
 52129  1  0  0  0
 52130  1  0  0  0
 53 54  1  0  0  0
 54 55  2  0  0  0
 54131  1  0  0  0
 55 57  1  0  0  0
 55132  1  0  0  0
 56 69  2  0  0  0
 57 58  2  0  0  0
 57133  1  0  0  0
 58134  1  0  0  0
 59 60  1  0  0  0
 59 61  1  0  0  0
 59 62  1  0  0  0
 60135  1  0  0  0
 60136  1  0  0  0
 60137  1  0  0  0
 61138  1  0  0  0
 61139  1  0  0  0
 61140  1  0  0  0
 62141  1  0  0  0
 62142  1  0  0  0
 62143  1  0  0  0
 63 65  1  0  0  0
 63144  1  0  0  0
 63145  1  0  0  0
 63146  1  0  0  0
 64147  1  0  0  0
 65148  1  0  0  0
 68 85  1  0  0  0
 71 73  2  0  0  0
 71 75  1  0  0  0
 71149  1  0  0  0
 72 74  1  0  0  0
 72 75  2  0  0  0
 72150  1  0  0  0
 73 76  1  0  0  0
 73151  1  0  0  0
 74 76  2  0  0  0
 74152  1  0  0  0
 75 86  1  0  0  0
 76 87  1  0  0  0
 77 81  1  0  0  0
 77 86  1  0  0  0
 77 88  2  0  0  0
 78 83  1  0  0  0
 78 86  1  0  0  0
 78 89  2  0  0  0
 79 80  2  0  0  0
 79153  1  0  0  0
 79154  1  0  0  0
 80 84  1  0  0  0
 80155  1  0  0  0
 81 82  1  0  0  0
 81156  1  0  0  0
 81157  1  0  0  0
 82 83  1  0  0  0
 82158  1  0  0  0
 82159  1  0  0  0
 83 85  1  0  0  0
 83160  1  0  0  0
 84 87  1  0  0  0
 84161  1  0  0  0
 84162  1  0  0  0
 85163  1  0  0  0
 85164  1  0  0  0
M  ISO  4   1 100  68 101  85 101  87 100
M  END
> <chiral flag>
0

> <version>
0

> <s_m_source_file>
/data/baiqing/PycharmProjects/Reinvent-master-3.2/result/LINK_invent/BTK/process_docking_weight1_custom_product_contain_oxygen_bond_distance_aromatic_linkinvent_7_9_3/rearranged_h_0097.sdf

> <i_m_source_file_index>
51

> <r_mmod_Potential_Energy-OPLS-2005>
441.402862548828

> <r_mmod_Stretch_Energy-OPLS-2005>
103.720207214355

> <r_mmod_Bend_Energy-OPLS-2005>
162.041763305664

> <r_mmod_Torsional_Energy-OPLS-2005>
352.064117431641

> <r_mmod_Improper_Torsional_Energy-OPLS-2005>
20.46750831604

> <r_mmod_Van_der_Waal_Energy-OPLS-2005>
200.136703491211

> <r_mmod_Electrostatic_Energy-OPLS-2005>
-273.193054199219

> <r_mmod_Solvation_Energy-OPLS-2005>
-217.856781005859

> <b_mmod_Minimization_Converged-OPLS-2005>
0

> <r_mmod_RMS_Derivative-OPLS-2005>
2.97054648399353

$$$$
51
                    3D
 Structure written by MMmdl.
162170  0  0  1  0            999 V2000
  -30.7307  -14.5012   20.3763 C   0  0  0  0  0  0
  -30.4132  -12.2722   19.4166 C   0  0  0  0  0  0
  -29.4644  -12.3594   18.1992 C   0  0  0  0  0  0
  -27.9931  -12.2964   18.6386 C   0  0  0  0  0  0
  -27.6506  -13.2118   19.8455 C   0  0  2  0  0  0
  -28.7160  -13.1081   20.9611 C   0  0  0  0  0  0
  -25.2589  -13.8199   20.5734 C   0  0  0  0  0  0
  -24.1830  -13.0474   20.9213 C   0  0  0  0  0  0
  -24.6389  -11.6935   20.8799 C   0  0  0  0  0  0
  -23.9057  -10.4302   21.0433 C   0  0  0  0  0  0
  -24.3607   -9.4210   21.9197 C   0  0  0  0  0  0
  -23.6288   -8.2246   22.0759 C   0  0  0  0  0  0
  -22.4283   -8.0276   21.3529 C   0  0  0  0  0  0
  -21.9909   -9.0257   20.4650 C   0  0  0  0  0  0
  -22.7237  -10.2141   20.3072 C   0  0  0  0  0  0
  -21.6858   -6.0735   22.5276 C   0  0  0  0  0  0
  -21.4011   -6.5634   23.8208 C   0  0  0  0  0  0
  -21.3656   -5.6785   24.9164 C   0  0  0  0  0  0
  -21.6054   -4.3050   24.7215 C   0  0  0  0  0  0
  -21.8818   -3.8142   23.4334 C   0  0  0  0  0  0
  -21.9193   -4.6961   22.3393 C   0  0  0  0  0  0
  -22.7850  -13.5267   21.1860 C   0  0  0  0  0  0
  -22.1666   -4.2140   21.0974 F   0  0  0  0  0  0
  -21.5628   -3.4537   25.7730 F   0  0  0  0  0  0
  -30.0317  -13.3366   20.3528 N   0  0  0  0  0  0
  -26.3018  -12.9387   20.3384 N   0  0  0  0  0  0
  -25.9336  -11.6547   20.5888 N   0  0  0  0  0  0
  -22.0475  -12.8259   22.0410 N   0  0  0  0  0  0
  -25.4321  -15.1915   20.4137 N   0  0  0  0  0  0
  -31.9604  -14.5384   20.3207 O   0  0  0  0  0  0
  -21.6647   -6.8875   21.4236 O   0  0  0  0  0  0
  -22.3531  -14.5554   20.6687 O   0  0  0  0  0  0
  -24.6145  -31.8686   23.2099 C   0  0  0  0  0  0
  -25.9019  -32.4826   23.8417 C   0  0  1  0  0  0
  -27.2301  -27.4434   20.0921 C   0  0  0  0  0  0
  -25.5880  -33.8626   24.2335 N   0  0  0  0  0  0
  -23.4023  -30.4902   21.5536 C   0  0  2  0  0  0
  -24.8509  -28.9624   20.1067 C   0  0  0  0  0  0
  -22.7410  -29.4642   22.5023 C   0  0  0  0  0  0
  -18.0268  -28.1368   22.8504 C   0  0  0  0  0  0
  -24.1492  -36.7313   23.2640 C   0  0  0  0  0  0
  -25.9306  -30.8364   21.3615 C   0  0  0  0  0  0
  -26.0103  -29.4729   20.7060 C   0  0  0  0  0  0
  -27.2072  -28.7203   20.6964 C   0  0  0  0  0  0
  -26.0635  -26.9558   19.4698 C   0  0  0  0  0  0
  -24.8729  -27.7034   19.4821 C   0  0  0  0  0  0
  -23.6089  -29.8224   20.1664 C   0  0  0  0  0  0
  -25.4105  -36.3104   24.0340 C   0  0  1  0  0  0
  -20.5862  -28.3643   23.1343 C   0  0  2  0  0  0
  -20.6748  -26.9386   22.5423 C   0  0  0  0  0  0
  -19.5718  -26.6374   21.5223 C   0  0  0  0  0  0
  -18.1903  -26.7916   22.1638 C   0  0  0  0  0  0
  -19.1510  -28.8819   23.2919 C   0  0  0  0  0  0
  -18.9441  -30.1439   23.8919 C   0  0  0  0  0  0
  -17.6436  -30.6578   24.0562 C   0  0  0  0  0  0
  -25.9033  -34.9480   23.5142 C   0  0  0  0  0  0
  -16.5329  -29.9073   23.6335 C   0  0  0  0  0  0
  -16.7250  -28.6487   23.0356 C   0  0  0  0  0  0
  -26.4445  -31.6583   25.0732 C   0  0  0  0  0  0
  -25.3706  -31.3674   26.1472 C   0  0  0  0  0  0
  -27.0250  -30.3030   24.6080 C   0  0  0  0  0  0
  -27.6042  -32.4274   25.7490 C   0  0  0  0  0  0
  -27.5574  -37.1790   24.8451 C   0  0  0  0  0  0
  -21.4138  -29.3020   22.3770 N   0  0  0  0  0  0
  -26.4292  -37.3775   23.9412 N   0  0  0  0  0  0
  -24.6683  -31.0772   22.1013 N   0  0  0  0  0  0
  -23.4187  -28.8181   23.3067 O   0  0  0  0  0  0
  -28.3457  -26.6389   20.1464 O   0  0  0  0  0  0
  -26.5584  -34.8905   22.4697 O   0  0  0  0  0  0
  -23.5331  -32.1429   23.7482 O   0  0  0  0  0  0
  -28.6673  -17.5314   19.7657 C   0  0  0  0  0  0
  -28.3725  -18.8219   20.2384 C   0  0  0  0  0  0
  -30.0615  -17.1226   21.7143 C   0  0  0  0  0  0
  -29.5777  -16.6915   20.4516 C   0  0  0  0  0  0
  -29.7477  -18.4168   22.1985 C   0  0  0  0  0  0
  -28.9479  -19.2997   21.4315 C   0  0  0  0  0  0
  -31.2882  -16.9346   18.0164 C   0  0  0  0  0  0
  -28.8281  -24.2121   20.5680 C   0  0  0  0  0  0
  -28.4061  -22.9813   21.4148 C   0  0  0  0  0  0
  -30.4004  -15.7107   18.3297 C   0  0  0  0  0  0
  -28.1663  -25.5255   21.0414 C   0  0  0  0  0  0
  -29.0019  -21.6419   20.9350 C   0  0  0  0  0  0
  -30.2741  -18.8498   23.4151 N   0  0  0  0  0  0
  -30.0704  -15.5236   19.7697 N   0  0  0  0  0  0
  -28.7266  -20.5914   21.8741 O   0  0  0  0  0  0
  -31.4509  -12.3573   19.0865 H   0  0  0  0  0  0
  -30.3247  -11.3004   19.9037 H   0  0  0  0  0  0
  -29.6702  -11.5293   17.5226 H   0  0  0  0  0  0
  -29.6257  -13.2531   17.6055 H   0  0  0  0  0  0
  -27.7937  -11.2573   18.9016 H   0  0  0  0  0  0
  -27.3360  -12.5242   17.7983 H   0  0  0  0  0  0
  -27.6598  -14.2350   19.4697 H   0  0  0  0  0  0
  -28.6895  -12.1271   21.4379 H   0  0  0  0  0  0
  -28.5227  -13.8481   21.7421 H   0  0  0  0  0  0
  -25.2737   -9.5691   22.4787 H   0  0  0  0  0  0
  -23.9994   -7.4631   22.7476 H   0  0  0  0  0  0
  -21.0843   -8.8780   19.8954 H   0  0  0  0  0  0
  -22.3685  -10.9689   19.6189 H   0  0  0  0  0  0
  -21.2004   -7.6138   23.9700 H   0  0  0  0  0  0
  -21.1487   -6.0518   25.9064 H   0  0  0  0  0  0
  -22.0603   -2.7608   23.2839 H   0  0  0  0  0  0
  -22.4078  -11.9930   22.4818 H   0  0  0  0  0  0
  -21.1088  -13.1289   22.2568 H   0  0  0  0  0  0
  -24.6733  -15.8530   20.5297 H   0  0  0  0  0  0
  -26.3023  -15.6331   20.1438 H   0  0  0  0  0  0
  -26.7095  -32.5533   23.1201 H   0  0  0  0  0  0
  -25.0058  -33.9793   25.0487 H   0  0  0  0  0  0
  -22.6903  -31.3061   21.4151 H   0  0  0  0  0  0
  -23.3738  -35.9665   23.3314 H   0  0  0  0  0  0
  -24.3582  -36.8915   22.2051 H   0  0  0  0  0  0
  -23.7248  -37.6525   23.6645 H   0  0  0  0  0  0
  -26.0359  -31.6020   20.5918 H   0  0  0  0  0  0
  -26.8206  -30.8931   21.9766 H   0  0  0  0  0  0
  -28.1015  -29.1020   21.1720 H   0  0  0  0  0  0
  -26.0756  -25.9879   18.9911 H   0  0  0  0  0  0
  -23.9871  -27.3094   19.0031 H   0  0  0  0  0  0
  -23.7047  -30.5968   19.4054 H   0  0  0  0  0  0
  -22.7355  -29.2346   19.8774 H   0  0  0  0  0  0
  -25.1271  -36.1984   25.0830 H   0  0  0  0  0  0
  -20.9925  -28.3192   24.1471 H   0  0  0  0  0  0
  -20.5659  -26.2252   23.3602 H   0  0  0  0  0  0
  -21.6630  -26.7444   22.1216 H   0  0  0  0  0  0
  -19.6890  -25.6291   21.1244 H   0  0  0  0  0  0
  -19.6661  -27.3198   20.6765 H   0  0  0  0  0  0
  -17.4179  -26.6677   21.4034 H   0  0  0  0  0  0
  -18.0305  -26.0039   22.9020 H   0  0  0  0  0  0
  -19.7912  -30.7258   24.2288 H   0  0  0  0  0  0
  -17.4987  -31.6271   24.5158 H   0  0  0  0  0  0
  -15.5328  -30.2980   23.7639 H   0  0  0  0  0  0
  -15.8648  -28.0811   22.7058 H   0  0  0  0  0  0
  -24.5865  -30.7046   25.7795 H   0  0  0  0  0  0
  -24.8913  -32.2821   26.4962 H   0  0  0  0  0  0
  -25.8040  -30.8793   27.0202 H   0  0  0  0  0  0
  -27.8594  -30.4369   23.9189 H   0  0  0  0  0  0
  -26.2769  -29.6815   24.1155 H   0  0  0  0  0  0
  -27.4052  -29.7256   25.4523 H   0  0  0  0  0  0
  -27.2667  -33.3562   26.2120 H   0  0  0  0  0  0
  -28.3818  -32.6842   25.0291 H   0  0  0  0  0  0
  -28.0713  -31.8353   26.5381 H   0  0  0  0  0  0
  -28.2591  -38.0079   24.7494 H   0  0  0  0  0  0
  -28.1068  -36.2610   24.6290 H   0  0  0  0  0  0
  -27.2306  -37.1468   25.8858 H   0  0  0  0  0  0
  -20.9287  -29.8761   21.7016 H   0  0  0  0  0  0
  -26.0189  -38.2864   24.1389 H   0  0  0  0  0  0
  -28.2399  -17.2347   18.8192 H   0  0  0  0  0  0
  -27.7224  -19.4469   19.6465 H   0  0  0  0  0  0
  -30.7311  -16.4990   22.2888 H   0  0  0  0  0  0
  -30.8141  -17.8877   18.2446 H   0  0  0  0  0  0
  -31.5344  -16.9525   16.9537 H   0  0  0  0  0  0
  -32.2328  -16.8926   18.5612 H   0  0  0  0  0  0
  -28.5603  -24.0304   19.5287 H   0  0  0  0  0  0
  -29.9133  -24.3248   20.5959 H   0  0  0  0  0  0
  -27.3175  -22.8945   21.4034 H   0  0  0  0  0  0
  -28.6798  -23.1470   22.4566 H   0  0  0  0  0  0
  -30.9496  -14.8549   17.9365 H   0  0  0  0  0  0
  -29.4808  -15.7428   17.7455 H   0  0  0  0  0  0
  -28.5739  -25.8129   22.0122 H   0  0  0  0  0  0
  -27.1095  -25.3140   21.2141 H   0  0  0  0  0  0
  -30.0847  -21.7301   20.8357 H   0  0  0  0  0  0
  -28.6110  -21.4293   19.9410 H   0  0  0  0  0  0
  -31.0622  -18.3590   23.8297 H   0  0  0  0  0  0
  -30.2601  -19.8467   23.6104 H   0  0  0  0  0  0
  1 25  1  0  0  0
  1 30  2  0  0  0
  1 84  1  0  0  0
  2  3  1  0  0  0
  2 25  1  0  0  0
  2 86  1  0  0  0
  2 87  1  0  0  0
  3  4  1  0  0  0
  3 88  1  0  0  0
  3 89  1  0  0  0
  4  5  1  0  0  0
  4 90  1  0  0  0
  4 91  1  0  0  0
  5  6  1  0  0  0
  5 26  1  0  0  0
  5 92  1  0  0  0
  6 25  1  0  0  0
  6 93  1  0  0  0
  6 94  1  0  0  0
  7  8  2  0  0  0
  7 26  1  0  0  0
  7 29  1  0  0  0
  8  9  1  0  0  0
  8 22  1  0  0  0
  9 10  1  0  0  0
  9 27  2  0  0  0
 10 11  2  0  0  0
 10 15  1  0  0  0
 11 12  1  0  0  0
 11 95  1  0  0  0
 12 13  2  0  0  0
 12 96  1  0  0  0
 13 14  1  0  0  0
 13 31  1  0  0  0
 14 15  2  0  0  0
 14 97  1  0  0  0
 15 98  1  0  0  0
 16 17  2  0  0  0
 16 21  1  0  0  0
 16 31  1  0  0  0
 17 18  1  0  0  0
 17 99  1  0  0  0
 18 19  2  0  0  0
 18100  1  0  0  0
 19 20  1  0  0  0
 19 24  1  0  0  0
 20 21  2  0  0  0
 20101  1  0  0  0
 21 23  1  0  0  0
 22 28  1  0  0  0
 22 32  2  0  0  0
 26 27  1  0  0  0
 28102  1  0  0  0
 28103  1  0  0  0
 29104  1  0  0  0
 29105  1  0  0  0
 33 34  1  0  0  0
 33 66  1  0  0  0
 33 70  2  0  0  0
 34 36  1  0  0  0
 34 59  1  0  0  0
 34106  1  0  0  0
 35 44  2  0  0  0
 35 45  1  0  0  0
 35 68  1  0  0  0
 36 56  1  0  0  0
 36107  1  0  0  0
 37 39  1  0  0  0
 37 47  1  0  0  0
 37 66  1  0  0  0
 37108  1  0  0  0
 38 43  2  0  0  0
 38 46  1  0  0  0
 38 47  1  0  0  0
 39 64  1  0  0  0
 39 67  2  0  0  0
 40 52  1  0  0  0
 40 53  2  0  0  0
 40 58  1  0  0  0
 41109  1  0  0  0
 41110  1  0  0  0
 41111  1  0  0  0
 41 48  1  0  0  0
 42 43  1  0  0  0
 42 66  1  0  0  0
 42112  1  0  0  0
 42113  1  0  0  0
 43 44  1  0  0  0
 44114  1  0  0  0
 45 46  2  0  0  0
 45115  1  0  0  0
 46116  1  0  0  0
 47117  1  0  0  0
 47118  1  0  0  0
 48 56  1  0  0  0
 48 65  1  0  0  0
 48119  1  0  0  0
 49 50  1  0  0  0
 49 53  1  0  0  0
 49 64  1  0  0  0
 49120  1  0  0  0
 50 51  1  0  0  0
 50121  1  0  0  0
 50122  1  0  0  0
 51 52  1  0  0  0
 51123  1  0  0  0
 51124  1  0  0  0
 52125  1  0  0  0
 52126  1  0  0  0
 53 54  1  0  0  0
 54 55  2  0  0  0
 54127  1  0  0  0
 55 57  1  0  0  0
 55128  1  0  0  0
 56 69  2  0  0  0
 57 58  2  0  0  0
 57129  1  0  0  0
 58130  1  0  0  0
 59 60  1  0  0  0
 59 61  1  0  0  0
 59 62  1  0  0  0
 60131  1  0  0  0
 60132  1  0  0  0
 60133  1  0  0  0
 61134  1  0  0  0
 61135  1  0  0  0
 61136  1  0  0  0
 62137  1  0  0  0
 62138  1  0  0  0
 62139  1  0  0  0
 63 65  1  0  0  0
 63140  1  0  0  0
 63141  1  0  0  0
 63142  1  0  0  0
 64143  1  0  0  0
 65144  1  0  0  0
 68 81  1  0  0  0
 71 72  2  0  0  0
 71 74  1  0  0  0
 71145  1  0  0  0
 72 76  1  0  0  0
 72146  1  0  0  0
 73 74  2  0  0  0
 73 75  1  0  0  0
 73147  1  0  0  0
 74 84  1  0  0  0
 75 76  2  0  0  0
 75 83  1  0  0  0
 76 85  1  0  0  0
 77 80  1  0  0  0
 77148  1  0  0  0
 77149  1  0  0  0
 77150  1  0  0  0
 78 79  1  0  0  0
 78 81  1  0  0  0
 78151  1  0  0  0
 78152  1  0  0  0
 79 82  1  0  0  0
 79153  1  0  0  0
 79154  1  0  0  0
 80 84  1  0  0  0
 80155  1  0  0  0
 80156  1  0  0  0
 81157  1  0  0  0
 81158  1  0  0  0
 82 85  1  0  0  0
 82159  1  0  0  0
 82160  1  0  0  0
 83161  1  0  0  0
 83162  1  0  0  0
M  ISO  4   1 100  68 101  81 101  84 100
M  END
> <chiral flag>
0

> <version>
0

> <s_m_source_file>
/data/baiqing/PycharmProjects/Reinvent-master-3.2/result/LINK_invent/BTK/process_docking_weight1_custom_product_contain_oxygen_bond_distance_aromatic_linkinvent_7_9_3/rearranged_h_0097.sdf

> <i_m_source_file_index>
52

> <r_mmod_Potential_Energy-OPLS-2005>
226.298873901367

> <r_mmod_Stretch_Energy-OPLS-2005>
40.6631774902344

> <r_mmod_Bend_Energy-OPLS-2005>
104.665718078613

> <r_mmod_Torsional_Energy-OPLS-2005>
356.055236816406

> <r_mmod_Improper_Torsional_Energy-OPLS-2005>
29.8127174377441

> <r_mmod_Van_der_Waal_Energy-OPLS-2005>
156.68098449707

> <r_mmod_Electrostatic_Energy-OPLS-2005>
-303.582061767578

> <r_mmod_Solvation_Energy-OPLS-2005>
-200.199005126953

> <b_mmod_Minimization_Converged-OPLS-2005>
0

> <r_mmod_RMS_Derivative-OPLS-2005>
3.69770121574402

$$$$
52
                    3D
 Structure written by MMmdl.
158166  0  0  1  0            999 V2000
  -30.7441  -14.4442   20.4982 C   0  0  0  0  0  0
  -30.4030  -12.2708   19.4312 C   0  0  0  0  0  0
  -29.4895  -12.4753   18.2067 C   0  0  0  0  0  0
  -28.0094  -12.3595   18.6193 C   0  0  0  0  0  0
  -27.6575  -13.2146   19.8676 C   0  0  2  0  0  0
  -28.7032  -13.0403   20.9936 C   0  0  0  0  0  0
  -25.2574  -13.8177   20.5700 C   0  0  0  0  0  0
  -24.1838  -13.0445   20.9198 C   0  0  0  0  0  0
  -24.6404  -11.6918   20.8747 C   0  0  0  0  0  0
  -23.9073  -10.4300   21.0407 C   0  0  0  0  0  0
  -24.3620   -9.4212   21.9185 C   0  0  0  0  0  0
  -23.6296   -8.2248   22.0754 C   0  0  0  0  0  0
  -22.4282   -8.0282   21.3540 C   0  0  0  0  0  0
  -21.9920   -9.0257   20.4642 C   0  0  0  0  0  0
  -22.7246  -10.2138   20.3054 C   0  0  0  0  0  0
  -21.6847   -6.0742   22.5279 C   0  0  0  0  0  0
  -21.4018   -6.5645   23.8215 C   0  0  0  0  0  0
  -21.3658   -5.6793   24.9174 C   0  0  0  0  0  0
  -21.6042   -4.3057   24.7221 C   0  0  0  0  0  0
  -21.8819   -3.8155   23.4342 C   0  0  0  0  0  0
  -21.9196   -4.6972   22.3399 C   0  0  0  0  0  0
  -22.7861  -13.5237   21.1851 C   0  0  0  0  0  0
  -22.1661   -4.2156   21.0974 F   0  0  0  0  0  0
  -21.5628   -3.4543   25.7732 F   0  0  0  0  0  0
  -30.0314  -13.2925   20.4210 N   0  0  0  0  0  0
  -26.3018  -12.9373   20.3370 N   0  0  0  0  0  0
  -25.9332  -11.6527   20.5785 N   0  0  0  0  0  0
  -22.0498  -12.8220   22.0395 N   0  0  0  0  0  0
  -25.4291  -15.1893   20.4086 N   0  0  0  0  0  0
  -31.9289  -14.5069   20.1678 O   0  0  0  0  0  0
  -21.6639   -6.8886   21.4241 O   0  0  0  0  0  0
  -22.3547  -14.5543   20.6697 O   0  0  0  0  0  0
  -24.6151  -31.8680   23.2129 C   0  0  0  0  0  0
  -25.9041  -32.4829   23.8429 C   0  0  1  0  0  0
  -27.2232  -27.4340   20.0842 C   0  0  0  0  0  0
  -25.5891  -33.8629   24.2344 N   0  0  0  0  0  0
  -23.4038  -30.4920   21.5535 C   0  0  2  0  0  0
  -24.8453  -28.9655   20.1096 C   0  0  0  0  0  0
  -22.7430  -29.4629   22.5005 C   0  0  0  0  0  0
  -18.0260  -28.1357   22.8481 C   0  0  0  0  0  0
  -24.1484  -36.7304   23.2650 C   0  0  0  0  0  0
  -25.9349  -30.8312   21.3699 C   0  0  0  0  0  0
  -26.0078  -29.4712   20.7054 C   0  0  0  0  0  0
  -27.2015  -28.7125   20.6887 C   0  0  0  0  0  0
  -26.0411  -26.9478   19.4789 C   0  0  0  0  0  0
  -24.8570  -27.7048   19.4930 C   0  0  0  0  0  0
  -23.6094  -29.8323   20.1651 C   0  0  0  0  0  0
  -25.4101  -36.3113   24.0348 C   0  0  1  0  0  0
  -20.5860  -28.3633   23.1312 C   0  0  2  0  0  0
  -20.6752  -26.9377   22.5413 C   0  0  0  0  0  0
  -19.5729  -26.6366   21.5197 C   0  0  0  0  0  0
  -18.1902  -26.7900   22.1608 C   0  0  0  0  0  0
  -19.1519  -28.8811   23.2880 C   0  0  0  0  0  0
  -18.9455  -30.1424   23.8888 C   0  0  0  0  0  0
  -17.6458  -30.6572   24.0554 C   0  0  0  0  0  0
  -25.9028  -34.9484   23.5141 C   0  0  0  0  0  0
  -16.5344  -29.9061   23.6336 C   0  0  0  0  0  0
  -16.7255  -28.6487   23.0356 C   0  0  0  0  0  0
  -26.4462  -31.6618   25.0765 C   0  0  0  0  0  0
  -25.3726  -31.3723   26.1520 C   0  0  0  0  0  0
  -27.0302  -30.3063   24.6145 C   0  0  0  0  0  0
  -27.6040  -32.4357   25.7508 C   0  0  0  0  0  0
  -27.5577  -37.1799   24.8463 C   0  0  0  0  0  0
  -21.4153  -29.3002   22.3739 N   0  0  0  0  0  0
  -26.4287  -37.3799   23.9421 N   0  0  0  0  0  0
  -24.6690  -31.0782   22.1033 N   0  0  0  0  0  0
  -23.4186  -28.8169   23.3048 O   0  0  0  0  0  0
  -28.3785  -26.6689   20.1424 O   0  0  0  0  0  0
  -26.5600  -34.8935   22.4707 O   0  0  0  0  0  0
  -23.5334  -32.1442   23.7505 O   0  0  0  0  0  0
  -28.6825  -18.6007   20.3190 C   0  0  0  0  0  0
  -28.2227  -19.8777   20.7167 C   0  0  0  0  0  0
  -30.6749  -18.8966   21.6846 C   0  0  0  0  0  0
  -29.9351  -18.1199   20.7662 C   0  0  0  0  0  0
  -29.0028  -20.6817   21.5803 C   0  0  0  0  0  0
  -30.2124  -20.1633   22.0876 C   0  0  0  0  0  0
  -30.5627  -16.9437   18.6225 C   0  0  0  0  0  0
  -28.9666  -24.0547   20.6200 C   0  0  0  0  0  0
  -28.0043  -22.9181   21.0579 C   0  0  0  0  0  0
  -28.2384  -25.2499   19.9308 C   0  0  0  0  0  0
  -30.5743  -16.8701   20.1667 C   0  0  2  0  0  0
  -28.6331  -21.9751   21.9853 N   0  0  0  0  0  0
  -30.0380  -15.5820   20.6399 N   0  0  0  0  0  0
  -30.9570  -20.9068   22.9445 F   0  0  0  0  0  0
  -31.4518  -12.3250   19.1341 H   0  0  0  0  0  0
  -30.2654  -11.2737   19.8527 H   0  0  0  0  0  0
  -29.7188  -11.7336   17.4401 H   0  0  0  0  0  0
  -29.6771  -13.4516   17.7556 H   0  0  0  0  0  0
  -27.8083  -11.3077   18.8223 H   0  0  0  0  0  0
  -27.3645  -12.6348   17.7840 H   0  0  0  0  0  0
  -27.6892  -14.2560   19.5476 H   0  0  0  0  0  0
  -28.6678  -12.0273   21.3978 H   0  0  0  0  0  0
  -28.4963  -13.7087   21.8310 H   0  0  0  0  0  0
  -25.2767   -9.5686   22.4762 H   0  0  0  0  0  0
  -24.0006   -7.4636   22.7470 H   0  0  0  0  0  0
  -21.0860   -8.8773   19.8933 H   0  0  0  0  0  0
  -22.3710  -10.9679   19.6160 H   0  0  0  0  0  0
  -21.2011   -7.6153   23.9717 H   0  0  0  0  0  0
  -21.1478   -6.0524   25.9072 H   0  0  0  0  0  0
  -22.0600   -2.7618   23.2836 H   0  0  0  0  0  0
  -22.4123  -11.9890   22.4798 H   0  0  0  0  0  0
  -21.1098  -13.1223   22.2566 H   0  0  0  0  0  0
  -24.6666  -15.8473   20.5264 H   0  0  0  0  0  0
  -26.2782  -15.6252   20.0726 H   0  0  0  0  0  0
  -26.7125  -32.5529   23.1207 H   0  0  0  0  0  0
  -25.0033  -33.9775   25.0478 H   0  0  0  0  0  0
  -22.6921  -31.3084   21.4195 H   0  0  0  0  0  0
  -23.3747  -35.9636   23.3311 H   0  0  0  0  0  0
  -24.3566  -36.8909   22.2067 H   0  0  0  0  0  0
  -23.7224  -37.6506   23.6643 H   0  0  0  0  0  0
  -26.0572  -31.6054   20.6107 H   0  0  0  0  0  0
  -26.8203  -30.8706   21.9938 H   0  0  0  0  0  0
  -28.0979  -29.0911   21.1601 H   0  0  0  0  0  0
  -26.0135  -25.9818   18.9953 H   0  0  0  0  0  0
  -23.9631  -27.3113   19.0301 H   0  0  0  0  0  0
  -23.7182  -30.6121   19.4103 H   0  0  0  0  0  0
  -22.7310  -29.2578   19.8681 H   0  0  0  0  0  0
  -25.1263  -36.1991   25.0836 H   0  0  0  0  0  0
  -20.9935  -28.3202   24.1435 H   0  0  0  0  0  0
  -20.5668  -26.2243   23.3597 H   0  0  0  0  0  0
  -21.6613  -26.7423   22.1185 H   0  0  0  0  0  0
  -19.6907  -25.6284   21.1211 H   0  0  0  0  0  0
  -19.6665  -27.3190   20.6743 H   0  0  0  0  0  0
  -17.4170  -26.6643   21.4011 H   0  0  0  0  0  0
  -18.0294  -26.0045   22.9011 H   0  0  0  0  0  0
  -19.7944  -30.7220   24.2259 H   0  0  0  0  0  0
  -17.5022  -31.6262   24.5134 H   0  0  0  0  0  0
  -15.5338  -30.2961   23.7689 H   0  0  0  0  0  0
  -15.8643  -28.0806   22.7082 H   0  0  0  0  0  0
  -24.5883  -30.7075   25.7872 H   0  0  0  0  0  0
  -24.8925  -32.2880   26.4987 H   0  0  0  0  0  0
  -25.8089  -30.8900   27.0269 H   0  0  0  0  0  0
  -26.2851  -29.6836   24.1187 H   0  0  0  0  0  0
  -27.4049  -29.7295   25.4604 H   0  0  0  0  0  0
  -27.8693  -30.4387   23.9310 H   0  0  0  0  0  0
  -27.2632  -33.3653   26.2080 H   0  0  0  0  0  0
  -28.3824  -32.6930   25.0307 H   0  0  0  0  0  0
  -28.0728  -31.8493   26.5418 H   0  0  0  0  0  0
  -28.2584  -38.0113   24.7523 H   0  0  0  0  0  0
  -28.1077  -36.2638   24.6256 H   0  0  0  0  0  0
  -27.2288  -37.1406   25.8866 H   0  0  0  0  0  0
  -20.9321  -29.8732   21.6962 H   0  0  0  0  0  0
  -26.0185  -38.2868   24.1453 H   0  0  0  0  0  0
  -28.0924  -18.0198   19.6239 H   0  0  0  0  0  0
  -27.2742  -20.2341   20.3388 H   0  0  0  0  0  0
  -31.6339  -18.5548   22.0459 H   0  0  0  0  0  0
  -30.9975  -17.8825   18.2777 H   0  0  0  0  0  0
  -29.5546  -16.8759   18.2149 H   0  0  0  0  0  0
  -31.1522  -16.1447   18.1712 H   0  0  0  0  0  0
  -29.7070  -23.6131   19.9473 H   0  0  0  0  0  0
  -29.5383  -24.4165   21.4795 H   0  0  0  0  0  0
  -27.6023  -22.4223   20.1738 H   0  0  0  0  0  0
  -27.1437  -23.3455   21.5751 H   0  0  0  0  0  0
  -29.2162  -25.5127   19.5237 H   0  0  0  0  0  0
  -27.7829  -25.3618   20.9164 H   0  0  0  0  0  0
  -31.6240  -16.9197   20.4661 H   0  0  0  0  0  0
  -29.2999  -22.3789   22.6381 H   0  0  0  0  0  0
  -29.0625  -15.5233   20.8855 H   0  0  0  0  0  0
  1 25  1  0  0  0
  1 30  2  0  0  0
  1 83  1  0  0  0
  2  3  1  0  0  0
  2 25  1  0  0  0
  2 85  1  0  0  0
  2 86  1  0  0  0
  3  4  1  0  0  0
  3 87  1  0  0  0
  3 88  1  0  0  0
  4  5  1  0  0  0
  4 89  1  0  0  0
  4 90  1  0  0  0
  5  6  1  0  0  0
  5 26  1  0  0  0
  5 91  1  0  0  0
  6 25  1  0  0  0
  6 92  1  0  0  0
  6 93  1  0  0  0
  7  8  2  0  0  0
  7 26  1  0  0  0
  7 29  1  0  0  0
  8  9  1  0  0  0
  8 22  1  0  0  0
  9 10  1  0  0  0
  9 27  2  0  0  0
 10 11  2  0  0  0
 10 15  1  0  0  0
 11 12  1  0  0  0
 11 94  1  0  0  0
 12 13  2  0  0  0
 12 95  1  0  0  0
 13 14  1  0  0  0
 13 31  1  0  0  0
 14 15  2  0  0  0
 14 96  1  0  0  0
 15 97  1  0  0  0
 16 17  2  0  0  0
 16 21  1  0  0  0
 16 31  1  0  0  0
 17 18  1  0  0  0
 17 98  1  0  0  0
 18 19  2  0  0  0
 18 99  1  0  0  0
 19 20  1  0  0  0
 19 24  1  0  0  0
 20 21  2  0  0  0
 20100  1  0  0  0
 21 23  1  0  0  0
 22 28  1  0  0  0
 22 32  2  0  0  0
 26 27  1  0  0  0
 28101  1  0  0  0
 28102  1  0  0  0
 29103  1  0  0  0
 29104  1  0  0  0
 33 34  1  0  0  0
 33 66  1  0  0  0
 33 70  2  0  0  0
 34 36  1  0  0  0
 34 59  1  0  0  0
 34105  1  0  0  0
 35 44  2  0  0  0
 35 45  1  0  0  0
 35 68  1  0  0  0
 36 56  1  0  0  0
 36106  1  0  0  0
 37 39  1  0  0  0
 37 47  1  0  0  0
 37 66  1  0  0  0
 37107  1  0  0  0
 38 43  2  0  0  0
 38 46  1  0  0  0
 38 47  1  0  0  0
 39 64  1  0  0  0
 39 67  2  0  0  0
 40 52  1  0  0  0
 40 53  2  0  0  0
 40 58  1  0  0  0
 41108  1  0  0  0
 41109  1  0  0  0
 41110  1  0  0  0
 41 48  1  0  0  0
 42 43  1  0  0  0
 42 66  1  0  0  0
 42111  1  0  0  0
 42112  1  0  0  0
 43 44  1  0  0  0
 44113  1  0  0  0
 45 46  2  0  0  0
 45114  1  0  0  0
 46115  1  0  0  0
 47116  1  0  0  0
 47117  1  0  0  0
 48 56  1  0  0  0
 48 65  1  0  0  0
 48118  1  0  0  0
 49 50  1  0  0  0
 49 53  1  0  0  0
 49 64  1  0  0  0
 49119  1  0  0  0
 50 51  1  0  0  0
 50120  1  0  0  0
 50121  1  0  0  0
 51 52  1  0  0  0
 51122  1  0  0  0
 51123  1  0  0  0
 52124  1  0  0  0
 52125  1  0  0  0
 53 54  1  0  0  0
 54 55  2  0  0  0
 54126  1  0  0  0
 55 57  1  0  0  0
 55127  1  0  0  0
 56 69  2  0  0  0
 57 58  2  0  0  0
 57128  1  0  0  0
 58129  1  0  0  0
 59 60  1  0  0  0
 59 61  1  0  0  0
 59 62  1  0  0  0
 60130  1  0  0  0
 60131  1  0  0  0
 60132  1  0  0  0
 61133  1  0  0  0
 61134  1  0  0  0
 61135  1  0  0  0
 62136  1  0  0  0
 62137  1  0  0  0
 62138  1  0  0  0
 63 65  1  0  0  0
 63139  1  0  0  0
 63140  1  0  0  0
 63141  1  0  0  0
 64142  1  0  0  0
 65143  1  0  0  0
 68 80  1  0  0  0
 71 72  2  0  0  0
 71 74  1  0  0  0
 71144  1  0  0  0
 72 75  1  0  0  0
 72145  1  0  0  0
 73 74  2  0  0  0
 73 76  1  0  0  0
 73146  1  0  0  0
 74 81  1  0  0  0
 75 76  2  0  0  0
 75 82  1  0  0  0
 76 84  1  0  0  0
 77147  1  0  0  0
 77148  1  0  0  0
 77149  1  0  0  0
 77 81  1  0  0  0
 78 79  1  0  0  0
 78 80  1  0  0  0
 78150  1  0  0  0
 78151  1  0  0  0
 79 82  1  0  0  0
 79152  1  0  0  0
 79153  1  0  0  0
 80154  1  0  0  0
 80155  1  0  0  0
 81 83  1  0  0  0
 81156  1  0  0  0
 82157  1  0  0  0
 83158  1  0  0  0
M  ISO  4   1 100  68 101  80 101  83 100
M  END
> <chiral flag>
0

> <version>
0

> <s_m_source_file>
/data/baiqing/PycharmProjects/Reinvent-master-3.2/result/LINK_invent/BTK/process_docking_weight1_custom_product_contain_oxygen_bond_distance_aromatic_linkinvent_7_9_3/rearranged_h_0097.sdf

> <i_m_source_file_index>
53

> <r_mmod_Potential_Energy-OPLS-2005>
182.967636108398

> <r_mmod_Stretch_Energy-OPLS-2005>
36.9089164733887

> <r_mmod_Bend_Energy-OPLS-2005>
318.071441650391

> <r_mmod_Torsional_Energy-OPLS-2005>
217.123168945312

> <r_mmod_Improper_Torsional_Energy-OPLS-2005>
11.9437189102173

> <r_mmod_Van_der_Waal_Energy-OPLS-2005>
170.246688842773

> <r_mmod_Electrostatic_Energy-OPLS-2005>
-384.995300292969

> <r_mmod_Solvation_Energy-OPLS-2005>
-208.212478637695

> <b_mmod_Minimization_Converged-OPLS-2005>
0

> <r_mmod_RMS_Derivative-OPLS-2005>
2.48585200309753

$$$$
53
                    3D
 Structure written by MMmdl.
160169  0  0  1  0            999 V2000
  -30.7819  -14.4395   20.5600 C   0  0  0  0  0  0
  -30.4149  -12.2780   19.4536 C   0  0  0  0  0  0
  -29.4958  -12.4465   18.2285 C   0  0  0  0  0  0
  -28.0231  -12.3094   18.6498 C   0  0  0  0  0  0
  -27.6621  -13.2022   19.8655 C   0  0  2  0  0  0
  -28.7027  -13.0453   20.9999 C   0  0  0  0  0  0
  -25.2613  -13.8172   20.5719 C   0  0  0  0  0  0
  -24.1859  -13.0505   20.9164 C   0  0  0  0  0  0
  -24.6369  -11.6920   20.8752 C   0  0  0  0  0  0
  -23.9020  -10.4309   21.0402 C   0  0  0  0  0  0
  -24.3585   -9.4210   21.9175 C   0  0  0  0  0  0
  -23.6258   -8.2259   22.0779 C   0  0  0  0  0  0
  -22.4236   -8.0302   21.3582 C   0  0  0  0  0  0
  -21.9863   -9.0251   20.4658 C   0  0  0  0  0  0
  -22.7194  -10.2125   20.3036 C   0  0  0  0  0  0
  -21.6853   -6.0709   22.5265 C   0  0  0  0  0  0
  -21.4024   -6.5630   23.8187 C   0  0  0  0  0  0
  -21.3643   -5.6793   24.9165 C   0  0  0  0  0  0
  -21.6054   -4.3055   24.7235 C   0  0  0  0  0  0
  -21.8822   -3.8128   23.4365 C   0  0  0  0  0  0
  -21.9197   -4.6937   22.3408 C   0  0  0  0  0  0
  -22.7859  -13.5292   21.1817 C   0  0  0  0  0  0
  -22.1667   -4.2125   21.0983 F   0  0  0  0  0  0
  -21.5615   -3.4535   25.7744 F   0  0  0  0  0  0
  -30.0438  -13.2969   20.4510 N   0  0  0  0  0  0
  -26.3013  -12.9316   20.3303 N   0  0  0  0  0  0
  -25.9301  -11.6483   20.5818 N   0  0  0  0  0  0
  -22.0467  -12.8314   22.0338 N   0  0  0  0  0  0
  -25.4425  -15.1923   20.4219 N   0  0  0  0  0  0
  -31.9130  -14.5213   20.0759 O   0  0  0  0  0  0
  -21.6672   -6.8862   21.4229 O   0  0  0  0  0  0
  -22.3546  -14.5611   20.6634 O   0  0  0  0  0  0
  -24.6179  -31.8718   23.2124 C   0  0  0  0  0  0
  -25.9091  -32.4854   23.8409 C   0  0  1  0  0  0
  -27.1912  -27.4181   20.1292 C   0  0  0  0  0  0
  -25.5953  -33.8620   24.2357 N   0  0  0  0  0  0
  -23.4057  -30.4955   21.5543 C   0  0  2  0  0  0
  -24.8482  -28.9825   20.0853 C   0  0  0  0  0  0
  -22.7467  -29.4639   22.5010 C   0  0  0  0  0  0
  -18.0300  -28.1430   22.8314 C   0  0  0  0  0  0
  -24.1481  -36.7299   23.2635 C   0  0  0  0  0  0
  -25.9371  -30.8298   21.3684 C   0  0  0  0  0  0
  -26.0018  -29.4718   20.7108 C   0  0  0  0  0  0
  -27.1794  -28.6914   20.7372 C   0  0  0  0  0  0
  -26.0407  -26.9778   19.4333 C   0  0  0  0  0  0
  -24.8625  -27.7388   19.4329 C   0  0  0  0  0  0
  -23.6114  -29.8390   20.1601 C   0  0  0  0  0  0
  -25.4103  -36.3115   24.0349 C   0  0  1  0  0  0
  -20.5856  -28.3614   23.1294 C   0  0  2  0  0  0
  -20.6680  -26.9383   22.5455 C   0  0  0  0  0  0
  -19.5884  -26.6613   21.4966 C   0  0  0  0  0  0
  -18.1916  -26.8264   22.0937 C   0  0  0  0  0  0
  -19.1512  -28.8792   23.2955 C   0  0  0  0  0  0
  -18.9456  -30.1279   23.9250 C   0  0  0  0  0  0
  -17.6428  -30.6416   24.0825 C   0  0  0  0  0  0
  -25.9021  -34.9485   23.5146 C   0  0  0  0  0  0
  -16.5323  -29.8994   23.6406 C   0  0  0  0  0  0
  -16.7277  -28.6537   23.0194 C   0  0  0  0  0  0
  -26.4491  -31.6610   25.0715 C   0  0  0  0  0  0
  -25.3780  -31.3715   26.1470 C   0  0  0  0  0  0
  -27.0340  -30.3069   24.6118 C   0  0  0  0  0  0
  -27.6050  -32.4386   25.7472 C   0  0  0  0  0  0
  -27.5583  -37.1826   24.8477 C   0  0  0  0  0  0
  -21.4224  -29.2924   22.3746 N   0  0  0  0  0  0
  -26.4297  -37.3815   23.9403 N   0  0  0  0  0  0
  -24.6743  -31.0754   22.1052 N   0  0  0  0  0  0
  -23.4222  -28.8227   23.3073 O   0  0  0  0  0  0
  -28.1900  -26.5133   20.4088 O   0  0  0  0  0  0
  -26.5551  -34.8962   22.4694 O   0  0  0  0  0  0
  -23.5340  -32.1459   23.7514 O   0  0  0  0  0  0
  -29.7124  -18.5921   22.1031 C   0  0  0  0  0  0
  -29.7634  -19.0671   19.7175 C   0  0  0  0  0  0
  -29.2711  -19.9097   22.3430 C   0  0  0  0  0  0
  -29.2935  -20.3712   19.9475 C   0  0  0  0  0  0
  -29.9484  -18.1578   20.7829 C   0  0  0  0  0  0
  -28.9964  -20.7798   21.2579 C   0  0  0  0  0  0
  -26.9808  -21.8982   21.8361 C   0  0  0  0  0  0
  -30.3451  -16.7823   20.4479 C   0  0  0  0  0  0
  -30.1462  -15.6245   21.1257 C   0  0  0  0  0  0
  -26.3948  -23.0743   22.6115 C   0  0  0  0  0  0
  -27.5334  -23.9101   23.2284 C   0  0  0  0  0  0
  -28.9455  -23.3011   21.2359 C   0  0  0  0  0  0
  -28.4114  -24.4871   22.0972 C   0  0  1  0  0  0
  -27.5842  -25.5317   21.3009 C   0  0  0  0  0  0
  -28.2834  -21.9881   21.4658 N   0  0  0  0  0  0
  -26.2698  -20.9106   21.6111 O   0  0  0  0  0  0
  -31.4593  -12.3356   19.1412 H   0  0  0  0  0  0
  -30.3028  -11.2815   19.8897 H   0  0  0  0  0  0
  -29.7356  -11.6859   17.4829 H   0  0  0  0  0  0
  -29.6696  -13.4121   17.7531 H   0  0  0  0  0  0
  -27.8663  -11.2646   18.9169 H   0  0  0  0  0  0
  -27.3548  -12.5102   17.8119 H   0  0  0  0  0  0
  -27.6969  -14.2380   19.5221 H   0  0  0  0  0  0
  -28.6644  -12.0363   21.4094 H   0  0  0  0  0  0
  -28.4617  -13.7025   21.8339 H   0  0  0  0  0  0
  -25.2704   -9.5749   22.4792 H   0  0  0  0  0  0
  -23.9956   -7.4679   22.7539 H   0  0  0  0  0  0
  -21.0763   -8.8753   19.8995 H   0  0  0  0  0  0
  -22.3592  -10.9674   19.6182 H   0  0  0  0  0  0
  -21.2037   -7.6142   23.9691 H   0  0  0  0  0  0
  -21.1447   -6.0528   25.9065 H   0  0  0  0  0  0
  -22.0620   -2.7590   23.2875 H   0  0  0  0  0  0
  -22.3985  -11.9956   22.4770 H   0  0  0  0  0  0
  -21.1120  -13.1442   22.2548 H   0  0  0  0  0  0
  -24.7010  -15.8665   20.5780 H   0  0  0  0  0  0
  -26.3241  -15.6204   20.1710 H   0  0  0  0  0  0
  -26.7116  -32.5520   23.1121 H   0  0  0  0  0  0
  -25.0183  -33.9746   25.0556 H   0  0  0  0  0  0
  -22.6951  -31.3151   21.4256 H   0  0  0  0  0  0
  -23.3754  -35.9619   23.3306 H   0  0  0  0  0  0
  -24.3573  -36.8892   22.2043 H   0  0  0  0  0  0
  -23.7230  -37.6526   23.6608 H   0  0  0  0  0  0
  -26.0543  -31.5922   20.5982 H   0  0  0  0  0  0
  -26.8233  -30.8730   21.9939 H   0  0  0  0  0  0
  -28.0524  -29.0213   21.2866 H   0  0  0  0  0  0
  -26.0116  -26.0023   18.9727 H   0  0  0  0  0  0
  -23.9819  -27.3611   18.9287 H   0  0  0  0  0  0
  -23.7130  -30.6223   19.4115 H   0  0  0  0  0  0
  -22.7372  -29.2571   19.8663 H   0  0  0  0  0  0
  -25.1274  -36.1992   25.0839 H   0  0  0  0  0  0
  -21.0085  -28.3183   24.1360 H   0  0  0  0  0  0
  -20.5232  -26.2127   23.3480 H   0  0  0  0  0  0
  -21.6597  -26.7264   22.1425 H   0  0  0  0  0  0
  -19.7045  -25.6691   21.0591 H   0  0  0  0  0  0
  -19.7257  -27.3571   20.6660 H   0  0  0  0  0  0
  -17.4797  -26.7796   21.2687 H   0  0  0  0  0  0
  -17.9655  -25.9994   22.7662 H   0  0  0  0  0  0
  -19.7892  -30.7031   24.2823 H   0  0  0  0  0  0
  -17.4900  -31.6035   24.5602 H   0  0  0  0  0  0
  -15.5314  -30.2930   23.7575 H   0  0  0  0  0  0
  -15.8722  -28.1000   22.6568 H   0  0  0  0  0  0
  -24.5955  -30.7060   25.7824 H   0  0  0  0  0  0
  -24.8927  -32.2813   26.4966 H   0  0  0  0  0  0
  -25.8096  -30.8871   27.0209 H   0  0  0  0  0  0
  -26.2861  -29.6846   24.1183 H   0  0  0  0  0  0
  -27.4109  -29.7323   25.4570 H   0  0  0  0  0  0
  -27.8677  -30.4399   23.9248 H   0  0  0  0  0  0
  -27.2651  -33.3688   26.2035 H   0  0  0  0  0  0
  -28.3808  -32.6997   25.0273 H   0  0  0  0  0  0
  -28.0768  -31.8569   26.5392 H   0  0  0  0  0  0
  -28.2627  -38.0117   24.7503 H   0  0  0  0  0  0
  -28.1053  -36.2626   24.6291 H   0  0  0  0  0  0
  -27.2268  -37.1471   25.8890 H   0  0  0  0  0  0
  -20.9512  -29.8539   21.6837 H   0  0  0  0  0  0
  -26.0180  -38.2894   24.1419 H   0  0  0  0  0  0
  -29.8575  -17.9234   22.9430 H   0  0  0  0  0  0
  -29.9277  -18.7572   18.6931 H   0  0  0  0  0  0
  -29.0883  -20.2197   23.3670 H   0  0  0  0  0  0
  -29.0849  -21.0259   19.1131 H   0  0  0  0  0  0
  -30.8995  -16.7275   19.5195 H   0  0  0  0  0  0
  -29.5814  -15.5758   22.0489 H   0  0  0  0  0  0
  -25.7378  -22.7008   23.3969 H   0  0  0  0  0  0
  -25.7545  -23.6654   21.9583 H   0  0  0  0  0  0
  -28.1631  -23.2741   23.8599 H   0  0  0  0  0  0
  -27.1267  -24.6653   23.8993 H   0  0  0  0  0  0
  -30.0093  -23.1751   21.4315 H   0  0  0  0  0  0
  -28.8620  -23.5443   20.1790 H   0  0  0  0  0  0
  -29.2424  -25.0186   22.5499 H   0  0  0  0  0  0
  -27.0004  -26.0745   22.0573 H   0  0  0  0  0  0
  -26.8604  -24.9707   20.7181 H   0  0  0  0  0  0
  1 25  1  0  0  0
  1 30  2  0  0  0
  1 79  1  0  0  0
  2  3  1  0  0  0
  2 25  1  0  0  0
  2 87  1  0  0  0
  2 88  1  0  0  0
  3  4  1  0  0  0
  3 89  1  0  0  0
  3 90  1  0  0  0
  4  5  1  0  0  0
  4 91  1  0  0  0
  4 92  1  0  0  0
  5  6  1  0  0  0
  5 26  1  0  0  0
  5 93  1  0  0  0
  6 25  1  0  0  0
  6 94  1  0  0  0
  6 95  1  0  0  0
  7  8  2  0  0  0
  7 26  1  0  0  0
  7 29  1  0  0  0
  8  9  1  0  0  0
  8 22  1  0  0  0
  9 10  1  0  0  0
  9 27  2  0  0  0
 10 11  2  0  0  0
 10 15  1  0  0  0
 11 12  1  0  0  0
 11 96  1  0  0  0
 12 13  2  0  0  0
 12 97  1  0  0  0
 13 14  1  0  0  0
 13 31  1  0  0  0
 14 15  2  0  0  0
 14 98  1  0  0  0
 15 99  1  0  0  0
 16 17  2  0  0  0
 16 21  1  0  0  0
 16 31  1  0  0  0
 17 18  1  0  0  0
 17100  1  0  0  0
 18 19  2  0  0  0
 18101  1  0  0  0
 19 20  1  0  0  0
 19 24  1  0  0  0
 20 21  2  0  0  0
 20102  1  0  0  0
 21 23  1  0  0  0
 22 28  1  0  0  0
 22 32  2  0  0  0
 26 27  1  0  0  0
 28103  1  0  0  0
 28104  1  0  0  0
 29105  1  0  0  0
 29106  1  0  0  0
 33 34  1  0  0  0
 33 66  1  0  0  0
 33 70  2  0  0  0
 34 36  1  0  0  0
 34 59  1  0  0  0
 34107  1  0  0  0
 35 44  2  0  0  0
 35 45  1  0  0  0
 35 68  1  0  0  0
 36 56  1  0  0  0
 36108  1  0  0  0
 37 39  1  0  0  0
 37 47  1  0  0  0
 37 66  1  0  0  0
 37109  1  0  0  0
 38 43  2  0  0  0
 38 46  1  0  0  0
 38 47  1  0  0  0
 39 64  1  0  0  0
 39 67  2  0  0  0
 40 52  1  0  0  0
 40 53  2  0  0  0
 40 58  1  0  0  0
 41110  1  0  0  0
 41111  1  0  0  0
 41112  1  0  0  0
 41 48  1  0  0  0
 42 43  1  0  0  0
 42 66  1  0  0  0
 42113  1  0  0  0
 42114  1  0  0  0
 43 44  1  0  0  0
 44115  1  0  0  0
 45 46  2  0  0  0
 45116  1  0  0  0
 46117  1  0  0  0
 47118  1  0  0  0
 47119  1  0  0  0
 48 56  1  0  0  0
 48 65  1  0  0  0
 48120  1  0  0  0
 49 50  1  0  0  0
 49 53  1  0  0  0
 49 64  1  0  0  0
 49121  1  0  0  0
 50 51  1  0  0  0
 50122  1  0  0  0
 50123  1  0  0  0
 51 52  1  0  0  0
 51124  1  0  0  0
 51125  1  0  0  0
 52126  1  0  0  0
 52127  1  0  0  0
 53 54  1  0  0  0
 54 55  2  0  0  0
 54128  1  0  0  0
 55 57  1  0  0  0
 55129  1  0  0  0
 56 69  2  0  0  0
 57 58  2  0  0  0
 57130  1  0  0  0
 58131  1  0  0  0
 59 60  1  0  0  0
 59 61  1  0  0  0
 59 62  1  0  0  0
 60132  1  0  0  0
 60133  1  0  0  0
 60134  1  0  0  0
 61135  1  0  0  0
 61136  1  0  0  0
 61137  1  0  0  0
 62138  1  0  0  0
 62139  1  0  0  0
 62140  1  0  0  0
 63 65  1  0  0  0
 63141  1  0  0  0
 63142  1  0  0  0
 63143  1  0  0  0
 64144  1  0  0  0
 65145  1  0  0  0
 68 84  1  0  0  0
 71 73  2  0  0  0
 71 75  1  0  0  0
 71146  1  0  0  0
 72 74  1  0  0  0
 72 75  2  0  0  0
 72147  1  0  0  0
 73 76  1  0  0  0
 73148  1  0  0  0
 74 76  2  0  0  0
 74149  1  0  0  0
 75 78  1  0  0  0
 76 85  1  0  0  0
 77 80  1  0  0  0
 77 85  1  0  0  0
 77 86  2  0  0  0
 78 79  2  0  0  0
 78150  1  0  0  0
 79151  1  0  0  0
 80 81  1  0  0  0
 80152  1  0  0  0
 80153  1  0  0  0
 81 83  1  0  0  0
 81154  1  0  0  0
 81155  1  0  0  0
 82 83  1  0  0  0
 82 85  1  0  0  0
 82156  1  0  0  0
 82157  1  0  0  0
 83 84  1  0  0  0
 83158  1  0  0  0
 84159  1  0  0  0
 84160  1  0  0  0
M  ISO  4   1 100  68 101  79 100  84 101
M  END
> <chiral flag>
0

> <version>
0

> <s_m_source_file>
/data/baiqing/PycharmProjects/Reinvent-master-3.2/result/LINK_invent/BTK/process_docking_weight1_custom_product_contain_oxygen_bond_distance_aromatic_linkinvent_7_9_3/rearranged_h_0097.sdf

> <i_m_source_file_index>
54

> <r_mmod_Potential_Energy-OPLS-2005>
213.467849731445

> <r_mmod_Stretch_Energy-OPLS-2005>
42.2855377197266

> <r_mmod_Bend_Energy-OPLS-2005>
120.51879119873

> <r_mmod_Torsional_Energy-OPLS-2005>
331.389587402344

> <r_mmod_Improper_Torsional_Energy-OPLS-2005>
5.75344753265381

> <r_mmod_Van_der_Waal_Energy-OPLS-2005>
185.173248291016

> <r_mmod_Electrostatic_Energy-OPLS-2005>
-312.16455078125

> <r_mmod_Solvation_Energy-OPLS-2005>
-205.743530273438

> <b_mmod_Minimization_Converged-OPLS-2005>
0

> <r_mmod_RMS_Derivative-OPLS-2005>
10.879508972168

$$$$
54
                    3D
 Structure written by MMmdl.
161170  0  0  1  0            999 V2000
  -30.6886  -14.4248   20.5575 C   0  0  0  0  0  0
  -30.4091  -12.2669   19.4019 C   0  0  0  0  0  0
  -29.4736  -12.4683   18.1934 C   0  0  0  0  0  0
  -27.9972  -12.3217   18.6166 C   0  0  0  0  0  0
  -27.6558  -13.1845   19.8624 C   0  0  2  0  0  0
  -28.6908  -12.9495   20.9859 C   0  0  0  0  0  0
  -25.2619  -13.8123   20.5716 C   0  0  0  0  0  0
  -24.1848  -13.0501   20.9143 C   0  0  0  0  0  0
  -24.6320  -11.6915   20.8685 C   0  0  0  0  0  0
  -23.8980  -10.4334   21.0391 C   0  0  0  0  0  0
  -24.3545   -9.4260   21.9183 C   0  0  0  0  0  0
  -23.6267   -8.2247   22.0733 C   0  0  0  0  0  0
  -22.4261   -8.0274   21.3529 C   0  0  0  0  0  0
  -21.9864   -9.0212   20.4632 C   0  0  0  0  0  0
  -22.7129  -10.2135   20.3062 C   0  0  0  0  0  0
  -21.6845   -6.0726   22.5271 C   0  0  0  0  0  0
  -21.4006   -6.5633   23.8215 C   0  0  0  0  0  0
  -21.3663   -5.6783   24.9163 C   0  0  0  0  0  0
  -21.6054   -4.3051   24.7219 C   0  0  0  0  0  0
  -21.8820   -3.8150   23.4342 C   0  0  0  0  0  0
  -21.9194   -4.6950   22.3399 C   0  0  0  0  0  0
  -22.7883  -13.5347   21.1876 C   0  0  0  0  0  0
  -22.1669   -4.2145   21.0969 F   0  0  0  0  0  0
  -21.5632   -3.4543   25.7729 F   0  0  0  0  0  0
  -30.0313  -13.2430   20.4354 N   0  0  0  0  0  0
  -26.3001  -12.9220   20.3331 N   0  0  0  0  0  0
  -25.9241  -11.6406   20.5715 N   0  0  0  0  0  0
  -22.0509  -12.8275   22.0358 N   0  0  0  0  0  0
  -25.4595  -15.1791   20.4073 N   0  0  0  0  0  0
  -31.7890  -14.6474   20.0452 O   0  0  0  0  0  0
  -21.6646   -6.8853   21.4244 O   0  0  0  0  0  0
  -22.3530  -14.5634   20.6748 O   0  0  0  0  0  0
  -24.6137  -31.8624   23.2109 C   0  0  0  0  0  0
  -25.8973  -32.4822   23.8419 C   0  0  1  0  0  0
  -27.2305  -27.4031   20.0999 C   0  0  0  0  0  0
  -25.5850  -33.8626   24.2326 N   0  0  0  0  0  0
  -23.4106  -30.4763   21.5524 C   0  0  2  0  0  0
  -24.8534  -28.9300   20.1366 C   0  0  0  0  0  0
  -22.7395  -29.4571   22.5050 C   0  0  0  0  0  0
  -18.0150  -28.1359   22.8118 C   0  0  0  0  0  0
  -24.1492  -36.7326   23.2641 C   0  0  0  0  0  0
  -25.9436  -30.8118   21.3736 C   0  0  0  0  0  0
  -26.0152  -29.4412   20.7283 C   0  0  0  0  0  0
  -27.2118  -28.6814   20.7048 C   0  0  0  0  0  0
  -26.0537  -26.9204   19.4864 C   0  0  0  0  0  0
  -24.8594  -27.6625   19.5305 C   0  0  0  0  0  0
  -23.6239  -29.8027   20.1739 C   0  0  0  0  0  0
  -25.4097  -36.3134   24.0355 C   0  0  1  0  0  0
  -20.5718  -28.3573   23.1241 C   0  0  2  0  0  0
  -20.6560  -26.9238   22.5562 C   0  0  0  0  0  0
  -19.5775  -26.6329   21.5068 C   0  0  0  0  0  0
  -18.1653  -26.8066   22.0911 C   0  0  0  0  0  0
  -19.1400  -28.8769   23.2712 C   0  0  0  0  0  0
  -18.9316  -30.1314   23.8885 C   0  0  0  0  0  0
  -17.6293  -30.6392   24.0634 C   0  0  0  0  0  0
  -25.8927  -34.9491   23.5113 C   0  0  0  0  0  0
  -16.5280  -29.8872   23.6284 C   0  0  0  0  0  0
  -16.7209  -28.6490   22.9966 C   0  0  0  0  0  0
  -26.4438  -31.6607   25.0752 C   0  0  0  0  0  0
  -25.3746  -31.3695   26.1520 C   0  0  0  0  0  0
  -27.0303  -30.3095   24.6110 C   0  0  0  0  0  0
  -27.6059  -32.4330   25.7441 C   0  0  0  0  0  0
  -27.5591  -37.1826   24.8479 C   0  0  0  0  0  0
  -21.4147  -29.2759   22.3641 N   0  0  0  0  0  0
  -26.4288  -37.3844   23.9405 N   0  0  0  0  0  0
  -24.6745  -31.0680   22.1011 N   0  0  0  0  0  0
  -23.4170  -28.8211   23.3223 O   0  0  0  0  0  0
  -28.4156  -26.7093   19.9560 O   0  0  0  0  0  0
  -26.5626  -34.8939   22.4748 O   0  0  0  0  0  0
  -23.5272  -32.1347   23.7449 O   0  0  0  0  0  0
  -28.6185  -18.7458   21.6521 C   0  0  0  0  0  0
  -29.1617  -17.4782   21.9314 C   0  0  0  0  0  0
  -29.2185  -18.4800   19.3218 C   0  0  0  0  0  0
  -28.6083  -19.2608   20.3354 C   0  0  0  0  0  0
  -29.7175  -16.6813   20.9182 C   0  0  0  0  0  0
  -29.7717  -17.2045   19.5995 C   0  0  0  0  0  0
  -26.7935  -21.7430   21.8506 C   0  0  0  0  0  0
  -25.9356  -22.9949   21.9392 C   0  0  0  0  0  0
  -26.5529  -24.3134   21.4515 C   0  0  0  0  0  0
  -28.5944  -22.9046   20.6948 C   0  0  0  0  0  0
  -27.7781  -24.2322   20.5071 C   0  0  2  0  0  0
  -27.8483  -20.5531   19.9650 C   0  0  0  0  0  0
  -28.6810  -25.5065   20.6958 C   0  0  0  0  0  0
  -27.7759  -21.6927   20.9239 N   0  0  0  0  0  0
  -30.0473  -15.3444   21.2879 N   0  0  0  0  0  0
  -26.4233  -20.7743   22.5049 O   0  0  0  0  0  0
  -30.2839  -16.4831   18.5705 F   0  0  0  0  0  0
  -31.4559  -12.3502   19.1001 H   0  0  0  0  0  0
  -30.2859  -11.2599   19.8031 H   0  0  0  0  0  0
  -29.6961  -11.7303   17.4200 H   0  0  0  0  0  0
  -29.6253  -13.4504   17.7465 H   0  0  0  0  0  0
  -27.8197  -11.2646   18.8394 H   0  0  0  0  0  0
  -27.3278  -12.5648   17.7871 H   0  0  0  0  0  0
  -27.7102  -14.2265   19.5458 H   0  0  0  0  0  0
  -28.6603  -11.9084   21.3156 H   0  0  0  0  0  0
  -28.4351  -13.5456   21.8677 H   0  0  0  0  0  0
  -25.2693   -9.5744   22.4754 H   0  0  0  0  0  0
  -24.0007   -7.4634   22.7448 H   0  0  0  0  0  0
  -21.0805   -8.8714   19.8897 H   0  0  0  0  0  0
  -22.3600  -10.9665   19.6156 H   0  0  0  0  0  0
  -21.1995   -7.6148   23.9701 H   0  0  0  0  0  0
  -21.1485   -6.0525   25.9067 H   0  0  0  0  0  0
  -22.0594   -2.7617   23.2841 H   0  0  0  0  0  0
  -22.4075  -11.9885   22.4737 H   0  0  0  0  0  0
  -21.1115  -13.1267   22.2615 H   0  0  0  0  0  0
  -24.7365  -15.8775   20.5447 H   0  0  0  0  0  0
  -26.3451  -15.5832   20.1350 H   0  0  0  0  0  0
  -26.7018  -32.5490   23.1130 H   0  0  0  0  0  0
  -25.0026  -33.9762   25.0486 H   0  0  0  0  0  0
  -22.6926  -31.2817   21.4009 H   0  0  0  0  0  0
  -23.3761  -35.9664   23.3303 H   0  0  0  0  0  0
  -24.3558  -36.8946   22.2061 H   0  0  0  0  0  0
  -23.7194  -37.6506   23.6622 H   0  0  0  0  0  0
  -26.0619  -31.5697   20.5984 H   0  0  0  0  0  0
  -26.8302  -30.8620   21.9998 H   0  0  0  0  0  0
  -28.1224  -29.0738   21.1399 H   0  0  0  0  0  0
  -26.0476  -25.9630   18.9911 H   0  0  0  0  0  0
  -23.9611  -27.2736   19.0676 H   0  0  0  0  0  0
  -23.7648  -30.5736   19.4224 H   0  0  0  0  0  0
  -22.7534  -29.2305   19.8438 H   0  0  0  0  0  0
  -25.1242  -36.2044   25.0862 H   0  0  0  0  0  0
  -20.9676  -28.3245   24.1390 H   0  0  0  0  0  0
  -20.4866  -26.2339   23.3821 H   0  0  0  0  0  0
  -21.6667  -26.6922   22.2103 H   0  0  0  0  0  0
  -19.6895  -25.6310   21.1003 H   0  0  0  0  0  0
  -19.7062  -27.3020   20.6499 H   0  0  0  0  0  0
  -17.4391  -26.7534   21.2710 H   0  0  0  0  0  0
  -17.9329  -25.9892   22.7825 H   0  0  0  0  0  0
  -19.7786  -30.7136   24.2281 H   0  0  0  0  0  0
  -17.4713  -31.5915   24.5597 H   0  0  0  0  0  0
  -15.5285  -30.2558   23.7763 H   0  0  0  0  0  0
  -15.8628  -28.0955   22.6394 H   0  0  0  0  0  0
  -24.5891  -30.7037   25.7868 H   0  0  0  0  0  0
  -24.8923  -32.2834   26.5032 H   0  0  0  0  0  0
  -25.8112  -30.8838   27.0239 H   0  0  0  0  0  0
  -26.2836  -29.6829   24.1211 H   0  0  0  0  0  0
  -27.4161  -29.7332   25.4496 H   0  0  0  0  0  0
  -27.8609  -30.4471   23.9191 H   0  0  0  0  0  0
  -27.2735  -33.3629   26.2061 H   0  0  0  0  0  0
  -28.3809  -32.6897   25.0203 H   0  0  0  0  0  0
  -28.0796  -31.8440   26.5303 H   0  0  0  0  0  0
  -28.2621  -38.0133   24.7529 H   0  0  0  0  0  0
  -28.1084  -36.2637   24.6280 H   0  0  0  0  0  0
  -27.2307  -37.1468   25.8902 H   0  0  0  0  0  0
  -20.9405  -29.8042   21.6527 H   0  0  0  0  0  0
  -26.0192  -38.2906   24.1505 H   0  0  0  0  0  0
  -28.1561  -19.2574   22.4717 H   0  0  0  0  0  0
  -29.1000  -17.1015   22.9427 H   0  0  0  0  0  0
  -29.2173  -18.8194   18.2924 H   0  0  0  0  0  0
  -25.5765  -23.1263   22.9609 H   0  0  0  0  0  0
  -25.0436  -22.7613   21.3456 H   0  0  0  0  0  0
  -26.7781  -24.9134   22.3347 H   0  0  0  0  0  0
  -25.7334  -24.8281   20.9427 H   0  0  0  0  0  0
  -29.2722  -22.9960   21.5438 H   0  0  0  0  0  0
  -29.2288  -22.7618   19.8216 H   0  0  0  0  0  0
  -27.4302  -24.2150   19.4731 H   0  0  0  0  0  0
  -26.8276  -20.2301   19.7655 H   0  0  0  0  0  0
  -28.1933  -20.9274   18.9966 H   0  0  0  0  0  0
  -29.7075  -25.2466   20.4080 H   0  0  0  0  0  0
  -28.7642  -25.7451   21.7564 H   0  0  0  0  0  0
  -29.3925  -14.9339   21.9349 H   0  0  0  0  0  0
  1 25  1  0  0  0
  1 30  2  0  0  0
  1 85  1  0  0  0
  2  3  1  0  0  0
  2 25  1  0  0  0
  2 88  1  0  0  0
  2 89  1  0  0  0
  3  4  1  0  0  0
  3 90  1  0  0  0
  3 91  1  0  0  0
  4  5  1  0  0  0
  4 92  1  0  0  0
  4 93  1  0  0  0
  5  6  1  0  0  0
  5 26  1  0  0  0
  5 94  1  0  0  0
  6 25  1  0  0  0
  6 95  1  0  0  0
  6 96  1  0  0  0
  7  8  2  0  0  0
  7 26  1  0  0  0
  7 29  1  0  0  0
  8  9  1  0  0  0
  8 22  1  0  0  0
  9 10  1  0  0  0
  9 27  2  0  0  0
 10 11  2  0  0  0
 10 15  1  0  0  0
 11 12  1  0  0  0
 11 97  1  0  0  0
 12 13  2  0  0  0
 12 98  1  0  0  0
 13 14  1  0  0  0
 13 31  1  0  0  0
 14 15  2  0  0  0
 14 99  1  0  0  0
 15100  1  0  0  0
 16 17  2  0  0  0
 16 21  1  0  0  0
 16 31  1  0  0  0
 17 18  1  0  0  0
 17101  1  0  0  0
 18 19  2  0  0  0
 18102  1  0  0  0
 19 20  1  0  0  0
 19 24  1  0  0  0
 20 21  2  0  0  0
 20103  1  0  0  0
 21 23  1  0  0  0
 22 28  1  0  0  0
 22 32  2  0  0  0
 26 27  1  0  0  0
 28104  1  0  0  0
 28105  1  0  0  0
 29106  1  0  0  0
 29107  1  0  0  0
 33 34  1  0  0  0
 33 66  1  0  0  0
 33 70  2  0  0  0
 34 36  1  0  0  0
 34 59  1  0  0  0
 34108  1  0  0  0
 35 44  2  0  0  0
 35 45  1  0  0  0
 35 68  1  0  0  0
 36 56  1  0  0  0
 36109  1  0  0  0
 37 39  1  0  0  0
 37 47  1  0  0  0
 37 66  1  0  0  0
 37110  1  0  0  0
 38 43  2  0  0  0
 38 46  1  0  0  0
 38 47  1  0  0  0
 39 64  1  0  0  0
 39 67  2  0  0  0
 40 52  1  0  0  0
 40 53  2  0  0  0
 40 58  1  0  0  0
 41111  1  0  0  0
 41112  1  0  0  0
 41113  1  0  0  0
 41 48  1  0  0  0
 42 43  1  0  0  0
 42 66  1  0  0  0
 42114  1  0  0  0
 42115  1  0  0  0
 43 44  1  0  0  0
 44116  1  0  0  0
 45 46  2  0  0  0
 45117  1  0  0  0
 46118  1  0  0  0
 47119  1  0  0  0
 47120  1  0  0  0
 48 56  1  0  0  0
 48 65  1  0  0  0
 48121  1  0  0  0
 49 50  1  0  0  0
 49 53  1  0  0  0
 49 64  1  0  0  0
 49122  1  0  0  0
 50 51  1  0  0  0
 50123  1  0  0  0
 50124  1  0  0  0
 51 52  1  0  0  0
 51125  1  0  0  0
 51126  1  0  0  0
 52127  1  0  0  0
 52128  1  0  0  0
 53 54  1  0  0  0
 54 55  2  0  0  0
 54129  1  0  0  0
 55 57  1  0  0  0
 55130  1  0  0  0
 56 69  2  0  0  0
 57 58  2  0  0  0
 57131  1  0  0  0
 58132  1  0  0  0
 59 60  1  0  0  0
 59 61  1  0  0  0
 59 62  1  0  0  0
 60133  1  0  0  0
 60134  1  0  0  0
 60135  1  0  0  0
 61136  1  0  0  0
 61137  1  0  0  0
 61138  1  0  0  0
 62139  1  0  0  0
 62140  1  0  0  0
 62141  1  0  0  0
 63 65  1  0  0  0
 63142  1  0  0  0
 63143  1  0  0  0
 63144  1  0  0  0
 64145  1  0  0  0
 65146  1  0  0  0
 68 83  1  0  0  0
 71 72  2  0  0  0
 71 74  1  0  0  0
 71147  1  0  0  0
 72 75  1  0  0  0
 72148  1  0  0  0
 73 74  2  0  0  0
 73 76  1  0  0  0
 73149  1  0  0  0
 74 82  1  0  0  0
 75 76  2  0  0  0
 75 85  1  0  0  0
 76 87  1  0  0  0
 77 78  1  0  0  0
 77 84  1  0  0  0
 77 86  2  0  0  0
 78 79  1  0  0  0
 78150  1  0  0  0
 78151  1  0  0  0
 79 81  1  0  0  0
 79152  1  0  0  0
 79153  1  0  0  0
 80 81  1  0  0  0
 80 84  1  0  0  0
 80154  1  0  0  0
 80155  1  0  0  0
 81 83  1  0  0  0
 81156  1  0  0  0
 82 84  1  0  0  0
 82157  1  0  0  0
 82158  1  0  0  0
 83159  1  0  0  0
 83160  1  0  0  0
 85161  1  0  0  0
M  ISO  4   1 100  68 101  83 101  85 100
M  END
> <chiral flag>
0

> <version>
0

> <s_m_source_file>
/data/baiqing/PycharmProjects/Reinvent-master-3.2/result/LINK_invent/BTK/process_docking_weight1_custom_product_contain_oxygen_bond_distance_aromatic_linkinvent_7_9_3/rearranged_h_0097.sdf

> <i_m_source_file_index>
55

> <r_mmod_Potential_Energy-OPLS-2005>
60.5914688110352

> <r_mmod_Stretch_Energy-OPLS-2005>
46.4550895690918

> <r_mmod_Bend_Energy-OPLS-2005>
140.478271484375

> <r_mmod_Torsional_Energy-OPLS-2005>
320.791656494141

> <r_mmod_Improper_Torsional_Energy-OPLS-2005>
9.24098491668701

> <r_mmod_Van_der_Waal_Energy-OPLS-2005>
158.751617431641

> <r_mmod_Electrostatic_Energy-OPLS-2005>
-403.563079833984

> <r_mmod_Solvation_Energy-OPLS-2005>
-226.628524780273

> <b_mmod_Minimization_Converged-OPLS-2005>
0

> <r_mmod_RMS_Derivative-OPLS-2005>
12.1368083953857

$$$$
55
                    3D
 Structure written by MMmdl.
161170  0  0  1  0            999 V2000
  -30.6976  -14.6946   20.4309 C   0  0  0  0  0  0
  -30.4238  -12.4257   19.4553 C   0  0  0  0  0  0
  -29.4960  -12.4599   18.2232 C   0  0  0  0  0  0
  -28.0304  -12.2634   18.6552 C   0  0  0  0  0  0
  -27.6258  -13.1902   19.8296 C   0  0  2  0  0  0
  -28.6858  -13.2066   20.9573 C   0  0  0  0  0  0
  -25.2521  -13.8055   20.5731 C   0  0  0  0  0  0
  -24.1775  -13.0373   20.9236 C   0  0  0  0  0  0
  -24.6315  -11.6839   20.8768 C   0  0  0  0  0  0
  -23.8996  -10.4247   21.0422 C   0  0  0  0  0  0
  -24.3567   -9.4166   21.9190 C   0  0  0  0  0  0
  -23.6249   -8.2209   22.0763 C   0  0  0  0  0  0
  -22.4234   -8.0251   21.3557 C   0  0  0  0  0  0
  -21.9857   -9.0220   20.4658 C   0  0  0  0  0  0
  -22.7180  -10.2098   20.3066 C   0  0  0  0  0  0
  -21.6839   -6.0696   22.5269 C   0  0  0  0  0  0
  -21.3999   -6.5602   23.8197 C   0  0  0  0  0  0
  -21.3658   -5.6770   24.9167 C   0  0  0  0  0  0
  -21.6048   -4.3037   24.7224 C   0  0  0  0  0  0
  -21.8827   -3.8121   23.4351 C   0  0  0  0  0  0
  -21.9190   -4.6928   22.3402 C   0  0  0  0  0  0
  -22.7815  -13.5225   21.1866 C   0  0  0  0  0  0
  -22.1669   -4.2112   21.0979 F   0  0  0  0  0  0
  -21.5635   -3.4531   25.7743 F   0  0  0  0  0  0
  -29.9907  -13.5160   20.3552 N   0  0  0  0  0  0
  -26.2868  -12.9164   20.3278 N   0  0  0  0  0  0
  -25.9221  -11.6363   20.5769 N   0  0  0  0  0  0
  -22.0441  -12.8255   22.0423 N   0  0  0  0  0  0
  -25.4233  -15.1771   20.4148 N   0  0  0  0  0  0
  -31.9160  -14.6855   20.2442 O   0  0  0  0  0  0
  -21.6627   -6.8832   21.4232 O   0  0  0  0  0  0
  -22.3519  -14.5533   20.6696 O   0  0  0  0  0  0
  -24.6264  -31.8609   23.2032 C   0  0  0  0  0  0
  -25.9117  -32.4787   23.8350 C   0  0  1  0  0  0
  -27.2246  -27.3268   20.1220 C   0  0  0  0  0  0
  -25.5937  -33.8584   24.2280 N   0  0  0  0  0  0
  -23.4193  -30.4849   21.5459 C   0  0  2  0  0  0
  -24.8660  -28.9398   20.1139 C   0  0  0  0  0  0
  -22.7480  -29.4634   22.4948 C   0  0  0  0  0  0
  -18.0294  -28.1402   22.8492 C   0  0  0  0  0  0
  -24.1490  -36.7290   23.2639 C   0  0  0  0  0  0
  -25.9602  -30.7950   21.3733 C   0  0  0  0  0  0
  -26.0353  -29.4227   20.7153 C   0  0  0  0  0  0
  -27.2198  -28.6293   20.7056 C   0  0  0  0  0  0
  -26.0338  -26.8926   19.4979 C   0  0  0  0  0  0
  -24.8672  -27.6801   19.4954 C   0  0  0  0  0  0
  -23.6338  -29.8198   20.1611 C   0  0  0  0  0  0
  -25.4117  -36.3088   24.0330 C   0  0  1  0  0  0
  -20.5893  -28.3703   23.1290 C   0  0  2  0  0  0
  -20.6784  -26.9428   22.5416 C   0  0  0  0  0  0
  -19.5753  -26.6398   21.5224 C   0  0  0  0  0  0
  -18.1930  -26.7947   22.1631 C   0  0  0  0  0  0
  -19.1541  -28.8871   23.2885 C   0  0  0  0  0  0
  -18.9467  -30.1478   23.8900 C   0  0  0  0  0  0
  -17.6462  -30.6603   24.0574 C   0  0  0  0  0  0
  -25.9055  -34.9458   23.5105 C   0  0  0  0  0  0
  -16.5357  -29.9103   23.6338 C   0  0  0  0  0  0
  -16.7274  -28.6522   23.0350 C   0  0  0  0  0  0
  -26.4498  -31.6603   25.0726 C   0  0  0  0  0  0
  -25.3721  -31.3743   26.1449 C   0  0  0  0  0  0
  -27.0341  -30.3026   24.6184 C   0  0  0  0  0  0
  -27.6059  -32.4337   25.7490 C   0  0  0  0  0  0
  -27.5582  -37.1801   24.8467 C   0  0  0  0  0  0
  -21.4191  -29.3050   22.3678 N   0  0  0  0  0  0
  -26.4296  -37.3782   23.9407 N   0  0  0  0  0  0
  -24.6869  -31.0629   22.0981 N   0  0  0  0  0  0
  -23.4203  -28.8184   23.3027 O   0  0  0  0  0  0
  -28.3490  -26.4918   20.1491 O   0  0  0  0  0  0
  -26.5614  -34.8925   22.4668 O   0  0  0  0  0  0
  -23.5427  -32.1406   23.7365 O   0  0  0  0  0  0
  -29.1118  -19.0584   21.7315 C   0  0  0  0  0  0
  -30.7566  -19.6182   20.0675 C   0  0  0  0  0  0
  -28.7557  -20.4364   21.8208 C   0  0  0  0  0  0
  -30.3972  -20.9985   20.1527 C   0  0  0  0  0  0
  -30.1619  -18.6178   20.8887 C   0  0  0  0  0  0
  -29.4278  -21.4566   21.0828 C   0  0  0  0  0  0
  -29.6464  -23.2793   22.6446 C   0  0  0  0  0  0
  -30.3715  -24.6153   22.6189 C   0  0  0  0  0  0
  -30.5820  -24.8331   21.1256 C   0  0  0  0  0  0
  -29.4005  -24.0814   20.4998 C   0  0  2  0  0  0
  -28.9864  -16.2331   19.5447 C   0  0  0  0  0  0
  -30.7683  -17.1613   20.9715 C   0  0  0  0  0  0
  -28.1379  -25.0625   20.4777 C   0  0  0  0  0  0
  -29.2570  -22.8829   21.4104 N   0  0  0  0  0  0
  -30.0376  -15.9172   20.5188 N   0  0  0  0  0  0
  -29.4712  -22.6686   23.7048 O   0  0  0  0  0  0
  -31.4641  -12.5283   19.1390 H   0  0  0  0  0  0
  -30.3618  -11.4647   19.9667 H   0  0  0  0  0  0
  -29.7794  -11.6779   17.5184 H   0  0  0  0  0  0
  -29.6067  -13.4046   17.6885 H   0  0  0  0  0  0
  -27.9174  -11.2204   18.9572 H   0  0  0  0  0  0
  -27.3639  -12.4060   17.8050 H   0  0  0  0  0  0
  -27.5580  -14.1668   19.3777 H   0  0  0  0  0  0
  -28.7243  -12.2436   21.4672 H   0  0  0  0  0  0
  -28.4229  -13.9489   21.7128 H   0  0  0  0  0  0
  -25.2709   -9.5634   22.4771 H   0  0  0  0  0  0
  -23.9949   -7.4584   22.7469 H   0  0  0  0  0  0
  -21.0798   -8.8740   19.8954 H   0  0  0  0  0  0
  -22.3647  -10.9643   19.6184 H   0  0  0  0  0  0
  -21.1993   -7.6113   23.9691 H   0  0  0  0  0  0
  -21.1477   -6.0503   25.9067 H   0  0  0  0  0  0
  -22.0614   -2.7582   23.2869 H   0  0  0  0  0  0
  -22.4033  -11.9938   22.4861 H   0  0  0  0  0  0
  -21.1068  -13.1314   22.2599 H   0  0  0  0  0  0
  -24.6647  -15.8386   20.5379 H   0  0  0  0  0  0
  -26.2797  -15.6123   20.0995 H   0  0  0  0  0  0
  -26.7194  -32.5459   23.1103 H   0  0  0  0  0  0
  -25.0094  -33.9720   25.0431 H   0  0  0  0  0  0
  -22.7122  -31.3049   21.4030 H   0  0  0  0  0  0
  -23.3756  -35.9622   23.3320 H   0  0  0  0  0  0
  -24.3571  -36.8890   22.2050 H   0  0  0  0  0  0
  -23.7245  -37.6500   23.6642 H   0  0  0  0  0  0
  -26.0905  -31.5597   20.6068 H   0  0  0  0  0  0
  -26.8411  -30.8426   22.0022 H   0  0  0  0  0  0
  -28.1207  -28.9968   21.1761 H   0  0  0  0  0  0
  -25.9819  -25.9361   19.0004 H   0  0  0  0  0  0
  -23.9722  -27.3064   19.0170 H   0  0  0  0  0  0
  -23.7538  -30.5965   19.4047 H   0  0  0  0  0  0
  -22.7535  -29.2497   19.8587 H   0  0  0  0  0  0
  -25.1297  -36.1942   25.0823 H   0  0  0  0  0  0
  -20.9974  -28.3291   24.1415 H   0  0  0  0  0  0
  -20.5711  -26.2309   23.3613 H   0  0  0  0  0  0
  -21.6648  -26.7475   22.1194 H   0  0  0  0  0  0
  -19.6907  -25.6308   21.1256 H   0  0  0  0  0  0
  -19.6695  -27.3210   20.6754 H   0  0  0  0  0  0
  -17.4201  -26.6710   21.4036 H   0  0  0  0  0  0
  -18.0325  -26.0098   22.9031 H   0  0  0  0  0  0
  -19.7938  -30.7300   24.2267 H   0  0  0  0  0  0
  -17.5014  -31.6278   24.5182 H   0  0  0  0  0  0
  -15.5354  -30.2999   23.7663 H   0  0  0  0  0  0
  -15.8677  -28.0840   22.7055 H   0  0  0  0  0  0
  -24.5889  -30.7108   25.7766 H   0  0  0  0  0  0
  -24.8923  -32.2918   26.4873 H   0  0  0  0  0  0
  -25.8041  -30.8911   27.0224 H   0  0  0  0  0  0
  -26.2923  -29.6777   24.1207 H   0  0  0  0  0  0
  -27.4039  -29.7286   25.4690 H   0  0  0  0  0  0
  -27.8787  -30.4310   23.9409 H   0  0  0  0  0  0
  -27.2675  -33.3632   26.2078 H   0  0  0  0  0  0
  -28.3863  -32.6917   25.0317 H   0  0  0  0  0  0
  -28.0744  -31.8464   26.5397 H   0  0  0  0  0  0
  -28.2612  -38.0086   24.7512 H   0  0  0  0  0  0
  -28.1069  -36.2624   24.6302 H   0  0  0  0  0  0
  -27.2296  -37.1465   25.8867 H   0  0  0  0  0  0
  -20.9378  -29.8739   21.6857 H   0  0  0  0  0  0
  -26.0186  -38.2858   24.1409 H   0  0  0  0  0  0
  -28.6184  -18.3474   22.3804 H   0  0  0  0  0  0
  -31.5622  -19.3406   19.4014 H   0  0  0  0  0  0
  -28.0005  -20.7146   22.5427 H   0  0  0  0  0  0
  -30.9468  -21.7153   19.5566 H   0  0  0  0  0  0
  -31.3159  -24.5740   23.1629 H   0  0  0  0  0  0
  -29.7414  -25.3878   23.0601 H   0  0  0  0  0  0
  -31.5224  -24.3765   20.8122 H   0  0  0  0  0  0
  -30.6337  -25.8873   20.8563 H   0  0  0  0  0  0
  -29.6423  -23.7763   19.4808 H   0  0  0  0  0  0
  -28.0125  -16.2231   20.0304 H   0  0  0  0  0  0
  -28.9917  -15.5472   18.6975 H   0  0  0  0  0  0
  -29.1047  -17.2122   19.0845 H   0  0  0  0  0  0
  -31.7172  -17.1997   20.4344 H   0  0  0  0  0  0
  -31.0459  -16.9998   22.0148 H   0  0  0  0  0  0
  -27.6630  -25.0501   21.4607 H   0  0  0  0  0  0
  -27.4133  -24.6093   19.8041 H   0  0  0  0  0  0
  1 25  1  0  0  0
  1 30  2  0  0  0
  1 85  1  0  0  0
  2  3  1  0  0  0
  2 25  1  0  0  0
  2 87  1  0  0  0
  2 88  1  0  0  0
  3  4  1  0  0  0
  3 89  1  0  0  0
  3 90  1  0  0  0
  4  5  1  0  0  0
  4 91  1  0  0  0
  4 92  1  0  0  0
  5  6  1  0  0  0
  5 26  1  0  0  0
  5 93  1  0  0  0
  6 25  1  0  0  0
  6 94  1  0  0  0
  6 95  1  0  0  0
  7  8  2  0  0  0
  7 26  1  0  0  0
  7 29  1  0  0  0
  8  9  1  0  0  0
  8 22  1  0  0  0
  9 10  1  0  0  0
  9 27  2  0  0  0
 10 11  2  0  0  0
 10 15  1  0  0  0
 11 12  1  0  0  0
 11 96  1  0  0  0
 12 13  2  0  0  0
 12 97  1  0  0  0
 13 14  1  0  0  0
 13 31  1  0  0  0
 14 15  2  0  0  0
 14 98  1  0  0  0
 15 99  1  0  0  0
 16 17  2  0  0  0
 16 21  1  0  0  0
 16 31  1  0  0  0
 17 18  1  0  0  0
 17100  1  0  0  0
 18 19  2  0  0  0
 18101  1  0  0  0
 19 20  1  0  0  0
 19 24  1  0  0  0
 20 21  2  0  0  0
 20102  1  0  0  0
 21 23  1  0  0  0
 22 28  1  0  0  0
 22 32  2  0  0  0
 26 27  1  0  0  0
 28103  1  0  0  0
 28104  1  0  0  0
 29105  1  0  0  0
 29106  1  0  0  0
 33 34  1  0  0  0
 33 66  1  0  0  0
 33 70  2  0  0  0
 34 36  1  0  0  0
 34 59  1  0  0  0
 34107  1  0  0  0
 35 44  2  0  0  0
 35 45  1  0  0  0
 35 68  1  0  0  0
 36 56  1  0  0  0
 36108  1  0  0  0
 37 39  1  0  0  0
 37 47  1  0  0  0
 37 66  1  0  0  0
 37109  1  0  0  0
 38 43  2  0  0  0
 38 46  1  0  0  0
 38 47  1  0  0  0
 39 64  1  0  0  0
 39 67  2  0  0  0
 40 52  1  0  0  0
 40 53  2  0  0  0
 40 58  1  0  0  0
 41110  1  0  0  0
 41111  1  0  0  0
 41112  1  0  0  0
 41 48  1  0  0  0
 42 43  1  0  0  0
 42 66  1  0  0  0
 42113  1  0  0  0
 42114  1  0  0  0
 43 44  1  0  0  0
 44115  1  0  0  0
 45 46  2  0  0  0
 45116  1  0  0  0
 46117  1  0  0  0
 47118  1  0  0  0
 47119  1  0  0  0
 48 56  1  0  0  0
 48 65  1  0  0  0
 48120  1  0  0  0
 49 50  1  0  0  0
 49 53  1  0  0  0
 49 64  1  0  0  0
 49121  1  0  0  0
 50 51  1  0  0  0
 50122  1  0  0  0
 50123  1  0  0  0
 51 52  1  0  0  0
 51124  1  0  0  0
 51125  1  0  0  0
 52126  1  0  0  0
 52127  1  0  0  0
 53 54  1  0  0  0
 54 55  2  0  0  0
 54128  1  0  0  0
 55 57  1  0  0  0
 55129  1  0  0  0
 56 69  2  0  0  0
 57 58  2  0  0  0
 57130  1  0  0  0
 58131  1  0  0  0
 59 60  1  0  0  0
 59 61  1  0  0  0
 59 62  1  0  0  0
 60132  1  0  0  0
 60133  1  0  0  0
 60134  1  0  0  0
 61135  1  0  0  0
 61136  1  0  0  0
 61137  1  0  0  0
 62138  1  0  0  0
 62139  1  0  0  0
 62140  1  0  0  0
 63 65  1  0  0  0
 63141  1  0  0  0
 63142  1  0  0  0
 63143  1  0  0  0
 64144  1  0  0  0
 65145  1  0  0  0
 68 83  1  0  0  0
 71 73  2  0  0  0
 71 75  1  0  0  0
 71146  1  0  0  0
 72 74  1  0  0  0
 72 75  2  0  0  0
 72147  1  0  0  0
 73 76  1  0  0  0
 73148  1  0  0  0
 74 76  2  0  0  0
 74149  1  0  0  0
 75 82  1  0  0  0
 76 84  1  0  0  0
 77 78  1  0  0  0
 77 84  1  0  0  0
 77 86  2  0  0  0
 78 79  1  0  0  0
 78150  1  0  0  0
 78151  1  0  0  0
 79 80  1  0  0  0
 79152  1  0  0  0
 79153  1  0  0  0
 80 83  1  0  0  0
 80 84  1  0  0  0
 80154  1  0  0  0
 81 85  1  0  0  0
 81155  1  0  0  0
 81156  1  0  0  0
 81157  1  0  0  0
 82 85  1  0  0  0
 82158  1  0  0  0
 82159  1  0  0  0
 83160  1  0  0  0
 83161  1  0  0  0
M  ISO  4   1 100  68 101  83 101  85 100
M  END
> <chiral flag>
0

> <version>
0

> <s_m_source_file>
/data/baiqing/PycharmProjects/Reinvent-master-3.2/result/LINK_invent/BTK/process_docking_weight1_custom_product_contain_oxygen_bond_distance_aromatic_linkinvent_7_9_3/rearranged_h_0097.sdf

> <i_m_source_file_index>
56

> <r_mmod_Potential_Energy-OPLS-2005>
358.276153564453

> <r_mmod_Stretch_Energy-OPLS-2005>
89.1003875732422

> <r_mmod_Bend_Energy-OPLS-2005>
180.551651000977

> <r_mmod_Torsional_Energy-OPLS-2005>
372.533752441406

> <r_mmod_Improper_Torsional_Energy-OPLS-2005>
10.0344514846802

> <r_mmod_Van_der_Waal_Energy-OPLS-2005>
154.389144897461

> <r_mmod_Electrostatic_Energy-OPLS-2005>
-306.140930175781

> <r_mmod_Solvation_Energy-OPLS-2005>
-211.802307128906

> <b_mmod_Minimization_Converged-OPLS-2005>
0

> <r_mmod_RMS_Derivative-OPLS-2005>
2.12328171730042

$$$$
56
                    3D
 Structure written by MMmdl.
161170  0  0  1  0            999 V2000
  -30.6789  -14.6212   20.5873 C   0  0  0  0  0  0
  -30.4296  -12.4089   19.4547 C   0  0  0  0  0  0
  -29.5039  -12.5280   18.2259 C   0  0  0  0  0  0
  -28.0274  -12.3574   18.6309 C   0  0  0  0  0  0
  -27.6502  -13.2212   19.8613 C   0  0  2  0  0  0
  -28.6881  -13.0633   20.9884 C   0  0  0  0  0  0
  -25.2529  -13.8186   20.5667 C   0  0  0  0  0  0
  -24.1803  -13.0436   20.9163 C   0  0  0  0  0  0
  -24.6391  -11.6910   20.8709 C   0  0  0  0  0  0
  -23.9074  -10.4290   21.0382 C   0  0  0  0  0  0
  -24.3621   -9.4209   21.9166 C   0  0  0  0  0  0
  -23.6300   -8.2242   22.0751 C   0  0  0  0  0  0
  -22.4281   -8.0278   21.3537 C   0  0  0  0  0  0
  -21.9918   -9.0248   20.4636 C   0  0  0  0  0  0
  -22.7246  -10.2126   20.3042 C   0  0  0  0  0  0
  -21.6851   -6.0737   22.5282 C   0  0  0  0  0  0
  -21.4007   -6.5639   23.8218 C   0  0  0  0  0  0
  -21.3660   -5.6794   24.9176 C   0  0  0  0  0  0
  -21.6051   -4.3059   24.7235 C   0  0  0  0  0  0
  -21.8818   -3.8150   23.4350 C   0  0  0  0  0  0
  -21.9187   -4.6965   22.3407 C   0  0  0  0  0  0
  -22.7828  -13.5217   21.1854 C   0  0  0  0  0  0
  -22.1655   -4.2154   21.0982 F   0  0  0  0  0  0
  -21.5635   -3.4538   25.7741 F   0  0  0  0  0  0
  -30.0096  -13.4255   20.4458 N   0  0  0  0  0  0
  -26.2959  -12.9374   20.3292 N   0  0  0  0  0  0
  -25.9315  -11.6516   20.5718 N   0  0  0  0  0  0
  -22.0503  -12.8189   22.0415 N   0  0  0  0  0  0
  -25.4225  -15.1918   20.4114 N   0  0  0  0  0  0
  -31.7857  -14.7780   20.0611 O   0  0  0  0  0  0
  -21.6641   -6.8882   21.4246 O   0  0  0  0  0  0
  -22.3495  -14.5528   20.6725 O   0  0  0  0  0  0
  -24.6277  -31.8590   23.2043 C   0  0  0  0  0  0
  -25.9127  -32.4773   23.8376 C   0  0  1  0  0  0
  -27.2262  -27.3286   20.1187 C   0  0  0  0  0  0
  -25.5940  -33.8575   24.2303 N   0  0  0  0  0  0
  -23.4201  -30.4831   21.5457 C   0  0  2  0  0  0
  -24.8654  -28.9371   20.1136 C   0  0  0  0  0  0
  -22.7473  -29.4633   22.4952 C   0  0  0  0  0  0
  -18.0279  -28.1397   22.8493 C   0  0  0  0  0  0
  -24.1473  -36.7278   23.2650 C   0  0  0  0  0  0
  -25.9597  -30.7956   21.3705 C   0  0  0  0  0  0
  -26.0347  -29.4229   20.7136 C   0  0  0  0  0  0
  -27.2214  -28.6329   20.6990 C   0  0  0  0  0  0
  -26.0362  -26.8910   19.4993 C   0  0  0  0  0  0
  -24.8686  -27.6769   19.4948 C   0  0  0  0  0  0
  -23.6326  -29.8161   20.1615 C   0  0  0  0  0  0
  -25.4106  -36.3086   24.0337 C   0  0  1  0  0  0
  -20.5877  -28.3702   23.1284 C   0  0  2  0  0  0
  -20.6758  -26.9424   22.5415 C   0  0  0  0  0  0
  -19.5728  -26.6394   21.5221 C   0  0  0  0  0  0
  -18.1907  -26.7942   22.1624 C   0  0  0  0  0  0
  -19.1532  -28.8870   23.2880 C   0  0  0  0  0  0
  -18.9457  -30.1474   23.8900 C   0  0  0  0  0  0
  -17.6453  -30.6596   24.0578 C   0  0  0  0  0  0
  -25.9045  -34.9453   23.5115 C   0  0  0  0  0  0
  -16.5350  -29.9095   23.6341 C   0  0  0  0  0  0
  -16.7267  -28.6513   23.0368 C   0  0  0  0  0  0
  -26.4515  -31.6589   25.0751 C   0  0  0  0  0  0
  -25.3761  -31.3686   26.1485 C   0  0  0  0  0  0
  -27.0388  -30.3033   24.6203 C   0  0  0  0  0  0
  -27.6075  -32.4334   25.7510 C   0  0  0  0  0  0
  -27.5567  -37.1800   24.8475 C   0  0  0  0  0  0
  -21.4188  -29.3047   22.3681 N   0  0  0  0  0  0
  -26.4281  -37.3785   23.9415 N   0  0  0  0  0  0
  -24.6879  -31.0622   22.0976 N   0  0  0  0  0  0
  -23.4197  -28.8175   23.3036 O   0  0  0  0  0  0
  -28.3501  -26.4931   20.1257 O   0  0  0  0  0  0
  -26.5605  -34.8921   22.4678 O   0  0  0  0  0  0
  -23.5438  -32.1381   23.7381 O   0  0  0  0  0  0
  -29.0189  -19.3844   21.2162 C   0  0  0  0  0  0
  -29.1976  -18.0221   21.6077 C   0  0  0  0  0  0
  -30.4358  -17.5823   19.6109 C   0  0  0  0  0  0
  -29.5336  -19.9001   19.9992 C   0  0  0  0  0  0
  -29.9056  -17.0603   20.8211 C   0  0  0  0  0  0
  -30.2784  -18.9472   19.2252 C   0  0  0  0  0  0
  -28.2260  -23.7846   18.3170 C   0  0  0  0  0  0
  -27.9942  -22.3931   17.7391 C   0  0  0  0  0  0
  -29.1341  -21.4346   18.1062 C   0  0  0  0  0  0
  -28.8554  -22.4199   20.4136 C   0  0  0  0  0  0
  -28.8374  -23.8781   19.7236 C   0  0  2  0  0  0
  -29.9681  -15.4465   22.7351 C   0  0  0  0  0  0
  -28.1741  -25.0801   20.5479 C   0  0  0  0  0  0
  -29.2945  -21.2623   19.5559 N   0  0  0  0  0  0
  -30.0793  -15.6584   21.2815 N   0  0  0  0  0  0
  -27.9429  -24.7861   17.6524 O   0  0  0  0  0  0
  -30.8871  -19.3326   18.0763 F   0  0  0  0  0  0
  -31.4715  -12.5272   19.1526 H   0  0  0  0  0  0
  -30.3636  -11.4101   19.8884 H   0  0  0  0  0  0
  -29.7716  -11.7836   17.4751 H   0  0  0  0  0  0
  -29.6458  -13.5023   17.7563 H   0  0  0  0  0  0
  -27.8654  -11.3030   18.8555 H   0  0  0  0  0  0
  -27.3742  -12.5934   17.7900 H   0  0  0  0  0  0
  -27.6747  -14.2618   19.5365 H   0  0  0  0  0  0
  -28.7042  -12.0344   21.3491 H   0  0  0  0  0  0
  -28.3887  -13.6620   21.8438 H   0  0  0  0  0  0
  -25.2770   -9.5680   22.4729 H   0  0  0  0  0  0
  -24.0016   -7.4634   22.7472 H   0  0  0  0  0  0
  -21.0851   -8.8763   19.8935 H   0  0  0  0  0  0
  -22.3714  -10.9657   19.6146 H   0  0  0  0  0  0
  -21.1993   -7.6141   23.9733 H   0  0  0  0  0  0
  -21.1480   -6.0513   25.9087 H   0  0  0  0  0  0
  -22.0591   -2.7612   23.2855 H   0  0  0  0  0  0
  -22.4139  -11.9854   22.4786 H   0  0  0  0  0  0
  -21.1114  -13.1166   22.2655 H   0  0  0  0  0  0
  -24.6570  -15.8468   20.5280 H   0  0  0  0  0  0
  -26.2826  -15.6347   20.1122 H   0  0  0  0  0  0
  -26.7205  -32.5440   23.1138 H   0  0  0  0  0  0
  -25.0139  -33.9724   25.0487 H   0  0  0  0  0  0
  -22.7158  -31.3050   21.4018 H   0  0  0  0  0  0
  -23.3740  -35.9602   23.3332 H   0  0  0  0  0  0
  -24.3558  -36.8880   22.2060 H   0  0  0  0  0  0
  -23.7219  -37.6481   23.6660 H   0  0  0  0  0  0
  -26.0876  -31.5591   20.6018 H   0  0  0  0  0  0
  -26.8418  -30.8462   21.9971 H   0  0  0  0  0  0
  -28.1231  -29.0071   21.1626 H   0  0  0  0  0  0
  -25.9998  -25.9266   19.0152 H   0  0  0  0  0  0
  -23.9752  -27.3011   19.0150 H   0  0  0  0  0  0
  -23.7498  -30.5920   19.4032 H   0  0  0  0  0  0
  -22.7524  -29.2450   19.8610 H   0  0  0  0  0  0
  -25.1284  -36.1943   25.0830 H   0  0  0  0  0  0
  -20.9972  -28.3280   24.1404 H   0  0  0  0  0  0
  -20.5658  -26.2322   23.3623 H   0  0  0  0  0  0
  -21.6625  -26.7447   22.1209 H   0  0  0  0  0  0
  -19.6882  -25.6306   21.1251 H   0  0  0  0  0  0
  -19.6660  -27.3209   20.6752 H   0  0  0  0  0  0
  -17.4182  -26.6738   21.4016 H   0  0  0  0  0  0
  -18.0278  -26.0083   22.9008 H   0  0  0  0  0  0
  -19.7930  -30.7300   24.2266 H   0  0  0  0  0  0
  -17.5001  -31.6270   24.5192 H   0  0  0  0  0  0
  -15.5351  -30.2998   23.7662 H   0  0  0  0  0  0
  -15.8670  -28.0834   22.7090 H   0  0  0  0  0  0
  -24.5956  -30.7011   25.7818 H   0  0  0  0  0  0
  -24.8930  -32.2824   26.4950 H   0  0  0  0  0  0
  -25.8117  -30.8853   27.0242 H   0  0  0  0  0  0
  -26.2972  -29.6739   24.1271 H   0  0  0  0  0  0
  -27.4156  -29.7333   25.4707 H   0  0  0  0  0  0
  -27.8797  -30.4355   23.9391 H   0  0  0  0  0  0
  -27.2705  -33.3652   26.2066 H   0  0  0  0  0  0
  -28.3889  -32.6867   25.0330 H   0  0  0  0  0  0
  -28.0742  -31.8475   26.5440 H   0  0  0  0  0  0
  -28.2604  -38.0080   24.7513 H   0  0  0  0  0  0
  -28.1044  -36.2612   24.6316 H   0  0  0  0  0  0
  -27.2282  -37.1475   25.8880 H   0  0  0  0  0  0
  -20.9387  -29.8773   21.6874 H   0  0  0  0  0  0
  -26.0155  -38.2851   24.1438 H   0  0  0  0  0  0
  -28.4464  -20.0299   21.8650 H   0  0  0  0  0  0
  -28.7540  -17.7274   22.5479 H   0  0  0  0  0  0
  -31.0099  -16.9471   18.9530 H   0  0  0  0  0  0
  -27.9086  -22.4720   16.6548 H   0  0  0  0  0  0
  -27.0414  -22.0105   18.1059 H   0  0  0  0  0  0
  -30.0747  -21.7906   17.6813 H   0  0  0  0  0  0
  -28.9096  -20.4850   17.6178 H   0  0  0  0  0  0
  -27.8580  -22.2031   20.7986 H   0  0  0  0  0  0
  -29.5100  -22.4618   21.2854 H   0  0  0  0  0  0
  -29.8798  -24.1532   19.5642 H   0  0  0  0  0  0
  -28.9291  -15.5071   23.0614 H   0  0  0  0  0  0
  -30.5367  -16.2030   23.2773 H   0  0  0  0  0  0
  -30.3560  -14.4806   23.0674 H   0  0  0  0  0  0
  -28.6029  -25.0420   21.5497 H   0  0  0  0  0  0
  -27.1213  -24.8444   20.7099 H   0  0  0  0  0  0
  1 25  1  0  0  0
  1 30  2  0  0  0
  1 85  1  0  0  0
  2  3  1  0  0  0
  2 25  1  0  0  0
  2 88  1  0  0  0
  2 89  1  0  0  0
  3  4  1  0  0  0
  3 90  1  0  0  0
  3 91  1  0  0  0
  4  5  1  0  0  0
  4 92  1  0  0  0
  4 93  1  0  0  0
  5  6  1  0  0  0
  5 26  1  0  0  0
  5 94  1  0  0  0
  6 25  1  0  0  0
  6 95  1  0  0  0
  6 96  1  0  0  0
  7  8  2  0  0  0
  7 26  1  0  0  0
  7 29  1  0  0  0
  8  9  1  0  0  0
  8 22  1  0  0  0
  9 10  1  0  0  0
  9 27  2  0  0  0
 10 11  2  0  0  0
 10 15  1  0  0  0
 11 12  1  0  0  0
 11 97  1  0  0  0
 12 13  2  0  0  0
 12 98  1  0  0  0
 13 14  1  0  0  0
 13 31  1  0  0  0
 14 15  2  0  0  0
 14 99  1  0  0  0
 15100  1  0  0  0
 16 17  2  0  0  0
 16 21  1  0  0  0
 16 31  1  0  0  0
 17 18  1  0  0  0
 17101  1  0  0  0
 18 19  2  0  0  0
 18102  1  0  0  0
 19 20  1  0  0  0
 19 24  1  0  0  0
 20 21  2  0  0  0
 20103  1  0  0  0
 21 23  1  0  0  0
 22 28  1  0  0  0
 22 32  2  0  0  0
 26 27  1  0  0  0
 28104  1  0  0  0
 28105  1  0  0  0
 29106  1  0  0  0
 29107  1  0  0  0
 33 34  1  0  0  0
 33 66  1  0  0  0
 33 70  2  0  0  0
 34 36  1  0  0  0
 34 59  1  0  0  0
 34108  1  0  0  0
 35 44  2  0  0  0
 35 45  1  0  0  0
 35 68  1  0  0  0
 36 56  1  0  0  0
 36109  1  0  0  0
 37 39  1  0  0  0
 37 47  1  0  0  0
 37 66  1  0  0  0
 37110  1  0  0  0
 38 43  2  0  0  0
 38 46  1  0  0  0
 38 47  1  0  0  0
 39 64  1  0  0  0
 39 67  2  0  0  0
 40 52  1  0  0  0
 40 53  2  0  0  0
 40 58  1  0  0  0
 41111  1  0  0  0
 41112  1  0  0  0
 41113  1  0  0  0
 41 48  1  0  0  0
 42 43  1  0  0  0
 42 66  1  0  0  0
 42114  1  0  0  0
 42115  1  0  0  0
 43 44  1  0  0  0
 44116  1  0  0  0
 45 46  2  0  0  0
 45117  1  0  0  0
 46118  1  0  0  0
 47119  1  0  0  0
 47120  1  0  0  0
 48 56  1  0  0  0
 48 65  1  0  0  0
 48121  1  0  0  0
 49 50  1  0  0  0
 49 53  1  0  0  0
 49 64  1  0  0  0
 49122  1  0  0  0
 50 51  1  0  0  0
 50123  1  0  0  0
 50124  1  0  0  0
 51 52  1  0  0  0
 51125  1  0  0  0
 51126  1  0  0  0
 52127  1  0  0  0
 52128  1  0  0  0
 53 54  1  0  0  0
 54 55  2  0  0  0
 54129  1  0  0  0
 55 57  1  0  0  0
 55130  1  0  0  0
 56 69  2  0  0  0
 57 58  2  0  0  0
 57131  1  0  0  0
 58132  1  0  0  0
 59 60  1  0  0  0
 59 61  1  0  0  0
 59 62  1  0  0  0
 60133  1  0  0  0
 60134  1  0  0  0
 60135  1  0  0  0
 61136  1  0  0  0
 61137  1  0  0  0
 61138  1  0  0  0
 62139  1  0  0  0
 62140  1  0  0  0
 62141  1  0  0  0
 63 65  1  0  0  0
 63142  1  0  0  0
 63143  1  0  0  0
 63144  1  0  0  0
 64145  1  0  0  0
 65146  1  0  0  0
 68 83  1  0  0  0
 71 72  2  0  0  0
 71 74  1  0  0  0
 71147  1  0  0  0
 72 75  1  0  0  0
 72148  1  0  0  0
 73 75  2  0  0  0
 73 76  1  0  0  0
 73149  1  0  0  0
 74 76  2  0  0  0
 74 84  1  0  0  0
 75 85  1  0  0  0
 76 87  1  0  0  0
 77 78  1  0  0  0
 77 81  1  0  0  0
 77 86  2  0  0  0
 78 79  1  0  0  0
 78150  1  0  0  0
 78151  1  0  0  0
 79 84  1  0  0  0
 79152  1  0  0  0
 79153  1  0  0  0
 80 81  1  0  0  0
 80 84  1  0  0  0
 80154  1  0  0  0
 80155  1  0  0  0
 81 83  1  0  0  0
 81156  1  0  0  0
 82 85  1  0  0  0
 82157  1  0  0  0
 82158  1  0  0  0
 82159  1  0  0  0
 83160  1  0  0  0
 83161  1  0  0  0
M  ISO  4   1 100  68 101  83 101  85 100
M  END
> <chiral flag>
0

> <version>
0

> <s_m_source_file>
/data/baiqing/PycharmProjects/Reinvent-master-3.2/result/LINK_invent/BTK/process_docking_weight1_custom_product_contain_oxygen_bond_distance_aromatic_linkinvent_7_9_3/rearranged_h_0097.sdf

> <i_m_source_file_index>
57

> <r_mmod_Potential_Energy-OPLS-2005>
250.976226806641

> <r_mmod_Stretch_Energy-OPLS-2005>
97.674934387207

> <r_mmod_Bend_Energy-OPLS-2005>
158.206527709961

> <r_mmod_Torsional_Energy-OPLS-2005>
272.347198486328

> <r_mmod_Improper_Torsional_Energy-OPLS-2005>
3.40184330940247

> <r_mmod_Van_der_Waal_Energy-OPLS-2005>
165.815185546875

> <r_mmod_Electrostatic_Energy-OPLS-2005>
-268.104522705078

> <r_mmod_Solvation_Energy-OPLS-2005>
-218.941680908203

> <b_mmod_Minimization_Converged-OPLS-2005>
0

> <r_mmod_RMS_Derivative-OPLS-2005>
1.61787962913513

$$$$
57
                    3D
 Structure written by MMmdl.
160169  0  0  1  0            999 V2000
  -30.7297  -14.4807   20.5784 C   0  0  0  0  0  0
  -30.4160  -12.3151   19.4310 C   0  0  0  0  0  0
  -29.4954  -12.5077   18.2097 C   0  0  0  0  0  0
  -28.0175  -12.3660   18.6225 C   0  0  0  0  0  0
  -27.6605  -13.2135   19.8735 C   0  0  2  0  0  0
  -28.7043  -13.0195   20.9980 C   0  0  0  0  0  0
  -25.2581  -13.8179   20.5693 C   0  0  0  0  0  0
  -24.1842  -13.0441   20.9187 C   0  0  0  0  0  0
  -24.6403  -11.6909   20.8736 C   0  0  0  0  0  0
  -23.9070  -10.4289   21.0395 C   0  0  0  0  0  0
  -24.3626   -9.4209   21.9173 C   0  0  0  0  0  0
  -23.6299   -8.2248   22.0748 C   0  0  0  0  0  0
  -22.4276   -8.0285   21.3547 C   0  0  0  0  0  0
  -21.9910   -9.0253   20.4644 C   0  0  0  0  0  0
  -22.7241  -10.2131   20.3049 C   0  0  0  0  0  0
  -21.6856   -6.0737   22.5281 C   0  0  0  0  0  0
  -21.4014   -6.5639   23.8212 C   0  0  0  0  0  0
  -21.3661   -5.6792   24.9174 C   0  0  0  0  0  0
  -21.6049   -4.3055   24.7226 C   0  0  0  0  0  0
  -21.8821   -3.8147   23.4346 C   0  0  0  0  0  0
  -21.9192   -4.6963   22.3406 C   0  0  0  0  0  0
  -22.7861  -13.5236   21.1834 C   0  0  0  0  0  0
  -22.1659   -4.2156   21.0978 F   0  0  0  0  0  0
  -21.5627   -3.4536   25.7734 F   0  0  0  0  0  0
  -30.0337  -13.3164   20.4417 N   0  0  0  0  0  0
  -26.3022  -12.9363   20.3369 N   0  0  0  0  0  0
  -25.9338  -11.6513   20.5772 N   0  0  0  0  0  0
  -22.0503  -12.8234   22.0397 N   0  0  0  0  0  0
  -25.4299  -15.1899   20.4079 N   0  0  0  0  0  0
  -31.8522  -14.6286   20.0881 O   0  0  0  0  0  0
  -21.6645   -6.8883   21.4245 O   0  0  0  0  0  0
  -22.3546  -14.5542   20.6682 O   0  0  0  0  0  0
  -24.6184  -31.8664   23.2104 C   0  0  0  0  0  0
  -25.9069  -32.4809   23.8403 C   0  0  1  0  0  0
  -27.2228  -27.4062   20.1030 C   0  0  0  0  0  0
  -25.5917  -33.8612   24.2334 N   0  0  0  0  0  0
  -23.4073  -30.4924   21.5519 C   0  0  2  0  0  0
  -24.8537  -28.9629   20.1090 C   0  0  0  0  0  0
  -22.7433  -29.4655   22.4986 C   0  0  0  0  0  0
  -18.0278  -28.1368   22.8503 C   0  0  0  0  0  0
  -24.1490  -36.7309   23.2639 C   0  0  0  0  0  0
  -25.9413  -30.8222   21.3728 C   0  0  0  0  0  0
  -26.0177  -29.4592   20.7118 C   0  0  0  0  0  0
  -27.2090  -28.6890   20.7042 C   0  0  0  0  0  0
  -26.0478  -26.9485   19.4654 C   0  0  0  0  0  0
  -24.8664  -27.7093   19.4776 C   0  0  0  0  0  0
  -23.6159  -29.8296   20.1653 C   0  0  0  0  0  0
  -25.4114  -36.3106   24.0336 C   0  0  1  0  0  0
  -20.5871  -28.3663   23.1313 C   0  0  2  0  0  0
  -20.6772  -26.9398   22.5415 C   0  0  0  0  0  0
  -19.5746  -26.6379   21.5216 C   0  0  0  0  0  0
  -18.1923  -26.7918   22.1627 C   0  0  0  0  0  0
  -19.1527  -28.8834   23.2906 C   0  0  0  0  0  0
  -18.9450  -30.1444   23.8909 C   0  0  0  0  0  0
  -17.6448  -30.6578   24.0564 C   0  0  0  0  0  0
  -25.9037  -34.9467   23.5134 C   0  0  0  0  0  0
  -16.5342  -29.9070   23.6330 C   0  0  0  0  0  0
  -16.7264  -28.6483   23.0362 C   0  0  0  0  0  0
  -26.4491  -31.6591   25.0739 C   0  0  0  0  0  0
  -25.3752  -31.3696   26.1484 C   0  0  0  0  0  0
  -27.0333  -30.3027   24.6147 C   0  0  0  0  0  0
  -27.6065  -32.4310   25.7500 C   0  0  0  0  0  0
  -27.5587  -37.1812   24.8468 C   0  0  0  0  0  0
  -21.4156  -29.3025   22.3714 N   0  0  0  0  0  0
  -26.4307  -37.3788   23.9397 N   0  0  0  0  0  0
  -24.6738  -31.0739   22.1027 N   0  0  0  0  0  0
  -23.4189  -28.8202   23.3042 O   0  0  0  0  0  0
  -28.3372  -26.5850   20.1501 O   0  0  0  0  0  0
  -26.5598  -34.8921   22.4692 O   0  0  0  0  0  0
  -23.5371  -32.1429   23.7486 O   0  0  0  0  0  0
  -29.6540  -17.9691   21.2214 C   0  0  0  0  0  0
  -31.4476  -19.5310   21.7637 C   0  0  0  0  0  0
  -31.8957  -17.1310   21.6733 C   0  0  0  0  0  0
  -30.0912  -19.3089   21.4338 C   0  0  0  0  0  0
  -30.5481  -16.8661   21.3292 C   0  0  0  0  0  0
  -32.3410  -18.4502   21.8794 C   0  0  0  0  0  0
  -29.3047  -23.5284   19.3102 C   0  0  0  0  0  0
  -29.8100  -22.0903   19.5883 C   0  0  0  0  0  0
  -28.8617  -22.9776   21.5812 C   0  0  0  0  0  0
  -29.1623  -24.2010   20.6830 C   0  0  2  0  0  0
  -29.0853  -20.4793   21.4095 C   0  0  0  0  0  0
  -28.0716  -25.3085   20.7883 C   0  0  0  0  0  0
  -30.0708  -15.5182   21.1476 N   0  0  0  0  0  0
  -29.6280  -21.8271   21.0373 N   0  3  1  0  0  0
  -33.6337  -18.6823   22.2112 F   0  0  0  0  0  0
  -31.4614  -12.3973   19.1289 H   0  0  0  0  0  0
  -30.3057  -11.3076   19.8381 H   0  0  0  0  0  0
  -29.7400  -11.7810   17.4338 H   0  0  0  0  0  0
  -29.6641  -13.4935   17.7727 H   0  0  0  0  0  0
  -27.8298  -11.3102   18.8241 H   0  0  0  0  0  0
  -27.3664  -12.6344   17.7893 H   0  0  0  0  0  0
  -27.6964  -14.2593   19.5667 H   0  0  0  0  0  0
  -28.6803  -11.9918   21.3629 H   0  0  0  0  0  0
  -28.4660  -13.6413   21.8611 H   0  0  0  0  0  0
  -25.2773   -9.5694   22.4746 H   0  0  0  0  0  0
  -24.0016   -7.4641   22.7468 H   0  0  0  0  0  0
  -21.0840   -8.8769   19.8953 H   0  0  0  0  0  0
  -22.3689  -10.9673   19.6162 H   0  0  0  0  0  0
  -21.2005   -7.6143   23.9723 H   0  0  0  0  0  0
  -21.1482   -6.0514   25.9078 H   0  0  0  0  0  0
  -22.0599   -2.7612   23.2842 H   0  0  0  0  0  0
  -22.4105  -11.9895   22.4806 H   0  0  0  0  0  0
  -21.1116  -13.1271   22.2581 H   0  0  0  0  0  0
  -24.6644  -15.8459   20.5149 H   0  0  0  0  0  0
  -26.2790  -15.6257   20.0713 H   0  0  0  0  0  0
  -26.7144  -32.5511   23.1166 H   0  0  0  0  0  0
  -25.0085  -33.9773   25.0494 H   0  0  0  0  0  0
  -22.6968  -31.3098   21.4145 H   0  0  0  0  0  0
  -23.3747  -35.9650   23.3323 H   0  0  0  0  0  0
  -24.3581  -36.8903   22.2049 H   0  0  0  0  0  0
  -23.7254  -37.6526   23.6638 H   0  0  0  0  0  0
  -26.0670  -31.5915   20.6098 H   0  0  0  0  0  0
  -26.8234  -30.8652   21.9999 H   0  0  0  0  0  0
  -28.1024  -29.0592   21.1882 H   0  0  0  0  0  0
  -26.0328  -25.9939   18.9601 H   0  0  0  0  0  0
  -23.9770  -27.3265   18.9961 H   0  0  0  0  0  0
  -23.7226  -30.6058   19.4066 H   0  0  0  0  0  0
  -22.7387  -29.2503   19.8710 H   0  0  0  0  0  0
  -25.1294  -36.1979   25.0834 H   0  0  0  0  0  0
  -20.9969  -28.3227   24.1431 H   0  0  0  0  0  0
  -20.5686  -26.2270   23.3607 H   0  0  0  0  0  0
  -21.6641  -26.7448   22.1194 H   0  0  0  0  0  0
  -19.6906  -25.6290   21.1241 H   0  0  0  0  0  0
  -19.6678  -27.3197   20.6754 H   0  0  0  0  0  0
  -17.4202  -26.6694   21.4017 H   0  0  0  0  0  0
  -18.0308  -26.0041   22.9002 H   0  0  0  0  0  0
  -19.7924  -30.7271   24.2275 H   0  0  0  0  0  0
  -17.4996  -31.6261   24.5159 H   0  0  0  0  0  0
  -15.5339  -30.2975   23.7643 H   0  0  0  0  0  0
  -15.8668  -28.0801   22.7077 H   0  0  0  0  0  0
  -24.5908  -30.7071   25.7809 H   0  0  0  0  0  0
  -24.8965  -32.2854   26.4963 H   0  0  0  0  0  0
  -25.8094  -30.8827   27.0225 H   0  0  0  0  0  0
  -26.2896  -29.6766   24.1205 H   0  0  0  0  0  0
  -27.4100  -29.7285   25.4622 H   0  0  0  0  0  0
  -27.8735  -30.4334   23.9323 H   0  0  0  0  0  0
  -27.2687  -33.3596   26.2116 H   0  0  0  0  0  0
  -28.3858  -32.6891   25.0314 H   0  0  0  0  0  0
  -28.0762  -31.8413   26.5385 H   0  0  0  0  0  0
  -28.2620  -38.0094   24.7498 H   0  0  0  0  0  0
  -28.1070  -36.2625   24.6320 H   0  0  0  0  0  0
  -27.2299  -37.1496   25.8871 H   0  0  0  0  0  0
  -20.9327  -29.8720   21.6910 H   0  0  0  0  0  0
  -26.0200  -38.2878   24.1363 H   0  0  0  0  0  0
  -28.6135  -17.7844   20.9888 H   0  0  0  0  0  0
  -31.8228  -20.5247   21.9585 H   0  0  0  0  0  0
  -32.6071  -16.3273   21.7976 H   0  0  0  0  0  0
  -28.3339  -23.4748   18.8144 H   0  0  0  0  0  0
  -29.9738  -24.0800   18.6487 H   0  0  0  0  0  0
  -30.8671  -21.9853   19.3396 H   0  0  0  0  0  0
  -29.2668  -21.3721   18.9727 H   0  0  0  0  0  0
  -27.7960  -22.7443   21.5382 H   0  0  0  0  0  0
  -29.1091  -23.1633   22.6274 H   0  0  0  0  0  0
  -30.1266  -24.6172   20.9792 H   0  0  0  0  0  0
  -28.6792  -20.5413   22.4204 H   0  0  0  0  0  0
  -28.2381  -20.2291   20.7697 H   0  0  0  0  0  0
  -27.9097  -25.5197   21.8465 H   0  0  0  0  0  0
  -27.1374  -24.8644   20.4436 H   0  0  0  0  0  0
  -29.1099  -15.3354   21.3954 H   0  0  0  0  0  0
  -30.5414  -21.8931   21.4581 H   0  0  0  0  0  0
  1 25  1  0  0  0
  1 30  2  0  0  0
  1 83  1  0  0  0
  2  3  1  0  0  0
  2 25  1  0  0  0
  2 86  1  0  0  0
  2 87  1  0  0  0
  3  4  1  0  0  0
  3 88  1  0  0  0
  3 89  1  0  0  0
  4  5  1  0  0  0
  4 90  1  0  0  0
  4 91  1  0  0  0
  5  6  1  0  0  0
  5 26  1  0  0  0
  5 92  1  0  0  0
  6 25  1  0  0  0
  6 93  1  0  0  0
  6 94  1  0  0  0
  7  8  2  0  0  0
  7 26  1  0  0  0
  7 29  1  0  0  0
  8  9  1  0  0  0
  8 22  1  0  0  0
  9 10  1  0  0  0
  9 27  2  0  0  0
 10 11  2  0  0  0
 10 15  1  0  0  0
 11 12  1  0  0  0
 11 95  1  0  0  0
 12 13  2  0  0  0
 12 96  1  0  0  0
 13 14  1  0  0  0
 13 31  1  0  0  0
 14 15  2  0  0  0
 14 97  1  0  0  0
 15 98  1  0  0  0
 16 17  2  0  0  0
 16 21  1  0  0  0
 16 31  1  0  0  0
 17 18  1  0  0  0
 17 99  1  0  0  0
 18 19  2  0  0  0
 18100  1  0  0  0
 19 20  1  0  0  0
 19 24  1  0  0  0
 20 21  2  0  0  0
 20101  1  0  0  0
 21 23  1  0  0  0
 22 28  1  0  0  0
 22 32  2  0  0  0
 26 27  1  0  0  0
 28102  1  0  0  0
 28103  1  0  0  0
 29104  1  0  0  0
 29105  1  0  0  0
 33 34  1  0  0  0
 33 66  1  0  0  0
 33 70  2  0  0  0
 34 36  1  0  0  0
 34 59  1  0  0  0
 34106  1  0  0  0
 35 44  2  0  0  0
 35 45  1  0  0  0
 35 68  1  0  0  0
 36 56  1  0  0  0
 36107  1  0  0  0
 37 39  1  0  0  0
 37 47  1  0  0  0
 37 66  1  0  0  0
 37108  1  0  0  0
 38 43  2  0  0  0
 38 46  1  0  0  0
 38 47  1  0  0  0
 39 64  1  0  0  0
 39 67  2  0  0  0
 40 52  1  0  0  0
 40 53  2  0  0  0
 40 58  1  0  0  0
 41109  1  0  0  0
 41110  1  0  0  0
 41111  1  0  0  0
 41 48  1  0  0  0
 42 43  1  0  0  0
 42 66  1  0  0  0
 42112  1  0  0  0
 42113  1  0  0  0
 43 44  1  0  0  0
 44114  1  0  0  0
 45 46  2  0  0  0
 45115  1  0  0  0
 46116  1  0  0  0
 47117  1  0  0  0
 47118  1  0  0  0
 48 56  1  0  0  0
 48 65  1  0  0  0
 48119  1  0  0  0
 49 50  1  0  0  0
 49 53  1  0  0  0
 49 64  1  0  0  0
 49120  1  0  0  0
 50 51  1  0  0  0
 50121  1  0  0  0
 50122  1  0  0  0
 51 52  1  0  0  0
 51123  1  0  0  0
 51124  1  0  0  0
 52125  1  0  0  0
 52126  1  0  0  0
 53 54  1  0  0  0
 54 55  2  0  0  0
 54127  1  0  0  0
 55 57  1  0  0  0
 55128  1  0  0  0
 56 69  2  0  0  0
 57 58  2  0  0  0
 57129  1  0  0  0
 58130  1  0  0  0
 59 60  1  0  0  0
 59 61  1  0  0  0
 59 62  1  0  0  0
 60131  1  0  0  0
 60132  1  0  0  0
 60133  1  0  0  0
 61134  1  0  0  0
 61135  1  0  0  0
 61136  1  0  0  0
 62137  1  0  0  0
 62138  1  0  0  0
 62139  1  0  0  0
 63 65  1  0  0  0
 63140  1  0  0  0
 63141  1  0  0  0
 63142  1  0  0  0
 64143  1  0  0  0
 65144  1  0  0  0
 68 82  1  0  0  0
 71 74  2  0  0  0
 71 75  1  0  0  0
 71145  1  0  0  0
 72 74  1  0  0  0
 72 76  2  0  0  0
 72146  1  0  0  0
 73 75  2  0  0  0
 73 76  1  0  0  0
 73147  1  0  0  0
 74 81  1  0  0  0
 75 83  1  0  0  0
 76 85  1  0  0  0
 77 78  1  0  0  0
 77 80  1  0  0  0
 77148  1  0  0  0
 77149  1  0  0  0
 78 84  1  0  0  0
 78150  1  0  0  0
 78151  1  0  0  0
 79 80  1  0  0  0
 79 84  1  0  0  0
 79152  1  0  0  0
 79153  1  0  0  0
 80 82  1  0  0  0
 80154  1  0  0  0
 81155  1  0  0  0
 81156  1  0  0  0
 81 84  1  0  0  0
 82157  1  0  0  0
 82158  1  0  0  0
 83159  1  0  0  0
 84160  1  0  0  0
M  CHG  1  84   1
M  ISO  4   1 100  68 101  82 101  83 100
M  END
> <chiral flag>
0

> <version>
0

> <s_m_source_file>
/data/baiqing/PycharmProjects/Reinvent-master-3.2/result/LINK_invent/BTK/process_docking_weight1_custom_product_contain_oxygen_bond_distance_aromatic_linkinvent_7_9_3/rearranged_h_0097.sdf

> <i_m_source_file_index>
58

> <r_mmod_Potential_Energy-OPLS-2005>
-83.0053863525391

> <r_mmod_Stretch_Energy-OPLS-2005>
44.7228469848633

> <r_mmod_Bend_Energy-OPLS-2005>
120.715515136719

> <r_mmod_Torsional_Energy-OPLS-2005>
295.278961181641

> <r_mmod_Improper_Torsional_Energy-OPLS-2005>
3.59979820251465

> <r_mmod_Van_der_Waal_Energy-OPLS-2005>
151.01252746582

> <r_mmod_Electrostatic_Energy-OPLS-2005>
-252.809280395508

> <r_mmod_Solvation_Energy-OPLS-2005>
-464.352416992188

> <b_mmod_Minimization_Converged-OPLS-2005>
0

> <r_mmod_RMS_Derivative-OPLS-2005>
1.53598988056183

$$$$
58
                    3D
 Structure written by MMmdl.
157165  0  0  1  0            999 V2000
  -30.7172  -14.4374   20.6227 C   0  0  0  0  0  0
  -30.4223  -12.3085   19.4030 C   0  0  0  0  0  0
  -29.4859  -12.5183   18.1974 C   0  0  0  0  0  0
  -28.0106  -12.3722   18.6179 C   0  0  0  0  0  0
  -27.6630  -13.2049   19.8802 C   0  0  2  0  0  0
  -28.7047  -12.9615   20.9932 C   0  0  0  0  0  0
  -25.2604  -13.8161   20.5697 C   0  0  0  0  0  0
  -24.1845  -13.0430   20.9176 C   0  0  0  0  0  0
  -24.6398  -11.6904   20.8731 C   0  0  0  0  0  0
  -23.9064  -10.4289   21.0408 C   0  0  0  0  0  0
  -24.3617   -9.4203   21.9188 C   0  0  0  0  0  0
  -23.6292   -8.2239   22.0756 C   0  0  0  0  0  0
  -22.4269   -8.0286   21.3551 C   0  0  0  0  0  0
  -21.9908   -9.0258   20.4650 C   0  0  0  0  0  0
  -22.7238  -10.2134   20.3058 C   0  0  0  0  0  0
  -21.6848   -6.0735   22.5283 C   0  0  0  0  0  0
  -21.4016   -6.5639   23.8218 C   0  0  0  0  0  0
  -21.3665   -5.6791   24.9181 C   0  0  0  0  0  0
  -21.6036   -4.3054   24.7231 C   0  0  0  0  0  0
  -21.8820   -3.8149   23.4353 C   0  0  0  0  0  0
  -21.9194   -4.6965   22.3406 C   0  0  0  0  0  0
  -22.7872  -13.5233   21.1848 C   0  0  0  0  0  0
  -22.1660   -4.2148   21.0984 F   0  0  0  0  0  0
  -21.5628   -3.4541   25.7743 F   0  0  0  0  0  0
  -30.0361  -13.2747   20.4422 N   0  0  0  0  0  0
  -26.3036  -12.9321   20.3402 N   0  0  0  0  0  0
  -25.9323  -11.6476   20.5772 N   0  0  0  0  0  0
  -22.0521  -12.8213   22.0415 N   0  0  0  0  0  0
  -25.4336  -15.1874   20.4138 N   0  0  0  0  0  0
  -31.8164  -14.6629   20.1067 O   0  0  0  0  0  0
  -21.6634   -6.8880   21.4248 O   0  0  0  0  0  0
  -22.3557  -14.5543   20.6715 O   0  0  0  0  0  0
  -24.6167  -31.8658   23.2086 C   0  0  0  0  0  0
  -25.9054  -32.4816   23.8370 C   0  0  1  0  0  0
  -27.2340  -27.4220   20.0965 C   0  0  0  0  0  0
  -25.5894  -33.8602   24.2310 N   0  0  0  0  0  0
  -23.4041  -30.4899   21.5493 C   0  0  2  0  0  0
  -24.8509  -28.9519   20.1177 C   0  0  0  0  0  0
  -22.7410  -29.4657   22.4996 C   0  0  0  0  0  0
  -18.0263  -28.1389   22.8489 C   0  0  0  0  0  0
  -24.1485  -36.7304   23.2636 C   0  0  0  0  0  0
  -25.9339  -30.8326   21.3589 C   0  0  0  0  0  0
  -26.0130  -29.4646   20.7069 C   0  0  0  0  0  0
  -27.2083  -28.7087   20.6870 C   0  0  0  0  0  0
  -26.0528  -26.9268   19.4987 C   0  0  0  0  0  0
  -24.8652  -27.6828   19.5136 C   0  0  0  0  0  0
  -23.6145  -29.8200   20.1658 C   0  0  0  0  0  0
  -25.4109  -36.3111   24.0338 C   0  0  1  0  0  0
  -20.5853  -28.3655   23.1325 C   0  0  2  0  0  0
  -20.6744  -26.9384   22.5424 C   0  0  0  0  0  0
  -19.5728  -26.6390   21.5213 C   0  0  0  0  0  0
  -18.1909  -26.7934   22.1627 C   0  0  0  0  0  0
  -19.1516  -28.8843   23.2905 C   0  0  0  0  0  0
  -18.9439  -30.1450   23.8915 C   0  0  0  0  0  0
  -17.6441  -30.6592   24.0566 C   0  0  0  0  0  0
  -25.9029  -34.9470   23.5130 C   0  0  0  0  0  0
  -16.5332  -29.9089   23.6329 C   0  0  0  0  0  0
  -16.7250  -28.6514   23.0333 C   0  0  0  0  0  0
  -26.4457  -31.6597   25.0710 C   0  0  0  0  0  0
  -25.3717  -31.3689   26.1465 C   0  0  0  0  0  0
  -27.0257  -30.3039   24.6077 C   0  0  0  0  0  0
  -27.6051  -32.4293   25.7474 C   0  0  0  0  0  0
  -27.5582  -37.1820   24.8468 C   0  0  0  0  0  0
  -21.4132  -29.3033   22.3743 N   0  0  0  0  0  0
  -26.4297  -37.3805   23.9408 N   0  0  0  0  0  0
  -24.6701  -31.0770   22.0977 N   0  0  0  0  0  0
  -23.4191  -28.8193   23.3026 O   0  0  0  0  0  0
  -28.4099  -26.6962   20.0965 O   0  0  0  0  0  0
  -26.5587  -34.8929   22.4691 O   0  0  0  0  0  0
  -23.5367  -32.1383   23.7509 O   0  0  0  0  0  0
  -31.7067  -18.4127   20.3899 C   0  0  0  0  0  0
  -31.6525  -19.5402   19.5464 C   0  0  0  0  0  0
  -29.2284  -19.5751   19.7357 C   0  0  0  0  0  0
  -30.5244  -17.8358   20.8999 C   0  0  0  0  0  0
  -30.4178  -20.1310   19.2084 C   0  0  0  0  0  0
  -29.2817  -18.4299   20.5674 C   0  0  0  0  0  0
  -29.7764  -22.3057   18.0755 C   0  0  0  0  0  0
  -30.6256  -16.6338   21.8473 C   0  0  0  0  0  0
  -29.0006  -22.9542   19.2387 C   0  0  0  0  0  0
  -28.9127  -24.5039   19.0827 C   0  0  0  0  0  0
  -28.3393  -25.2686   20.2935 C   0  0  0  0  0  0
  -30.4319  -21.1376   18.2032 N   0  0  0  0  0  0
  -30.0844  -15.3586   21.3636 N   0  0  0  0  0  0
  -29.8205  -22.8893   16.9904 O   0  0  0  0  0  0
  -28.1283  -17.8940   21.0341 F   0  0  0  0  0  0
  -31.4653  -12.4167   19.0982 H   0  0  0  0  0  0
  -30.3303  -11.2903   19.7841 H   0  0  0  0  0  0
  -29.7175  -11.8016   17.4084 H   0  0  0  0  0  0
  -29.6502  -13.5103   17.7741 H   0  0  0  0  0  0
  -27.8258  -11.3139   18.8112 H   0  0  0  0  0  0
  -27.3535  -12.6491   17.7927 H   0  0  0  0  0  0
  -27.7140  -14.2561   19.5966 H   0  0  0  0  0  0
  -28.6813  -11.9177   21.3086 H   0  0  0  0  0  0
  -28.4577  -13.5330   21.8887 H   0  0  0  0  0  0
  -25.2764   -9.5663   22.4769 H   0  0  0  0  0  0
  -23.9998   -7.4618   22.7462 H   0  0  0  0  0  0
  -21.0847   -8.8775   19.8952 H   0  0  0  0  0  0
  -22.3705  -10.9674   19.6168 H   0  0  0  0  0  0
  -21.2006   -7.6148   23.9722 H   0  0  0  0  0  0
  -21.1484   -6.0522   25.9081 H   0  0  0  0  0  0
  -22.0592   -2.7610   23.2849 H   0  0  0  0  0  0
  -22.4134  -11.9851   22.4760 H   0  0  0  0  0  0
  -21.1154  -13.1252   22.2661 H   0  0  0  0  0  0
  -24.6756  -15.8478   20.5465 H   0  0  0  0  0  0
  -26.2997  -15.6333   20.1371 H   0  0  0  0  0  0
  -26.7114  -32.5545   23.1124 H   0  0  0  0  0  0
  -25.0037  -33.9712   25.0455 H   0  0  0  0  0  0
  -22.6930  -31.3064   21.4067 H   0  0  0  0  0  0
  -23.3756  -35.9634   23.3328 H   0  0  0  0  0  0
  -24.3577  -36.8886   22.2046 H   0  0  0  0  0  0
  -23.7229  -37.6516   23.6618 H   0  0  0  0  0  0
  -26.0417  -31.6000   20.5902 H   0  0  0  0  0  0
  -26.8235  -30.8883   21.9744 H   0  0  0  0  0  0
  -28.1102  -29.1032   21.1346 H   0  0  0  0  0  0
  -26.0419  -25.9624   19.0104 H   0  0  0  0  0  0
  -23.9684  -27.2844   19.0588 H   0  0  0  0  0  0
  -23.7243  -30.5931   19.4040 H   0  0  0  0  0  0
  -22.7400  -29.2369   19.8727 H   0  0  0  0  0  0
  -25.1296  -36.1972   25.0833 H   0  0  0  0  0  0
  -20.9917  -28.3212   24.1457 H   0  0  0  0  0  0
  -20.5624  -26.2244   23.3599 H   0  0  0  0  0  0
  -21.6614  -26.7410   22.1231 H   0  0  0  0  0  0
  -19.6865  -25.6303   21.1228 H   0  0  0  0  0  0
  -19.6693  -27.3214   20.6761 H   0  0  0  0  0  0
  -17.4166  -26.6671   21.4040 H   0  0  0  0  0  0
  -18.0319  -26.0084   22.9036 H   0  0  0  0  0  0
  -19.7911  -30.7258   24.2302 H   0  0  0  0  0  0
  -17.4994  -31.6278   24.5154 H   0  0  0  0  0  0
  -15.5328  -30.2992   23.7661 H   0  0  0  0  0  0
  -15.8650  -28.0854   22.7022 H   0  0  0  0  0  0
  -24.5926  -30.6982   25.7818 H   0  0  0  0  0  0
  -24.8854  -32.2823   26.4902 H   0  0  0  0  0  0
  -25.8091  -30.8889   27.0230 H   0  0  0  0  0  0
  -26.2789  -29.6854   24.1085 H   0  0  0  0  0  0
  -27.3951  -29.7243   25.4544 H   0  0  0  0  0  0
  -27.8659  -30.4356   23.9256 H   0  0  0  0  0  0
  -27.2694  -33.3594   26.2074 H   0  0  0  0  0  0
  -28.3860  -32.6845   25.0294 H   0  0  0  0  0  0
  -28.0710  -31.8383   26.5371 H   0  0  0  0  0  0
  -28.2635  -38.0088   24.7525 H   0  0  0  0  0  0
  -28.1044  -36.2629   24.6303 H   0  0  0  0  0  0
  -27.2284  -37.1491   25.8866 H   0  0  0  0  0  0
  -20.9274  -29.8787   21.7003 H   0  0  0  0  0  0
  -26.0190  -38.2883   24.1429 H   0  0  0  0  0  0
  -32.6680  -17.9846   20.6362 H   0  0  0  0  0  0
  -32.5726  -19.9409   19.1443 H   0  0  0  0  0  0
  -28.2645  -19.9790   19.4657 H   0  0  0  0  0  0
  -31.6631  -16.4866   22.1523 H   0  0  0  0  0  0
  -30.0894  -16.8908   22.7612 H   0  0  0  0  0  0
  -27.9977  -22.5265   19.2714 H   0  0  0  0  0  0
  -29.4905  -22.6988   20.1795 H   0  0  0  0  0  0
  -28.3074  -24.7393   18.2072 H   0  0  0  0  0  0
  -29.9091  -24.8972   18.8726 H   0  0  0  0  0  0
  -28.9417  -25.0367   21.1728 H   0  0  0  0  0  0
  -27.3386  -24.9089   20.5370 H   0  0  0  0  0  0
  -31.0603  -20.9479   17.4347 H   0  0  0  0  0  0
  -29.1774  -15.0931   21.7163 H   0  0  0  0  0  0
  1 25  1  0  0  0
  1 30  2  0  0  0
  1 83  1  0  0  0
  2  3  1  0  0  0
  2 25  1  0  0  0
  2 86  1  0  0  0
  2 87  1  0  0  0
  3  4  1  0  0  0
  3 88  1  0  0  0
  3 89  1  0  0  0
  4  5  1  0  0  0
  4 90  1  0  0  0
  4 91  1  0  0  0
  5  6  1  0  0  0
  5 26  1  0  0  0
  5 92  1  0  0  0
  6 25  1  0  0  0
  6 93  1  0  0  0
  6 94  1  0  0  0
  7  8  2  0  0  0
  7 26  1  0  0  0
  7 29  1  0  0  0
  8  9  1  0  0  0
  8 22  1  0  0  0
  9 10  1  0  0  0
  9 27  2  0  0  0
 10 11  2  0  0  0
 10 15  1  0  0  0
 11 12  1  0  0  0
 11 95  1  0  0  0
 12 13  2  0  0  0
 12 96  1  0  0  0
 13 14  1  0  0  0
 13 31  1  0  0  0
 14 15  2  0  0  0
 14 97  1  0  0  0
 15 98  1  0  0  0
 16 17  2  0  0  0
 16 21  1  0  0  0
 16 31  1  0  0  0
 17 18  1  0  0  0
 17 99  1  0  0  0
 18 19  2  0  0  0
 18100  1  0  0  0
 19 20  1  0  0  0
 19 24  1  0  0  0
 20 21  2  0  0  0
 20101  1  0  0  0
 21 23  1  0  0  0
 22 28  1  0  0  0
 22 32  2  0  0  0
 26 27  1  0  0  0
 28102  1  0  0  0
 28103  1  0  0  0
 29104  1  0  0  0
 29105  1  0  0  0
 33 34  1  0  0  0
 33 66  1  0  0  0
 33 70  2  0  0  0
 34 36  1  0  0  0
 34 59  1  0  0  0
 34106  1  0  0  0
 35 44  2  0  0  0
 35 45  1  0  0  0
 35 68  1  0  0  0
 36 56  1  0  0  0
 36107  1  0  0  0
 37 39  1  0  0  0
 37 47  1  0  0  0
 37 66  1  0  0  0
 37108  1  0  0  0
 38 43  2  0  0  0
 38 46  1  0  0  0
 38 47  1  0  0  0
 39 64  1  0  0  0
 39 67  2  0  0  0
 40 52  1  0  0  0
 40 53  2  0  0  0
 40 58  1  0  0  0
 41109  1  0  0  0
 41110  1  0  0  0
 41111  1  0  0  0
 41 48  1  0  0  0
 42 43  1  0  0  0
 42 66  1  0  0  0
 42112  1  0  0  0
 42113  1  0  0  0
 43 44  1  0  0  0
 44114  1  0  0  0
 45 46  2  0  0  0
 45115  1  0  0  0
 46116  1  0  0  0
 47117  1  0  0  0
 47118  1  0  0  0
 48 56  1  0  0  0
 48 65  1  0  0  0
 48119  1  0  0  0
 49 50  1  0  0  0
 49 53  1  0  0  0
 49 64  1  0  0  0
 49120  1  0  0  0
 50 51  1  0  0  0
 50121  1  0  0  0
 50122  1  0  0  0
 51 52  1  0  0  0
 51123  1  0  0  0
 51124  1  0  0  0
 52125  1  0  0  0
 52126  1  0  0  0
 53 54  1  0  0  0
 54 55  2  0  0  0
 54127  1  0  0  0
 55 57  1  0  0  0
 55128  1  0  0  0
 56 69  2  0  0  0
 57 58  2  0  0  0
 57129  1  0  0  0
 58130  1  0  0  0
 59 60  1  0  0  0
 59 61  1  0  0  0
 59 62  1  0  0  0
 60131  1  0  0  0
 60132  1  0  0  0
 60133  1  0  0  0
 61134  1  0  0  0
 61135  1  0  0  0
 61136  1  0  0  0
 62137  1  0  0  0
 62138  1  0  0  0
 62139  1  0  0  0
 63 65  1  0  0  0
 63140  1  0  0  0
 63141  1  0  0  0
 63142  1  0  0  0
 64143  1  0  0  0
 65144  1  0  0  0
 68 81  1  0  0  0
 71 72  2  0  0  0
 71 74  1  0  0  0
 71145  1  0  0  0
 72 75  1  0  0  0
 72146  1  0  0  0
 73 75  2  0  0  0
 73 76  1  0  0  0
 73147  1  0  0  0
 74 76  2  0  0  0
 74 78  1  0  0  0
 75 82  1  0  0  0
 76 85  1  0  0  0
 77 79  1  0  0  0
 77 82  1  0  0  0
 77 84  2  0  0  0
 78 83  1  0  0  0
 78148  1  0  0  0
 78149  1  0  0  0
 79 80  1  0  0  0
 79150  1  0  0  0
 79151  1  0  0  0
 80 81  1  0  0  0
 80152  1  0  0  0
 80153  1  0  0  0
 81154  1  0  0  0
 81155  1  0  0  0
 82156  1  0  0  0
 83157  1  0  0  0
M  ISO  4   1 100  68 101  81 101  83 100
M  END
> <chiral flag>
0

> <version>
0

> <s_m_source_file>
/data/baiqing/PycharmProjects/Reinvent-master-3.2/result/LINK_invent/BTK/process_docking_weight1_custom_product_contain_oxygen_bond_distance_aromatic_linkinvent_7_9_3/rearranged_h_0097.sdf

> <i_m_source_file_index>
59

> <r_mmod_Potential_Energy-OPLS-2005>
-128.133895874023

> <r_mmod_Stretch_Energy-OPLS-2005>
37.4461097717285

> <r_mmod_Bend_Energy-OPLS-2005>
111.739265441895

> <r_mmod_Torsional_Energy-OPLS-2005>
233.539245605469

> <r_mmod_Improper_Torsional_Energy-OPLS-2005>
3.0072557926178

> <r_mmod_Van_der_Waal_Energy-OPLS-2005>
147.294219970703

> <r_mmod_Electrostatic_Energy-OPLS-2005>
-450.794067382812

> <r_mmod_Solvation_Energy-OPLS-2005>
-221.082336425781

> <b_mmod_Minimization_Converged-OPLS-2005>
0

> <r_mmod_RMS_Derivative-OPLS-2005>
1.97063183784485

$$$$
59
                    3D
 Structure written by MMmdl.
156164  0  0  1  0            999 V2000
  -30.6915  -14.5036   20.5494 C   0  0  0  0  0  0
  -30.4226  -12.3210   19.4268 C   0  0  0  0  0  0
  -29.4940  -12.5001   18.2081 C   0  0  0  0  0  0
  -28.0162  -12.3575   18.6228 C   0  0  0  0  0  0
  -27.6573  -13.2090   19.8704 C   0  0  2  0  0  0
  -28.7013  -13.0161   20.9938 C   0  0  0  0  0  0
  -25.2571  -13.8163   20.5680 C   0  0  0  0  0  0
  -24.1829  -13.0437   20.9185 C   0  0  0  0  0  0
  -24.6388  -11.6905   20.8742 C   0  0  0  0  0  0
  -23.9059  -10.4291   21.0408 C   0  0  0  0  0  0
  -24.3612   -9.4206   21.9186 C   0  0  0  0  0  0
  -23.6289   -8.2241   22.0754 C   0  0  0  0  0  0
  -22.4271   -8.0278   21.3544 C   0  0  0  0  0  0
  -21.9906   -9.0252   20.4647 C   0  0  0  0  0  0
  -22.7232  -10.2133   20.3058 C   0  0  0  0  0  0
  -21.6853   -6.0733   22.5278 C   0  0  0  0  0  0
  -21.4013   -6.5638   23.8209 C   0  0  0  0  0  0
  -21.3660   -5.6792   24.9172 C   0  0  0  0  0  0
  -21.6044   -4.3055   24.7223 C   0  0  0  0  0  0
  -21.8819   -3.8146   23.4345 C   0  0  0  0  0  0
  -21.9192   -4.6962   22.3401 C   0  0  0  0  0  0
  -22.7853  -13.5233   21.1850 C   0  0  0  0  0  0
  -22.1661   -4.2149   21.0978 F   0  0  0  0  0  0
  -21.5631   -3.4539   25.7737 F   0  0  0  0  0  0
  -30.0268  -13.3207   20.4319 N   0  0  0  0  0  0
  -26.3003  -12.9335   20.3354 N   0  0  0  0  0  0
  -25.9315  -11.6493   20.5772 N   0  0  0  0  0  0
  -22.0494  -12.8224   22.0407 N   0  0  0  0  0  0
  -25.4285  -15.1881   20.4070 N   0  0  0  0  0  0
  -31.8413  -14.6549   20.1260 O   0  0  0  0  0  0
  -21.6636   -6.8875   21.4239 O   0  0  0  0  0  0
  -22.3540  -14.5541   20.6701 O   0  0  0  0  0  0
  -24.6165  -31.8663   23.2085 C   0  0  0  0  0  0
  -25.9050  -32.4813   23.8390 C   0  0  1  0  0  0
  -27.2314  -27.4184   20.1052 C   0  0  0  0  0  0
  -25.5898  -33.8612   24.2321 N   0  0  0  0  0  0
  -23.4054  -30.4896   21.5486 C   0  0  2  0  0  0
  -24.8531  -28.9536   20.1133 C   0  0  0  0  0  0
  -22.7416  -29.4657   22.4978 C   0  0  0  0  0  0
  -18.0270  -28.1379   22.8492 C   0  0  0  0  0  0
  -24.1485  -36.7315   23.2639 C   0  0  0  0  0  0
  -25.9355  -30.8293   21.3622 C   0  0  0  0  0  0
  -26.0147  -29.4628   20.7084 C   0  0  0  0  0  0
  -27.2111  -28.7051   20.6956 C   0  0  0  0  0  0
  -26.0553  -26.9296   19.4982 C   0  0  0  0  0  0
  -24.8693  -27.6875   19.5027 C   0  0  0  0  0  0
  -23.6146  -29.8210   20.1637 C   0  0  0  0  0  0
  -25.4106  -36.3107   24.0337 C   0  0  1  0  0  0
  -20.5863  -28.3671   23.1309 C   0  0  2  0  0  0
  -20.6761  -26.9405   22.5415 C   0  0  0  0  0  0
  -19.5740  -26.6387   21.5211 C   0  0  0  0  0  0
  -18.1917  -26.7926   22.1622 C   0  0  0  0  0  0
  -19.1520  -28.8841   23.2899 C   0  0  0  0  0  0
  -18.9450  -30.1447   23.8910 C   0  0  0  0  0  0
  -17.6454  -30.6586   24.0568 C   0  0  0  0  0  0
  -25.9034  -34.9471   23.5127 C   0  0  0  0  0  0
  -16.5344  -29.9089   23.6329 C   0  0  0  0  0  0
  -16.7260  -28.6506   23.0349 C   0  0  0  0  0  0
  -26.4475  -31.6594   25.0720 C   0  0  0  0  0  0
  -25.3742  -31.3695   26.1469 C   0  0  0  0  0  0
  -27.0312  -30.3037   24.6102 C   0  0  0  0  0  0
  -27.6050  -32.4317   25.7481 C   0  0  0  0  0  0
  -27.5580  -37.1811   24.8465 C   0  0  0  0  0  0
  -21.4141  -29.3039   22.3716 N   0  0  0  0  0  0
  -26.4292  -37.3791   23.9410 N   0  0  0  0  0  0
  -24.6708  -31.0757   22.0985 N   0  0  0  0  0  0
  -23.4181  -28.8199   23.3026 O   0  0  0  0  0  0
  -28.3706  -26.6394   20.1150 O   0  0  0  0  0  0
  -26.5598  -34.8923   22.4691 O   0  0  0  0  0  0
  -23.5353  -32.1417   23.7473 O   0  0  0  0  0  0
  -31.6051  -17.3104   21.5460 C   0  0  0  0  0  0
  -31.0460  -19.6772   21.2815 C   0  0  0  0  0  0
  -29.4150  -17.9636   20.7085 C   0  0  0  0  0  0
  -31.9586  -18.6703   21.6597 C   0  0  0  0  0  0
  -30.3319  -16.9344   21.0613 C   0  0  0  0  0  0
  -29.7651  -19.3409   20.7850 C   0  0  0  0  0  0
  -28.8401  -24.1763   20.0611 C   0  0  0  0  0  0
  -33.3191  -19.0523   22.2084 C   0  0  0  0  0  0
  -28.6593  -22.7743   20.6980 C   0  0  0  0  0  0
  -28.2164  -25.3782   20.8106 C   0  0  0  0  0  0
  -29.2421  -21.5782   19.8914 C   0  0  0  0  0  0
  -29.9474  -15.5517   20.9768 N   0  0  0  0  0  0
  -29.4572  -24.3297   19.0011 O   0  0  0  0  0  0
  -28.8253  -20.2944   20.4127 O   0  0  0  0  0  0
  -31.4667  -12.4199   19.1240 H   0  0  0  0  0  0
  -30.3271  -11.3155   19.8396 H   0  0  0  0  0  0
  -29.7378  -11.7679   17.4374 H   0  0  0  0  0  0
  -29.6572  -13.4818   17.7598 H   0  0  0  0  0  0
  -27.8331  -11.3027   18.8310 H   0  0  0  0  0  0
  -27.3635  -12.6190   17.7890 H   0  0  0  0  0  0
  -27.6925  -14.2524   19.5566 H   0  0  0  0  0  0
  -28.6840  -11.9880   21.3584 H   0  0  0  0  0  0
  -28.4663  -13.6380   21.8591 H   0  0  0  0  0  0
  -25.2756   -9.5681   22.4760 H   0  0  0  0  0  0
  -24.0000   -7.4631   22.7472 H   0  0  0  0  0  0
  -21.0839   -8.8765   19.8952 H   0  0  0  0  0  0
  -22.3689  -10.9670   19.6166 H   0  0  0  0  0  0
  -21.2004   -7.6146   23.9713 H   0  0  0  0  0  0
  -21.1484   -6.0523   25.9075 H   0  0  0  0  0  0
  -22.0599   -2.7609   23.2845 H   0  0  0  0  0  0
  -22.4107  -11.9879   22.4785 H   0  0  0  0  0  0
  -21.1115  -13.1252   22.2619 H   0  0  0  0  0  0
  -24.6594  -15.8412   20.5101 H   0  0  0  0  0  0
  -26.2727  -15.6252   20.0607 H   0  0  0  0  0  0
  -26.7123  -32.5518   23.1156 H   0  0  0  0  0  0
  -25.0055  -33.9775   25.0470 H   0  0  0  0  0  0
  -22.6951  -31.3070   21.4078 H   0  0  0  0  0  0
  -23.3741  -35.9654   23.3310 H   0  0  0  0  0  0
  -24.3583  -36.8923   22.2053 H   0  0  0  0  0  0
  -23.7242  -37.6524   23.6651 H   0  0  0  0  0  0
  -26.0485  -31.5957   20.5939 H   0  0  0  0  0  0
  -26.8229  -30.8829   21.9814 H   0  0  0  0  0  0
  -28.1082  -29.0937   21.1573 H   0  0  0  0  0  0
  -26.0535  -25.9579   19.0244 H   0  0  0  0  0  0
  -23.9771  -27.2909   19.0379 H   0  0  0  0  0  0
  -23.7219  -30.5951   19.4027 H   0  0  0  0  0  0
  -22.7385  -29.2403   19.8688 H   0  0  0  0  0  0
  -25.1283  -36.1974   25.0830 H   0  0  0  0  0  0
  -20.9956  -28.3241   24.1430 H   0  0  0  0  0  0
  -20.5661  -26.2283   23.3608 H   0  0  0  0  0  0
  -21.6633  -26.7446   22.1211 H   0  0  0  0  0  0
  -19.6905  -25.6301   21.1233 H   0  0  0  0  0  0
  -19.6679  -27.3206   20.6748 H   0  0  0  0  0  0
  -17.4190  -26.6680   21.4020 H   0  0  0  0  0  0
  -18.0317  -26.0060   22.9012 H   0  0  0  0  0  0
  -19.7927  -30.7258   24.2285 H   0  0  0  0  0  0
  -17.5009  -31.6266   24.5171 H   0  0  0  0  0  0
  -15.5347  -30.2996   23.7644 H   0  0  0  0  0  0
  -15.8659  -28.0831   22.7057 H   0  0  0  0  0  0
  -24.5921  -30.7033   25.7810 H   0  0  0  0  0  0
  -24.8925  -32.2846   26.4924 H   0  0  0  0  0  0
  -25.8101  -30.8865   27.0223 H   0  0  0  0  0  0
  -26.2861  -29.6788   24.1161 H   0  0  0  0  0  0
  -27.4088  -29.7280   25.4564 H   0  0  0  0  0  0
  -27.8690  -30.4358   23.9251 H   0  0  0  0  0  0
  -27.2671  -33.3611   26.2077 H   0  0  0  0  0  0
  -28.3846  -32.6886   25.0296 H   0  0  0  0  0  0
  -28.0729  -31.8428   26.5379 H   0  0  0  0  0  0
  -28.2603  -38.0103   24.7509 H   0  0  0  0  0  0
  -28.1071  -36.2636   24.6294 H   0  0  0  0  0  0
  -27.2300  -37.1464   25.8868 H   0  0  0  0  0  0
  -20.9303  -29.8768   21.6943 H   0  0  0  0  0  0
  -26.0182  -38.2872   24.1403 H   0  0  0  0  0  0
  -32.3158  -16.5547   21.8512 H   0  0  0  0  0  0
  -31.3386  -20.7099   21.4051 H   0  0  0  0  0  0
  -28.4302  -17.6993   20.3502 H   0  0  0  0  0  0
  -34.0499  -18.2612   22.0365 H   0  0  0  0  0  0
  -33.2569  -19.2303   23.2823 H   0  0  0  0  0  0
  -33.6922  -19.9598   21.7328 H   0  0  0  0  0  0
  -27.5892  -22.6202   20.8373 H   0  0  0  0  0  0
  -29.0997  -22.7917   21.6943 H   0  0  0  0  0  0
  -28.7025  -25.4643   21.7822 H   0  0  0  0  0  0
  -27.1693  -25.1495   21.0116 H   0  0  0  0  0  0
  -30.3213  -21.6788   19.7827 H   0  0  0  0  0  0
  -28.8564  -21.6264   18.8722 H   0  0  0  0  0  0
  -28.9763  -15.3417   21.1485 H   0  0  0  0  0  0
  1 25  1  0  0  0
  1 30  2  0  0  0
  1 82  1  0  0  0
  2  3  1  0  0  0
  2 25  1  0  0  0
  2 85  1  0  0  0
  2 86  1  0  0  0
  3  4  1  0  0  0
  3 87  1  0  0  0
  3 88  1  0  0  0
  4  5  1  0  0  0
  4 89  1  0  0  0
  4 90  1  0  0  0
  5  6  1  0  0  0
  5 26  1  0  0  0
  5 91  1  0  0  0
  6 25  1  0  0  0
  6 92  1  0  0  0
  6 93  1  0  0  0
  7  8  2  0  0  0
  7 26  1  0  0  0
  7 29  1  0  0  0
  8  9  1  0  0  0
  8 22  1  0  0  0
  9 10  1  0  0  0
  9 27  2  0  0  0
 10 11  2  0  0  0
 10 15  1  0  0  0
 11 12  1  0  0  0
 11 94  1  0  0  0
 12 13  2  0  0  0
 12 95  1  0  0  0
 13 14  1  0  0  0
 13 31  1  0  0  0
 14 15  2  0  0  0
 14 96  1  0  0  0
 15 97  1  0  0  0
 16 17  2  0  0  0
 16 21  1  0  0  0
 16 31  1  0  0  0
 17 18  1  0  0  0
 17 98  1  0  0  0
 18 19  2  0  0  0
 18 99  1  0  0  0
 19 20  1  0  0  0
 19 24  1  0  0  0
 20 21  2  0  0  0
 20100  1  0  0  0
 21 23  1  0  0  0
 22 28  1  0  0  0
 22 32  2  0  0  0
 26 27  1  0  0  0
 28101  1  0  0  0
 28102  1  0  0  0
 29103  1  0  0  0
 29104  1  0  0  0
 33 34  1  0  0  0
 33 66  1  0  0  0
 33 70  2  0  0  0
 34 36  1  0  0  0
 34 59  1  0  0  0
 34105  1  0  0  0
 35 44  2  0  0  0
 35 45  1  0  0  0
 35 68  1  0  0  0
 36 56  1  0  0  0
 36106  1  0  0  0
 37 39  1  0  0  0
 37 47  1  0  0  0
 37 66  1  0  0  0
 37107  1  0  0  0
 38 43  2  0  0  0
 38 46  1  0  0  0
 38 47  1  0  0  0
 39 64  1  0  0  0
 39 67  2  0  0  0
 40 52  1  0  0  0
 40 53  2  0  0  0
 40 58  1  0  0  0
 41108  1  0  0  0
 41109  1  0  0  0
 41110  1  0  0  0
 41 48  1  0  0  0
 42 43  1  0  0  0
 42 66  1  0  0  0
 42111  1  0  0  0
 42112  1  0  0  0
 43 44  1  0  0  0
 44113  1  0  0  0
 45 46  2  0  0  0
 45114  1  0  0  0
 46115  1  0  0  0
 47116  1  0  0  0
 47117  1  0  0  0
 48 56  1  0  0  0
 48 65  1  0  0  0
 48118  1  0  0  0
 49 50  1  0  0  0
 49 53  1  0  0  0
 49 64  1  0  0  0
 49119  1  0  0  0
 50 51  1  0  0  0
 50120  1  0  0  0
 50121  1  0  0  0
 51 52  1  0  0  0
 51122  1  0  0  0
 51123  1  0  0  0
 52124  1  0  0  0
 52125  1  0  0  0
 53 54  1  0  0  0
 54 55  2  0  0  0
 54126  1  0  0  0
 55 57  1  0  0  0
 55127  1  0  0  0
 56 69  2  0  0  0
 57 58  2  0  0  0
 57128  1  0  0  0
 58129  1  0  0  0
 59 60  1  0  0  0
 59 61  1  0  0  0
 59 62  1  0  0  0
 60130  1  0  0  0
 60131  1  0  0  0
 60132  1  0  0  0
 61133  1  0  0  0
 61134  1  0  0  0
 61135  1  0  0  0
 62136  1  0  0  0
 62137  1  0  0  0
 62138  1  0  0  0
 63 65  1  0  0  0
 63139  1  0  0  0
 63140  1  0  0  0
 63141  1  0  0  0
 64142  1  0  0  0
 65143  1  0  0  0
 68 80  1  0  0  0
 71 74  2  0  0  0
 71 75  1  0  0  0
 71144  1  0  0  0
 72 74  1  0  0  0
 72 76  2  0  0  0
 72145  1  0  0  0
 73 75  2  0  0  0
 73 76  1  0  0  0
 73146  1  0  0  0
 74 78  1  0  0  0
 75 82  1  0  0  0
 76 84  1  0  0  0
 77 79  1  0  0  0
 77 80  1  0  0  0
 77 83  2  0  0  0
 78147  1  0  0  0
 78148  1  0  0  0
 78149  1  0  0  0
 79 81  1  0  0  0
 79150  1  0  0  0
 79151  1  0  0  0
 80152  1  0  0  0
 80153  1  0  0  0
 81 84  1  0  0  0
 81154  1  0  0  0
 81155  1  0  0  0
 82156  1  0  0  0
M  ISO  4   1 100  68 101  80 101  82 100
M  END
> <chiral flag>
0

> <version>
0

> <s_m_source_file>
/data/baiqing/PycharmProjects/Reinvent-master-3.2/result/LINK_invent/BTK/process_docking_weight1_custom_product_contain_oxygen_bond_distance_aromatic_linkinvent_7_9_3/rearranged_h_0097.sdf

> <i_m_source_file_index>
60

> <r_mmod_Potential_Energy-OPLS-2005>
-15.3122205734253

> <r_mmod_Stretch_Energy-OPLS-2005>
43.8102149963379

> <r_mmod_Bend_Energy-OPLS-2005>
102.034965515137

> <r_mmod_Torsional_Energy-OPLS-2005>
243.100814819336

> <r_mmod_Improper_Torsional_Energy-OPLS-2005>
4.53428077697754

> <r_mmod_Van_der_Waal_Energy-OPLS-2005>
152.130767822266

> <r_mmod_Electrostatic_Energy-OPLS-2005>
-349.320770263672

> <r_mmod_Solvation_Energy-OPLS-2005>
-228.812286376953

> <b_mmod_Minimization_Converged-OPLS-2005>
0

> <r_mmod_RMS_Derivative-OPLS-2005>
0.464500188827515

$$$$
60
                    3D
 Structure written by MMmdl.
156165  0  0  1  0            999 V2000
  -30.5350  -14.9332   20.4373 C   0  0  0  0  0  0
  -30.4305  -12.5807   19.4997 C   0  0  0  0  0  0
  -29.5122  -12.5285   18.2568 C   0  0  0  0  0  0
  -28.0441  -12.3102   18.6709 C   0  0  0  0  0  0
  -27.6256  -13.2491   19.8339 C   0  0  2  0  0  0
  -28.6660  -13.2692   20.9728 C   0  0  0  0  0  0
  -25.2433  -13.8189   20.5699 C   0  0  0  0  0  0
  -24.1798  -13.0422   20.9179 C   0  0  0  0  0  0
  -24.6394  -11.6903   20.8694 C   0  0  0  0  0  0
  -23.9081  -10.4272   21.0362 C   0  0  0  0  0  0
  -24.3643   -9.4207   21.9156 C   0  0  0  0  0  0
  -23.6301   -8.2249   22.0744 C   0  0  0  0  0  0
  -22.4285   -8.0263   21.3531 C   0  0  0  0  0  0
  -21.9933   -9.0239   20.4659 C   0  0  0  0  0  0
  -22.7249  -10.2112   20.3038 C   0  0  0  0  0  0
  -21.6867   -6.0722   22.5276 C   0  0  0  0  0  0
  -21.4002   -6.5628   23.8202 C   0  0  0  0  0  0
  -21.3682   -5.6801   24.9165 C   0  0  0  0  0  0
  -21.6035   -4.3047   24.7240 C   0  0  0  0  0  0
  -21.8839   -3.8140   23.4359 C   0  0  0  0  0  0
  -21.9181   -4.6936   22.3408 C   0  0  0  0  0  0
  -22.7807  -13.5171   21.1857 C   0  0  0  0  0  0
  -22.1646   -4.2114   21.0973 F   0  0  0  0  0  0
  -21.5653   -3.4538   25.7744 F   0  0  0  0  0  0
  -29.9406  -13.6749   20.3799 N   0  0  0  0  0  0
  -26.2859  -12.9454   20.3235 N   0  0  0  0  0  0
  -25.9333  -11.6571   20.5768 N   0  0  0  0  0  0
  -22.0492  -12.8182   22.0426 N   0  0  0  0  0  0
  -25.4130  -15.1918   20.4157 N   0  0  0  0  0  0
  -31.7252  -15.0025   20.1153 O   0  0  0  0  0  0
  -21.6635   -6.8857   21.4241 O   0  0  0  0  0  0
  -22.3477  -14.5469   20.6685 O   0  0  0  0  0  0
  -24.6442  -31.8468   23.1911 C   0  0  0  0  0  0
  -25.9219  -32.4709   23.8291 C   0  0  1  0  0  0
  -27.1647  -27.1038   20.1379 C   0  0  0  0  0  0
  -25.5958  -33.8521   24.2216 N   0  0  0  0  0  0
  -23.4487  -30.4671   21.5393 C   0  0  2  0  0  0
  -24.8901  -28.9039   20.0998 C   0  0  0  0  0  0
  -22.7554  -29.4541   22.4839 C   0  0  0  0  0  0
  -18.0310  -28.1410   22.8456 C   0  0  0  0  0  0
  -24.1506  -36.7245   23.2632 C   0  0  0  0  0  0
  -26.0099  -30.6999   21.4046 C   0  0  0  0  0  0
  -26.0662  -29.3145   20.7352 C   0  0  0  0  0  0
  -27.2094  -28.4289   20.7464 C   0  0  0  0  0  0
  -25.9866  -26.8387   19.4119 C   0  0  0  0  0  0
  -24.8591  -27.6782   19.4229 C   0  0  0  0  0  0
  -23.6750  -29.8127   20.1518 C   0  0  0  0  0  0
  -25.4137  -36.3008   24.0314 C   0  0  1  0  0  0
  -20.5941  -28.3683   23.1202 C   0  0  2  0  0  0
  -20.6863  -26.9401   22.5337 C   0  0  0  0  0  0
  -19.5758  -26.6368   21.5182 C   0  0  0  0  0  0
  -18.1936  -26.7894   22.1646 C   0  0  0  0  0  0
  -19.1572  -28.8866   23.2826 C   0  0  0  0  0  0
  -18.9506  -30.1459   23.8879 C   0  0  0  0  0  0
  -17.6480  -30.6593   24.0565 C   0  0  0  0  0  0
  -25.9081  -34.9389   23.5058 C   0  0  0  0  0  0
  -16.5379  -29.9105   23.6342 C   0  0  0  0  0  0
  -16.7276  -28.6538   23.0329 C   0  0  0  0  0  0
  -26.4520  -31.6577   25.0742 C   0  0  0  0  0  0
  -25.3693  -31.3792   26.1426 C   0  0  0  0  0  0
  -27.0385  -30.2958   24.6380 C   0  0  0  0  0  0
  -27.6042  -32.4362   25.7545 C   0  0  0  0  0  0
  -27.5597  -37.1773   24.8462 C   0  0  0  0  0  0
  -21.4240  -29.3041   22.3626 N   0  0  0  0  0  0
  -26.4300  -37.3737   23.9409 N   0  0  0  0  0  0
  -24.7224  -31.0249   22.1001 N   0  0  0  0  0  0
  -23.4200  -28.8060   23.2947 O   0  0  0  0  0  0
  -28.1685  -26.0651   20.1720 O   0  0  0  0  0  0
  -26.5632  -34.8892   22.4631 O   0  0  0  0  0  0
  -23.5560  -32.1411   23.7060 O   0  0  0  0  0  0
  -29.5552  -19.6035   21.5640 C   0  0  0  0  0  0
  -28.5749  -19.5914   19.3500 C   0  0  0  0  0  0
  -29.7824  -18.1923   21.3872 C   0  0  0  0  0  0
  -28.7741  -18.1388   19.2041 C   0  0  0  0  0  0
  -29.4240  -17.4073   20.2463 C   0  0  0  0  0  0
  -28.9252  -20.3952   20.5212 C   0  0  0  0  0  0
  -30.2611  -16.9041   22.0680 C   0  0  0  0  0  0
  -28.2131  -17.4109   18.0023 C   0  0  0  0  0  0
  -26.4090  -24.2477   20.8384 C   0  0  0  0  0  0
  -28.5589  -23.1505   19.9383 C   0  0  0  0  0  0
  -27.9093  -24.5703   20.6045 C   0  0  1  0  0  0
  -29.8143  -16.0829   20.8583 N   0  0  0  0  0  0
  -28.5465  -21.8212   20.7636 N   0  0  0  0  0  0
  -31.4632  -12.7396   19.1847 H   0  0  0  0  0  0
  -30.4282  -11.6305   20.0311 H   0  0  0  0  0  0
  -29.8303  -11.7294   17.5865 H   0  0  0  0  0  0
  -29.5997  -13.4654   17.7020 H   0  0  0  0  0  0
  -27.9424  -11.2715   18.9785 H   0  0  0  0  0  0
  -27.3820  -12.4306   17.8114 H   0  0  0  0  0  0
  -27.5938  -14.2538   19.4046 H   0  0  0  0  0  0
  -28.7487  -12.2932   21.4519 H   0  0  0  0  0  0
  -28.3637  -13.9710   21.7508 H   0  0  0  0  0  0
  -25.2796   -9.5665   22.4759 H   0  0  0  0  0  0
  -23.9987   -7.4657   22.7518 H   0  0  0  0  0  0
  -21.0838   -8.8796   19.9002 H   0  0  0  0  0  0
  -22.3702  -10.9657   19.6179 H   0  0  0  0  0  0
  -21.1981   -7.6136   23.9680 H   0  0  0  0  0  0
  -21.1496   -6.0531   25.9063 H   0  0  0  0  0  0
  -22.0589   -2.7590   23.2882 H   0  0  0  0  0  0
  -22.4092  -11.9828   22.4805 H   0  0  0  0  0  0
  -21.1127  -13.1268   22.2630 H   0  0  0  0  0  0
  -24.6591  -15.8566   20.5510 H   0  0  0  0  0  0
  -26.2890  -15.6269   20.1651 H   0  0  0  0  0  0
  -26.7271  -32.5263   23.0999 H   0  0  0  0  0  0
  -25.0078  -33.9656   25.0334 H   0  0  0  0  0  0
  -22.7502  -31.2919   21.3841 H   0  0  0  0  0  0
  -23.3786  -35.9572   23.3289 H   0  0  0  0  0  0
  -24.3554  -36.8890   22.2042 H   0  0  0  0  0  0
  -23.7269  -37.6446   23.6681 H   0  0  0  0  0  0
  -26.1680  -31.4593   20.6375 H   0  0  0  0  0  0
  -26.8830  -30.7364   22.0482 H   0  0  0  0  0  0
  -28.0997  -28.7262   21.2800 H   0  0  0  0  0  0
  -25.9038  -25.9227   18.8501 H   0  0  0  0  0  0
  -23.9691  -27.3719   18.8918 H   0  0  0  0  0  0
  -23.8190  -30.5991   19.4059 H   0  0  0  0  0  0
  -22.7871  -29.2597   19.8364 H   0  0  0  0  0  0
  -25.1332  -36.1842   25.0814 H   0  0  0  0  0  0
  -20.9964  -28.3199   24.1327 H   0  0  0  0  0  0
  -20.5866  -26.2267   23.3515 H   0  0  0  0  0  0
  -21.6700  -26.7474   22.1062 H   0  0  0  0  0  0
  -19.6910  -25.6289   21.1122 H   0  0  0  0  0  0
  -19.6630  -27.3193   20.6697 H   0  0  0  0  0  0
  -17.4227  -26.6671   21.4034 H   0  0  0  0  0  0
  -18.0296  -26.0067   22.9072 H   0  0  0  0  0  0
  -19.8010  -30.7202   24.2253 H   0  0  0  0  0  0
  -17.4996  -31.6253   24.5202 H   0  0  0  0  0  0
  -15.5344  -30.2947   23.7719 H   0  0  0  0  0  0
  -15.8650  -28.0895   22.7051 H   0  0  0  0  0  0
  -24.5875  -30.7140   25.7771 H   0  0  0  0  0  0
  -24.8856  -32.2958   26.4787 H   0  0  0  0  0  0
  -25.7928  -30.9013   27.0258 H   0  0  0  0  0  0
  -26.3009  -29.6673   24.1374 H   0  0  0  0  0  0
  -27.3940  -29.7288   25.4997 H   0  0  0  0  0  0
  -27.8959  -30.4203   23.9767 H   0  0  0  0  0  0
  -27.2641  -33.3700   26.2061 H   0  0  0  0  0  0
  -28.3894  -32.6874   25.0397 H   0  0  0  0  0  0
  -28.0679  -31.8518   26.5509 H   0  0  0  0  0  0
  -28.2576  -38.0086   24.7495 H   0  0  0  0  0  0
  -28.1101  -36.2608   24.6318 H   0  0  0  0  0  0
  -27.2257  -37.1473   25.8833 H   0  0  0  0  0  0
  -20.9474  -29.8759   21.6782 H   0  0  0  0  0  0
  -26.0148  -38.2808   24.1420 H   0  0  0  0  0  0
  -29.8178  -20.0767   22.4994 H   0  0  0  0  0  0
  -28.0396  -20.0868   18.5577 H   0  0  0  0  0  0
  -29.7150  -16.6714   22.9846 H   0  0  0  0  0  0
  -31.3402  -16.9085   22.2364 H   0  0  0  0  0  0
  -28.0224  -18.1142   17.1934 H   0  0  0  0  0  0
  -27.2675  -16.9289   18.2672 H   0  0  0  0  0  0
  -28.9129  -16.6492   17.6451 H   0  0  0  0  0  0
  -26.2992  -23.3406   21.4285 H   0  0  0  0  0  0
  -25.8751  -25.0312   21.3824 H   0  0  0  0  0  0
  -25.8946  -24.0622   19.8921 H   0  0  0  0  0  0
  -29.6113  -23.3324   19.7202 H   0  0  0  0  0  0
  -28.0368  -22.9552   18.9940 H   0  0  0  0  0  0
  -28.3339  -24.5963   21.6098 H   0  0  0  0  0  0
  -28.1030  -21.9622   21.6770 H   0  0  0  0  0  0
  1 25  1  0  0  0
  1 30  2  0  0  0
  1 82  1  0  0  0
  2  3  1  0  0  0
  2 25  1  0  0  0
  2 84  1  0  0  0
  2 85  1  0  0  0
  3  4  1  0  0  0
  3 86  1  0  0  0
  3 87  1  0  0  0
  4  5  1  0  0  0
  4 88  1  0  0  0
  4 89  1  0  0  0
  5  6  1  0  0  0
  5 26  1  0  0  0
  5 90  1  0  0  0
  6 25  1  0  0  0
  6 91  1  0  0  0
  6 92  1  0  0  0
  7  8  2  0  0  0
  7 26  1  0  0  0
  7 29  1  0  0  0
  8  9  1  0  0  0
  8 22  1  0  0  0
  9 10  1  0  0  0
  9 27  2  0  0  0
 10 11  2  0  0  0
 10 15  1  0  0  0
 11 12  1  0  0  0
 11 93  1  0  0  0
 12 13  2  0  0  0
 12 94  1  0  0  0
 13 14  1  0  0  0
 13 31  1  0  0  0
 14 15  2  0  0  0
 14 95  1  0  0  0
 15 96  1  0  0  0
 16 17  2  0  0  0
 16 21  1  0  0  0
 16 31  1  0  0  0
 17 18  1  0  0  0
 17 97  1  0  0  0
 18 19  2  0  0  0
 18 98  1  0  0  0
 19 20  1  0  0  0
 19 24  1  0  0  0
 20 21  2  0  0  0
 20 99  1  0  0  0
 21 23  1  0  0  0
 22 28  1  0  0  0
 22 32  2  0  0  0
 26 27  1  0  0  0
 28100  1  0  0  0
 28101  1  0  0  0
 29102  1  0  0  0
 29103  1  0  0  0
 33 34  1  0  0  0
 33 66  1  0  0  0
 33 70  2  0  0  0
 34 36  1  0  0  0
 34 59  1  0  0  0
 34104  1  0  0  0
 35 44  2  0  0  0
 35 45  1  0  0  0
 35 68  1  0  0  0
 36 56  1  0  0  0
 36105  1  0  0  0
 37 39  1  0  0  0
 37 47  1  0  0  0
 37 66  1  0  0  0
 37106  1  0  0  0
 38 43  2  0  0  0
 38 46  1  0  0  0
 38 47  1  0  0  0
 39 64  1  0  0  0
 39 67  2  0  0  0
 40 52  1  0  0  0
 40 53  2  0  0  0
 40 58  1  0  0  0
 41107  1  0  0  0
 41108  1  0  0  0
 41109  1  0  0  0
 41 48  1  0  0  0
 42 43  1  0  0  0
 42 66  1  0  0  0
 42110  1  0  0  0
 42111  1  0  0  0
 43 44  1  0  0  0
 44112  1  0  0  0
 45 46  2  0  0  0
 45113  1  0  0  0
 46114  1  0  0  0
 47115  1  0  0  0
 47116  1  0  0  0
 48 56  1  0  0  0
 48 65  1  0  0  0
 48117  1  0  0  0
 49 50  1  0  0  0
 49 53  1  0  0  0
 49 64  1  0  0  0
 49118  1  0  0  0
 50 51  1  0  0  0
 50119  1  0  0  0
 50120  1  0  0  0
 51 52  1  0  0  0
 51121  1  0  0  0
 51122  1  0  0  0
 52123  1  0  0  0
 52124  1  0  0  0
 53 54  1  0  0  0
 54 55  2  0  0  0
 54125  1  0  0  0
 55 57  1  0  0  0
 55126  1  0  0  0
 56 69  2  0  0  0
 57 58  2  0  0  0
 57127  1  0  0  0
 58128  1  0  0  0
 59 60  1  0  0  0
 59 61  1  0  0  0
 59 62  1  0  0  0
 60129  1  0  0  0
 60130  1  0  0  0
 60131  1  0  0  0
 61132  1  0  0  0
 61133  1  0  0  0
 61134  1  0  0  0
 62135  1  0  0  0
 62136  1  0  0  0
 62137  1  0  0  0
 63 65  1  0  0  0
 63138  1  0  0  0
 63139  1  0  0  0
 63140  1  0  0  0
 64141  1  0  0  0
 65142  1  0  0  0
 68 81  1  0  0  0
 71 73  2  0  0  0
 71 76  1  0  0  0
 71143  1  0  0  0
 72 74  1  0  0  0
 72 76  2  0  0  0
 72144  1  0  0  0
 73 75  1  0  0  0
 73 77  1  0  0  0
 74 75  2  0  0  0
 74 78  1  0  0  0
 75 82  1  0  0  0
 76 83  1  0  0  0
 77 82  1  0  0  0
 77145  1  0  0  0
 77146  1  0  0  0
 78147  1  0  0  0
 78148  1  0  0  0
 78149  1  0  0  0
 79150  1  0  0  0
 79151  1  0  0  0
 79152  1  0  0  0
 79 81  1  0  0  0
 80 81  1  0  0  0
 80 83  1  0  0  0
 80153  1  0  0  0
 80154  1  0  0  0
 81155  1  0  0  0
 83156  1  0  0  0
M  ISO  4   1 100  68 101  81 101  82 100
M  END
> <chiral flag>
0

> <version>
0

> <s_m_source_file>
/data/baiqing/PycharmProjects/Reinvent-master-3.2/result/LINK_invent/BTK/process_docking_weight1_custom_product_contain_oxygen_bond_distance_aromatic_linkinvent_7_9_3/rearranged_h_0097.sdf

> <i_m_source_file_index>
61

> <r_mmod_Potential_Energy-OPLS-2005>
1010.58288574219

> <r_mmod_Stretch_Energy-OPLS-2005>
253.443832397461

> <r_mmod_Bend_Energy-OPLS-2005>
687.241943359375

> <r_mmod_Torsional_Energy-OPLS-2005>
304.936431884766

> <r_mmod_Improper_Torsional_Energy-OPLS-2005>
10.4211597442627

> <r_mmod_Van_der_Waal_Energy-OPLS-2005>
126.501686096191

> <r_mmod_Electrostatic_Energy-OPLS-2005>
-377.798553466797

> <r_mmod_Solvation_Energy-OPLS-2005>
-202.010162353516

> <b_mmod_Minimization_Converged-OPLS-2005>
0

> <r_mmod_RMS_Derivative-OPLS-2005>
10.8798580169678

$$$$
61
                    3D
 Structure written by MMmdl.
164173  0  0  1  0            999 V2000
  -32.4944  -14.4624   20.4995 C   0  0  0  0  0  0
  -31.3031  -12.4263   19.4251 C   0  0  0  0  0  0
  -30.0581  -12.7056   18.1251 C   0  0  0  0  0  0
  -28.5441  -13.6585   18.2183 C   0  0  0  0  0  0
  -27.9236  -15.0418   19.8734 C   0  0  2  0  0  0
  -30.6535  -14.1463   21.7612 C   0  0  0  0  0  0
  -24.2257  -14.8060   20.9861 C   0  0  0  0  0  0
  -23.6852  -13.5763   21.3965 C   0  0  0  0  0  0
  -24.1227  -12.4602   20.6968 C   0  0  0  0  0  0
  -23.7499  -10.8836   20.8198 C   0  0  0  0  0  0
  -24.2764   -9.8838   21.7479 C   0  0  0  0  0  0
  -23.6898   -8.5748   21.9754 C   0  0  0  0  0  0
  -22.5011   -8.1883   21.3033 C   0  0  0  0  0  0
  -22.0090   -9.1190   20.3677 C   0  0  0  0  0  0
  -22.6081  -10.3907   20.1382 C   0  0  0  0  0  0
  -21.7749   -6.1466   22.5172 C   0  0  0  0  0  0
  -21.4718   -6.6169   23.8150 C   0  0  0  0  0  0
  -21.3975   -5.7169   24.9029 C   0  0  0  0  0  0
  -21.6021   -4.3388   24.7026 C   0  0  0  0  0  0
  -21.8710   -3.8576   23.4105 C   0  0  0  0  0  0
  -21.9448   -4.7519   22.3253 C   0  0  0  0  0  0
  -22.2611  -13.5981   21.5878 C   0  0  0  0  0  0
  -22.1715   -4.2569   21.0839 F   0  0  0  0  0  0
  -21.5480   -3.4788   25.7502 F   0  0  0  0  0  0
  -31.6878  -13.3811   20.7976 N   0  0  0  0  0  0
  -25.1273  -14.8967   20.0476 N   0  0  0  0  0  0
  -24.3397  -13.4529   19.6726 N   0  0  0  0  0  0
  -21.7680  -12.6858   22.3966 N   0  0  0  0  0  0
  -23.8729  -16.0804   20.9234 N   0  0  0  0  0  0
  -32.9044  -14.5472   19.3781 O   0  0  0  0  0  0
  -21.8070   -6.9791   21.4108 O   0  0  0  0  0  0
  -21.6188  -14.4291   20.9515 O   0  0  0  0  0  0
  -24.7859  -31.6463   23.0674 C   0  0  0  0  0  0
  -25.9907  -32.3729   23.7572 C   0  0  1  0  0  0
  -26.6174  -25.3477   20.2602 C   0  0  0  0  0  0
  -25.6040  -33.7651   24.1301 N   0  0  0  0  0  0
  -23.6189  -30.2391   21.4559 C   0  0  2  0  0  0
  -24.9385  -28.3153   20.1037 C   0  0  0  0  0  0
  -22.8011  -29.3588   22.4438 C   0  0  0  0  0  0
  -18.0336  -28.1451   22.8402 C   0  0  0  0  0  0
  -24.1472  -36.6841   23.2692 C   0  0  0  0  0  0
  -26.1873  -29.8856   21.5199 C   0  0  0  0  0  0
  -26.1031  -28.3233   20.8638 C   0  0  0  0  0  0
  -26.9032  -26.9049   20.8849 C   0  0  0  0  0  0
  -25.5840  -25.8956   19.3885 C   0  0  0  0  0  0
  -24.8056  -27.1415   19.3307 C   0  0  0  0  0  0
  -23.8886  -29.4843   20.1060 C   0  0  0  0  0  0
  -25.4168  -36.2486   24.0210 C   0  0  1  0  0  0
  -20.5988  -28.3807   23.0995 C   0  0  2  0  0  0
  -20.6752  -26.9400   22.5417 C   0  0  0  0  0  0
  -19.5755  -26.6321   21.5211 C   0  0  0  0  0  0
  -18.1935  -26.7957   22.1597 C   0  0  0  0  0  0
  -19.1622  -28.8978   23.2652 C   0  0  0  0  0  0
  -18.9549  -30.1547   23.8730 C   0  0  0  0  0  0
  -17.6543  -30.6629   24.0527 C   0  0  0  0  0  0
  -25.9219  -34.8898   23.4678 C   0  0  0  0  0  0
  -16.5416  -29.9106   23.6376 C   0  0  0  0  0  0
  -16.7322  -28.6528   23.0385 C   0  0  0  0  0  0
  -26.4788  -31.6370   25.0681 C   0  0  0  0  0  0
  -25.3626  -31.4002   26.1159 C   0  0  0  0  0  0
  -27.0943  -30.2664   24.7343 C   0  0  0  0  0  0
  -27.5991  -32.4573   25.7538 C   0  0  0  0  0  0
  -27.5506  -37.1570   24.8470 C   0  0  0  0  0  0
  -21.4599  -29.2858   22.3197 N   0  0  0  0  0  0
  -26.4183  -37.3391   23.9436 N   0  0  0  0  0  0
  -24.9183  -30.6622   22.0636 N   0  0  0  0  0  0
  -23.4023  -28.7325   23.3194 O   0  0  0  0  0  0
  -27.0427  -23.4881   20.2759 O   0  0  0  0  0  0
  -26.6024  -34.8718   22.4411 O   0  0  0  0  0  0
  -23.6713  -32.0203   23.4933 O   0  0  0  0  0  0
  -29.1915  -13.2104   20.4278 C   0  0  0  0  0  0
  -28.5757  -13.2187   21.8519 C   0  0  0  0  0  0
  -30.0829  -14.7611   19.6672 C   0  0  0  0  0  0
  -29.1351  -15.9902   21.8505 C   0  0  0  0  0  0
  -28.4061  -14.6520   22.3844 C   0  0  0  0  0  0
  -30.0513  -16.0665   20.5546 C   0  0  0  0  0  0
  -26.6476  -13.2109   20.2645 C   0  0  0  0  0  0
  -26.3576  -14.5918   18.2776 C   0  0  0  0  0  0
  -26.3032  -16.7888   18.6520 C   0  0  0  0  0  0
  -26.5418  -16.6252   21.4033 C   0  0  0  0  0  0
  -26.5104  -18.3721   20.0747 C   0  0  2  0  0  0
  -27.1022  -14.5460   23.0031 C   0  0  0  0  0  0
  -31.4489  -16.7152   20.5872 C   0  0  0  0  0  0
  -26.5315  -21.1235   20.1162 C   0  0  0  0  0  0
  -26.6358  -14.5295   21.6452 N   0  0  0  0  0  0
  -32.4305  -15.6949   21.1115 N   0  0  0  0  0  0
  -26.7275  -11.9629   20.2849 O   0  0  0  0  0  0
  -32.2394  -12.2415   18.8958 H   0  0  0  0  0  0
  -31.1043  -11.4397   19.8472 H   0  0  0  0  0  0
  -29.8014  -11.7283   17.7203 H   0  0  0  0  0  0
  -30.6161  -13.1486   17.2993 H   0  0  0  0  0  0
  -27.8553  -12.8358   18.0024 H   0  0  0  0  0  0
  -28.6491  -14.2496   17.3059 H   0  0  0  0  0  0
  -28.1378  -16.0180   19.4553 H   0  0  0  0  0  0
  -30.6918  -13.2862   22.4526 H   0  0  0  0  0  0
  -30.9973  -14.7718   22.6002 H   0  0  0  0  0  0
  -25.1386  -10.1562   22.3401 H   0  0  0  0  0  0
  -24.1410   -7.9016   22.6897 H   0  0  0  0  0  0
  -21.1198   -8.8651   19.8068 H   0  0  0  0  0  0
  -22.1184  -11.0536   19.4389 H   0  0  0  0  0  0
  -21.3030   -7.6707   23.9806 H   0  0  0  0  0  0
  -21.1831   -6.0875   25.8944 H   0  0  0  0  0  0
  -22.0103   -2.8007   23.2483 H   0  0  0  0  0  0
  -22.3822  -12.0332   22.8658 H   0  0  0  0  0  0
  -20.7769  -12.6475   22.5904 H   0  0  0  0  0  0
  -22.8665  -16.0658   20.7394 H   0  0  0  0  0  0
  -24.4097  -16.5306   20.1800 H   0  0  0  0  0  0
  -26.8141  -32.4015   23.0417 H   0  0  0  0  0  0
  -24.9992  -33.8512   24.9335 H   0  0  0  0  0  0
  -23.0178  -31.1183   21.2154 H   0  0  0  0  0  0
  -23.3793  -35.9101   23.3185 H   0  0  0  0  0  0
  -24.3492  -36.8750   22.2139 H   0  0  0  0  0  0
  -23.7168  -37.5897   23.6976 H   0  0  0  0  0  0
  -26.5612  -30.5149   20.7095 H   0  0  0  0  0  0
  -27.0063  -29.8928   22.2255 H   0  0  0  0  0  0
  -27.7499  -26.9273   21.5556 H   0  0  0  0  0  0
  -25.1910  -25.1524   18.7085 H   0  0  0  0  0  0
  -23.9715  -27.1268   18.6437 H   0  0  0  0  0  0
  -24.2331  -30.2132   19.3714 H   0  0  0  0  0  0
  -22.9469  -29.1067   19.7053 H   0  0  0  0  0  0
  -25.1421  -36.1085   25.0689 H   0  0  0  0  0  0
  -21.0014  -28.3497   24.1147 H   0  0  0  0  0  0
  -20.5534  -26.2451   23.3739 H   0  0  0  0  0  0
  -21.6602  -26.7218   22.1279 H   0  0  0  0  0  0
  -19.6897  -25.6191   21.1334 H   0  0  0  0  0  0
  -19.6731  -27.3047   20.6675 H   0  0  0  0  0  0
  -17.4204  -26.6678   21.4007 H   0  0  0  0  0  0
  -18.0321  -26.0144   22.9034 H   0  0  0  0  0  0
  -19.8043  -30.7375   24.2030 H   0  0  0  0  0  0
  -17.5118  -31.6297   24.5157 H   0  0  0  0  0  0
  -15.5421  -30.2984   23.7809 H   0  0  0  0  0  0
  -15.8706  -28.0816   22.7210 H   0  0  0  0  0  0
  -24.5716  -30.7508   25.7417 H   0  0  0  0  0  0
  -24.8991  -32.3359   26.4280 H   0  0  0  0  0  0
  -25.7576  -30.9281   27.0165 H   0  0  0  0  0  0
  -26.3715  -29.5785   24.2978 H   0  0  0  0  0  0
  -27.4572  -29.7760   25.6387 H   0  0  0  0  0  0
  -27.9593  -30.3638   24.0788 H   0  0  0  0  0  0
  -27.2306  -33.4010   26.1576 H   0  0  0  0  0  0
  -28.4042  -32.6952   25.0578 H   0  0  0  0  0  0
  -28.0417  -31.9160   26.5911 H   0  0  0  0  0  0
  -28.2404  -37.9973   24.7546 H   0  0  0  0  0  0
  -28.1114  -36.2473   24.6250 H   0  0  0  0  0  0
  -27.2227  -37.1126   25.8873 H   0  0  0  0  0  0
  -21.0110  -29.8436   21.6066 H   0  0  0  0  0  0
  -25.9897  -38.2367   24.1533 H   0  0  0  0  0  0
  -29.0993  -12.1858   20.0798 H   0  0  0  0  0  0
  -28.1206  -12.3368   22.2877 H   0  0  0  0  0  0
  -30.6419  -14.8508   18.7419 H   0  0  0  0  0  0
  -29.1330  -16.8569   22.4952 H   0  0  0  0  0  0
  -25.3858  -14.3803   17.8260 H   0  0  0  0  0  0
  -26.6577  -14.3709   17.2536 H   0  0  0  0  0  0
  -25.3634  -17.0559   18.1658 H   0  0  0  0  0  0
  -27.0169  -17.1261   17.9002 H   0  0  0  0  0  0
  -25.7181  -16.8535   22.0722 H   0  0  0  0  0  0
  -27.1486  -17.0758   22.1708 H   0  0  0  0  0  0
  -25.4324  -18.5015   20.1724 H   0  0  0  0  0  0
  -26.8425  -15.4207   23.5977 H   0  0  0  0  0  0
  -26.8803  -13.6256   23.5463 H   0  0  0  0  0  0
  -31.7275  -17.0241   19.5768 H   0  0  0  0  0  0
  -31.4317  -17.6072   21.2117 H   0  0  0  0  0  0
  -25.6683  -21.2153   20.7752 H   0  0  0  0  0  0
  -26.1158  -21.2349   19.1132 H   0  0  0  0  0  0
  -32.3419  -15.6214   22.1134 H   0  0  0  0  0  0
  1 25  1  0  0  0
  1 30  2  0  0  0
  1 86  1  0  0  0
  2  3  1  0  0  0
  2 25  1  0  0  0
  2 88  1  0  0  0
  2 89  1  0  0  0
  3  4  1  0  0  0
  3 90  1  0  0  0
  3 91  1  0  0  0
  4  5  1  0  0  0
  4 92  1  0  0  0
  4 93  1  0  0  0
  5  6  1  0  0  0
  5 26  1  0  0  0
  5 94  1  0  0  0
  6 25  1  0  0  0
  6 95  1  0  0  0
  6 96  1  0  0  0
  7  8  2  0  0  0
  7 26  1  0  0  0
  7 29  1  0  0  0
  8  9  1  0  0  0
  8 22  1  0  0  0
  9 10  1  0  0  0
  9 27  2  0  0  0
 10 11  2  0  0  0
 10 15  1  0  0  0
 11 12  1  0  0  0
 11 97  1  0  0  0
 12 13  2  0  0  0
 12 98  1  0  0  0
 13 14  1  0  0  0
 13 31  1  0  0  0
 14 15  2  0  0  0
 14 99  1  0  0  0
 15100  1  0  0  0
 16 17  2  0  0  0
 16 21  1  0  0  0
 16 31  1  0  0  0
 17 18  1  0  0  0
 17101  1  0  0  0
 18 19  2  0  0  0
 18102  1  0  0  0
 19 20  1  0  0  0
 19 24  1  0  0  0
 20 21  2  0  0  0
 20103  1  0  0  0
 21 23  1  0  0  0
 22 28  1  0  0  0
 22 32  2  0  0  0
 26 27  1  0  0  0
 28104  1  0  0  0
 28105  1  0  0  0
 29106  1  0  0  0
 29107  1  0  0  0
 33 34  1  0  0  0
 33 66  1  0  0  0
 33 70  2  0  0  0
 34 36  1  0  0  0
 34 59  1  0  0  0
 34108  1  0  0  0
 35 44  2  0  0  0
 35 45  1  0  0  0
 35 68  1  0  0  0
 36 56  1  0  0  0
 36109  1  0  0  0
 37 39  1  0  0  0
 37 47  1  0  0  0
 37 66  1  0  0  0
 37110  1  0  0  0
 38 43  2  0  0  0
 38 46  1  0  0  0
 38 47  1  0  0  0
 39 64  1  0  0  0
 39 67  2  0  0  0
 40 52  1  0  0  0
 40 53  2  0  0  0
 40 58  1  0  0  0
 41111  1  0  0  0
 41112  1  0  0  0
 41113  1  0  0  0
 41 48  1  0  0  0
 42 43  1  0  0  0
 42 66  1  0  0  0
 42114  1  0  0  0
 42115  1  0  0  0
 43 44  1  0  0  0
 44116  1  0  0  0
 45 46  2  0  0  0
 45117  1  0  0  0
 46118  1  0  0  0
 47119  1  0  0  0
 47120  1  0  0  0
 48 56  1  0  0  0
 48 65  1  0  0  0
 48121  1  0  0  0
 49 50  1  0  0  0
 49 53  1  0  0  0
 49 64  1  0  0  0
 49122  1  0  0  0
 50 51  1  0  0  0
 50123  1  0  0  0
 50124  1  0  0  0
 51 52  1  0  0  0
 51125  1  0  0  0
 51126  1  0  0  0
 52127  1  0  0  0
 52128  1  0  0  0
 53 54  1  0  0  0
 54 55  2  0  0  0
 54129  1  0  0  0
 55 57  1  0  0  0
 55130  1  0  0  0
 56 69  2  0  0  0
 57 58  2  0  0  0
 57131  1  0  0  0
 58132  1  0  0  0
 59 60  1  0  0  0
 59 61  1  0  0  0
 59 62  1  0  0  0
 60133  1  0  0  0
 60134  1  0  0  0
 60135  1  0  0  0
 61136  1  0  0  0
 61137  1  0  0  0
 61138  1  0  0  0
 62139  1  0  0  0
 62140  1  0  0  0
 62141  1  0  0  0
 63 65  1  0  0  0
 63142  1  0  0  0
 63143  1  0  0  0
 63144  1  0  0  0
 64145  1  0  0  0
 65146  1  0  0  0
 68 84  1  0  0  0
 71 72  2  0  0  0
 71 73  1  0  0  0
 71147  1  0  0  0
 72 75  1  0  0  0
 72148  1  0  0  0
 73 76  2  0  0  0
 73149  1  0  0  0
 74 75  2  0  0  0
 74 76  1  0  0  0
 74150  1  0  0  0
 75 82  1  0  0  0
 76 83  1  0  0  0
 77 78  1  0  0  0
 77 85  1  0  0  0
 77 87  2  0  0  0
 78 79  1  0  0  0
 78151  1  0  0  0
 78152  1  0  0  0
 79 81  1  0  0  0
 79153  1  0  0  0
 79154  1  0  0  0
 80 81  1  0  0  0
 80 85  1  0  0  0
 80155  1  0  0  0
 80156  1  0  0  0
 81 84  1  0  0  0
 81157  1  0  0  0
 82 85  1  0  0  0
 82158  1  0  0  0
 82159  1  0  0  0
 83 86  1  0  0  0
 83160  1  0  0  0
 83161  1  0  0  0
 84162  1  0  0  0
 84163  1  0  0  0
 86164  1  0  0  0
M  ISO  4   1 100  68 101  84 101  86 100
M  END
> <chiral flag>
0

> <version>
0

> <s_m_source_file>
/data/baiqing/PycharmProjects/Reinvent-master-3.2/result/LINK_invent/BTK/process_docking_weight1_custom_product_contain_oxygen_bond_distance_aromatic_linkinvent_7_9_3/rearranged_h_0097.sdf

> <i_m_source_file_index>
62

> <r_mmod_Potential_Energy-OPLS-2005>
31439.037109375

> <r_mmod_Stretch_Energy-OPLS-2005>
16561.8671875

> <r_mmod_Bend_Energy-OPLS-2005>
2372.5458984375

> <r_mmod_Torsional_Energy-OPLS-2005>
739.30810546875

> <r_mmod_Improper_Torsional_Energy-OPLS-2005>
104.439674377441

> <r_mmod_Van_der_Waal_Energy-OPLS-2005>
5508.97216796875

> <r_mmod_Electrostatic_Energy-OPLS-2005>
-435.194976806641

> <r_mmod_Solvation_Energy-OPLS-2005>
-238.012619018555

> <b_mmod_Minimization_Converged-OPLS-2005>
0

> <r_mmod_RMS_Derivative-OPLS-2005>
10.5228891372681

$$$$
62
                    3D
 Structure written by MMmdl.
155163  0  0  1  0            999 V2000
  -30.6210  -14.6302   20.5175 C   0  0  0  0  0  0
  -30.4442  -12.3840   19.4517 C   0  0  0  0  0  0
  -29.5131  -12.5119   18.2248 C   0  0  0  0  0  0
  -28.0341  -12.3480   18.6320 C   0  0  0  0  0  0
  -27.6565  -13.2128   19.8636 C   0  0  2  0  0  0
  -28.7001  -13.0516   20.9902 C   0  0  0  0  0  0
  -25.2574  -13.8155   20.5662 C   0  0  0  0  0  0
  -24.1823  -13.0430   20.9144 C   0  0  0  0  0  0
  -24.6392  -11.6901   20.8713 C   0  0  0  0  0  0
  -23.9053  -10.4289   21.0390 C   0  0  0  0  0  0
  -24.3612   -9.4206   21.9175 C   0  0  0  0  0  0
  -23.6294   -8.2236   22.0745 C   0  0  0  0  0  0
  -22.4274   -8.0271   21.3538 C   0  0  0  0  0  0
  -21.9904   -9.0238   20.4635 C   0  0  0  0  0  0
  -22.7230  -10.2118   20.3036 C   0  0  0  0  0  0
  -21.6847   -6.0736   22.5283 C   0  0  0  0  0  0
  -21.4012   -6.5642   23.8216 C   0  0  0  0  0  0
  -21.3660   -5.6792   24.9178 C   0  0  0  0  0  0
  -21.6036   -4.3054   24.7226 C   0  0  0  0  0  0
  -21.8815   -3.8151   23.4346 C   0  0  0  0  0  0
  -21.9188   -4.6967   22.3407 C   0  0  0  0  0  0
  -22.7847  -13.5220   21.1837 C   0  0  0  0  0  0
  -22.1661   -4.2155   21.0983 F   0  0  0  0  0  0
  -21.5634   -3.4541   25.7739 F   0  0  0  0  0  0
  -30.0217  -13.3977   20.4377 N   0  0  0  0  0  0
  -26.3008  -12.9335   20.3315 N   0  0  0  0  0  0
  -25.9317  -11.6489   20.5723 N   0  0  0  0  0  0
  -22.0498  -12.8196   22.0395 N   0  0  0  0  0  0
  -25.4308  -15.1873   20.4153 N   0  0  0  0  0  0
  -31.7671  -14.7888   20.0917 O   0  0  0  0  0  0
  -21.6632   -6.8876   21.4242 O   0  0  0  0  0  0
  -22.3517  -14.5532   20.6703 O   0  0  0  0  0  0
  -24.6262  -31.8628   23.2047 C   0  0  0  0  0  0
  -25.9115  -32.4800   23.8370 C   0  0  1  0  0  0
  -27.2243  -27.3331   20.1064 C   0  0  0  0  0  0
  -25.5940  -33.8595   24.2309 N   0  0  0  0  0  0
  -23.4184  -30.4878   21.5474 C   0  0  2  0  0  0
  -24.8633  -28.9456   20.1121 C   0  0  0  0  0  0
  -22.7472  -29.4643   22.4943 C   0  0  0  0  0  0
  -18.0289  -28.1388   22.8494 C   0  0  0  0  0  0
  -24.1490  -36.7294   23.2635 C   0  0  0  0  0  0
  -25.9592  -30.7982   21.3727 C   0  0  0  0  0  0
  -26.0334  -29.4268   20.7126 C   0  0  0  0  0  0
  -27.2175  -28.6324   20.6987 C   0  0  0  0  0  0
  -26.0269  -26.9014   19.4883 C   0  0  0  0  0  0
  -24.8609  -27.6875   19.4927 C   0  0  0  0  0  0
  -23.6320  -29.8249   20.1624 C   0  0  0  0  0  0
  -25.4114  -36.3091   24.0333 C   0  0  1  0  0  0
  -20.5890  -28.3693   23.1288 C   0  0  2  0  0  0
  -20.6780  -26.9422   22.5405 C   0  0  0  0  0  0
  -19.5754  -26.6395   21.5208 C   0  0  0  0  0  0
  -18.1934  -26.7934   22.1623 C   0  0  0  0  0  0
  -19.1544  -28.8858   23.2888 C   0  0  0  0  0  0
  -18.9458  -30.1457   23.8907 C   0  0  0  0  0  0
  -17.6459  -30.6587   24.0571 C   0  0  0  0  0  0
  -25.9048  -34.9460   23.5115 C   0  0  0  0  0  0
  -16.5351  -29.9090   23.6328 C   0  0  0  0  0  0
  -16.7276  -28.6506   23.0355 C   0  0  0  0  0  0
  -26.4499  -31.6594   25.0728 C   0  0  0  0  0  0
  -25.3732  -31.3726   26.1454 C   0  0  0  0  0  0
  -27.0343  -30.3025   24.6165 C   0  0  0  0  0  0
  -27.6073  -32.4315   25.7494 C   0  0  0  0  0  0
  -27.5582  -37.1803   24.8466 C   0  0  0  0  0  0
  -21.4191  -29.3047   22.3677 N   0  0  0  0  0  0
  -26.4296  -37.3782   23.9410 N   0  0  0  0  0  0
  -24.6867  -31.0655   22.0987 N   0  0  0  0  0  0
  -23.4198  -28.8180   23.3020 O   0  0  0  0  0  0
  -28.3484  -26.4932   20.1455 O   0  0  0  0  0  0
  -26.5601  -34.8920   22.4671 O   0  0  0  0  0  0
  -23.5428  -32.1418   23.7384 O   0  0  0  0  0  0
  -30.2118  -20.2132   20.2975 C   0  0  0  0  0  0
  -30.2496  -21.6375   20.1691 C   0  0  0  0  0  0
  -27.9265  -20.3859   20.9765 C   0  0  0  0  0  0
  -29.0486  -19.5327   20.7443 C   0  0  0  0  0  0
  -29.1358  -22.4790   20.4597 C   0  0  0  0  0  0
  -27.9436  -21.8108   20.8440 C   0  0  0  0  0  0
  -29.9460  -16.9238   20.6471 C   0  0  0  0  0  0
  -28.9052  -18.0159   21.0227 C   0  0  0  0  0  0
  -25.5574  -21.9564   21.1446 C   0  0  0  0  0  0
  -29.3060  -24.0527   20.4434 C   0  0  0  0  0  0
  -28.1137  -25.0340   20.0726 C   0  0  0  0  0  0
  -27.8587  -17.6011   21.6156 N   0  0  0  0  0  0
  -29.7645  -15.6639   20.9521 N   0  0  0  0  0  0
  -26.8350  -22.5819   21.1122 O   0  0  0  0  0  0
  -31.4861  -12.5041   19.1505 H   0  0  0  0  0  0
  -30.3738  -11.3849   19.8842 H   0  0  0  0  0  0
  -29.7766  -11.7681   17.4720 H   0  0  0  0  0  0
  -29.6580  -13.4859   17.7552 H   0  0  0  0  0  0
  -27.8700  -11.2933   18.8577 H   0  0  0  0  0  0
  -27.3826  -12.5835   17.7899 H   0  0  0  0  0  0
  -27.6804  -14.2514   19.5332 H   0  0  0  0  0  0
  -28.7044  -12.0261   21.3624 H   0  0  0  0  0  0
  -28.4401  -13.6741   21.8479 H   0  0  0  0  0  0
  -25.2757   -9.5692   22.4753 H   0  0  0  0  0  0
  -24.0017   -7.4632   22.7465 H   0  0  0  0  0  0
  -21.0838   -8.8741   19.8943 H   0  0  0  0  0  0
  -22.3680  -10.9650   19.6140 H   0  0  0  0  0  0
  -21.2005   -7.6153   23.9720 H   0  0  0  0  0  0
  -21.1492   -6.0531   25.9077 H   0  0  0  0  0  0
  -22.0594   -2.7614   23.2846 H   0  0  0  0  0  0
  -22.4136  -11.9854   22.4766 H   0  0  0  0  0  0
  -21.1107  -13.1189   22.2614 H   0  0  0  0  0  0
  -24.6860  -15.8515   20.5915 H   0  0  0  0  0  0
  -26.3323  -15.6312   20.2762 H   0  0  0  0  0  0
  -26.7184  -32.5489   23.1122 H   0  0  0  0  0  0
  -25.0110  -33.9742   25.0470 H   0  0  0  0  0  0
  -22.7108  -31.3079   21.4068 H   0  0  0  0  0  0
  -23.3754  -35.9625   23.3304 H   0  0  0  0  0  0
  -24.3573  -36.8909   22.2048 H   0  0  0  0  0  0
  -23.7244  -37.6499   23.6647 H   0  0  0  0  0  0
  -26.0865  -31.5630   20.6054 H   0  0  0  0  0  0
  -26.8406  -30.8475   22.0011 H   0  0  0  0  0  0
  -28.1178  -28.9980   21.1723 H   0  0  0  0  0  0
  -25.9598  -25.9410   19.0006 H   0  0  0  0  0  0
  -23.9628  -27.3125   19.0211 H   0  0  0  0  0  0
  -23.7519  -30.6024   19.4074 H   0  0  0  0  0  0
  -22.7527  -29.2546   19.8591 H   0  0  0  0  0  0
  -25.1292  -36.1942   25.0826 H   0  0  0  0  0  0
  -20.9988  -28.3270   24.1409 H   0  0  0  0  0  0
  -20.5687  -26.2307   23.3603 H   0  0  0  0  0  0
  -21.6648  -26.7464   22.1193 H   0  0  0  0  0  0
  -19.6918  -25.6307   21.1237 H   0  0  0  0  0  0
  -19.6688  -27.3203   20.6736 H   0  0  0  0  0  0
  -17.4206  -26.6693   21.4021 H   0  0  0  0  0  0
  -18.0336  -26.0064   22.9007 H   0  0  0  0  0  0
  -19.7928  -30.7272   24.2286 H   0  0  0  0  0  0
  -17.5007  -31.6267   24.5169 H   0  0  0  0  0  0
  -15.5351  -30.2996   23.7633 H   0  0  0  0  0  0
  -15.8677  -28.0821   22.7074 H   0  0  0  0  0  0
  -24.5912  -30.7076   25.7769 H   0  0  0  0  0  0
  -24.8915  -32.2892   26.4869 H   0  0  0  0  0  0
  -25.8049  -30.8904   27.0233 H   0  0  0  0  0  0
  -26.2918  -29.6777   24.1192 H   0  0  0  0  0  0
  -27.4056  -29.7276   25.4655 H   0  0  0  0  0  0
  -27.8774  -30.4318   23.9378 H   0  0  0  0  0  0
  -27.2704  -33.3617   26.2075 H   0  0  0  0  0  0
  -28.3877  -32.6868   25.0314 H   0  0  0  0  0  0
  -28.0747  -31.8434   26.5403 H   0  0  0  0  0  0
  -28.2601  -38.0097   24.7505 H   0  0  0  0  0  0
  -28.1075  -36.2625   24.6299 H   0  0  0  0  0  0
  -27.2293  -37.1470   25.8868 H   0  0  0  0  0  0
  -20.9367  -29.8777   21.6891 H   0  0  0  0  0  0
  -26.0180  -38.2859   24.1407 H   0  0  0  0  0  0
  -31.1122  -19.6539   20.0852 H   0  0  0  0  0  0
  -31.1822  -22.0946   19.8684 H   0  0  0  0  0  0
  -27.0090  -19.9242   21.3021 H   0  0  0  0  0  0
  -30.8159  -17.2805   20.0886 H   0  0  0  0  0  0
  -24.7808  -22.7206   21.1598 H   0  0  0  0  0  0
  -25.4308  -21.3454   22.0390 H   0  0  0  0  0  0
  -25.3894  -21.3418   20.2587 H   0  0  0  0  0  0
  -30.1305  -24.2812   19.7676 H   0  0  0  0  0  0
  -29.6630  -24.3282   21.4357 H   0  0  0  0  0  0
  -27.2833  -24.8383   20.7478 H   0  0  0  0  0  0
  -27.7825  -24.7766   19.0667 H   0  0  0  0  0  0
  -27.2328  -18.3622   21.8418 H   0  0  0  0  0  0
  1 25  1  0  0  0
  1 30  2  0  0  0
  1 83  1  0  0  0
  2  3  1  0  0  0
  2 25  1  0  0  0
  2 85  1  0  0  0
  2 86  1  0  0  0
  3  4  1  0  0  0
  3 87  1  0  0  0
  3 88  1  0  0  0
  4  5  1  0  0  0
  4 89  1  0  0  0
  4 90  1  0  0  0
  5  6  1  0  0  0
  5 26  1  0  0  0
  5 91  1  0  0  0
  6 25  1  0  0  0
  6 92  1  0  0  0
  6 93  1  0  0  0
  7  8  2  0  0  0
  7 26  1  0  0  0
  7 29  1  0  0  0
  8  9  1  0  0  0
  8 22  1  0  0  0
  9 10  1  0  0  0
  9 27  2  0  0  0
 10 11  2  0  0  0
 10 15  1  0  0  0
 11 12  1  0  0  0
 11 94  1  0  0  0
 12 13  2  0  0  0
 12 95  1  0  0  0
 13 14  1  0  0  0
 13 31  1  0  0  0
 14 15  2  0  0  0
 14 96  1  0  0  0
 15 97  1  0  0  0
 16 17  2  0  0  0
 16 21  1  0  0  0
 16 31  1  0  0  0
 17 18  1  0  0  0
 17 98  1  0  0  0
 18 19  2  0  0  0
 18 99  1  0  0  0
 19 20  1  0  0  0
 19 24  1  0  0  0
 20 21  2  0  0  0
 20100  1  0  0  0
 21 23  1  0  0  0
 22 28  1  0  0  0
 22 32  2  0  0  0
 26 27  1  0  0  0
 28101  1  0  0  0
 28102  1  0  0  0
 29103  1  0  0  0
 29104  1  0  0  0
 33 34  1  0  0  0
 33 66  1  0  0  0
 33 70  2  0  0  0
 34 36  1  0  0  0
 34 59  1  0  0  0
 34105  1  0  0  0
 35 44  2  0  0  0
 35 45  1  0  0  0
 35 68  1  0  0  0
 36 56  1  0  0  0
 36106  1  0  0  0
 37 39  1  0  0  0
 37 47  1  0  0  0
 37 66  1  0  0  0
 37107  1  0  0  0
 38 43  2  0  0  0
 38 46  1  0  0  0
 38 47  1  0  0  0
 39 64  1  0  0  0
 39 67  2  0  0  0
 40 52  1  0  0  0
 40 53  2  0  0  0
 40 58  1  0  0  0
 41108  1  0  0  0
 41109  1  0  0  0
 41110  1  0  0  0
 41 48  1  0  0  0
 42 43  1  0  0  0
 42 66  1  0  0  0
 42111  1  0  0  0
 42112  1  0  0  0
 43 44  1  0  0  0
 44113  1  0  0  0
 45 46  2  0  0  0
 45114  1  0  0  0
 46115  1  0  0  0
 47116  1  0  0  0
 47117  1  0  0  0
 48 56  1  0  0  0
 48 65  1  0  0  0
 48118  1  0  0  0
 49 50  1  0  0  0
 49 53  1  0  0  0
 49 64  1  0  0  0
 49119  1  0  0  0
 50 51  1  0  0  0
 50120  1  0  0  0
 50121  1  0  0  0
 51 52  1  0  0  0
 51122  1  0  0  0
 51123  1  0  0  0
 52124  1  0  0  0
 52125  1  0  0  0
 53 54  1  0  0  0
 54 55  2  0  0  0
 54126  1  0  0  0
 55 57  1  0  0  0
 55127  1  0  0  0
 56 69  2  0  0  0
 57 58  2  0  0  0
 57128  1  0  0  0
 58129  1  0  0  0
 59 60  1  0  0  0
 59 61  1  0  0  0
 59 62  1  0  0  0
 60130  1  0  0  0
 60131  1  0  0  0
 60132  1  0  0  0
 61133  1  0  0  0
 61134  1  0  0  0
 61135  1  0  0  0
 62136  1  0  0  0
 62137  1  0  0  0
 62138  1  0  0  0
 63 65  1  0  0  0
 63139  1  0  0  0
 63140  1  0  0  0
 63141  1  0  0  0
 64142  1  0  0  0
 65143  1  0  0  0
 68 81  1  0  0  0
 71 72  2  0  0  0
 71 74  1  0  0  0
 71144  1  0  0  0
 72 75  1  0  0  0
 72145  1  0  0  0
 73 74  2  0  0  0
 73 76  1  0  0  0
 73146  1  0  0  0
 74 78  1  0  0  0
 75 76  2  0  0  0
 75 80  1  0  0  0
 76 84  1  0  0  0
 77 78  1  0  0  0
 77 83  2  0  0  0
 77147  1  0  0  0
 78 82  2  0  0  0
 79 84  1  0  0  0
 79148  1  0  0  0
 79149  1  0  0  0
 79150  1  0  0  0
 80 81  1  0  0  0
 80151  1  0  0  0
 80152  1  0  0  0
 81153  1  0  0  0
 81154  1  0  0  0
 82155  1  0  0  0
M  ISO  4   1 100  68 101  81 101  83 100
M  END
> <chiral flag>
0

> <version>
0

> <s_m_source_file>
/data/baiqing/PycharmProjects/Reinvent-master-3.2/result/LINK_invent/BTK/process_docking_weight1_custom_product_contain_oxygen_bond_distance_aromatic_linkinvent_7_9_3/rearranged_h_0097.sdf

> <i_m_source_file_index>
63

> <r_mmod_Potential_Energy-OPLS-2005>
81.0828018188477

> <r_mmod_Stretch_Energy-OPLS-2005>
87.0983657836914

> <r_mmod_Bend_Energy-OPLS-2005>
155.320358276367

> <r_mmod_Torsional_Energy-OPLS-2005>
164.167221069336

> <r_mmod_Improper_Torsional_Energy-OPLS-2005>
4.27071666717529

> <r_mmod_Van_der_Waal_Energy-OPLS-2005>
169.572265625

> <r_mmod_Electrostatic_Energy-OPLS-2005>
-339.614654541016

> <r_mmod_Solvation_Energy-OPLS-2005>
-202.401733398438

> <b_mmod_Minimization_Converged-OPLS-2005>
0

> <r_mmod_RMS_Derivative-OPLS-2005>
1.20498895645142

$$$$
63
                    3D
 Structure written by MMmdl.
147155  0  0  1  0            999 V2000
  -30.3133  -15.4951   20.3339 C   0  0  0  0  0  0
  -30.4450  -12.9666   19.5507 C   0  0  0  0  0  0
  -29.5549  -12.6337   18.3183 C   0  0  0  0  0  0
  -28.1120  -12.3083   18.7419 C   0  0  0  0  0  0
  -27.6073  -13.2926   19.8229 C   0  0  2  0  0  0
  -28.6310  -13.5259   20.9537 C   0  0  0  0  0  0
  -25.2375  -13.8256   20.5784 C   0  0  0  0  0  0
  -24.1721  -13.0425   20.9209 C   0  0  0  0  0  0
  -24.6407  -11.6930   20.8718 C   0  0  0  0  0  0
  -23.9105  -10.4287   21.0379 C   0  0  0  0  0  0
  -24.3644   -9.4208   21.9170 C   0  0  0  0  0  0
  -23.6307   -8.2249   22.0751 C   0  0  0  0  0  0
  -22.4287   -8.0285   21.3544 C   0  0  0  0  0  0
  -21.9928   -9.0256   20.4642 C   0  0  0  0  0  0
  -22.7268  -10.2127   20.3039 C   0  0  0  0  0  0
  -21.6858   -6.0739   22.5280 C   0  0  0  0  0  0
  -21.4018   -6.5642   23.8213 C   0  0  0  0  0  0
  -21.3661   -5.6793   24.9174 C   0  0  0  0  0  0
  -21.6044   -4.3056   24.7224 C   0  0  0  0  0  0
  -21.8819   -3.8149   23.4345 C   0  0  0  0  0  0
  -21.9195   -4.6966   22.3402 C   0  0  0  0  0  0
  -22.7741  -13.5170   21.1883 C   0  0  0  0  0  0
  -22.1662   -4.2151   21.0979 F   0  0  0  0  0  0
  -21.5627   -3.4539   25.7737 F   0  0  0  0  0  0
  -29.8365  -14.1215   20.3369 N   0  0  0  0  0  0
  -26.2817  -12.9561   20.3245 N   0  0  0  0  0  0
  -25.9356  -11.6644   20.5687 N   0  0  0  0  0  0
  -22.0420  -12.8147   22.0450 N   0  0  0  0  0  0
  -25.4056  -15.1991   20.4383 N   0  0  0  0  0  0
  -31.5361  -15.5108   20.0967 O   0  0  0  0  0  0
  -21.6646   -6.8885   21.4244 O   0  0  0  0  0  0
  -22.3405  -14.5474   20.6742 O   0  0  0  0  0  0
  -24.6767  -31.8080   23.1579 C   0  0  0  0  0  0
  -25.9382  -32.4508   23.8098 C   0  0  1  0  0  0
  -27.2277  -26.7829   20.2018 C   0  0  0  0  0  0
  -25.5990  -33.8330   24.1991 N   0  0  0  0  0  0
  -23.4995  -30.4129   21.5099 C   0  0  2  0  0  0
  -24.9575  -28.7714   20.1143 C   0  0  0  0  0  0
  -22.7737  -29.4356   22.4732 C   0  0  0  0  0  0
  -18.0334  -28.1418   22.8458 C   0  0  0  0  0  0
  -24.1494  -36.7171   23.2651 C   0  0  0  0  0  0
  -26.0767  -30.5667   21.4113 C   0  0  0  0  0  0
  -26.1445  -29.1407   20.7586 C   0  0  0  0  0  0
  -27.2676  -28.1715   20.7741 C   0  0  0  0  0  0
  -26.0101  -26.6052   19.5001 C   0  0  0  0  0  0
  -24.9246  -27.5274   19.4624 C   0  0  0  0  0  0
  -23.7493  -29.7164   20.1420 C   0  0  0  0  0  0
  -25.4141  -36.2919   24.0287 C   0  0  1  0  0  0
  -20.5967  -28.3773   23.1156 C   0  0  2  0  0  0
  -20.6804  -26.9440   22.5402 C   0  0  0  0  0  0
  -19.5779  -26.6373   21.5216 C   0  0  0  0  0  0
  -18.1961  -26.7947   22.1620 C   0  0  0  0  0  0
  -19.1599  -28.8919   23.2790 C   0  0  0  0  0  0
  -18.9506  -30.1504   23.8832 C   0  0  0  0  0  0
  -17.6497  -30.6603   24.0552 C   0  0  0  0  0  0
  -25.9117  -34.9307   23.4971 C   0  0  0  0  0  0
  -16.5387  -29.9086   23.6349 C   0  0  0  0  0  0
  -16.7315  -28.6508   23.0365 C   0  0  0  0  0  0
  -26.4583  -31.6513   25.0691 C   0  0  0  0  0  0
  -25.3668  -31.3809   26.1318 C   0  0  0  0  0  0
  -27.0506  -30.2860   24.6539 C   0  0  0  0  0  0
  -27.6044  -32.4359   25.7505 C   0  0  0  0  0  0
  -27.5565  -37.1742   24.8466 C   0  0  0  0  0  0
  -21.4391  -29.3034   22.3485 N   0  0  0  0  0  0
  -26.4273  -37.3672   23.9408 N   0  0  0  0  0  0
  -24.7735  -30.9600   22.0792 N   0  0  0  0  0  0
  -23.4214  -28.7946   23.3043 O   0  0  0  0  0  0
  -28.1895  -25.5912   20.2933 O   0  0  0  0  0  0
  -26.5748  -34.8871   22.4581 O   0  0  0  0  0  0
  -23.5802  -32.1118   23.6579 O   0  0  0  0  0  0
  -29.5333  -19.8375   19.3177 C   0  0  0  0  0  0
  -29.2182  -21.3292   19.2569 C   0  0  0  0  0  0
  -28.7515  -19.7847   21.4016 C   0  0  0  0  0  0
  -29.3252  -18.8458   20.4029 C   0  0  0  0  0  0
  -28.6195  -22.2495   20.2613 C   0  0  0  0  0  0
  -28.4358  -21.2708   21.3593 C   0  0  0  0  0  0
  -29.2846  -17.0432   20.5044 C   0  0  0  0  0  0
  -27.8860  -23.9215   20.0396 C   0  0  0  0  0  0
  -28.0985  -16.7359   20.8193 N   0  0  0  0  0  0
  -27.8278  -21.7739   22.5086 N   0  0  0  0  0  0
  -31.4481  -13.2168   19.2039 H   0  0  0  0  0  0
  -30.5742  -12.0867   20.1830 H   0  0  0  0  0  0
  -29.9791  -11.8023   17.7539 H   0  0  0  0  0  0
  -29.5475  -13.4908   17.6433 H   0  0  0  0  0  0
  -28.1028  -11.2931   19.1405 H   0  0  0  0  0  0
  -27.4468  -12.3067   17.8776 H   0  0  0  0  0  0
  -27.5000  -14.2444   19.3008 H   0  0  0  0  0  0
  -28.8511  -12.6008   21.4885 H   0  0  0  0  0  0
  -28.2259  -14.2110   21.6984 H   0  0  0  0  0  0
  -25.2787   -9.5685   22.4748 H   0  0  0  0  0  0
  -24.0011   -7.4644   22.7479 H   0  0  0  0  0  0
  -21.0857   -8.8779   19.8952 H   0  0  0  0  0  0
  -22.3725  -10.9664   19.6147 H   0  0  0  0  0  0
  -21.2012   -7.6150   23.9717 H   0  0  0  0  0  0
  -21.1482   -6.0523   25.9077 H   0  0  0  0  0  0
  -22.0596   -2.7610   23.2845 H   0  0  0  0  0  0
  -22.4065  -11.9816   22.4828 H   0  0  0  0  0  0
  -21.1035  -13.1149   22.2675 H   0  0  0  0  0  0
  -24.6644  -15.8604   20.6389 H   0  0  0  0  0  0
  -26.3220  -15.6384   20.3624 H   0  0  0  0  0  0
  -26.7460  -32.5003   23.0812 H   0  0  0  0  0  0
  -25.0063  -33.9382   25.0093 H   0  0  0  0  0  0
  -22.8207  -31.2483   21.3263 H   0  0  0  0  0  0
  -23.3772  -35.9484   23.3270 H   0  0  0  0  0  0
  -24.3565  -36.8871   22.2074 H   0  0  0  0  0  0
  -23.7238  -37.6335   23.6749 H   0  0  0  0  0  0
  -26.2726  -31.2979   20.6259 H   0  0  0  0  0  0
  -26.9301  -30.6304   22.0741 H   0  0  0  0  0  0
  -28.1596  -28.4555   21.3144 H   0  0  0  0  0  0
  -25.8551  -25.6596   19.0010 H   0  0  0  0  0  0
  -24.0272  -27.2368   18.9336 H   0  0  0  0  0  0
  -23.9169  -30.4797   19.3813 H   0  0  0  0  0  0
  -22.8561  -29.1781   19.8200 H   0  0  0  0  0  0
  -25.1347  -36.1692   25.0777 H   0  0  0  0  0  0
  -21.0051  -28.3394   24.1282 H   0  0  0  0  0  0
  -20.5674  -26.2395   23.3658 H   0  0  0  0  0  0
  -21.6666  -26.7393   22.1215 H   0  0  0  0  0  0
  -19.6936  -25.6267   21.1287 H   0  0  0  0  0  0
  -19.6721  -27.3149   20.6718 H   0  0  0  0  0  0
  -17.4230  -26.6690   21.4024 H   0  0  0  0  0  0
  -18.0352  -26.0105   22.9031 H   0  0  0  0  0  0
  -19.7981  -30.7338   24.2172 H   0  0  0  0  0  0
  -17.5047  -31.6276   24.5168 H   0  0  0  0  0  0
  -15.5384  -30.2966   23.7711 H   0  0  0  0  0  0
  -15.8716  -28.0805   22.7117 H   0  0  0  0  0  0
  -24.5875  -30.7134   25.7621 H   0  0  0  0  0  0
  -24.8831  -32.3024   26.4568 H   0  0  0  0  0  0
  -25.7862  -30.9089   27.0212 H   0  0  0  0  0  0
  -26.3210  -29.6492   24.1526 H   0  0  0  0  0  0
  -27.3957  -29.7282   25.5255 H   0  0  0  0  0  0
  -27.9181  -30.4003   24.0036 H   0  0  0  0  0  0
  -27.2591  -33.3723   26.1900 H   0  0  0  0  0  0
  -28.3948  -32.6821   25.0402 H   0  0  0  0  0  0
  -28.0609  -31.8610   26.5572 H   0  0  0  0  0  0
  -28.2554  -38.0064   24.7513 H   0  0  0  0  0  0
  -28.1089  -36.2587   24.6294 H   0  0  0  0  0  0
  -27.2280  -37.1380   25.8868 H   0  0  0  0  0  0
  -20.9680  -29.8701   21.6571 H   0  0  0  0  0  0
  -26.0107  -38.2722   24.1421 H   0  0  0  0  0  0
  -29.8992  -19.4145   18.3925 H   0  0  0  0  0  0
  -29.4008  -21.7849   18.2942 H   0  0  0  0  0  0
  -28.4547  -19.2847   22.3128 H   0  0  0  0  0  0
  -26.9210  -23.7982   20.5316 H   0  0  0  0  0  0
  -27.6321  -23.9036   18.9798 H   0  0  0  0  0  0
  -27.5362  -17.5727   20.9200 H   0  0  0  0  0  0
  -27.9107  -21.2477   23.3730 H   0  0  0  0  0  0
  -27.8419  -22.7776   22.6610 H   0  0  0  0  0  0
  1 25  1  0  0  0
  1 30  2  0  0  0
  1 77  1  0  0  0
  2  3  1  0  0  0
  2 25  1  0  0  0
  2 81  1  0  0  0
  2 82  1  0  0  0
  3  4  1  0  0  0
  3 83  1  0  0  0
  3 84  1  0  0  0
  4  5  1  0  0  0
  4 85  1  0  0  0
  4 86  1  0  0  0
  5  6  1  0  0  0
  5 26  1  0  0  0
  5 87  1  0  0  0
  6 25  1  0  0  0
  6 88  1  0  0  0
  6 89  1  0  0  0
  7  8  2  0  0  0
  7 26  1  0  0  0
  7 29  1  0  0  0
  8  9  1  0  0  0
  8 22  1  0  0  0
  9 10  1  0  0  0
  9 27  2  0  0  0
 10 11  2  0  0  0
 10 15  1  0  0  0
 11 12  1  0  0  0
 11 90  1  0  0  0
 12 13  2  0  0  0
 12 91  1  0  0  0
 13 14  1  0  0  0
 13 31  1  0  0  0
 14 15  2  0  0  0
 14 92  1  0  0  0
 15 93  1  0  0  0
 16 17  2  0  0  0
 16 21  1  0  0  0
 16 31  1  0  0  0
 17 18  1  0  0  0
 17 94  1  0  0  0
 18 19  2  0  0  0
 18 95  1  0  0  0
 19 20  1  0  0  0
 19 24  1  0  0  0
 20 21  2  0  0  0
 20 96  1  0  0  0
 21 23  1  0  0  0
 22 28  1  0  0  0
 22 32  2  0  0  0
 26 27  1  0  0  0
 28 97  1  0  0  0
 28 98  1  0  0  0
 29 99  1  0  0  0
 29100  1  0  0  0
 33 34  1  0  0  0
 33 66  1  0  0  0
 33 70  2  0  0  0
 34 36  1  0  0  0
 34 59  1  0  0  0
 34101  1  0  0  0
 35 44  2  0  0  0
 35 45  1  0  0  0
 35 68  1  0  0  0
 36 56  1  0  0  0
 36102  1  0  0  0
 37 39  1  0  0  0
 37 47  1  0  0  0
 37 66  1  0  0  0
 37103  1  0  0  0
 38 43  2  0  0  0
 38 46  1  0  0  0
 38 47  1  0  0  0
 39 64  1  0  0  0
 39 67  2  0  0  0
 40 52  1  0  0  0
 40 53  2  0  0  0
 40 58  1  0  0  0
 41104  1  0  0  0
 41105  1  0  0  0
 41106  1  0  0  0
 41 48  1  0  0  0
 42 43  1  0  0  0
 42 66  1  0  0  0
 42107  1  0  0  0
 42108  1  0  0  0
 43 44  1  0  0  0
 44109  1  0  0  0
 45 46  2  0  0  0
 45110  1  0  0  0
 46111  1  0  0  0
 47112  1  0  0  0
 47113  1  0  0  0
 48 56  1  0  0  0
 48 65  1  0  0  0
 48114  1  0  0  0
 49 50  1  0  0  0
 49 53  1  0  0  0
 49 64  1  0  0  0
 49115  1  0  0  0
 50 51  1  0  0  0
 50116  1  0  0  0
 50117  1  0  0  0
 51 52  1  0  0  0
 51118  1  0  0  0
 51119  1  0  0  0
 52120  1  0  0  0
 52121  1  0  0  0
 53 54  1  0  0  0
 54 55  2  0  0  0
 54122  1  0  0  0
 55 57  1  0  0  0
 55123  1  0  0  0
 56 69  2  0  0  0
 57 58  2  0  0  0
 57124  1  0  0  0
 58125  1  0  0  0
 59 60  1  0  0  0
 59 61  1  0  0  0
 59 62  1  0  0  0
 60126  1  0  0  0
 60127  1  0  0  0
 60128  1  0  0  0
 61129  1  0  0  0
 61130  1  0  0  0
 61131  1  0  0  0
 62132  1  0  0  0
 62133  1  0  0  0
 62134  1  0  0  0
 63 65  1  0  0  0
 63135  1  0  0  0
 63136  1  0  0  0
 63137  1  0  0  0
 64138  1  0  0  0
 65139  1  0  0  0
 68 78  1  0  0  0
 71 72  2  0  0  0
 71 74  1  0  0  0
 71140  1  0  0  0
 72 75  1  0  0  0
 72141  1  0  0  0
 73 74  2  0  0  0
 73 76  1  0  0  0
 73142  1  0  0  0
 74 77  1  0  0  0
 75 76  2  0  0  0
 75 78  1  0  0  0
 76 80  1  0  0  0
 77 79  2  0  0  0
 78143  1  0  0  0
 78144  1  0  0  0
 79145  1  0  0  0
 80146  1  0  0  0
 80147  1  0  0  0
M  ISO  4   1 100  68 101  77 100  78 101
M  END
> <chiral flag>
0

> <version>
0

> <s_m_source_file>
/data/baiqing/PycharmProjects/Reinvent-master-3.2/result/LINK_invent/BTK/process_docking_weight1_custom_product_contain_oxygen_bond_distance_aromatic_linkinvent_7_9_3/rearranged_h_0097.sdf

> <i_m_source_file_index>
64

> <r_mmod_Potential_Energy-OPLS-2005>
2146.95141601562

> <r_mmod_Stretch_Energy-OPLS-2005>
865.271728515625

> <r_mmod_Bend_Energy-OPLS-2005>
631.000610351562

> <r_mmod_Torsional_Energy-OPLS-2005>
226.446899414062

> <r_mmod_Improper_Torsional_Energy-OPLS-2005>
13.9352416992188

> <r_mmod_Van_der_Waal_Energy-OPLS-2005>
131.861862182617

> <r_mmod_Electrostatic_Energy-OPLS-2005>
-241.740875244141

> <r_mmod_Solvation_Energy-OPLS-2005>
-204.395477294922

> <b_mmod_Minimization_Converged-OPLS-2005>
0

> <r_mmod_RMS_Derivative-OPLS-2005>
0.109201371669769

$$$$
64
                    3D
 Structure written by MMmdl.
153161  0  0  1  0            999 V2000
  -30.7324  -14.4652   20.6073 C   0  0  0  0  0  0
  -30.4015  -12.3245   19.4191 C   0  0  0  0  0  0
  -29.4840  -12.5299   18.1997 C   0  0  0  0  0  0
  -28.0051  -12.3910   18.6097 C   0  0  0  0  0  0
  -27.6493  -13.2226   19.8706 C   0  0  2  0  0  0
  -28.6901  -13.0313   20.9963 C   0  0  0  0  0  0
  -25.2511  -13.8183   20.5676 C   0  0  0  0  0  0
  -24.1803  -13.0441   20.9211 C   0  0  0  0  0  0
  -24.6369  -11.6917   20.8743 C   0  0  0  0  0  0
  -23.9042  -10.4297   21.0410 C   0  0  0  0  0  0
  -24.3601   -9.4222   21.9193 C   0  0  0  0  0  0
  -23.6290   -8.2255   22.0757 C   0  0  0  0  0  0
  -22.4272   -8.0294   21.3548 C   0  0  0  0  0  0
  -21.9900   -9.0256   20.4645 C   0  0  0  0  0  0
  -22.7214  -10.2138   20.3060 C   0  0  0  0  0  0
  -21.6854   -6.0749   22.5275 C   0  0  0  0  0  0
  -21.4025   -6.5657   23.8210 C   0  0  0  0  0  0
  -21.3664   -5.6802   24.9167 C   0  0  0  0  0  0
  -21.6036   -4.3061   24.7212 C   0  0  0  0  0  0
  -21.8825   -3.8157   23.4338 C   0  0  0  0  0  0
  -21.9194   -4.6974   22.3396 C   0  0  0  0  0  0
  -22.7841  -13.5243   21.1882 C   0  0  0  0  0  0
  -22.1664   -4.2166   21.0967 F   0  0  0  0  0  0
  -21.5621   -3.4545   25.7726 F   0  0  0  0  0  0
  -30.0131  -13.3228   20.4299 N   0  0  0  0  0  0
  -26.2950  -12.9389   20.3338 N   0  0  0  0  0  0
  -25.9297  -11.6530   20.5742 N   0  0  0  0  0  0
  -22.0492  -12.8203   22.0415 N   0  0  0  0  0  0
  -25.4142  -15.1903   20.4043 N   0  0  0  0  0  0
  -31.8762  -14.5729   20.1545 O   0  0  0  0  0  0
  -21.6642   -6.8890   21.4238 O   0  0  0  0  0  0
  -22.3535  -14.5564   20.6750 O   0  0  0  0  0  0
  -24.6156  -31.8685   23.2155 C   0  0  0  0  0  0
  -25.9064  -32.4824   23.8429 C   0  0  1  0  0  0
  -27.2278  -27.4404   20.0859 C   0  0  0  0  0  0
  -25.5931  -33.8631   24.2349 N   0  0  0  0  0  0
  -23.3980  -30.4956   21.5565 C   0  0  2  0  0  0
  -24.8395  -28.9610   20.1193 C   0  0  0  0  0  0
  -22.7379  -29.4685   22.5036 C   0  0  0  0  0  0
  -18.0262  -28.1361   22.8504 C   0  0  0  0  0  0
  -24.1479  -36.7313   23.2636 C   0  0  0  0  0  0
  -25.9260  -30.8361   21.3646 C   0  0  0  0  0  0
  -26.0007  -29.4714   20.7106 C   0  0  0  0  0  0
  -27.1959  -28.7190   20.6885 C   0  0  0  0  0  0
  -26.0446  -26.9461   19.4879 C   0  0  0  0  0  0
  -24.8555  -27.6962   19.5078 C   0  0  0  0  0  0
  -23.6028  -29.8272   20.1717 C   0  0  0  0  0  0
  -25.4114  -36.3133   24.0335 C   0  0  1  0  0  0
  -20.5840  -28.3649   23.1327 C   0  0  2  0  0  0
  -20.6741  -26.9383   22.5421 C   0  0  0  0  0  0
  -19.5711  -26.6375   21.5218 C   0  0  0  0  0  0
  -18.1897  -26.7908   22.1629 C   0  0  0  0  0  0
  -19.1510  -28.8827   23.2910 C   0  0  0  0  0  0
  -18.9446  -30.1453   23.8886 C   0  0  0  0  0  0
  -17.6444  -30.6559   24.0585 C   0  0  0  0  0  0
  -25.9039  -34.9485   23.5135 C   0  0  0  0  0  0
  -16.5340  -29.9059   23.6342 C   0  0  0  0  0  0
  -16.7258  -28.6491   23.0339 C   0  0  0  0  0  0
  -26.4474  -31.6612   25.0768 C   0  0  0  0  0  0
  -25.3756  -31.3687   26.1523 C   0  0  0  0  0  0
  -27.0307  -30.3058   24.6163 C   0  0  0  0  0  0
  -27.6075  -32.4316   25.7520 C   0  0  0  0  0  0
  -27.5578  -37.1829   24.8479 C   0  0  0  0  0  0
  -21.4121  -29.3019   22.3746 N   0  0  0  0  0  0
  -26.4301  -37.3821   23.9412 N   0  0  0  0  0  0
  -24.6649  -31.0798   22.1046 N   0  0  0  0  0  0
  -23.4153  -28.8251   23.3091 O   0  0  0  0  0  0
  -28.4127  -26.7313   20.1217 O   0  0  0  0  0  0
  -26.5578  -34.8932   22.4684 O   0  0  0  0  0  0
  -23.5363  -32.1428   23.7574 O   0  0  0  0  0  0
  -30.7156  -19.1553   21.2533 C   0  0  0  0  0  0
  -30.1182  -20.4199   21.0760 C   0  0  0  0  0  0
  -28.5300  -18.1049   21.3680 C   0  0  0  0  0  0
  -29.9385  -17.9780   21.3921 C   0  0  0  0  0  0
  -28.7120  -20.5484   21.0435 C   0  0  0  0  0  0
  -27.9288  -19.3759   21.1946 C   0  0  0  0  0  0
  -30.6528  -16.6550   21.5810 C   0  0  0  0  0  0
  -28.0089  -24.2774   20.3764 C   0  0  0  0  0  0
  -28.7099  -22.9145   20.1850 C   0  0  0  0  0  0
  -28.5084  -25.4422   19.4894 C   0  0  0  0  0  0
  -28.0640  -21.7912   20.8863 N   0  0  0  0  0  0
  -30.0670  -15.5241   21.1273 N   0  0  0  0  0  0
  -31.7830  -16.6704   22.0830 O   0  0  0  0  0  0
  -27.0835  -24.4124   21.1875 O   0  0  0  0  0  0
  -26.5762  -19.4725   21.1681 F   0  0  0  0  0  0
  -31.4472  -12.4062   19.1195 H   0  0  0  0  0  0
  -30.2865  -11.3169   19.8219 H   0  0  0  0  0  0
  -29.7274  -11.8156   17.4124 H   0  0  0  0  0  0
  -29.6542  -13.5205   17.7754 H   0  0  0  0  0  0
  -27.8053  -11.3346   18.7879 H   0  0  0  0  0  0
  -27.3610  -12.6847   17.7801 H   0  0  0  0  0  0
  -27.6778  -14.2702   19.5718 H   0  0  0  0  0  0
  -28.6677  -12.0096   21.3761 H   0  0  0  0  0  0
  -28.4556  -13.6673   21.8514 H   0  0  0  0  0  0
  -25.2726   -9.5727   22.4776 H   0  0  0  0  0  0
  -24.0011   -7.4660   22.7483 H   0  0  0  0  0  0
  -21.0837   -8.8778   19.8948 H   0  0  0  0  0  0
  -22.3670  -10.9694   19.6189 H   0  0  0  0  0  0
  -21.2036   -7.6165   23.9716 H   0  0  0  0  0  0
  -21.1481   -6.0535   25.9071 H   0  0  0  0  0  0
  -22.0599   -2.7626   23.2827 H   0  0  0  0  0  0
  -22.4120  -11.9833   22.4729 H   0  0  0  0  0  0
  -21.1125  -13.1246   22.2671 H   0  0  0  0  0  0
  -24.6225  -15.8228   20.4685 H   0  0  0  0  0  0
  -26.2340  -15.6254   20.0000 H   0  0  0  0  0  0
  -26.7138  -32.5517   23.1197 H   0  0  0  0  0  0
  -25.0177  -33.9807   25.0555 H   0  0  0  0  0  0
  -22.6875  -31.3135   21.4212 H   0  0  0  0  0  0
  -23.3770  -35.9612   23.3303 H   0  0  0  0  0  0
  -24.3537  -36.8939   22.2041 H   0  0  0  0  0  0
  -23.7197  -37.6501   23.6653 H   0  0  0  0  0  0
  -26.0335  -31.6053   20.5970 H   0  0  0  0  0  0
  -26.8151  -30.8855   21.9825 H   0  0  0  0  0  0
  -28.0968  -29.1141   21.1383 H   0  0  0  0  0  0
  -26.0069  -25.9794   19.0088 H   0  0  0  0  0  0
  -23.9599  -27.2916   19.0547 H   0  0  0  0  0  0
  -23.7096  -30.5999   19.4104 H   0  0  0  0  0  0
  -22.7240  -29.2485   19.8803 H   0  0  0  0  0  0
  -25.1290  -36.1988   25.0828 H   0  0  0  0  0  0
  -20.9938  -28.3204   24.1441 H   0  0  0  0  0  0
  -20.5613  -26.2259   23.3614 H   0  0  0  0  0  0
  -21.6610  -26.7378   22.1237 H   0  0  0  0  0  0
  -19.6857  -25.6283   21.1240 H   0  0  0  0  0  0
  -19.6641  -27.3203   20.6762 H   0  0  0  0  0  0
  -17.4158  -26.6692   21.4032 H   0  0  0  0  0  0
  -18.0281  -26.0011   22.8995 H   0  0  0  0  0  0
  -19.7919  -30.7327   24.2178 H   0  0  0  0  0  0
  -17.4980  -31.6211   24.5236 H   0  0  0  0  0  0
  -15.5343  -30.2969   23.7648 H   0  0  0  0  0  0
  -15.8661  -28.0854   22.6993 H   0  0  0  0  0  0
  -24.6006  -30.6922   25.7888 H   0  0  0  0  0  0
  -24.8846  -32.2805   26.4930 H   0  0  0  0  0  0
  -25.8150  -30.8936   27.0312 H   0  0  0  0  0  0
  -26.2851  -29.6817   24.1221 H   0  0  0  0  0  0
  -27.4066  -29.7301   25.4639 H   0  0  0  0  0  0
  -27.8692  -30.4384   23.9323 H   0  0  0  0  0  0
  -27.2762  -33.3688   26.2006 H   0  0  0  0  0  0
  -28.3921  -32.6740   25.0336 H   0  0  0  0  0  0
  -28.0676  -31.8469   26.5499 H   0  0  0  0  0  0
  -28.2635  -38.0095   24.7501 H   0  0  0  0  0  0
  -28.1047  -36.2624   24.6362 H   0  0  0  0  0  0
  -27.2272  -37.1541   25.8880 H   0  0  0  0  0  0
  -20.9268  -29.8787   21.7019 H   0  0  0  0  0  0
  -26.0199  -38.2897   24.1434 H   0  0  0  0  0  0
  -31.7961  -19.0961   21.2837 H   0  0  0  0  0  0
  -30.7688  -21.2764   20.9842 H   0  0  0  0  0  0
  -27.8907  -17.2431   21.4855 H   0  0  0  0  0  0
  -29.7384  -23.0433   20.5206 H   0  0  0  0  0  0
  -28.7512  -22.6998   19.1156 H   0  0  0  0  0  0
  -27.9999  -25.4335   18.5266 H   0  0  0  0  0  0
  -29.5615  -25.2629   19.2733 H   0  0  0  0  0  0
  -27.0505  -21.7520   20.8114 H   0  0  0  0  0  0
  -29.0650  -15.4987   21.0827 H   0  0  0  0  0  0
  1 25  1  0  0  0
  1 30  2  0  0  0
  1 82  1  0  0  0
  2  3  1  0  0  0
  2 25  1  0  0  0
  2 86  1  0  0  0
  2 87  1  0  0  0
  3  4  1  0  0  0
  3 88  1  0  0  0
  3 89  1  0  0  0
  4  5  1  0  0  0
  4 90  1  0  0  0
  4 91  1  0  0  0
  5  6  1  0  0  0
  5 26  1  0  0  0
  5 92  1  0  0  0
  6 25  1  0  0  0
  6 93  1  0  0  0
  6 94  1  0  0  0
  7  8  2  0  0  0
  7 26  1  0  0  0
  7 29  1  0  0  0
  8  9  1  0  0  0
  8 22  1  0  0  0
  9 10  1  0  0  0
  9 27  2  0  0  0
 10 11  2  0  0  0
 10 15  1  0  0  0
 11 12  1  0  0  0
 11 95  1  0  0  0
 12 13  2  0  0  0
 12 96  1  0  0  0
 13 14  1  0  0  0
 13 31  1  0  0  0
 14 15  2  0  0  0
 14 97  1  0  0  0
 15 98  1  0  0  0
 16 17  2  0  0  0
 16 21  1  0  0  0
 16 31  1  0  0  0
 17 18  1  0  0  0
 17 99  1  0  0  0
 18 19  2  0  0  0
 18100  1  0  0  0
 19 20  1  0  0  0
 19 24  1  0  0  0
 20 21  2  0  0  0
 20101  1  0  0  0
 21 23  1  0  0  0
 22 28  1  0  0  0
 22 32  2  0  0  0
 26 27  1  0  0  0
 28102  1  0  0  0
 28103  1  0  0  0
 29104  1  0  0  0
 29105  1  0  0  0
 33 34  1  0  0  0
 33 66  1  0  0  0
 33 70  2  0  0  0
 34 36  1  0  0  0
 34 59  1  0  0  0
 34106  1  0  0  0
 35 44  2  0  0  0
 35 45  1  0  0  0
 35 68  1  0  0  0
 36 56  1  0  0  0
 36107  1  0  0  0
 37 39  1  0  0  0
 37 47  1  0  0  0
 37 66  1  0  0  0
 37108  1  0  0  0
 38 43  2  0  0  0
 38 46  1  0  0  0
 38 47  1  0  0  0
 39 64  1  0  0  0
 39 67  2  0  0  0
 40 52  1  0  0  0
 40 53  2  0  0  0
 40 58  1  0  0  0
 41109  1  0  0  0
 41110  1  0  0  0
 41111  1  0  0  0
 41 48  1  0  0  0
 42 43  1  0  0  0
 42 66  1  0  0  0
 42112  1  0  0  0
 42113  1  0  0  0
 43 44  1  0  0  0
 44114  1  0  0  0
 45 46  2  0  0  0
 45115  1  0  0  0
 46116  1  0  0  0
 47117  1  0  0  0
 47118  1  0  0  0
 48 56  1  0  0  0
 48 65  1  0  0  0
 48119  1  0  0  0
 49 50  1  0  0  0
 49 53  1  0  0  0
 49 64  1  0  0  0
 49120  1  0  0  0
 50 51  1  0  0  0
 50121  1  0  0  0
 50122  1  0  0  0
 51 52  1  0  0  0
 51123  1  0  0  0
 51124  1  0  0  0
 52125  1  0  0  0
 52126  1  0  0  0
 53 54  1  0  0  0
 54 55  2  0  0  0
 54127  1  0  0  0
 55 57  1  0  0  0
 55128  1  0  0  0
 56 69  2  0  0  0
 57 58  2  0  0  0
 57129  1  0  0  0
 58130  1  0  0  0
 59 60  1  0  0  0
 59 61  1  0  0  0
 59 62  1  0  0  0
 60131  1  0  0  0
 60132  1  0  0  0
 60133  1  0  0  0
 61134  1  0  0  0
 61135  1  0  0  0
 61136  1  0  0  0
 62137  1  0  0  0
 62138  1  0  0  0
 62139  1  0  0  0
 63 65  1  0  0  0
 63140  1  0  0  0
 63141  1  0  0  0
 63142  1  0  0  0
 64143  1  0  0  0
 65144  1  0  0  0
 68 80  1  0  0  0
 71 72  2  0  0  0
 71 74  1  0  0  0
 71145  1  0  0  0
 72 75  1  0  0  0
 72146  1  0  0  0
 73 74  2  0  0  0
 73 76  1  0  0  0
 73147  1  0  0  0
 74 77  1  0  0  0
 75 76  2  0  0  0
 75 81  1  0  0  0
 76 85  1  0  0  0
 77 82  1  0  0  0
 77 83  2  0  0  0
 78 79  1  0  0  0
 78 80  1  0  0  0
 78 84  2  0  0  0
 79 81  1  0  0  0
 79148  1  0  0  0
 79149  1  0  0  0
 80150  1  0  0  0
 80151  1  0  0  0
 81152  1  0  0  0
 82153  1  0  0  0
M  ISO  4   1 100  68 101  80 101  82 100
M  END
> <chiral flag>
0

> <version>
0

> <s_m_source_file>
/data/baiqing/PycharmProjects/Reinvent-master-3.2/result/LINK_invent/BTK/process_docking_weight1_custom_product_contain_oxygen_bond_distance_aromatic_linkinvent_7_9_3/rearranged_h_0097.sdf

> <i_m_source_file_index>
65

> <r_mmod_Potential_Energy-OPLS-2005>
-78.5310211181641

> <r_mmod_Stretch_Energy-OPLS-2005>
39.012264251709

> <r_mmod_Bend_Energy-OPLS-2005>
110.085609436035

> <r_mmod_Torsional_Energy-OPLS-2005>
220.052520751953

> <r_mmod_Improper_Torsional_Energy-OPLS-2005>
7.1029109954834

> <r_mmod_Van_der_Waal_Energy-OPLS-2005>
165.184036254883

> <r_mmod_Electrostatic_Energy-OPLS-2005>
-383.496154785156

> <r_mmod_Solvation_Energy-OPLS-2005>
-251.941345214844

> <b_mmod_Minimization_Converged-OPLS-2005>
0

> <r_mmod_RMS_Derivative-OPLS-2005>
2.96010279655457

$$$$
65
                    3D
 Structure written by MMmdl.
163171  0  0  1  0            999 V2000
  -30.7225  -14.4165   20.6354 C   0  0  0  0  0  0
  -30.4285  -12.2935   19.4157 C   0  0  0  0  0  0
  -29.4995  -12.5264   18.2051 C   0  0  0  0  0  0
  -28.0196  -12.3793   18.6108 C   0  0  0  0  0  0
  -27.6691  -13.2003   19.8817 C   0  0  2  0  0  0
  -28.7051  -12.9388   20.9997 C   0  0  0  0  0  0
  -25.2599  -13.8150   20.5665 C   0  0  0  0  0  0
  -24.1833  -13.0437   20.9153 C   0  0  0  0  0  0
  -24.6366  -11.6900   20.8696 C   0  0  0  0  0  0
  -23.9030  -10.4295   21.0386 C   0  0  0  0  0  0
  -24.3589   -9.4224   21.9171 C   0  0  0  0  0  0
  -23.6281   -8.2248   22.0742 C   0  0  0  0  0  0
  -22.4263   -8.0277   21.3541 C   0  0  0  0  0  0
  -21.9884   -9.0242   20.4637 C   0  0  0  0  0  0
  -22.7195  -10.2134   20.3044 C   0  0  0  0  0  0
  -21.6851   -6.0734   22.5274 C   0  0  0  0  0  0
  -21.4012   -6.5637   23.8211 C   0  0  0  0  0  0
  -21.3656   -5.6783   24.9169 C   0  0  0  0  0  0
  -21.6056   -4.3051   24.7216 C   0  0  0  0  0  0
  -21.8819   -3.8145   23.4328 C   0  0  0  0  0  0
  -21.9190   -4.6964   22.3386 C   0  0  0  0  0  0
  -22.7858  -13.5261   21.1819 C   0  0  0  0  0  0
  -22.1664   -4.2154   21.0960 F   0  0  0  0  0  0
  -21.5639   -3.4525   25.7727 F   0  0  0  0  0  0
  -30.0497  -13.2446   20.4708 N   0  0  0  0  0  0
  -26.3036  -12.9305   20.3338 N   0  0  0  0  0  0
  -25.9294  -11.6469   20.5706 N   0  0  0  0  0  0
  -22.0463  -12.8295   22.0366 N   0  0  0  0  0  0
  -25.4353  -15.1865   20.4106 N   0  0  0  0  0  0
  -31.7841  -14.6700   20.0544 O   0  0  0  0  0  0
  -21.6631   -6.8875   21.4241 O   0  0  0  0  0  0
  -22.3553  -14.5577   20.6666 O   0  0  0  0  0  0
  -24.6169  -31.8674   23.2111 C   0  0  0  0  0  0
  -25.9067  -32.4815   23.8407 C   0  0  1  0  0  0
  -27.2451  -27.4492   20.0772 C   0  0  0  0  0  0
  -25.5919  -33.8619   24.2371 N   0  0  0  0  0  0
  -23.4049  -30.4931   21.5456 C   0  0  2  0  0  0
  -24.8502  -28.9579   20.1147 C   0  0  0  0  0  0
  -22.7422  -29.4657   22.4929 C   0  0  0  0  0  0
  -18.0263  -28.1360   22.8487 C   0  0  0  0  0  0
  -24.1479  -36.7313   23.2651 C   0  0  0  0  0  0
  -25.9333  -30.8380   21.3617 C   0  0  0  0  0  0
  -26.0084  -29.4703   20.7104 C   0  0  0  0  0  0
  -27.2058  -28.7199   20.6942 C   0  0  0  0  0  0
  -26.0559  -26.9337   19.5094 C   0  0  0  0  0  0
  -24.8671  -27.6868   19.5137 C   0  0  0  0  0  0
  -23.6184  -29.8303   20.1576 C   0  0  0  0  0  0
  -25.4090  -36.3110   24.0370 C   0  0  1  0  0  0
  -20.5861  -28.3668   23.1292 C   0  0  2  0  0  0
  -20.6758  -26.9406   22.5409 C   0  0  0  0  0  0
  -19.5733  -26.6382   21.5203 C   0  0  0  0  0  0
  -18.1902  -26.7914   22.1611 C   0  0  0  0  0  0
  -19.1515  -28.8822   23.2892 C   0  0  0  0  0  0
  -18.9458  -30.1422   23.8917 C   0  0  0  0  0  0
  -17.6460  -30.6574   24.0557 C   0  0  0  0  0  0
  -25.9017  -34.9468   23.5157 C   0  0  0  0  0  0
  -16.5344  -29.9089   23.6306 C   0  0  0  0  0  0
  -16.7249  -28.6495   23.0342 C   0  0  0  0  0  0
  -26.4518  -31.6566   25.0698 C   0  0  0  0  0  0
  -25.3823  -31.3663   26.1479 C   0  0  0  0  0  0
  -27.0365  -30.3010   24.6046 C   0  0  0  0  0  0
  -27.6080  -32.4284   25.7466 C   0  0  0  0  0  0
  -27.5573  -37.1818   24.8464 C   0  0  0  0  0  0
  -21.4138  -29.3048   22.3697 N   0  0  0  0  0  0
  -26.4278  -37.3790   23.9422 N   0  0  0  0  0  0
  -24.6686  -31.0815   22.0971 N   0  0  0  0  0  0
  -23.4206  -28.8185   23.2936 O   0  0  0  0  0  0
  -28.4470  -26.7707   20.0584 O   0  0  0  0  0  0
  -26.5544  -34.8924   22.4695 O   0  0  0  0  0  0
  -23.5360  -32.1381   23.7523 O   0  0  0  0  0  0
  -30.3324  -19.5388   21.3568 C   0  0  0  0  0  0
  -30.1143  -17.4101   20.1897 C   0  0  0  0  0  0
  -30.4266  -17.4445   22.6119 C   0  0  0  0  0  0
  -30.1449  -18.8269   20.1554 C   0  0  0  0  0  0
  -30.4815  -18.8582   22.5816 C   0  0  0  0  0  0
  -30.2551  -16.7125   21.4168 C   0  0  0  0  0  0
  -29.6711  -22.0543   19.0062 C   0  0  0  0  0  0
  -30.0190  -19.5689   18.8254 C   0  0  0  0  0  0
  -30.7280  -19.6573   23.8523 C   0  0  0  0  0  0
  -28.7003  -23.1973   18.6741 C   0  0  0  0  0  0
  -28.6072  -24.3257   19.7326 C   0  0  0  0  0  0
  -28.6605  -25.7307   19.0959 C   0  0  0  0  0  0
  -30.1573  -15.2934   21.4807 N   0  0  0  0  0  0
  -29.2177  -20.7990   18.8574 N   0  0  0  0  0  0
  -29.4713  -20.0907   24.4714 N   0  3  0  0  0  0
  -30.8302  -22.3064   19.3398 O   0  0  0  0  0  0
  -31.4744  -12.3990   19.1214 H   0  0  0  0  0  0
  -30.3350  -11.2698   19.7823 H   0  0  0  0  0  0
  -29.7442  -11.8267   17.4038 H   0  0  0  0  0  0
  -29.6678  -13.5243   17.7962 H   0  0  0  0  0  0
  -27.8255  -11.3223   18.7903 H   0  0  0  0  0  0
  -27.3744  -12.6703   17.7802 H   0  0  0  0  0  0
  -27.7271  -14.2534   19.6096 H   0  0  0  0  0  0
  -28.6639  -11.8924   21.3070 H   0  0  0  0  0  0
  -28.4487  -13.5043   21.8959 H   0  0  0  0  0  0
  -25.2740   -9.5750   22.4715 H   0  0  0  0  0  0
  -24.0027   -7.4659   22.7470 H   0  0  0  0  0  0
  -21.0814   -8.8736   19.8936 H   0  0  0  0  0  0
  -22.3634  -10.9665   19.6138 H   0  0  0  0  0  0
  -21.1993   -7.6145   23.9733 H   0  0  0  0  0  0
  -21.1488   -6.0493   25.9081 H   0  0  0  0  0  0
  -22.0599   -2.7605   23.2808 H   0  0  0  0  0  0
  -22.4029  -11.9978   22.4853 H   0  0  0  0  0  0
  -21.1061  -13.1352   22.2484 H   0  0  0  0  0  0
  -24.6774  -15.8516   20.5315 H   0  0  0  0  0  0
  -26.3031  -15.6227   20.1197 H   0  0  0  0  0  0
  -26.7145  -32.5565   23.1186 H   0  0  0  0  0  0
  -25.0146  -33.9771   25.0568 H   0  0  0  0  0  0
  -22.6936  -31.3085   21.4055 H   0  0  0  0  0  0
  -23.3712  -35.9672   23.3282 H   0  0  0  0  0  0
  -24.3594  -36.8926   22.2068 H   0  0  0  0  0  0
  -23.7240  -37.6535   23.6642 H   0  0  0  0  0  0
  -26.0471  -31.6089   20.5982 H   0  0  0  0  0  0
  -26.8241  -30.8925   21.9749 H   0  0  0  0  0  0
  -28.1073  -29.1187   21.1397 H   0  0  0  0  0  0
  -26.0256  -25.9522   19.0613 H   0  0  0  0  0  0
  -23.9739  -27.2825   19.0579 H   0  0  0  0  0  0
  -23.7480  -30.6073   19.4024 H   0  0  0  0  0  0
  -22.7414  -29.2582   19.8480 H   0  0  0  0  0  0
  -25.1262  -36.2002   25.0866 H   0  0  0  0  0  0
  -20.9966  -28.3261   24.1397 H   0  0  0  0  0  0
  -20.5613  -26.2293   23.3611 H   0  0  0  0  0  0
  -21.6640  -26.7416   22.1231 H   0  0  0  0  0  0
  -19.6885  -25.6297   21.1216 H   0  0  0  0  0  0
  -19.6663  -27.3203   20.6740 H   0  0  0  0  0  0
  -17.4188  -26.6646   21.3999 H   0  0  0  0  0  0
  -18.0282  -26.0063   22.9006 H   0  0  0  0  0  0
  -19.7944  -30.7200   24.2314 H   0  0  0  0  0  0
  -17.5036  -31.6254   24.5165 H   0  0  0  0  0  0
  -15.5353  -30.3005   23.7613 H   0  0  0  0  0  0
  -15.8643  -28.0822   22.7051 H   0  0  0  0  0  0
  -24.5991  -30.6990   25.7854 H   0  0  0  0  0  0
  -24.9021  -32.2820   26.4945 H   0  0  0  0  0  0
  -25.8255  -30.8852   27.0212 H   0  0  0  0  0  0
  -26.2902  -29.6704   24.1201 H   0  0  0  0  0  0
  -27.4257  -29.7306   25.4487 H   0  0  0  0  0  0
  -27.8672  -30.4279   23.9099 H   0  0  0  0  0  0
  -27.2685  -33.3570   26.2058 H   0  0  0  0  0  0
  -28.3918  -32.6870   25.0329 H   0  0  0  0  0  0
  -28.0712  -31.8394   26.5390 H   0  0  0  0  0  0
  -28.2605  -38.0099   24.7513 H   0  0  0  0  0  0
  -28.1072  -36.2649   24.6291 H   0  0  0  0  0  0
  -27.2309  -37.1467   25.8872 H   0  0  0  0  0  0
  -20.9276  -29.8880   21.7037 H   0  0  0  0  0  0
  -26.0170  -38.2881   24.1397 H   0  0  0  0  0  0
  -30.3854  -20.6180   21.3354 H   0  0  0  0  0  0
  -29.9706  -16.8595   19.2703 H   0  0  0  0  0  0
  -30.5402  -16.9193   23.5507 H   0  0  0  0  0  0
  -29.5636  -18.9042   18.0901 H   0  0  0  0  0  0
  -31.0212  -19.7819   18.4478 H   0  0  0  0  0  0
  -31.3311  -20.5367   23.6168 H   0  0  0  0  0  0
  -31.3085  -19.0675   24.5623 H   0  0  0  0  0  0
  -27.7078  -22.8003   18.4572 H   0  0  0  0  0  0
  -29.0582  -23.6188   17.7343 H   0  0  0  0  0  0
  -29.4093  -24.2497   20.4681 H   0  0  0  0  0  0
  -27.6810  -24.2119   20.2947 H   0  0  0  0  0  0
  -27.9979  -25.8086   18.2333 H   0  0  0  0  0  0
  -29.6595  -25.8805   18.6838 H   0  0  0  0  0  0
  -29.4564  -14.9170   22.1036 H   0  0  0  0  0  0
  -28.2492  -20.6963   18.5893 H   0  0  0  0  0  0
  -28.9542  -20.6852   23.8522 H   0  0  0  0  0  0
  -29.6696  -20.6061   25.3087 H   0  0  0  0  0  0
  -28.9123  -19.2942   24.7088 H   0  0  0  0  0  0
  1 25  1  0  0  0
  1 30  2  0  0  0
  1 83  1  0  0  0
  2  3  1  0  0  0
  2 25  1  0  0  0
  2 87  1  0  0  0
  2 88  1  0  0  0
  3  4  1  0  0  0
  3 89  1  0  0  0
  3 90  1  0  0  0
  4  5  1  0  0  0
  4 91  1  0  0  0
  4 92  1  0  0  0
  5  6  1  0  0  0
  5 26  1  0  0  0
  5 93  1  0  0  0
  6 25  1  0  0  0
  6 94  1  0  0  0
  6 95  1  0  0  0
  7  8  2  0  0  0
  7 26  1  0  0  0
  7 29  1  0  0  0
  8  9  1  0  0  0
  8 22  1  0  0  0
  9 10  1  0  0  0
  9 27  2  0  0  0
 10 11  2  0  0  0
 10 15  1  0  0  0
 11 12  1  0  0  0
 11 96  1  0  0  0
 12 13  2  0  0  0
 12 97  1  0  0  0
 13 14  1  0  0  0
 13 31  1  0  0  0
 14 15  2  0  0  0
 14 98  1  0  0  0
 15 99  1  0  0  0
 16 17  2  0  0  0
 16 21  1  0  0  0
 16 31  1  0  0  0
 17 18  1  0  0  0
 17100  1  0  0  0
 18 19  2  0  0  0
 18101  1  0  0  0
 19 20  1  0  0  0
 19 24  1  0  0  0
 20 21  2  0  0  0
 20102  1  0  0  0
 21 23  1  0  0  0
 22 28  1  0  0  0
 22 32  2  0  0  0
 26 27  1  0  0  0
 28103  1  0  0  0
 28104  1  0  0  0
 29105  1  0  0  0
 29106  1  0  0  0
 33 34  1  0  0  0
 33 66  1  0  0  0
 33 70  2  0  0  0
 34 36  1  0  0  0
 34 59  1  0  0  0
 34107  1  0  0  0
 35 44  2  0  0  0
 35 45  1  0  0  0
 35 68  1  0  0  0
 36 56  1  0  0  0
 36108  1  0  0  0
 37 39  1  0  0  0
 37 47  1  0  0  0
 37 66  1  0  0  0
 37109  1  0  0  0
 38 43  2  0  0  0
 38 46  1  0  0  0
 38 47  1  0  0  0
 39 64  1  0  0  0
 39 67  2  0  0  0
 40 52  1  0  0  0
 40 53  2  0  0  0
 40 58  1  0  0  0
 41110  1  0  0  0
 41111  1  0  0  0
 41112  1  0  0  0
 41 48  1  0  0  0
 42 43  1  0  0  0
 42 66  1  0  0  0
 42113  1  0  0  0
 42114  1  0  0  0
 43 44  1  0  0  0
 44115  1  0  0  0
 45 46  2  0  0  0
 45116  1  0  0  0
 46117  1  0  0  0
 47118  1  0  0  0
 47119  1  0  0  0
 48 56  1  0  0  0
 48 65  1  0  0  0
 48120  1  0  0  0
 49 50  1  0  0  0
 49 53  1  0  0  0
 49 64  1  0  0  0
 49121  1  0  0  0
 50 51  1  0  0  0
 50122  1  0  0  0
 50123  1  0  0  0
 51 52  1  0  0  0
 51124  1  0  0  0
 51125  1  0  0  0
 52126  1  0  0  0
 52127  1  0  0  0
 53 54  1  0  0  0
 54 55  2  0  0  0
 54128  1  0  0  0
 55 57  1  0  0  0
 55129  1  0  0  0
 56 69  2  0  0  0
 57 58  2  0  0  0
 57130  1  0  0  0
 58131  1  0  0  0
 59 60  1  0  0  0
 59 61  1  0  0  0
 59 62  1  0  0  0
 60132  1  0  0  0
 60133  1  0  0  0
 60134  1  0  0  0
 61135  1  0  0  0
 61136  1  0  0  0
 61137  1  0  0  0
 62138  1  0  0  0
 62139  1  0  0  0
 62140  1  0  0  0
 63 65  1  0  0  0
 63141  1  0  0  0
 63142  1  0  0  0
 63143  1  0  0  0
 64144  1  0  0  0
 65145  1  0  0  0
 68 82  1  0  0  0
 71 74  2  0  0  0
 71 75  1  0  0  0
 71146  1  0  0  0
 72 74  1  0  0  0
 72 76  2  0  0  0
 72147  1  0  0  0
 73 75  2  0  0  0
 73 76  1  0  0  0
 73148  1  0  0  0
 74 78  1  0  0  0
 75 79  1  0  0  0
 76 83  1  0  0  0
 77 80  1  0  0  0
 77 84  1  0  0  0
 77 86  2  0  0  0
 78 84  1  0  0  0
 78149  1  0  0  0
 78150  1  0  0  0
 79 85  1  0  0  0
 79151  1  0  0  0
 79152  1  0  0  0
 80 81  1  0  0  0
 80153  1  0  0  0
 80154  1  0  0  0
 81 82  1  0  0  0
 81155  1  0  0  0
 81156  1  0  0  0
 82157  1  0  0  0
 82158  1  0  0  0
 83159  1  0  0  0
 84160  1  0  0  0
 85161  1  0  0  0
 85162  1  0  0  0
 85163  1  0  0  0
M  CHG  1  85   1
M  ISO  4   1 100  68 101  82 101  83 100
M  END
> <chiral flag>
0

> <version>
0

> <s_m_source_file>
/data/baiqing/PycharmProjects/Reinvent-master-3.2/result/LINK_invent/BTK/process_docking_weight1_custom_product_contain_oxygen_bond_distance_aromatic_linkinvent_7_9_3/rearranged_h_0097.sdf

> <i_m_source_file_index>
66

> <r_mmod_Potential_Energy-OPLS-2005>
-493.764190673828

> <r_mmod_Stretch_Energy-OPLS-2005>
37.1873016357422

> <r_mmod_Bend_Energy-OPLS-2005>
99.3329162597656

> <r_mmod_Torsional_Energy-OPLS-2005>
217.821624755859

> <r_mmod_Improper_Torsional_Energy-OPLS-2005>
3.01766467094421

> <r_mmod_Van_der_Waal_Energy-OPLS-2005>
152.931335449219

> <r_mmod_Electrostatic_Energy-OPLS-2005>
-468.861694335938

> <r_mmod_Solvation_Energy-OPLS-2005>
-543.799865722656

> <b_mmod_Minimization_Converged-OPLS-2005>
0

> <r_mmod_RMS_Derivative-OPLS-2005>
3.83111786842346

$$$$
66
                    3D
 Structure written by MMmdl.
163172  0  0  1  0            999 V2000
  -30.6363  -14.7417   20.4572 C   0  0  0  0  0  0
  -30.4221  -12.4500   19.4781 C   0  0  0  0  0  0
  -29.5044  -12.4987   18.2377 C   0  0  0  0  0  0
  -28.0320  -12.3257   18.6523 C   0  0  0  0  0  0
  -27.6373  -13.2360   19.8461 C   0  0  2  0  0  0
  -28.6825  -13.1895   20.9827 C   0  0  0  0  0  0
  -25.2485  -13.8203   20.5690 C   0  0  0  0  0  0
  -24.1789  -13.0441   20.9211 C   0  0  0  0  0  0
  -24.6392  -11.6919   20.8749 C   0  0  0  0  0  0
  -23.9075  -10.4287   21.0403 C   0  0  0  0  0  0
  -24.3621   -9.4196   21.9180 C   0  0  0  0  0  0
  -23.6290   -8.2237   22.0759 C   0  0  0  0  0  0
  -22.4279   -8.0278   21.3542 C   0  0  0  0  0  0
  -21.9913   -9.0249   20.4646 C   0  0  0  0  0  0
  -22.7246  -10.2124   20.3050 C   0  0  0  0  0  0
  -21.6850   -6.0734   22.5277 C   0  0  0  0  0  0
  -21.4017   -6.5637   23.8210 C   0  0  0  0  0  0
  -21.3655   -5.6794   24.9169 C   0  0  0  0  0  0
  -21.6044   -4.3058   24.7222 C   0  0  0  0  0  0
  -21.8817   -3.8149   23.4342 C   0  0  0  0  0  0
  -21.9192   -4.6967   22.3396 C   0  0  0  0  0  0
  -22.7809  -13.5211   21.1869 C   0  0  0  0  0  0
  -22.1661   -4.2153   21.0974 F   0  0  0  0  0  0
  -21.5625   -3.4545   25.7733 F   0  0  0  0  0  0
  -29.9837  -13.5298   20.3953 N   0  0  0  0  0  0
  -26.2911  -12.9420   20.3267 N   0  0  0  0  0  0
  -25.9320  -11.6561   20.5757 N   0  0  0  0  0  0
  -22.0463  -12.8193   22.0427 N   0  0  0  0  0  0
  -25.4165  -15.1925   20.4092 N   0  0  0  0  0  0
  -31.8248  -14.7828   20.1314 O   0  0  0  0  0  0
  -21.6636   -6.8877   21.4241 O   0  0  0  0  0  0
  -22.3481  -14.5514   20.6723 O   0  0  0  0  0  0
  -24.6303  -31.8548   23.1996 C   0  0  0  0  0  0
  -25.9129  -32.4748   23.8330 C   0  0  1  0  0  0
  -27.2111  -27.2517   20.1170 C   0  0  0  0  0  0
  -25.5922  -33.8552   24.2251 N   0  0  0  0  0  0
  -23.4268  -30.4791   21.5439 C   0  0  2  0  0  0
  -24.8722  -28.9313   20.1078 C   0  0  0  0  0  0
  -22.7503  -29.4589   22.4915 C   0  0  0  0  0  0
  -18.0287  -28.1389   22.8478 C   0  0  0  0  0  0
  -24.1487  -36.7282   23.2635 C   0  0  0  0  0  0
  -25.9752  -30.7588   21.3884 C   0  0  0  0  0  0
  -26.0439  -29.3834   20.7278 C   0  0  0  0  0  0
  -27.2117  -28.5527   20.7297 C   0  0  0  0  0  0
  -26.0222  -26.8916   19.4386 C   0  0  0  0  0  0
  -24.8676  -27.6936   19.4551 C   0  0  0  0  0  0
  -23.6439  -29.8167   20.1592 C   0  0  0  0  0  0
  -25.4115  -36.3068   24.0325 C   0  0  1  0  0  0
  -20.5889  -28.3693   23.1269 C   0  0  2  0  0  0
  -20.6763  -26.9407   22.5398 C   0  0  0  0  0  0
  -19.5734  -26.6371   21.5205 C   0  0  0  0  0  0
  -18.1919  -26.7929   22.1617 C   0  0  0  0  0  0
  -19.1540  -28.8860   23.2864 C   0  0  0  0  0  0
  -18.9471  -30.1461   23.8882 C   0  0  0  0  0  0
  -17.6473  -30.6588   24.0563 C   0  0  0  0  0  0
  -25.9062  -34.9440   23.5101 C   0  0  0  0  0  0
  -16.5361  -29.9082   23.6342 C   0  0  0  0  0  0
  -16.7278  -28.6503   23.0360 C   0  0  0  0  0  0
  -26.4499  -31.6583   25.0730 C   0  0  0  0  0  0
  -25.3707  -31.3734   26.1444 C   0  0  0  0  0  0
  -27.0370  -30.3000   24.6246 C   0  0  0  0  0  0
  -27.6058  -32.4335   25.7495 C   0  0  0  0  0  0
  -27.5596  -37.1765   24.8447 C   0  0  0  0  0  0
  -21.4211  -29.3041   22.3665 N   0  0  0  0  0  0
  -26.4280  -37.3775   23.9441 N   0  0  0  0  0  0
  -24.6967  -31.0485   22.0998 N   0  0  0  0  0  0
  -23.4202  -28.8117   23.3003 O   0  0  0  0  0  0
  -28.2999  -26.3453   20.2080 O   0  0  0  0  0  0
  -26.5635  -34.8916   22.4668 O   0  0  0  0  0  0
  -23.5453  -32.1396   23.7278 O   0  0  0  0  0  0
  -31.6751  -17.6906   20.7732 C   0  0  0  0  0  0
  -29.3834  -18.4968   20.5716 C   0  0  0  0  0  0
  -29.8220  -19.8998   20.5821 C   0  0  0  0  0  0
  -30.3032  -17.3559   20.6543 C   0  0  0  0  0  0
  -32.1246  -19.0243   20.7887 C   0  0  0  0  0  0
  -31.2242  -20.1051   20.6914 C   0  0  0  0  0  0
  -28.1512  -23.0924   21.7114 C   0  0  0  0  0  0
  -28.6398  -21.6322   21.9082 C   0  0  0  0  0  0
  -29.0500  -22.2662   19.6784 C   0  0  0  0  0  0
  -28.8892  -23.6420   20.4803 C   0  0  1  0  0  0
  -27.8966  -18.1982   20.4767 C   0  0  0  0  0  0
  -28.1736  -24.9088   19.7599 C   0  0  0  0  0  0
  -28.9464  -21.0716   20.5901 N   0  0  0  0  0  0
  -33.4901  -19.3007   20.9111 N   0  0  0  0  0  0
  -31.7599  -21.3913   20.7769 N   0  0  0  0  0  0
  -29.8991  -15.9098   20.6625 N   0  0  0  0  0  0
  -31.4656  -12.5508   19.1753 H   0  0  0  0  0  0
  -30.3514  -11.4788   19.9716 H   0  0  0  0  0  0
  -29.7846  -11.7220   17.5249 H   0  0  0  0  0  0
  -29.6317  -13.4504   17.7199 H   0  0  0  0  0  0
  -27.8906  -11.2783   18.9228 H   0  0  0  0  0  0
  -27.3737  -12.5091   17.8023 H   0  0  0  0  0  0
  -27.6246  -14.2529   19.4531 H   0  0  0  0  0  0
  -28.7151  -12.1973   21.4355 H   0  0  0  0  0  0
  -28.4191  -13.8845   21.7821 H   0  0  0  0  0  0
  -25.2764   -9.5671   22.4760 H   0  0  0  0  0  0
  -23.9995   -7.4629   22.7480 H   0  0  0  0  0  0
  -21.0845   -8.8758   19.8951 H   0  0  0  0  0  0
  -22.3698  -10.9661   19.6159 H   0  0  0  0  0  0
  -21.2015   -7.6148   23.9712 H   0  0  0  0  0  0
  -21.1481   -6.0526   25.9070 H   0  0  0  0  0  0
  -22.0604   -2.7616   23.2839 H   0  0  0  0  0  0
  -22.4104  -11.9845   22.4784 H   0  0  0  0  0  0
  -21.1078  -13.1201   22.2658 H   0  0  0  0  0  0
  -24.6443  -15.8422   20.5081 H   0  0  0  0  0  0
  -26.2500  -15.6241   20.0363 H   0  0  0  0  0  0
  -26.7178  -32.5389   23.1053 H   0  0  0  0  0  0
  -25.0053  -33.9690   25.0384 H   0  0  0  0  0  0
  -22.7241  -31.3017   21.3975 H   0  0  0  0  0  0
  -23.3777  -35.9576   23.3230 H   0  0  0  0  0  0
  -24.3591  -36.8987   22.2062 H   0  0  0  0  0  0
  -23.7201  -37.6442   23.6712 H   0  0  0  0  0  0
  -26.1181  -31.5180   20.6179 H   0  0  0  0  0  0
  -26.8519  -30.8041   22.0231 H   0  0  0  0  0  0
  -28.1041  -28.8850   21.2427 H   0  0  0  0  0  0
  -25.9316  -25.9733   18.8818 H   0  0  0  0  0  0
  -23.9771  -27.3506   18.9469 H   0  0  0  0  0  0
  -23.7651  -30.5932   19.4039 H   0  0  0  0  0  0
  -22.7623  -29.2483   19.8553 H   0  0  0  0  0  0
  -25.1279  -36.1897   25.0812 H   0  0  0  0  0  0
  -20.9974  -28.3267   24.1392 H   0  0  0  0  0  0
  -20.5657  -26.2309   23.3609 H   0  0  0  0  0  0
  -21.6634  -26.7407   22.1197 H   0  0  0  0  0  0
  -19.6900  -25.6277   21.1247 H   0  0  0  0  0  0
  -19.6679  -27.3174   20.6732 H   0  0  0  0  0  0
  -17.4180  -26.6679   21.4022 H   0  0  0  0  0  0
  -18.0321  -26.0062   22.9007 H   0  0  0  0  0  0
  -19.7952  -30.7271   24.2240 H   0  0  0  0  0  0
  -17.5028  -31.6271   24.5154 H   0  0  0  0  0  0
  -15.5363  -30.2980   23.7676 H   0  0  0  0  0  0
  -15.8679  -28.0819   22.7092 H   0  0  0  0  0  0
  -24.5894  -30.7076   25.7759 H   0  0  0  0  0  0
  -24.8874  -32.2898   26.4844 H   0  0  0  0  0  0
  -25.7999  -30.8918   27.0242 H   0  0  0  0  0  0
  -26.2973  -29.6720   24.1267 H   0  0  0  0  0  0
  -27.4049  -29.7291   25.4782 H   0  0  0  0  0  0
  -27.8845  -30.4277   23.9512 H   0  0  0  0  0  0
  -27.2687  -33.3670   26.2016 H   0  0  0  0  0  0
  -28.3893  -32.6842   25.0330 H   0  0  0  0  0  0
  -28.0694  -31.8489   26.5452 H   0  0  0  0  0  0
  -28.2516  -38.0150   24.7625 H   0  0  0  0  0  0
  -28.1191  -36.2695   24.6105 H   0  0  0  0  0  0
  -27.2328  -37.1205   25.8840 H   0  0  0  0  0  0
  -20.9407  -29.8809   21.6902 H   0  0  0  0  0  0
  -26.0156  -38.2831   24.1517 H   0  0  0  0  0  0
  -32.4236  -16.9228   20.8756 H   0  0  0  0  0  0
  -28.3150  -23.7071   22.5980 H   0  0  0  0  0  0
  -27.0767  -23.0840   21.5232 H   0  0  0  0  0  0
  -27.8740  -21.0408   22.4138 H   0  0  0  0  0  0
  -29.5285  -21.6154   22.5410 H   0  0  0  0  0  0
  -29.9695  -22.2595   19.0924 H   0  0  0  0  0  0
  -28.2378  -22.1847   18.9539 H   0  0  0  0  0  0
  -29.8889  -23.9492   20.7894 H   0  0  0  0  0  0
  -27.3362  -19.0469   20.0832 H   0  0  0  0  0  0
  -27.4974  -17.9537   21.4612 H   0  0  0  0  0  0
  -27.7143  -17.3559   19.8104 H   0  0  0  0  0  0
  -27.1318  -24.6061   19.7230 H   0  0  0  0  0  0
  -28.5051  -24.9107   18.7208 H   0  0  0  0  0  0
  -34.1296  -18.5833   20.5894 H   0  0  0  0  0  0
  -33.7351  -20.2168   20.5473 H   0  0  0  0  0  0
  -31.0384  -22.0724   20.9806 H   0  0  0  0  0  0
  -32.5293  -21.4432   21.4333 H   0  0  0  0  0  0
  -28.9140  -15.7419   20.7961 H   0  0  0  0  0  0
  1 25  1  0  0  0
  1 30  2  0  0  0
  1 86  1  0  0  0
  2  3  1  0  0  0
  2 25  1  0  0  0
  2 87  1  0  0  0
  2 88  1  0  0  0
  3  4  1  0  0  0
  3 89  1  0  0  0
  3 90  1  0  0  0
  4  5  1  0  0  0
  4 91  1  0  0  0
  4 92  1  0  0  0
  5  6  1  0  0  0
  5 26  1  0  0  0
  5 93  1  0  0  0
  6 25  1  0  0  0
  6 94  1  0  0  0
  6 95  1  0  0  0
  7  8  2  0  0  0
  7 26  1  0  0  0
  7 29  1  0  0  0
  8  9  1  0  0  0
  8 22  1  0  0  0
  9 10  1  0  0  0
  9 27  2  0  0  0
 10 11  2  0  0  0
 10 15  1  0  0  0
 11 12  1  0  0  0
 11 96  1  0  0  0
 12 13  2  0  0  0
 12 97  1  0  0  0
 13 14  1  0  0  0
 13 31  1  0  0  0
 14 15  2  0  0  0
 14 98  1  0  0  0
 15 99  1  0  0  0
 16 17  2  0  0  0
 16 21  1  0  0  0
 16 31  1  0  0  0
 17 18  1  0  0  0
 17100  1  0  0  0
 18 19  2  0  0  0
 18101  1  0  0  0
 19 20  1  0  0  0
 19 24  1  0  0  0
 20 21  2  0  0  0
 20102  1  0  0  0
 21 23  1  0  0  0
 22 28  1  0  0  0
 22 32  2  0  0  0
 26 27  1  0  0  0
 28103  1  0  0  0
 28104  1  0  0  0
 29105  1  0  0  0
 29106  1  0  0  0
 33 34  1  0  0  0
 33 66  1  0  0  0
 33 70  2  0  0  0
 34 36  1  0  0  0
 34 59  1  0  0  0
 34107  1  0  0  0
 35 44  2  0  0  0
 35 45  1  0  0  0
 35 68  1  0  0  0
 36 56  1  0  0  0
 36108  1  0  0  0
 37 39  1  0  0  0
 37 47  1  0  0  0
 37 66  1  0  0  0
 37109  1  0  0  0
 38 43  2  0  0  0
 38 46  1  0  0  0
 38 47  1  0  0  0
 39 64  1  0  0  0
 39 67  2  0  0  0
 40 52  1  0  0  0
 40 53  2  0  0  0
 40 58  1  0  0  0
 41110  1  0  0  0
 41111  1  0  0  0
 41112  1  0  0  0
 41 48  1  0  0  0
 42 43  1  0  0  0
 42 66  1  0  0  0
 42113  1  0  0  0
 42114  1  0  0  0
 43 44  1  0  0  0
 44115  1  0  0  0
 45 46  2  0  0  0
 45116  1  0  0  0
 46117  1  0  0  0
 47118  1  0  0  0
 47119  1  0  0  0
 48 56  1  0  0  0
 48 65  1  0  0  0
 48120  1  0  0  0
 49 50  1  0  0  0
 49 53  1  0  0  0
 49 64  1  0  0  0
 49121  1  0  0  0
 50 51  1  0  0  0
 50122  1  0  0  0
 50123  1  0  0  0
 51 52  1  0  0  0
 51124  1  0  0  0
 51125  1  0  0  0
 52126  1  0  0  0
 52127  1  0  0  0
 53 54  1  0  0  0
 54 55  2  0  0  0
 54128  1  0  0  0
 55 57  1  0  0  0
 55129  1  0  0  0
 56 69  2  0  0  0
 57 58  2  0  0  0
 57130  1  0  0  0
 58131  1  0  0  0
 59 60  1  0  0  0
 59 61  1  0  0  0
 59 62  1  0  0  0
 60132  1  0  0  0
 60133  1  0  0  0
 60134  1  0  0  0
 61135  1  0  0  0
 61136  1  0  0  0
 61137  1  0  0  0
 62138  1  0  0  0
 62139  1  0  0  0
 62140  1  0  0  0
 63 65  1  0  0  0
 63141  1  0  0  0
 63142  1  0  0  0
 63143  1  0  0  0
 64144  1  0  0  0
 65145  1  0  0  0
 68 82  1  0  0  0
 71 74  2  0  0  0
 71 75  1  0  0  0
 71146  1  0  0  0
 72 73  2  0  0  0
 72 74  1  0  0  0
 72 81  1  0  0  0
 73 76  1  0  0  0
 73 83  1  0  0  0
 74 86  1  0  0  0
 75 76  2  0  0  0
 75 84  1  0  0  0
 76 85  1  0  0  0
 77 78  1  0  0  0
 77 80  1  0  0  0
 77147  1  0  0  0
 77148  1  0  0  0
 78 83  1  0  0  0
 78149  1  0  0  0
 78150  1  0  0  0
 79 80  1  0  0  0
 79 83  1  0  0  0
 79151  1  0  0  0
 79152  1  0  0  0
 80 82  1  0  0  0
 80153  1  0  0  0
 81154  1  0  0  0
 81155  1  0  0  0
 81156  1  0  0  0
 82157  1  0  0  0
 82158  1  0  0  0
 84159  1  0  0  0
 84160  1  0  0  0
 85161  1  0  0  0
 85162  1  0  0  0
 86163  1  0  0  0
M  ISO  4   1 100  68 101  82 101  86 100
M  END
> <chiral flag>
0

> <version>
0

> <s_m_source_file>
/data/baiqing/PycharmProjects/Reinvent-master-3.2/result/LINK_invent/BTK/process_docking_weight1_custom_product_contain_oxygen_bond_distance_aromatic_linkinvent_7_9_3/rearranged_h_0097.sdf

> <i_m_source_file_index>
67

> <r_mmod_Potential_Energy-OPLS-2005>
200.862686157227

> <r_mmod_Stretch_Energy-OPLS-2005>
132.281875610352

> <r_mmod_Bend_Energy-OPLS-2005>
200.157852172852

> <r_mmod_Torsional_Energy-OPLS-2005>
306.765014648438

> <r_mmod_Improper_Torsional_Energy-OPLS-2005>
19.7926025390625

> <r_mmod_Van_der_Waal_Energy-OPLS-2005>
160.189819335938

> <r_mmod_Electrostatic_Energy-OPLS-2005>
-481.908599853516

> <r_mmod_Solvation_Energy-OPLS-2005>
-226.141815185547

> <b_mmod_Minimization_Converged-OPLS-2005>
0

> <r_mmod_RMS_Derivative-OPLS-2005>
1.7872725725174

$$$$
67
                    3D
 Structure written by MMmdl.
158167  0  0  1  0            999 V2000
  -30.6625  -14.6779   20.4060 C   0  0  0  0  0  0
  -30.4248  -12.4086   19.4521 C   0  0  0  0  0  0
  -29.5067  -12.5050   18.2162 C   0  0  0  0  0  0
  -28.0346  -12.3312   18.6412 C   0  0  0  0  0  0
  -27.6404  -13.2312   19.8446 C   0  0  2  0  0  0
  -28.6904  -13.1770   20.9755 C   0  0  0  0  0  0
  -25.2505  -13.8203   20.5696 C   0  0  0  0  0  0
  -24.1803  -13.0391   20.9195 C   0  0  0  0  0  0
  -24.6401  -11.6881   20.8697 C   0  0  0  0  0  0
  -23.9021  -10.4267   21.0375 C   0  0  0  0  0  0
  -24.3568   -9.4211   21.9170 C   0  0  0  0  0  0
  -23.6242   -8.2246   22.0757 C   0  0  0  0  0  0
  -22.4258   -8.0239   21.3541 C   0  0  0  0  0  0
  -21.9851   -9.0205   20.4678 C   0  0  0  0  0  0
  -22.7166  -10.2092   20.3051 C   0  0  0  0  0  0
  -21.6858   -6.0681   22.5254 C   0  0  0  0  0  0
  -21.4026   -6.5610   23.8181 C   0  0  0  0  0  0
  -21.3671   -5.6777   24.9172 C   0  0  0  0  0  0
  -21.6054   -4.3032   24.7244 C   0  0  0  0  0  0
  -21.8807   -3.8102   23.4367 C   0  0  0  0  0  0
  -21.9213   -4.6907   22.3412 C   0  0  0  0  0  0
  -22.7859  -13.5197   21.1873 C   0  0  0  0  0  0
  -22.1684   -4.2066   21.0984 F   0  0  0  0  0  0
  -21.5638   -3.4530   25.7779 F   0  0  0  0  0  0
  -29.9973  -13.4805   20.3744 N   0  0  0  0  0  0
  -26.2926  -12.9380   20.3257 N   0  0  0  0  0  0
  -25.9330  -11.6513   20.5648 N   0  0  0  0  0  0
  -22.0499  -12.8185   22.0452 N   0  0  0  0  0  0
  -25.4123  -15.1941   20.4233 N   0  0  0  0  0  0
  -31.8674  -14.7258   20.1581 O   0  0  0  0  0  0
  -21.6684   -6.8794   21.4197 O   0  0  0  0  0  0
  -22.3536  -14.5488   20.6750 O   0  0  0  0  0  0
  -24.6244  -31.8542   23.2064 C   0  0  0  0  0  0
  -25.9096  -32.4697   23.8340 C   0  0  1  0  0  0
  -27.1938  -27.2895   20.0734 C   0  0  0  0  0  0
  -25.5971  -33.8531   24.2258 N   0  0  0  0  0  0
  -23.4176  -30.4841   21.5485 C   0  0  2  0  0  0
  -24.8574  -28.9383   20.1149 C   0  0  0  0  0  0
  -22.7445  -29.4622   22.4954 C   0  0  0  0  0  0
  -18.0267  -28.1413   22.8440 C   0  0  0  0  0  0
  -24.1514  -36.7244   23.2635 C   0  0  0  0  0  0
  -25.9652  -30.7627   21.3955 C   0  0  0  0  0  0
  -26.0272  -29.3929   20.7309 C   0  0  0  0  0  0
  -27.1942  -28.5669   20.7260 C   0  0  0  0  0  0
  -26.0063  -26.9233   19.4080 C   0  0  0  0  0  0
  -24.8451  -27.7065   19.4572 C   0  0  0  0  0  0
  -23.6282  -29.8147   20.1659 C   0  0  0  0  0  0
  -25.4135  -36.3018   24.0302 C   0  0  1  0  0  0
  -20.5858  -28.3744   23.1257 C   0  0  2  0  0  0
  -20.6765  -26.9467   22.5399 C   0  0  0  0  0  0
  -19.5756  -26.6411   21.5182 C   0  0  0  0  0  0
  -18.1933  -26.7934   22.1605 C   0  0  0  0  0  0
  -19.1514  -28.8875   23.2837 C   0  0  0  0  0  0
  -18.9449  -30.1478   23.8868 C   0  0  0  0  0  0
  -17.6459  -30.6608   24.0550 C   0  0  0  0  0  0
  -25.9082  -34.9395   23.5047 C   0  0  0  0  0  0
  -16.5343  -29.9104   23.6335 C   0  0  0  0  0  0
  -16.7248  -28.6533   23.0320 C   0  0  0  0  0  0
  -26.4540  -31.6517   25.0678 C   0  0  0  0  0  0
  -25.3797  -31.3628   26.1385 C   0  0  0  0  0  0
  -27.0408  -30.2885   24.6257 C   0  0  0  0  0  0
  -27.6082  -32.4261   25.7440 C   0  0  0  0  0  0
  -27.5582  -37.1769   24.8457 C   0  0  0  0  0  0
  -21.4166  -29.3076   22.3646 N   0  0  0  0  0  0
  -26.4300  -37.3712   23.9383 N   0  0  0  0  0  0
  -24.6860  -31.0553   22.1044 N   0  0  0  0  0  0
  -23.4155  -28.8152   23.3032 O   0  0  0  0  0  0
  -28.2854  -26.4057   20.1164 O   0  0  0  0  0  0
  -26.5658  -34.8861   22.4629 O   0  0  0  0  0  0
  -23.5434  -32.1406   23.7394 O   0  0  0  0  0  0
  -28.8620  -19.2060   20.8250 C   0  0  0  0  0  0
  -30.0632  -19.2097   18.7452 C   0  0  0  0  0  0
  -28.3630  -20.5141   20.5440 C   0  0  0  0  0  0
  -29.5378  -20.5091   18.4511 C   0  0  0  0  0  0
  -29.7414  -18.5209   19.9499 C   0  0  0  0  0  0
  -28.6877  -21.2124   19.3531 C   0  0  0  0  0  0
  -26.9921  -22.3978   18.1917 C   0  0  0  0  0  0
  -25.8058  -23.1825   18.7219 C   0  0  0  0  0  0
  -26.3078  -23.6324   20.1084 C   0  0  0  0  0  0
  -27.8359  -23.6822   19.9438 C   0  0  2  0  0  0
  -30.5227  -17.2297   20.4102 C   0  0  0  0  0  0
  -28.3067  -25.1155   19.3603 C   0  0  0  0  0  0
  -28.0628  -22.5005   19.0102 N   0  0  0  0  0  0
  -29.9338  -15.8414   20.4706 N   0  0  0  0  0  0
  -26.9206  -21.7346   17.1498 O   0  0  0  0  0  0
  -31.4728  -12.4871   19.1671 H   0  0  0  0  0  0
  -30.3180  -11.4333   19.9235 H   0  0  0  0  0  0
  -29.7715  -11.7533   17.4697 H   0  0  0  0  0  0
  -29.6429  -13.4682   17.7300 H   0  0  0  0  0  0
  -27.8917  -11.2804   18.8972 H   0  0  0  0  0  0
  -27.3694  -12.5325   17.8053 H   0  0  0  0  0  0
  -27.6305  -14.2552   19.4679 H   0  0  0  0  0  0
  -28.6987  -12.1972   21.4595 H   0  0  0  0  0  0
  -28.4565  -13.9017   21.7597 H   0  0  0  0  0  0
  -25.2698   -9.5704   22.4760 H   0  0  0  0  0  0
  -23.9967   -7.4631   22.7466 H   0  0  0  0  0  0
  -21.0777   -8.8689   19.8971 H   0  0  0  0  0  0
  -22.3573  -10.9620   19.6169 H   0  0  0  0  0  0
  -21.2009   -7.6113   23.9646 H   0  0  0  0  0  0
  -21.1520   -6.0541   25.9059 H   0  0  0  0  0  0
  -22.0578   -2.7538   23.2936 H   0  0  0  0  0  0
  -22.4176  -11.9892   22.4848 H   0  0  0  0  0  0
  -21.1101  -13.1162   22.2620 H   0  0  0  0  0  0
  -24.6264  -15.8249   20.5474 H   0  0  0  0  0  0
  -26.2520  -15.6533   20.0848 H   0  0  0  0  0  0
  -26.7150  -32.5339   23.1081 H   0  0  0  0  0  0
  -25.0047  -33.9663   25.0351 H   0  0  0  0  0  0
  -22.7166  -31.3103   21.4046 H   0  0  0  0  0  0
  -23.3762  -35.9595   23.3271 H   0  0  0  0  0  0
  -24.3588  -36.8886   22.2053 H   0  0  0  0  0  0
  -23.7327  -37.6445   23.6695 H   0  0  0  0  0  0
  -26.1332  -31.5339   20.6467 H   0  0  0  0  0  0
  -26.8316  -30.7862   22.0449 H   0  0  0  0  0  0
  -28.0768  -28.8833   21.2667 H   0  0  0  0  0  0
  -25.9255  -26.0067   18.8545 H   0  0  0  0  0  0
  -23.9414  -27.3559   18.9765 H   0  0  0  0  0  0
  -23.7578  -30.5857   19.4088 H   0  0  0  0  0  0
  -22.7487  -29.2445   19.8564 H   0  0  0  0  0  0
  -25.1353  -36.1829   25.0802 H   0  0  0  0  0  0
  -20.9932  -28.3347   24.1376 H   0  0  0  0  0  0
  -20.5677  -26.2354   23.3619 H   0  0  0  0  0  0
  -21.6636  -26.7504   22.1197 H   0  0  0  0  0  0
  -19.6944  -25.6321   21.1221 H   0  0  0  0  0  0
  -19.6675  -27.3217   20.6713 H   0  0  0  0  0  0
  -17.4193  -26.6629   21.4024 H   0  0  0  0  0  0
  -18.0390  -26.0086   22.9033 H   0  0  0  0  0  0
  -19.7937  -30.7285   24.2240 H   0  0  0  0  0  0
  -17.5018  -31.6275   24.5208 H   0  0  0  0  0  0
  -15.5347  -30.3006   23.7689 H   0  0  0  0  0  0
  -15.8641  -28.0858   22.7042 H   0  0  0  0  0  0
  -24.5999  -30.6968   25.7669 H   0  0  0  0  0  0
  -24.8994  -32.2792   26.4812 H   0  0  0  0  0  0
  -25.8118  -30.8771   27.0158 H   0  0  0  0  0  0
  -26.3008  -29.6543   24.1326 H   0  0  0  0  0  0
  -27.4069  -29.7202   25.4856 H   0  0  0  0  0  0
  -27.8939  -30.4032   23.9536 H   0  0  0  0  0  0
  -27.2664  -33.3556   26.2037 H   0  0  0  0  0  0
  -28.3900  -32.6829   25.0257 H   0  0  0  0  0  0
  -28.0793  -31.8380   26.5367 H   0  0  0  0  0  0
  -28.2585  -38.0076   24.7458 H   0  0  0  0  0  0
  -28.1102  -36.2586   24.6357 H   0  0  0  0  0  0
  -27.2252  -37.1464   25.8847 H   0  0  0  0  0  0
  -20.9428  -29.8721   21.6737 H   0  0  0  0  0  0
  -26.0148  -38.2774   24.1372 H   0  0  0  0  0  0
  -28.5922  -18.7409   21.7622 H   0  0  0  0  0  0
  -30.7385  -18.7492   18.0343 H   0  0  0  0  0  0
  -27.7002  -20.9778   21.2626 H   0  0  0  0  0  0
  -29.7958  -20.9785   17.5085 H   0  0  0  0  0  0
  -24.9115  -22.5597   18.7885 H   0  0  0  0  0  0
  -25.6093  -24.0010   18.0343 H   0  0  0  0  0  0
  -25.8617  -24.5549   20.4651 H   0  0  0  0  0  0
  -26.0338  -22.8757   20.8521 H   0  0  0  0  0  0
  -28.3363  -23.4935   20.8968 H   0  0  0  0  0  0
  -30.8331  -17.4516   21.4370 H   0  0  0  0  0  0
  -31.4557  -17.1967   19.8426 H   0  0  0  0  0  0
  -29.3624  -24.9980   19.1198 H   0  0  0  0  0  0
  -27.8577  -25.2790   18.3791 H   0  0  0  0  0  0
  -28.9418  -15.7568   20.6175 H   0  0  0  0  0  0
  1 25  1  0  0  0
  1 30  2  0  0  0
  1 84  1  0  0  0
  2  3  1  0  0  0
  2 25  1  0  0  0
  2 86  1  0  0  0
  2 87  1  0  0  0
  3  4  1  0  0  0
  3 88  1  0  0  0
  3 89  1  0  0  0
  4  5  1  0  0  0
  4 90  1  0  0  0
  4 91  1  0  0  0
  5  6  1  0  0  0
  5 26  1  0  0  0
  5 92  1  0  0  0
  6 25  1  0  0  0
  6 93  1  0  0  0
  6 94  1  0  0  0
  7  8  2  0  0  0
  7 26  1  0  0  0
  7 29  1  0  0  0
  8  9  1  0  0  0
  8 22  1  0  0  0
  9 10  1  0  0  0
  9 27  2  0  0  0
 10 11  2  0  0  0
 10 15  1  0  0  0
 11 12  1  0  0  0
 11 95  1  0  0  0
 12 13  2  0  0  0
 12 96  1  0  0  0
 13 14  1  0  0  0
 13 31  1  0  0  0
 14 15  2  0  0  0
 14 97  1  0  0  0
 15 98  1  0  0  0
 16 17  2  0  0  0
 16 21  1  0  0  0
 16 31  1  0  0  0
 17 18  1  0  0  0
 17 99  1  0  0  0
 18 19  2  0  0  0
 18100  1  0  0  0
 19 20  1  0  0  0
 19 24  1  0  0  0
 20 21  2  0  0  0
 20101  1  0  0  0
 21 23  1  0  0  0
 22 28  1  0  0  0
 22 32  2  0  0  0
 26 27  1  0  0  0
 28102  1  0  0  0
 28103  1  0  0  0
 29104  1  0  0  0
 29105  1  0  0  0
 33 34  1  0  0  0
 33 66  1  0  0  0
 33 70  2  0  0  0
 34 36  1  0  0  0
 34 59  1  0  0  0
 34106  1  0  0  0
 35 44  2  0  0  0
 35 45  1  0  0  0
 35 68  1  0  0  0
 36 56  1  0  0  0
 36107  1  0  0  0
 37 39  1  0  0  0
 37 47  1  0  0  0
 37 66  1  0  0  0
 37108  1  0  0  0
 38 43  2  0  0  0
 38 46  1  0  0  0
 38 47  1  0  0  0
 39 64  1  0  0  0
 39 67  2  0  0  0
 40 52  1  0  0  0
 40 53  2  0  0  0
 40 58  1  0  0  0
 41109  1  0  0  0
 41110  1  0  0  0
 41111  1  0  0  0
 41 48  1  0  0  0
 42 43  1  0  0  0
 42 66  1  0  0  0
 42112  1  0  0  0
 42113  1  0  0  0
 43 44  1  0  0  0
 44114  1  0  0  0
 45 46  2  0  0  0
 45115  1  0  0  0
 46116  1  0  0  0
 47117  1  0  0  0
 47118  1  0  0  0
 48 56  1  0  0  0
 48 65  1  0  0  0
 48119  1  0  0  0
 49 50  1  0  0  0
 49 53  1  0  0  0
 49 64  1  0  0  0
 49120  1  0  0  0
 50 51  1  0  0  0
 50121  1  0  0  0
 50122  1  0  0  0
 51 52  1  0  0  0
 51123  1  0  0  0
 51124  1  0  0  0
 52125  1  0  0  0
 52126  1  0  0  0
 53 54  1  0  0  0
 54 55  2  0  0  0
 54127  1  0  0  0
 55 57  1  0  0  0
 55128  1  0  0  0
 56 69  2  0  0  0
 57 58  2  0  0  0
 57129  1  0  0  0
 58130  1  0  0  0
 59 60  1  0  0  0
 59 61  1  0  0  0
 59 62  1  0  0  0
 60131  1  0  0  0
 60132  1  0  0  0
 60133  1  0  0  0
 61134  1  0  0  0
 61135  1  0  0  0
 61136  1  0  0  0
 62137  1  0  0  0
 62138  1  0  0  0
 62139  1  0  0  0
 63 65  1  0  0  0
 63140  1  0  0  0
 63141  1  0  0  0
 63142  1  0  0  0
 64143  1  0  0  0
 65144  1  0  0  0
 68 82  1  0  0  0
 71 73  2  0  0  0
 71 75  1  0  0  0
 71145  1  0  0  0
 72 74  1  0  0  0
 72 75  2  0  0  0
 72146  1  0  0  0
 73 76  1  0  0  0
 73147  1  0  0  0
 74 76  2  0  0  0
 74148  1  0  0  0
 75 81  1  0  0  0
 76 83  1  0  0  0
 77 78  1  0  0  0
 77 83  1  0  0  0
 77 85  2  0  0  0
 78 79  1  0  0  0
 78149  1  0  0  0
 78150  1  0  0  0
 79 80  1  0  0  0
 79151  1  0  0  0
 79152  1  0  0  0
 80 82  1  0  0  0
 80 83  1  0  0  0
 80153  1  0  0  0
 81 84  1  0  0  0
 81154  1  0  0  0
 81155  1  0  0  0
 82156  1  0  0  0
 82157  1  0  0  0
 84158  1  0  0  0
M  ISO  4   1 100  68 101  82 101  84 100
M  END
> <chiral flag>
0

> <version>
0

> <s_m_source_file>
/data/baiqing/PycharmProjects/Reinvent-master-3.2/result/LINK_invent/BTK/process_docking_weight1_custom_product_contain_oxygen_bond_distance_aromatic_linkinvent_7_9_3/rearranged_h_0097.sdf

> <i_m_source_file_index>
68

> <r_mmod_Potential_Energy-OPLS-2005>
200.177627563477

> <r_mmod_Stretch_Energy-OPLS-2005>
93.7256851196289

> <r_mmod_Bend_Energy-OPLS-2005>
198.210494995117

> <r_mmod_Torsional_Energy-OPLS-2005>
300.895935058594

> <r_mmod_Improper_Torsional_Energy-OPLS-2005>
10.1942958831787

> <r_mmod_Van_der_Waal_Energy-OPLS-2005>
142.989303588867

> <r_mmod_Electrostatic_Energy-OPLS-2005>
-393.434478759766

> <r_mmod_Solvation_Energy-OPLS-2005>
-224.472412109375

> <b_mmod_Minimization_Converged-OPLS-2005>
0

> <r_mmod_RMS_Derivative-OPLS-2005>
8.20101070404053

$$$$
68
                    3D
 Structure written by MMmdl.
163172  0  0  1  0            999 V2000
  -28.5832  -16.2661   20.7956 C   0  0  0  0  0  0
  -29.9495  -13.8667   19.7360 C   0  0  0  0  0  0
  -29.4565  -12.9387   18.5378 C   0  0  0  0  0  0
  -28.1344  -12.2465   18.8802 C   0  0  0  0  0  0
  -27.3895  -13.2133   19.8024 C   0  0  2  0  0  0
  -28.1455  -13.6200   21.0565 C   0  0  0  0  0  0
  -25.1266  -13.7826   20.5437 C   0  0  0  0  0  0
  -24.0863  -13.0112   20.9331 C   0  0  0  0  0  0
  -24.5571  -11.6610   20.8851 C   0  0  0  0  0  0
  -23.8519  -10.4066   21.0588 C   0  0  0  0  0  0
  -24.3306   -9.4070   21.9302 C   0  0  0  0  0  0
  -23.6117   -8.2056   22.0786 C   0  0  0  0  0  0
  -22.4116   -8.0081   21.3553 C   0  0  0  0  0  0
  -21.9635   -8.9995   20.4665 C   0  0  0  0  0  0
  -22.6812  -10.1919   20.3132 C   0  0  0  0  0  0
  -21.6778   -6.0620   22.5301 C   0  0  0  0  0  0
  -21.3951   -6.5574   23.8216 C   0  0  0  0  0  0
  -21.3634   -5.6757   24.9195 C   0  0  0  0  0  0
  -21.6046   -4.3021   24.7265 C   0  0  0  0  0  0
  -21.8831   -3.8083   23.4398 C   0  0  0  0  0  0
  -21.9173   -4.6869   22.3438 C   0  0  0  0  0  0
  -22.7070  -13.5057   21.2111 C   0  0  0  0  0  0
  -22.1661   -4.2060   21.1015 F   0  0  0  0  0  0
  -21.5637   -3.4523   25.7790 F   0  0  0  0  0  0
  -28.8254  -14.7534   20.5128 N   0  0  0  0  0  0
  -26.1131  -12.8741   20.2420 N   0  0  0  0  0  0
  -25.8266  -11.6015   20.5391 N   0  0  0  0  0  0
  -21.9775  -12.8133   22.0732 N   0  0  0  0  0  0
  -25.3074  -15.1582   20.3966 N   0  0  0  0  0  0
  -29.8673  -16.4324   20.6141 O   0  0  0  0  0  0
  -21.6531   -6.8685   21.4233 O   0  0  0  0  0  0
  -22.2918  -14.5435   20.6971 O   0  0  0  0  0  0
  -24.6622  -31.9687   23.2365 C   0  0  0  0  0  0
  -25.9612  -32.5170   23.8737 C   0  0  1  0  0  0
  -26.0377  -27.2523   20.3603 C   0  0  0  0  0  0
  -25.6520  -33.8920   24.2690 N   0  0  0  0  0  0
  -23.4479  -30.6850   21.5563 C   0  0  2  0  0  0
  -24.8784  -29.4359   19.7597 C   0  0  0  0  0  0
  -22.9861  -29.5988   22.5784 C   0  0  0  0  0  0
  -19.1988  -26.7717   22.4223 C   0  0  0  0  0  0
  -24.1529  -36.7361   23.2580 C   0  0  0  0  0  0
  -25.9976  -30.8486   21.4588 C   0  0  0  0  0  0
  -25.9173  -29.5620   20.6772 C   0  0  0  0  0  0
  -26.6972  -28.4130   20.8832 C   0  0  0  0  0  0
  -25.8580  -27.3124   19.0123 C   0  0  0  0  0  0
  -24.9777  -28.3868   18.7812 C   0  0  0  0  0  0
  -23.6768  -30.3300   20.0366 C   0  0  0  0  0  0
  -25.4144  -36.3247   24.0329 C   0  0  1  0  0  0
  -21.3112  -28.0220   23.4548 C   0  0  2  0  0  0
  -22.3721  -26.7260   23.0216 C   0  0  0  0  0  0
  -22.3657  -25.4707   21.7543 C   0  0  0  0  0  0
  -20.8575  -25.1990   21.0211 C   0  0  0  0  0  0
  -19.7527  -27.9402   23.2843 C   0  0  0  0  0  0
  -19.1674  -29.2073   23.8119 C   0  0  0  0  0  0
  -17.8414  -29.6195   23.6881 C   0  0  0  0  0  0
  -25.9189  -34.9653   23.5181 C   0  0  0  0  0  0
  -17.1141  -28.6265   23.0129 C   0  0  0  0  0  0
  -17.7391  -27.3763   22.4332 C   0  0  0  0  0  0
  -26.4639  -31.6711   25.1038 C   0  0  0  0  0  0
  -25.3718  -31.3857   26.1587 C   0  0  0  0  0  0
  -27.0454  -30.3088   24.6604 C   0  0  0  0  0  0
  -27.6210  -32.4288   25.7965 C   0  0  0  0  0  0
  -27.5625  -37.1876   24.8443 C   0  0  0  0  0  0
  -21.7143  -29.2813   22.7553 N   0  0  0  0  0  0
  -26.4299  -37.3940   23.9455 N   0  0  0  0  0  0
  -24.7151  -31.2336   22.0999 N   0  0  0  0  0  0
  -23.8012  -29.1049   23.3506 O   0  0  0  0  0  0
  -24.6677  -27.0322   20.8390 O   0  0  0  0  0  0
  -26.5483  -34.9021   22.4587 O   0  0  0  0  0  0
  -23.5821  -32.2442   23.7795 O   0  0  0  0  0  0
  -25.2255  -20.1167   22.3659 C   0  0  0  0  0  0
  -24.1996  -19.3290   20.8905 C   0  0  0  0  0  0
  -24.0084  -21.2568   22.6520 C   0  0  0  0  0  0
  -22.5605  -21.7279   22.0828 C   0  0  0  0  0  0
  -25.6590  -18.8485   21.4359 C   0  0  0  0  0  0
  -22.9641  -20.4648   21.1308 C   0  0  0  0  0  0
  -19.5845  -23.1606   21.6901 C   0  0  0  0  0  0
  -18.6292  -24.6417   20.7726 C   0  0  0  0  0  0
  -19.3045  -26.5022   20.0295 C   0  0  0  0  0  0
  -20.6276  -24.9856   23.1545 C   0  0  0  0  0  0
  -20.9847  -27.3063   21.0887 C   0  0  1  0  0  0
  -24.3565  -22.1037   23.8634 C   0  0  0  0  0  0
  -22.9048  -27.4067   20.3500 C   0  0  0  0  0  0
  -21.0135  -23.1358   22.3808 N   0  0  0  0  0  0
  -21.9556  -20.2765   20.1832 N   0  0  0  0  0  0
  -27.3135  -17.5614   21.1711 N   0  0  0  0  0  0
  -18.9945  -22.0799   21.6165 O   0  0  0  0  0  0
  -30.6770  -14.5507   19.2974 H   0  0  0  0  0  0
  -30.5445  -13.2911   20.4474 H   0  0  0  0  0  0
  -30.2233  -12.2153   18.2548 H   0  0  0  0  0  0
  -29.2951  -13.5683   17.6625 H   0  0  0  0  0  0
  -28.3340  -11.3136   19.4094 H   0  0  0  0  0  0
  -27.5626  -11.9982   17.9854 H   0  0  0  0  0  0
  -27.1925  -14.0576   19.1320 H   0  0  0  0  0  0
  -28.7467  -12.8180   21.4936 H   0  0  0  0  0  0
  -27.5005  -13.9861   21.8597 H   0  0  0  0  0  0
  -25.2448   -9.5644   22.4855 H   0  0  0  0  0  0
  -23.9876   -7.4434   22.7472 H   0  0  0  0  0  0
  -21.0578   -8.8443   19.8959 H   0  0  0  0  0  0
  -22.3264  -10.9469   19.6256 H   0  0  0  0  0  0
  -21.1921   -7.6080   23.9691 H   0  0  0  0  0  0
  -21.1448   -6.0497   25.9095 H   0  0  0  0  0  0
  -22.0637   -2.7542   23.2932 H   0  0  0  0  0  0
  -22.3369  -11.9765   22.5077 H   0  0  0  0  0  0
  -21.0441  -13.1243   22.3032 H   0  0  0  0  0  0
  -24.5530  -15.8081   20.5888 H   0  0  0  0  0  0
  -26.1156  -15.6120   19.9982 H   0  0  0  0  0  0
  -26.7740  -32.5673   23.1516 H   0  0  0  0  0  0
  -25.0911  -34.0123   25.1003 H   0  0  0  0  0  0
  -22.6844  -31.4667   21.5656 H   0  0  0  0  0  0
  -23.3851  -35.9630   23.3189 H   0  0  0  0  0  0
  -24.3651  -36.9019   22.2004 H   0  0  0  0  0  0
  -23.7197  -37.6524   23.6599 H   0  0  0  0  0  0
  -26.2981  -31.6518   20.7829 H   0  0  0  0  0  0
  -26.8195  -30.7176   22.1469 H   0  0  0  0  0  0
  -27.4045  -28.3574   21.6986 H   0  0  0  0  0  0
  -25.7137  -26.4232   18.4129 H   0  0  0  0  0  0
  -24.2841  -28.3272   17.9550 H   0  0  0  0  0  0
  -23.9512  -31.2691   19.5530 H   0  0  0  0  0  0
  -22.7516  -30.1154   19.5095 H   0  0  0  0  0  0
  -25.1272  -36.2102   25.0806 H   0  0  0  0  0  0
  -21.4851  -28.1945   24.5192 H   0  0  0  0  0  0
  -22.6080  -26.2720   23.9812 H   0  0  0  0  0  0
  -23.4024  -27.0132   22.9017 H   0  0  0  0  0  0
  -22.7800  -24.6335   22.3143 H   0  0  0  0  0  0
  -23.2071  -25.2803   21.0924 H   0  0  0  0  0  0
  -21.2674  -25.4425   20.0195 H   0  0  0  0  0  0
  -20.8112  -24.4032   20.2571 H   0  0  0  0  0  0
  -19.8155  -29.8959   24.3396 H   0  0  0  0  0  0
  -17.4328  -30.5426   24.0748 H   0  0  0  0  0  0
  -16.0584  -28.7954   22.8454 H   0  0  0  0  0  0
  -17.0343  -26.8211   21.8337 H   0  0  0  0  0  0
  -24.5862  -30.7347   25.7713 H   0  0  0  0  0  0
  -24.8960  -32.3033   26.5052 H   0  0  0  0  0  0
  -25.7847  -30.8871   27.0358 H   0  0  0  0  0  0
  -26.3076  -29.6906   24.1468 H   0  0  0  0  0  0
  -27.3847  -29.7303   25.5201 H   0  0  0  0  0  0
  -27.9136  -30.4277   24.0122 H   0  0  0  0  0  0
  -27.2857  -33.3534   26.2676 H   0  0  0  0  0  0
  -28.4081  -32.6905   25.0887 H   0  0  0  0  0  0
  -28.0805  -31.8275   26.5813 H   0  0  0  0  0  0
  -28.2536  -38.0282   24.7691 H   0  0  0  0  0  0
  -28.1247  -36.2837   24.6024 H   0  0  0  0  0  0
  -27.2379  -37.1218   25.8843 H   0  0  0  0  0  0
  -21.0023  -29.7632   22.2248 H   0  0  0  0  0  0
  -26.0177  -38.2997   24.1556 H   0  0  0  0  0  0
  -26.0276  -20.2761   23.0704 H   0  0  0  0  0  0
  -23.9512  -18.6899   20.0536 H   0  0  0  0  0  0
  -17.7604  -24.8127   21.4064 H   0  0  0  0  0  0
  -18.1846  -24.1569   19.9018 H   0  0  0  0  0  0
  -18.4918  -27.2272   19.9628 H   0  0  0  0  0  0
  -19.5844  -26.3824   18.9807 H   0  0  0  0  0  0
  -19.6168  -24.8383   23.5577 H   0  0  0  0  0  0
  -21.1224  -25.0145   24.1212 H   0  0  0  0  0  0
  -20.5663  -28.3130   21.0612 H   0  0  0  0  0  0
  -24.9029  -21.5216   24.6080 H   0  0  0  0  0  0
  -23.4562  -22.4751   24.3546 H   0  0  0  0  0  0
  -24.9680  -22.9589   23.5778 H   0  0  0  0  0  0
  -22.7524  -28.1782   19.6407 H   0  0  0  0  0  0
  -22.8819  -26.6677   19.5490 H   0  0  0  0  0  0
  -22.1488  -19.7179   19.3554 H   0  0  0  0  0  0
  -21.3093  -21.0362   19.9995 H   0  0  0  0  0  0
  -28.0399  -18.2138   21.4354 H   0  0  0  0  0  0
  1 25  1  0  0  0
  1 30  2  0  0  0
  1 86  1  0  0  0
  2  3  1  0  0  0
  2 25  1  0  0  0
  2 88  1  0  0  0
  2 89  1  0  0  0
  3  4  1  0  0  0
  3 90  1  0  0  0
  3 91  1  0  0  0
  4  5  1  0  0  0
  4 92  1  0  0  0
  4 93  1  0  0  0
  5  6  1  0  0  0
  5 26  1  0  0  0
  5 94  1  0  0  0
  6 25  1  0  0  0
  6 95  1  0  0  0
  6 96  1  0  0  0
  7  8  2  0  0  0
  7 26  1  0  0  0
  7 29  1  0  0  0
  8  9  1  0  0  0
  8 22  1  0  0  0
  9 10  1  0  0  0
  9 27  2  0  0  0
 10 11  2  0  0  0
 10 15  1  0  0  0
 11 12  1  0  0  0
 11 97  1  0  0  0
 12 13  2  0  0  0
 12 98  1  0  0  0
 13 14  1  0  0  0
 13 31  1  0  0  0
 14 15  2  0  0  0
 14 99  1  0  0  0
 15100  1  0  0  0
 16 17  2  0  0  0
 16 21  1  0  0  0
 16 31  1  0  0  0
 17 18  1  0  0  0
 17101  1  0  0  0
 18 19  2  0  0  0
 18102  1  0  0  0
 19 20  1  0  0  0
 19 24  1  0  0  0
 20 21  2  0  0  0
 20103  1  0  0  0
 21 23  1  0  0  0
 22 28  1  0  0  0
 22 32  2  0  0  0
 26 27  1  0  0  0
 28104  1  0  0  0
 28105  1  0  0  0
 29106  1  0  0  0
 29107  1  0  0  0
 33 34  1  0  0  0
 33 66  1  0  0  0
 33 70  2  0  0  0
 34 36  1  0  0  0
 34 59  1  0  0  0
 34108  1  0  0  0
 35 44  2  0  0  0
 35 45  1  0  0  0
 35 68  1  0  0  0
 36 56  1  0  0  0
 36109  1  0  0  0
 37 39  1  0  0  0
 37 47  1  0  0  0
 37 66  1  0  0  0
 37110  1  0  0  0
 38 43  2  0  0  0
 38 46  1  0  0  0
 38 47  1  0  0  0
 39 64  1  0  0  0
 39 67  2  0  0  0
 40 52  1  0  0  0
 40 53  2  0  0  0
 40 58  1  0  0  0
 41111  1  0  0  0
 41112  1  0  0  0
 41113  1  0  0  0
 41 48  1  0  0  0
 42 43  1  0  0  0
 42 66  1  0  0  0
 42114  1  0  0  0
 42115  1  0  0  0
 43 44  1  0  0  0
 44116  1  0  0  0
 45 46  2  0  0  0
 45117  1  0  0  0
 46118  1  0  0  0
 47119  1  0  0  0
 47120  1  0  0  0
 48 56  1  0  0  0
 48 65  1  0  0  0
 48121  1  0  0  0
 49 50  1  0  0  0
 49 53  1  0  0  0
 49 64  1  0  0  0
 49122  1  0  0  0
 50 51  1  0  0  0
 50123  1  0  0  0
 50124  1  0  0  0
 51 52  1  0  0  0
 51125  1  0  0  0
 51126  1  0  0  0
 52127  1  0  0  0
 52128  1  0  0  0
 53 54  1  0  0  0
 54 55  2  0  0  0
 54129  1  0  0  0
 55 57  1  0  0  0
 55130  1  0  0  0
 56 69  2  0  0  0
 57 58  2  0  0  0
 57131  1  0  0  0
 58132  1  0  0  0
 59 60  1  0  0  0
 59 61  1  0  0  0
 59 62  1  0  0  0
 60133  1  0  0  0
 60134  1  0  0  0
 60135  1  0  0  0
 61136  1  0  0  0
 61137  1  0  0  0
 61138  1  0  0  0
 62139  1  0  0  0
 62140  1  0  0  0
 62141  1  0  0  0
 63 65  1  0  0  0
 63142  1  0  0  0
 63143  1  0  0  0
 63144  1  0  0  0
 64145  1  0  0  0
 65146  1  0  0  0
 68 83  1  0  0  0
 71 73  2  0  0  0
 71 75  1  0  0  0
 71147  1  0  0  0
 72 75  2  0  0  0
 72 76  1  0  0  0
 72148  1  0  0  0
 73 74  1  0  0  0
 73 82  1  0  0  0
 74 76  2  0  0  0
 74 84  1  0  0  0
 75 86  1  0  0  0
 76 85  1  0  0  0
 77 78  1  0  0  0
 77 84  1  0  0  0
 77 87  2  0  0  0
 78 79  1  0  0  0
 78149  1  0  0  0
 78150  1  0  0  0
 79 81  1  0  0  0
 79151  1  0  0  0
 79152  1  0  0  0
 80 81  1  0  0  0
 80 84  1  0  0  0
 80153  1  0  0  0
 80154  1  0  0  0
 81 83  1  0  0  0
 81155  1  0  0  0
 82156  1  0  0  0
 82157  1  0  0  0
 82158  1  0  0  0
 83159  1  0  0  0
 83160  1  0  0  0
 85161  1  0  0  0
 85162  1  0  0  0
 86163  1  0  0  0
M  ISO  4   1 100  68 101  83 101  86 100
M  END
> <chiral flag>
0

> <version>
0

> <s_m_source_file>
/data/baiqing/PycharmProjects/Reinvent-master-3.2/result/LINK_invent/BTK/process_docking_weight1_custom_product_contain_oxygen_bond_distance_aromatic_linkinvent_7_9_3/rearranged_h_0097.sdf

> <i_m_source_file_index>
69

> <r_mmod_Potential_Energy-OPLS-2005>
23758.5234375

> <r_mmod_Stretch_Energy-OPLS-2005>
10346.81640625

> <r_mmod_Bend_Energy-OPLS-2005>
2471.27734375

> <r_mmod_Torsional_Energy-OPLS-2005>
635.266052246094

> <r_mmod_Improper_Torsional_Energy-OPLS-2005>
50.1766166687012

> <r_mmod_Van_der_Waal_Energy-OPLS-2005>
2875.69873046875

> <r_mmod_Electrostatic_Energy-OPLS-2005>
-373.844604492188

> <r_mmod_Solvation_Energy-OPLS-2005>
-223.415191650391

> <b_mmod_Minimization_Converged-OPLS-2005>
0

> <r_mmod_RMS_Derivative-OPLS-2005>
7.46153163909912

$$$$
69
                    3D
 Structure written by MMmdl.
160169  0  0  1  0            999 V2000
  -30.7271  -14.5238   20.5948 C   0  0  0  0  0  0
  -30.4143  -12.3582   19.4388 C   0  0  0  0  0  0
  -29.4975  -12.5050   18.2078 C   0  0  0  0  0  0
  -28.0165  -12.3602   18.6097 C   0  0  0  0  0  0
  -27.6429  -13.2243   19.8468 C   0  0  2  0  0  0
  -28.6837  -13.0786   20.9785 C   0  0  0  0  0  0
  -25.2480  -13.8188   20.5640 C   0  0  0  0  0  0
  -24.1787  -13.0432   20.9192 C   0  0  0  0  0  0
  -24.6365  -11.6915   20.8711 C   0  0  0  0  0  0
  -23.9052  -10.4288   21.0382 C   0  0  0  0  0  0
  -24.3613   -9.4208   21.9145 C   0  0  0  0  0  0
  -23.6286   -8.2239   22.0716 C   0  0  0  0  0  0
  -22.4255   -8.0272   21.3537 C   0  0  0  0  0  0
  -21.9914   -9.0239   20.4634 C   0  0  0  0  0  0
  -22.7233  -10.2118   20.3037 C   0  0  0  0  0  0
  -21.6845   -6.0733   22.5274 C   0  0  0  0  0  0
  -21.4010   -6.5618   23.8216 C   0  0  0  0  0  0
  -21.3683   -5.6766   24.9173 C   0  0  0  0  0  0
  -21.6059   -4.3032   24.7199 C   0  0  0  0  0  0
  -21.8815   -3.8139   23.4310 C   0  0  0  0  0  0
  -21.9206   -4.6972   22.3392 C   0  0  0  0  0  0
  -22.7813  -13.5230   21.1865 C   0  0  0  0  0  0
  -22.1657   -4.2161   21.0963 F   0  0  0  0  0  0
  -21.5653   -3.4525   25.7711 F   0  0  0  0  0  0
  -30.0031  -13.3854   20.4074 N   0  0  0  0  0  0
  -26.2904  -12.9389   20.3203 N   0  0  0  0  0  0
  -25.9268  -11.6530   20.5656 N   0  0  0  0  0  0
  -22.0445  -12.8232   22.0414 N   0  0  0  0  0  0
  -25.4169  -15.1910   20.4064 N   0  0  0  0  0  0
  -31.9038  -14.5939   20.2172 O   0  0  0  0  0  0
  -21.6639   -6.8860   21.4218 O   0  0  0  0  0  0
  -22.3525  -14.5552   20.6721 O   0  0  0  0  0  0
  -24.6121  -31.8744   23.2077 C   0  0  0  0  0  0
  -25.9036  -32.4839   23.8370 C   0  0  1  0  0  0
  -27.2454  -27.4244   20.1206 C   0  0  0  0  0  0
  -25.5940  -33.8612   24.2333 N   0  0  0  0  0  0
  -23.4042  -30.4910   21.5483 C   0  0  2  0  0  0
  -24.8613  -28.9521   20.1179 C   0  0  0  0  0  0
  -22.7419  -29.4690   22.5004 C   0  0  0  0  0  0
  -18.0305  -28.1366   22.8578 C   0  0  0  0  0  0
  -24.1490  -36.7301   23.2641 C   0  0  0  0  0  0
  -25.9300  -30.8351   21.3653 C   0  0  0  0  0  0
  -26.0159  -29.4635   20.7228 C   0  0  0  0  0  0
  -27.2111  -28.7013   20.7308 C   0  0  0  0  0  0
  -26.0775  -26.9323   19.5027 C   0  0  0  0  0  0
  -24.8863  -27.6846   19.5076 C   0  0  0  0  0  0
  -23.6204  -29.8176   20.1630 C   0  0  0  0  0  0
  -25.4116  -36.3115   24.0357 C   0  0  1  0  0  0
  -20.5887  -28.3682   23.1330 C   0  0  2  0  0  0
  -20.6759  -26.9417   22.5433 C   0  0  0  0  0  0
  -19.5717  -26.6416   21.5222 C   0  0  0  0  0  0
  -18.1927  -26.7927   22.1670 C   0  0  0  0  0  0
  -19.1551  -28.8844   23.2966 C   0  0  0  0  0  0
  -18.9456  -30.1468   23.8942 C   0  0  0  0  0  0
  -17.6447  -30.6581   24.0589 C   0  0  0  0  0  0
  -25.9051  -34.9471   23.5128 C   0  0  0  0  0  0
  -16.5356  -29.9072   23.6334 C   0  0  0  0  0  0
  -16.7292  -28.6485   23.0378 C   0  0  0  0  0  0
  -26.4454  -31.6602   25.0688 C   0  0  0  0  0  0
  -25.3709  -31.3714   26.1445 C   0  0  0  0  0  0
  -27.0275  -30.3042   24.6063 C   0  0  0  0  0  0
  -27.6053  -32.4296   25.7450 C   0  0  0  0  0  0
  -27.5609  -37.1799   24.8481 C   0  0  0  0  0  0
  -21.4138  -29.3046   22.3699 N   0  0  0  0  0  0
  -26.4302  -37.3800   23.9443 N   0  0  0  0  0  0
  -24.6652  -31.0817   22.0998 N   0  0  0  0  0  0
  -23.4214  -28.8270   23.3061 O   0  0  0  0  0  0
  -28.3703  -26.6275   20.1216 O   0  0  0  0  0  0
  -26.5577  -34.8910   22.4673 O   0  0  0  0  0  0
  -23.5316  -32.1537   23.7473 O   0  0  0  0  0  0
  -30.1479  -19.0698   22.3190 C   0  0  0  0  0  0
  -29.7740  -20.0621   19.7331 C   0  0  0  0  0  0
  -30.1479  -18.1423   21.2515 C   0  0  0  0  0  0
  -29.9179  -18.6560   19.9408 C   0  0  0  0  0  0
  -29.7967  -20.9814   20.8149 C   0  0  0  0  0  0
  -29.9752  -20.4552   22.1176 C   0  0  0  0  0  0
  -28.9393  -23.2637   21.2838 C   0  0  0  0  0  0
  -30.6558  -16.7298   21.5343 C   0  0  0  0  0  0
  -30.6323  -24.6388   20.2576 C   0  0  0  0  0  0
  -30.7751  -23.1447   19.8714 C   0  0  0  0  0  0
  -29.5276  -24.6809   21.3189 C   0  0  1  0  0  0
  -29.8893  -17.7292   18.7337 C   0  0  0  0  0  0
  -28.5563  -25.9089   21.3524 C   0  0  0  0  0  0
  -29.7418  -22.4111   20.6107 N   0  0  0  0  0  0
  -30.0605  -15.6380   20.9954 N   0  0  0  0  0  0
  -27.8769  -22.9713   21.8386 O   0  0  0  0  0  0
  -31.6205  -16.6329   22.3026 O   0  0  0  0  0  0
  -30.0886  -21.2881   23.1814 F   0  0  0  0  0  0
  -31.4602  -12.4548   19.1411 H   0  0  0  0  0  0
  -30.3222  -11.3650   19.8790 H   0  0  0  0  0  0
  -29.7547  -11.7580   17.4561 H   0  0  0  0  0  0
  -29.6624  -13.4800   17.7432 H   0  0  0  0  0  0
  -27.8346  -11.3069   18.8182 H   0  0  0  0  0  0
  -27.3777  -12.6178   17.7627 H   0  0  0  0  0  0
  -27.6628  -14.2619   19.5067 H   0  0  0  0  0  0
  -28.6726  -12.0643   21.3805 H   0  0  0  0  0  0
  -28.4331  -13.7349   21.8131 H   0  0  0  0  0  0
  -25.2752   -9.5707   22.4718 H   0  0  0  0  0  0
  -24.0022   -7.4638   22.7436 H   0  0  0  0  0  0
  -21.0846   -8.8759   19.8935 H   0  0  0  0  0  0
  -22.3688  -10.9638   19.6154 H   0  0  0  0  0  0
  -21.1971   -7.6134   23.9717 H   0  0  0  0  0  0
  -21.1519   -6.0494   25.9085 H   0  0  0  0  0  0
  -22.0585   -2.7602   23.2800 H   0  0  0  0  0  0
  -22.4078  -11.9932   22.4847 H   0  0  0  0  0  0
  -21.1058  -13.1259   22.2579 H   0  0  0  0  0  0
  -24.6418  -15.8345   20.5108 H   0  0  0  0  0  0
  -26.2524  -15.6326   20.0445 H   0  0  0  0  0  0
  -26.7138  -32.5572   23.1165 H   0  0  0  0  0  0
  -25.0029  -33.9771   25.0444 H   0  0  0  0  0  0
  -22.6958  -31.3091   21.4020 H   0  0  0  0  0  0
  -23.3719  -35.9673   23.3341 H   0  0  0  0  0  0
  -24.3567  -36.8844   22.2044 H   0  0  0  0  0  0
  -23.7242  -37.6519   23.6606 H   0  0  0  0  0  0
  -26.0403  -31.5945   20.5883 H   0  0  0  0  0  0
  -26.8161  -30.8962   21.9839 H   0  0  0  0  0  0
  -28.0994  -29.0861   21.2090 H   0  0  0  0  0  0
  -26.0916  -25.9603   19.0289 H   0  0  0  0  0  0
  -23.9993  -27.2802   19.0393 H   0  0  0  0  0  0
  -23.7299  -30.5898   19.3999 H   0  0  0  0  0  0
  -22.7444  -29.2382   19.8648 H   0  0  0  0  0  0
  -25.1273  -36.1997   25.0849 H   0  0  0  0  0  0
  -21.0055  -28.3225   24.1407 H   0  0  0  0  0  0
  -20.5639  -26.2276   23.3616 H   0  0  0  0  0  0
  -21.6622  -26.7431   22.1225 H   0  0  0  0  0  0
  -19.6843  -25.6318   21.1249 H   0  0  0  0  0  0
  -19.6606  -27.3196   20.6714 H   0  0  0  0  0  0
  -17.4200  -26.6782   21.4073 H   0  0  0  0  0  0
  -18.0319  -25.9995   22.8983 H   0  0  0  0  0  0
  -19.7918  -30.7326   24.2297 H   0  0  0  0  0  0
  -17.4977  -31.6245   24.5179 H   0  0  0  0  0  0
  -15.5342  -30.2977   23.7571 H   0  0  0  0  0  0
  -15.8726  -28.0784   22.7056 H   0  0  0  0  0  0
  -24.5917  -30.7034   25.7776 H   0  0  0  0  0  0
  -24.8853  -32.2841   26.4883 H   0  0  0  0  0  0
  -25.8063  -30.8914   27.0208 H   0  0  0  0  0  0
  -26.2802  -29.6831   24.1112 H   0  0  0  0  0  0
  -27.3992  -29.7287   25.4541 H   0  0  0  0  0  0
  -27.8670  -30.4331   23.9224 H   0  0  0  0  0  0
  -27.2721  -33.3592   26.2067 H   0  0  0  0  0  0
  -28.3840  -32.6853   25.0260 H   0  0  0  0  0  0
  -28.0738  -31.8379   26.5322 H   0  0  0  0  0  0
  -28.2619  -38.0099   24.7512 H   0  0  0  0  0  0
  -28.1079  -36.2604   24.6301 H   0  0  0  0  0  0
  -27.2314  -37.1471   25.8877 H   0  0  0  0  0  0
  -20.9300  -29.8771   21.6914 H   0  0  0  0  0  0
  -26.0187  -38.2890   24.1384 H   0  0  0  0  0  0
  -30.3683  -18.7214   23.3184 H   0  0  0  0  0  0
  -29.6795  -20.4456   18.7260 H   0  0  0  0  0  0
  -30.3903  -25.2526   19.3900 H   0  0  0  0  0  0
  -31.5709  -25.0300   20.6629 H   0  0  0  0  0  0
  -31.7628  -22.7758   20.1493 H   0  0  0  0  0  0
  -30.6619  -23.0006   18.7935 H   0  0  0  0  0  0
  -30.0349  -24.6876   22.2863 H   0  0  0  0  0  0
  -29.6964  -18.2667   17.8049 H   0  0  0  0  0  0
  -29.0923  -16.9935   18.8557 H   0  0  0  0  0  0
  -30.8360  -17.1952   18.6250 H   0  0  0  0  0  0
  -28.9484  -26.6179   22.0829 H   0  0  0  0  0  0
  -27.5888  -25.5905   21.7507 H   0  0  0  0  0  0
  -29.0811  -15.6974   20.7664 H   0  0  0  0  0  0
  1 25  1  0  0  0
  1 30  2  0  0  0
  1 85  1  0  0  0
  2  3  1  0  0  0
  2 25  1  0  0  0
  2 89  1  0  0  0
  2 90  1  0  0  0
  3  4  1  0  0  0
  3 91  1  0  0  0
  3 92  1  0  0  0
  4  5  1  0  0  0
  4 93  1  0  0  0
  4 94  1  0  0  0
  5  6  1  0  0  0
  5 26  1  0  0  0
  5 95  1  0  0  0
  6 25  1  0  0  0
  6 96  1  0  0  0
  6 97  1  0  0  0
  7  8  2  0  0  0
  7 26  1  0  0  0
  7 29  1  0  0  0
  8  9  1  0  0  0
  8 22  1  0  0  0
  9 10  1  0  0  0
  9 27  2  0  0  0
 10 11  2  0  0  0
 10 15  1  0  0  0
 11 12  1  0  0  0
 11 98  1  0  0  0
 12 13  2  0  0  0
 12 99  1  0  0  0
 13 14  1  0  0  0
 13 31  1  0  0  0
 14 15  2  0  0  0
 14100  1  0  0  0
 15101  1  0  0  0
 16 17  2  0  0  0
 16 21  1  0  0  0
 16 31  1  0  0  0
 17 18  1  0  0  0
 17102  1  0  0  0
 18 19  2  0  0  0
 18103  1  0  0  0
 19 20  1  0  0  0
 19 24  1  0  0  0
 20 21  2  0  0  0
 20104  1  0  0  0
 21 23  1  0  0  0
 22 28  1  0  0  0
 22 32  2  0  0  0
 26 27  1  0  0  0
 28105  1  0  0  0
 28106  1  0  0  0
 29107  1  0  0  0
 29108  1  0  0  0
 33 34  1  0  0  0
 33 66  1  0  0  0
 33 70  2  0  0  0
 34 36  1  0  0  0
 34 59  1  0  0  0
 34109  1  0  0  0
 35 44  2  0  0  0
 35 45  1  0  0  0
 35 68  1  0  0  0
 36 56  1  0  0  0
 36110  1  0  0  0
 37 39  1  0  0  0
 37 47  1  0  0  0
 37 66  1  0  0  0
 37111  1  0  0  0
 38 43  2  0  0  0
 38 46  1  0  0  0
 38 47  1  0  0  0
 39 64  1  0  0  0
 39 67  2  0  0  0
 40 52  1  0  0  0
 40 53  2  0  0  0
 40 58  1  0  0  0
 41112  1  0  0  0
 41113  1  0  0  0
 41114  1  0  0  0
 41 48  1  0  0  0
 42 43  1  0  0  0
 42 66  1  0  0  0
 42115  1  0  0  0
 42116  1  0  0  0
 43 44  1  0  0  0
 44117  1  0  0  0
 45 46  2  0  0  0
 45118  1  0  0  0
 46119  1  0  0  0
 47120  1  0  0  0
 47121  1  0  0  0
 48 56  1  0  0  0
 48 65  1  0  0  0
 48122  1  0  0  0
 49 50  1  0  0  0
 49 53  1  0  0  0
 49 64  1  0  0  0
 49123  1  0  0  0
 50 51  1  0  0  0
 50124  1  0  0  0
 50125  1  0  0  0
 51 52  1  0  0  0
 51126  1  0  0  0
 51127  1  0  0  0
 52128  1  0  0  0
 52129  1  0  0  0
 53 54  1  0  0  0
 54 55  2  0  0  0
 54130  1  0  0  0
 55 57  1  0  0  0
 55131  1  0  0  0
 56 69  2  0  0  0
 57 58  2  0  0  0
 57132  1  0  0  0
 58133  1  0  0  0
 59 60  1  0  0  0
 59 61  1  0  0  0
 59 62  1  0  0  0
 60134  1  0  0  0
 60135  1  0  0  0
 60136  1  0  0  0
 61137  1  0  0  0
 61138  1  0  0  0
 61139  1  0  0  0
 62140  1  0  0  0
 62141  1  0  0  0
 62142  1  0  0  0
 63 65  1  0  0  0
 63143  1  0  0  0
 63144  1  0  0  0
 63145  1  0  0  0
 64146  1  0  0  0
 65147  1  0  0  0
 68 83  1  0  0  0
 71 73  2  0  0  0
 71 76  1  0  0  0
 71148  1  0  0  0
 72 74  2  0  0  0
 72 75  1  0  0  0
 72149  1  0  0  0
 73 74  1  0  0  0
 73 78  1  0  0  0
 74 82  1  0  0  0
 75 76  2  0  0  0
 75 84  1  0  0  0
 76 88  1  0  0  0
 77 81  1  0  0  0
 77 84  1  0  0  0
 77 86  2  0  0  0
 78 85  1  0  0  0
 78 87  2  0  0  0
 79 80  1  0  0  0
 79 81  1  0  0  0
 79150  1  0  0  0
 79151  1  0  0  0
 80 84  1  0  0  0
 80152  1  0  0  0
 80153  1  0  0  0
 81 83  1  0  0  0
 81154  1  0  0  0
 82155  1  0  0  0
 82156  1  0  0  0
 82157  1  0  0  0
 83158  1  0  0  0
 83159  1  0  0  0
 85160  1  0  0  0
M  ISO  4   1 100  68 101  83 101  85 100
M  END
> <chiral flag>
0

> <version>
0

> <s_m_source_file>
/data/baiqing/PycharmProjects/Reinvent-master-3.2/result/LINK_invent/BTK/process_docking_weight1_custom_product_contain_oxygen_bond_distance_aromatic_linkinvent_7_9_3/rearranged_h_0097.sdf

> <i_m_source_file_index>
70

> <r_mmod_Potential_Energy-OPLS-2005>
61.4961166381836

> <r_mmod_Stretch_Energy-OPLS-2005>
46.4360656738281

> <r_mmod_Bend_Energy-OPLS-2005>
136.488952636719

> <r_mmod_Torsional_Energy-OPLS-2005>
371.960601806641

> <r_mmod_Improper_Torsional_Energy-OPLS-2005>
7.72868299484253

> <r_mmod_Van_der_Waal_Energy-OPLS-2005>
150.166534423828

> <r_mmod_Electrostatic_Energy-OPLS-2005>
-448.542205810547

> <r_mmod_Solvation_Energy-OPLS-2005>
-227.588394165039

> <b_mmod_Minimization_Converged-OPLS-2005>
0

> <r_mmod_RMS_Derivative-OPLS-2005>
6.48290109634399

$$$$
70
                    3D
 Structure written by MMmdl.
147155  0  0  1  0            999 V2000
  -30.4116  -15.2451   20.3775 C   0  0  0  0  0  0
  -30.4491  -12.7912   19.5254 C   0  0  0  0  0  0
  -29.5402  -12.5785   18.2869 C   0  0  0  0  0  0
  -28.0856  -12.3047   18.7105 C   0  0  0  0  0  0
  -27.6177  -13.2692   19.8282 C   0  0  2  0  0  0
  -28.6527  -13.4120   20.9649 C   0  0  0  0  0  0
  -25.2414  -13.8236   20.5729 C   0  0  0  0  0  0
  -24.1760  -13.0436   20.9258 C   0  0  0  0  0  0
  -24.6405  -11.6930   20.8761 C   0  0  0  0  0  0
  -23.9094  -10.4292   21.0407 C   0  0  0  0  0  0
  -24.3637   -9.4205   21.9186 C   0  0  0  0  0  0
  -23.6303   -8.2244   22.0755 C   0  0  0  0  0  0
  -22.4285   -8.0285   21.3545 C   0  0  0  0  0  0
  -21.9927   -9.0260   20.4646 C   0  0  0  0  0  0
  -22.7264  -10.2136   20.3056 C   0  0  0  0  0  0
  -21.6856   -6.0739   22.5279 C   0  0  0  0  0  0
  -21.4017   -6.5641   23.8213 C   0  0  0  0  0  0
  -21.3660   -5.6793   24.9174 C   0  0  0  0  0  0
  -21.6044   -4.3056   24.7224 C   0  0  0  0  0  0
  -21.8818   -3.8149   23.4345 C   0  0  0  0  0  0
  -21.9194   -4.6966   22.3402 C   0  0  0  0  0  0
  -22.7777  -13.5194   21.1902 C   0  0  0  0  0  0
  -22.1662   -4.2151   21.0979 F   0  0  0  0  0  0
  -21.5627   -3.4539   25.7737 F   0  0  0  0  0  0
  -29.8902  -13.9216   20.3507 N   0  0  0  0  0  0
  -26.2841  -12.9499   20.3215 N   0  0  0  0  0  0
  -25.9341  -11.6611   20.5719 N   0  0  0  0  0  0
  -22.0430  -12.8177   22.0453 N   0  0  0  0  0  0
  -25.4041  -15.1969   20.4129 N   0  0  0  0  0  0
  -31.6261  -15.3001   20.1328 O   0  0  0  0  0  0
  -21.6644   -6.8884   21.4242 O   0  0  0  0  0  0
  -22.3458  -14.5495   20.6739 O   0  0  0  0  0  0
  -24.6616  -31.8249   23.1724 C   0  0  0  0  0  0
  -25.9304  -32.4595   23.8183 C   0  0  1  0  0  0
  -27.2199  -26.9363   20.1865 C   0  0  0  0  0  0
  -25.5976  -33.8410   24.2085 N   0  0  0  0  0  0
  -23.4765  -30.4366   21.5212 C   0  0  2  0  0  0
  -24.9313  -28.8254   20.1146 C   0  0  0  0  0  0
  -22.7663  -29.4444   22.4789 C   0  0  0  0  0  0
  -18.0322  -28.1408   22.8467 C   0  0  0  0  0  0
  -24.1494  -36.7210   23.2646 C   0  0  0  0  0  0
  -26.0452  -30.6323   21.4047 C   0  0  0  0  0  0
  -26.1133  -29.2216   20.7533 C   0  0  0  0  0  0
  -27.2513  -28.2963   20.7699 C   0  0  0  0  0  0
  -26.0139  -26.6985   19.4880 C   0  0  0  0  0  0
  -24.9057  -27.5829   19.4627 C   0  0  0  0  0  0
  -23.7172  -29.7525   20.1475 C   0  0  0  0  0  0
  -25.4134  -36.2972   24.0300 C   0  0  1  0  0  0
  -20.5946  -28.3751   23.1190 C   0  0  2  0  0  0
  -20.6798  -26.9434   22.5401 C   0  0  0  0  0  0
  -19.5770  -26.6377   21.5214 C   0  0  0  0  0  0
  -18.1954  -26.7940   22.1625 C   0  0  0  0  0  0
  -19.1583  -28.8901   23.2815 C   0  0  0  0  0  0
  -18.9493  -30.1492   23.8849 C   0  0  0  0  0  0
  -17.6486  -30.6597   24.0555 C   0  0  0  0  0  0
  -25.9098  -34.9353   23.5013 C   0  0  0  0  0  0
  -16.5377  -29.9084   23.6344 C   0  0  0  0  0  0
  -16.7304  -28.6505   23.0361 C   0  0  0  0  0  0
  -26.4558  -31.6537   25.0708 C   0  0  0  0  0  0
  -25.3686  -31.3786   26.1365 C   0  0  0  0  0  0
  -27.0458  -30.2905   24.6442 C   0  0  0  0  0  0
  -27.6048  -32.4349   25.7511 C   0  0  0  0  0  0
  -27.5571  -37.1761   24.8465 C   0  0  0  0  0  0
  -21.4334  -29.3042   22.3539 N   0  0  0  0  0  0
  -26.4279  -37.3707   23.9409 N   0  0  0  0  0  0
  -24.7488  -30.9916   22.0862 N   0  0  0  0  0  0
  -23.4213  -28.8013   23.3029 O   0  0  0  0  0  0
  -28.2216  -25.8297   20.2269 O   0  0  0  0  0  0
  -26.5708  -34.8885   22.4609 O   0  0  0  0  0  0
  -23.5688  -32.1220   23.6817 O   0  0  0  0  0  0
  -30.4331  -19.1261   20.1584 C   0  0  0  0  0  0
  -28.2243  -18.8052   20.6428 C   0  0  0  0  0  0
  -28.9304  -21.3415   20.3267 C   0  0  0  0  0  0
  -29.4648  -18.0646   20.4294 C   0  0  0  0  0  0
  -30.1910  -20.6079   20.1138 C   0  0  0  0  0  0
  -27.9698  -20.2697   20.6006 C   0  0  0  0  0  0
  -28.6773  -23.0441   20.2725 C   0  0  0  0  0  0
  -27.9251  -24.3286   20.3126 C   0  0  0  0  0  0
  -31.3037  -21.4019   19.8285 N   0  0  0  0  0  0
  -29.5505  -16.4413   20.5065 N   0  0  0  0  0  0
  -26.6909  -20.6464   20.8487 F   0  0  0  0  0  0
  -31.4665  -13.0067   19.1958 H   0  0  0  0  0  0
  -30.5202  -11.8769   20.1166 H   0  0  0  0  0  0
  -29.9153  -11.7568   17.6753 H   0  0  0  0  0  0
  -29.5735  -13.4691   17.6576 H   0  0  0  0  0  0
  -28.0347  -11.2765   19.0708 H   0  0  0  0  0  0
  -27.4186  -12.3609   17.8493 H   0  0  0  0  0  0
  -27.5422  -14.2437   19.3444 H   0  0  0  0  0  0
  -28.8137  -12.4634   21.4792 H   0  0  0  0  0  0
  -28.2958  -14.1151   21.7192 H   0  0  0  0  0  0
  -25.2779   -9.5679   22.4766 H   0  0  0  0  0  0
  -24.0008   -7.4635   22.7476 H   0  0  0  0  0  0
  -21.0858   -8.8785   19.8952 H   0  0  0  0  0  0
  -22.3724  -10.9677   19.6167 H   0  0  0  0  0  0
  -21.2011   -7.6150   23.9717 H   0  0  0  0  0  0
  -21.1481   -6.0523   25.9077 H   0  0  0  0  0  0
  -22.0597   -2.7611   23.2844 H   0  0  0  0  0  0
  -22.4060  -11.9848   22.4848 H   0  0  0  0  0  0
  -21.1041  -13.1186   22.2652 H   0  0  0  0  0  0
  -24.6234  -15.8375   20.5077 H   0  0  0  0  0  0
  -26.2214  -15.6299   20.0047 H   0  0  0  0  0  0
  -26.7372  -32.5137   23.0898 H   0  0  0  0  0  0
  -25.0070  -33.9491   25.0199 H   0  0  0  0  0  0
  -22.7893  -31.2679   21.3506 H   0  0  0  0  0  0
  -23.3769  -35.9526   23.3271 H   0  0  0  0  0  0
  -24.3573  -36.8893   22.2068 H   0  0  0  0  0  0
  -23.7236  -37.6382   23.6725 H   0  0  0  0  0  0
  -26.2246  -31.3718   20.6232 H   0  0  0  0  0  0
  -26.9058  -30.6911   22.0591 H   0  0  0  0  0  0
  -28.1463  -28.5971   21.2959 H   0  0  0  0  0  0
  -25.8978  -25.7550   18.9747 H   0  0  0  0  0  0
  -24.0108  -27.2761   18.9387 H   0  0  0  0  0  0
  -23.8729  -30.5210   19.3895 H   0  0  0  0  0  0
  -22.8274  -29.2063   19.8294 H   0  0  0  0  0  0
  -25.1331  -36.1768   25.0790 H   0  0  0  0  0  0
  -21.0034  -28.3356   24.1313 H   0  0  0  0  0  0
  -20.5681  -26.2370   23.3640 H   0  0  0  0  0  0
  -21.6661  -26.7412   22.1205 H   0  0  0  0  0  0
  -19.6928  -25.6276   21.1274 H   0  0  0  0  0  0
  -19.6706  -27.3162   20.6723 H   0  0  0  0  0  0
  -17.4221  -26.6681   21.4031 H   0  0  0  0  0  0
  -18.0352  -26.0095   22.9035 H   0  0  0  0  0  0
  -19.7968  -30.7322   24.2196 H   0  0  0  0  0  0
  -17.5036  -31.6272   24.5166 H   0  0  0  0  0  0
  -15.5374  -30.2969   23.7694 H   0  0  0  0  0  0
  -15.8705  -28.0807   22.7103 H   0  0  0  0  0  0
  -24.5877  -30.7127   25.7672 H   0  0  0  0  0  0
  -24.8865  -32.2987   26.4676 H   0  0  0  0  0  0
  -25.7917  -30.9025   27.0219 H   0  0  0  0  0  0
  -26.3128  -29.6577   24.1427 H   0  0  0  0  0  0
  -27.3966  -29.7273   25.5101 H   0  0  0  0  0  0
  -27.9079  -30.4086   23.9875 H   0  0  0  0  0  0
  -27.2614  -33.3692   26.1964 H   0  0  0  0  0  0
  -28.3924  -32.6843   25.0387 H   0  0  0  0  0  0
  -28.0645  -31.8560   26.5531 H   0  0  0  0  0  0
  -28.2564  -38.0080   24.7522 H   0  0  0  0  0  0
  -28.1092  -36.2607   24.6281 H   0  0  0  0  0  0
  -27.2288  -37.1389   25.8867 H   0  0  0  0  0  0
  -20.9588  -29.8731   21.6666 H   0  0  0  0  0  0
  -26.0127  -38.2764   24.1421 H   0  0  0  0  0  0
  -31.4419  -18.7888   19.9654 H   0  0  0  0  0  0
  -27.3541  -18.2055   20.8654 H   0  0  0  0  0  0
  -27.6770  -22.6656   20.3736 H   0  0  0  0  0  0
  -26.8474  -24.2822   20.4516 H   0  0  0  0  0  0
  -32.2345  -21.0234   19.9752 H   0  0  0  0  0  0
  -31.2420  -22.3974   20.0223 H   0  0  0  0  0  0
  -28.6305  -16.0748   20.6987 H   0  0  0  0  0  0
  1 25  1  0  0  0
  1 30  2  0  0  0
  1 80  1  0  0  0
  2  3  1  0  0  0
  2 25  1  0  0  0
  2 82  1  0  0  0
  2 83  1  0  0  0
  3  4  1  0  0  0
  3 84  1  0  0  0
  3 85  1  0  0  0
  4  5  1  0  0  0
  4 86  1  0  0  0
  4 87  1  0  0  0
  5  6  1  0  0  0
  5 26  1  0  0  0
  5 88  1  0  0  0
  6 25  1  0  0  0
  6 89  1  0  0  0
  6 90  1  0  0  0
  7  8  2  0  0  0
  7 26  1  0  0  0
  7 29  1  0  0  0
  8  9  1  0  0  0
  8 22  1  0  0  0
  9 10  1  0  0  0
  9 27  2  0  0  0
 10 11  2  0  0  0
 10 15  1  0  0  0
 11 12  1  0  0  0
 11 91  1  0  0  0
 12 13  2  0  0  0
 12 92  1  0  0  0
 13 14  1  0  0  0
 13 31  1  0  0  0
 14 15  2  0  0  0
 14 93  1  0  0  0
 15 94  1  0  0  0
 16 17  2  0  0  0
 16 21  1  0  0  0
 16 31  1  0  0  0
 17 18  1  0  0  0
 17 95  1  0  0  0
 18 19  2  0  0  0
 18 96  1  0  0  0
 19 20  1  0  0  0
 19 24  1  0  0  0
 20 21  2  0  0  0
 20 97  1  0  0  0
 21 23  1  0  0  0
 22 28  1  0  0  0
 22 32  2  0  0  0
 26 27  1  0  0  0
 28 98  1  0  0  0
 28 99  1  0  0  0
 29100  1  0  0  0
 29101  1  0  0  0
 33 34  1  0  0  0
 33 66  1  0  0  0
 33 70  2  0  0  0
 34 36  1  0  0  0
 34 59  1  0  0  0
 34102  1  0  0  0
 35 44  2  0  0  0
 35 45  1  0  0  0
 35 68  1  0  0  0
 36 56  1  0  0  0
 36103  1  0  0  0
 37 39  1  0  0  0
 37 47  1  0  0  0
 37 66  1  0  0  0
 37104  1  0  0  0
 38 43  2  0  0  0
 38 46  1  0  0  0
 38 47  1  0  0  0
 39 64  1  0  0  0
 39 67  2  0  0  0
 40 52  1  0  0  0
 40 53  2  0  0  0
 40 58  1  0  0  0
 41105  1  0  0  0
 41106  1  0  0  0
 41107  1  0  0  0
 41 48  1  0  0  0
 42 43  1  0  0  0
 42 66  1  0  0  0
 42108  1  0  0  0
 42109  1  0  0  0
 43 44  1  0  0  0
 44110  1  0  0  0
 45 46  2  0  0  0
 45111  1  0  0  0
 46112  1  0  0  0
 47113  1  0  0  0
 47114  1  0  0  0
 48 56  1  0  0  0
 48 65  1  0  0  0
 48115  1  0  0  0
 49 50  1  0  0  0
 49 53  1  0  0  0
 49 64  1  0  0  0
 49116  1  0  0  0
 50 51  1  0  0  0
 50117  1  0  0  0
 50118  1  0  0  0
 51 52  1  0  0  0
 51119  1  0  0  0
 51120  1  0  0  0
 52121  1  0  0  0
 52122  1  0  0  0
 53 54  1  0  0  0
 54 55  2  0  0  0
 54123  1  0  0  0
 55 57  1  0  0  0
 55124  1  0  0  0
 56 69  2  0  0  0
 57 58  2  0  0  0
 57125  1  0  0  0
 58126  1  0  0  0
 59 60  1  0  0  0
 59 61  1  0  0  0
 59 62  1  0  0  0
 60127  1  0  0  0
 60128  1  0  0  0
 60129  1  0  0  0
 61130  1  0  0  0
 61131  1  0  0  0
 61132  1  0  0  0
 62133  1  0  0  0
 62134  1  0  0  0
 62135  1  0  0  0
 63 65  1  0  0  0
 63136  1  0  0  0
 63137  1  0  0  0
 63138  1  0  0  0
 64139  1  0  0  0
 65140  1  0  0  0
 68 78  1  0  0  0
 71 74  2  0  0  0
 71 75  1  0  0  0
 71141  1  0  0  0
 72 74  1  0  0  0
 72 76  2  0  0  0
 72142  1  0  0  0
 73 75  2  0  0  0
 73 76  1  0  0  0
 73 77  1  0  0  0
 74 80  1  0  0  0
 75 79  1  0  0  0
 76 81  1  0  0  0
 77 78  2  0  0  0
 77143  1  0  0  0
 78144  1  0  0  0
 79145  1  0  0  0
 79146  1  0  0  0
 80147  1  0  0  0
M  ISO  4   1 100  68 101  78 101  80 100
M  END
> <chiral flag>
0

> <version>
0

> <s_m_source_file>
/data/baiqing/PycharmProjects/Reinvent-master-3.2/result/LINK_invent/BTK/process_docking_weight1_custom_product_contain_oxygen_bond_distance_aromatic_linkinvent_7_9_3/rearranged_h_0097.sdf

> <i_m_source_file_index>
71

> <r_mmod_Potential_Energy-OPLS-2005>
1377.18615722656

> <r_mmod_Stretch_Energy-OPLS-2005>
494.554565429688

> <r_mmod_Bend_Energy-OPLS-2005>
610.001403808594

> <r_mmod_Torsional_Energy-OPLS-2005>
212.875366210938

> <r_mmod_Improper_Torsional_Energy-OPLS-2005>
6.69506692886353

> <r_mmod_Van_der_Waal_Energy-OPLS-2005>
139.964904785156

> <r_mmod_Electrostatic_Energy-OPLS-2005>
-311.560211181641

> <r_mmod_Solvation_Energy-OPLS-2005>
-218.087493896484

> <b_mmod_Minimization_Converged-OPLS-2005>
0

> <r_mmod_RMS_Derivative-OPLS-2005>
0.0958813428878784

$$$$
71
                    3D
 Structure written by MMmdl.
148156  0  0  1  0            999 V2000
  -30.5863  -14.9716   20.3971 C   0  0  0  0  0  0
  -30.4245  -12.6014   19.5130 C   0  0  0  0  0  0
  -29.5195  -12.5248   18.2629 C   0  0  0  0  0  0
  -28.0537  -12.3085   18.6782 C   0  0  0  0  0  0
  -27.6189  -13.2594   19.8233 C   0  0  2  0  0  0
  -28.6568  -13.3471   20.9593 C   0  0  0  0  0  0
  -25.2431  -13.8241   20.5731 C   0  0  0  0  0  0
  -24.1758  -13.0446   20.9227 C   0  0  0  0  0  0
  -24.6389  -11.6935   20.8746 C   0  0  0  0  0  0
  -23.9082  -10.4298   21.0401 C   0  0  0  0  0  0
  -24.3630   -9.4213   21.9180 C   0  0  0  0  0  0
  -23.6302   -8.2248   22.0752 C   0  0  0  0  0  0
  -22.4283   -8.0284   21.3544 C   0  0  0  0  0  0
  -21.9921   -9.0258   20.4645 C   0  0  0  0  0  0
  -22.7252  -10.2135   20.3052 C   0  0  0  0  0  0
  -21.6857   -6.0737   22.5279 C   0  0  0  0  0  0
  -21.4018   -6.5641   23.8212 C   0  0  0  0  0  0
  -21.3660   -5.6793   24.9174 C   0  0  0  0  0  0
  -21.6044   -4.3055   24.7224 C   0  0  0  0  0  0
  -21.8819   -3.8147   23.4346 C   0  0  0  0  0  0
  -21.9194   -4.6964   22.3402 C   0  0  0  0  0  0
  -22.7778  -13.5206   21.1889 C   0  0  0  0  0  0
  -22.1662   -4.2150   21.0979 F   0  0  0  0  0  0
  -21.5628   -3.4538   25.7737 F   0  0  0  0  0  0
  -29.9375  -13.7337   20.3588 N   0  0  0  0  0  0
  -26.2843  -12.9490   20.3204 N   0  0  0  0  0  0
  -25.9321  -11.6608   20.5714 N   0  0  0  0  0  0
  -22.0439  -12.8187   22.0445 N   0  0  0  0  0  0
  -25.4110  -15.1974   20.4221 N   0  0  0  0  0  0
  -31.8026  -14.9343   20.1852 O   0  0  0  0  0  0
  -21.6646   -6.8882   21.4241 O   0  0  0  0  0  0
  -22.3453  -14.5508   20.6735 O   0  0  0  0  0  0
  -24.6474  -31.8423   23.1878 C   0  0  0  0  0  0
  -25.9233  -32.4685   23.8273 C   0  0  1  0  0  0
  -27.2114  -27.1077   20.1371 C   0  0  0  0  0  0
  -25.5967  -33.8493   24.2183 N   0  0  0  0  0  0
  -23.4518  -30.4645   21.5346 C   0  0  2  0  0  0
  -24.8999  -28.8947   20.1068 C   0  0  0  0  0  0
  -22.7590  -29.4543   22.4844 C   0  0  0  0  0  0
  -18.0310  -28.1397   22.8476 C   0  0  0  0  0  0
  -24.1494  -36.7250   23.2642 C   0  0  0  0  0  0
  -26.0127  -30.7061   21.3927 C   0  0  0  0  0  0
  -26.0819  -29.3174   20.7283 C   0  0  0  0  0  0
  -27.2367  -28.4395   20.7309 C   0  0  0  0  0  0
  -25.9903  -26.7950   19.4918 C   0  0  0  0  0  0
  -24.8686  -27.6468   19.4744 C   0  0  0  0  0  0
  -23.6793  -29.8005   20.1524 C   0  0  0  0  0  0
  -25.4127  -36.3025   24.0313 C   0  0  1  0  0  0
  -20.5927  -28.3730   23.1222 C   0  0  2  0  0  0
  -20.6795  -26.9429   22.5399 C   0  0  0  0  0  0
  -19.5765  -26.6381   21.5212 C   0  0  0  0  0  0
  -18.1948  -26.7934   22.1626 C   0  0  0  0  0  0
  -19.1568  -28.8882   23.2841 C   0  0  0  0  0  0
  -18.9482  -30.1476   23.8869 C   0  0  0  0  0  0
  -17.6477  -30.6592   24.0559 C   0  0  0  0  0  0
  -25.9081  -34.9401   23.5057 C   0  0  0  0  0  0
  -16.5368  -29.9083   23.6337 C   0  0  0  0  0  0
  -16.7294  -28.6502   23.0358 C   0  0  0  0  0  0
  -26.4537  -31.6561   25.0726 C   0  0  0  0  0  0
  -25.3707  -31.3761   26.1410 C   0  0  0  0  0  0
  -27.0408  -30.2950   24.6337 C   0  0  0  0  0  0
  -27.6057  -32.4335   25.7517 C   0  0  0  0  0  0
  -27.5576  -37.1783   24.8465 C   0  0  0  0  0  0
  -21.4278  -29.3053   22.3591 N   0  0  0  0  0  0
  -26.4287  -37.3742   23.9407 N   0  0  0  0  0  0
  -24.7243  -31.0255   22.0930 N   0  0  0  0  0  0
  -23.4220  -28.8083   23.2999 O   0  0  0  0  0  0
  -28.2205  -26.0640   20.2392 O   0  0  0  0  0  0
  -26.5668  -34.8902   22.4637 O   0  0  0  0  0  0
  -23.5584  -32.1313   23.7077 O   0  0  0  0  0  0
  -30.5292  -17.5471   21.2408 C   0  0  0  0  0  0
  -30.1705  -18.9642   21.1406 C   0  0  0  0  0  0
  -28.9719  -16.9987   19.5749 C   0  0  0  0  0  0
  -29.9562  -16.4619   20.4724 C   0  0  0  0  0  0
  -29.2021  -19.4903   20.2173 C   0  0  0  0  0  0
  -28.6244  -18.4105   19.4542 C   0  0  0  0  0  0
  -28.1330  -24.8260   19.4615 C   0  0  0  0  0  0
  -28.3643  -23.4039   19.4716 C   0  0  0  0  0  0
  -28.9039  -22.2847   20.4085 C   0  0  0  0  0  0
  -28.8184  -20.9531   19.8993 N   0  0  0  0  0  0
  -29.3860  -22.4999   21.5213 O   0  0  0  0  0  0
  -28.0092  -22.8596   18.2924 O   0  0  0  0  0  0
  -27.7053  -18.7448   18.5168 F   0  0  0  0  0  0
  -31.4633  -12.7267   19.2048 H   0  0  0  0  0  0
  -30.3946  -11.6644   20.0713 H   0  0  0  0  0  0
  -29.8462  -11.7176   17.6060 H   0  0  0  0  0  0
  -29.6086  -13.4472   17.6868 H   0  0  0  0  0  0
  -27.9570  -11.2721   19.0038 H   0  0  0  0  0  0
  -27.3928  -12.4200   17.8178 H   0  0  0  0  0  0
  -27.5628  -14.2471   19.3680 H   0  0  0  0  0  0
  -28.7427  -12.3989   21.4917 H   0  0  0  0  0  0
  -28.3516  -14.0932   21.6948 H   0  0  0  0  0  0
  -25.2773   -9.5692   22.4758 H   0  0  0  0  0  0
  -24.0010   -7.4642   22.7474 H   0  0  0  0  0  0
  -21.0852   -8.8778   19.8951 H   0  0  0  0  0  0
  -22.3707  -10.9675   19.6164 H   0  0  0  0  0  0
  -21.2012   -7.6149   23.9716 H   0  0  0  0  0  0
  -21.1482   -6.0523   25.9077 H   0  0  0  0  0  0
  -22.0597   -2.7609   23.2845 H   0  0  0  0  0  0
  -22.4071  -11.9855   22.4835 H   0  0  0  0  0  0
  -21.1052  -13.1195   22.2654 H   0  0  0  0  0  0
  -24.6481  -15.8524   20.5535 H   0  0  0  0  0  0
  -26.2728  -15.6457   20.1396 H   0  0  0  0  0  0
  -26.7299  -32.5277   23.0998 H   0  0  0  0  0  0
  -25.0084  -33.9605   25.0311 H   0  0  0  0  0  0
  -22.7559  -31.2922   21.3821 H   0  0  0  0  0  0
  -23.3763  -35.9574   23.3286 H   0  0  0  0  0  0
  -24.3579  -36.8903   22.2060 H   0  0  0  0  0  0
  -23.7242  -37.6436   23.6694 H   0  0  0  0  0  0
  -26.1762  -31.4620   20.6233 H   0  0  0  0  0  0
  -26.8800  -30.7519   22.0395 H   0  0  0  0  0  0
  -28.1319  -28.7541   21.2485 H   0  0  0  0  0  0
  -25.8379  -25.8305   19.0331 H   0  0  0  0  0  0
  -23.9623  -27.3112   18.9892 H   0  0  0  0  0  0
  -23.8198  -30.5784   19.4010 H   0  0  0  0  0  0
  -22.7924  -29.2476   19.8376 H   0  0  0  0  0  0
  -25.1316  -36.1849   25.0805 H   0  0  0  0  0  0
  -21.0020  -28.3322   24.1344 H   0  0  0  0  0  0
  -20.5690  -26.2345   23.3624 H   0  0  0  0  0  0
  -21.6660  -26.7431   22.1196 H   0  0  0  0  0  0
  -19.6927  -25.6285   21.1259 H   0  0  0  0  0  0
  -19.6699  -27.3177   20.6730 H   0  0  0  0  0  0
  -17.4216  -26.6676   21.4031 H   0  0  0  0  0  0
  -18.0350  -26.0082   22.9029 H   0  0  0  0  0  0
  -19.7957  -30.7301   24.2225 H   0  0  0  0  0  0
  -17.5029  -31.6269   24.5167 H   0  0  0  0  0  0
  -15.5368  -30.2976   23.7676 H   0  0  0  0  0  0
  -15.8695  -28.0811   22.7089 H   0  0  0  0  0  0
  -24.5898  -30.7097   25.7727 H   0  0  0  0  0  0
  -24.8884  -32.2946   26.4763 H   0  0  0  0  0  0
  -25.7978  -30.8981   27.0236 H   0  0  0  0  0  0
  -26.3039  -29.6664   24.1325 H   0  0  0  0  0  0
  -27.3983  -29.7260   25.4930 H   0  0  0  0  0  0
  -27.8964  -30.4173   23.9693 H   0  0  0  0  0  0
  -27.2642  -33.3657   26.2027 H   0  0  0  0  0  0
  -28.3904  -32.6859   25.0373 H   0  0  0  0  0  0
  -28.0685  -31.8506   26.5490 H   0  0  0  0  0  0
  -28.2581  -38.0091   24.7514 H   0  0  0  0  0  0
  -28.1084  -36.2619   24.6290 H   0  0  0  0  0  0
  -27.2292  -37.1425   25.8867 H   0  0  0  0  0  0
  -20.9493  -29.8771   21.6771 H   0  0  0  0  0  0
  -26.0150  -38.2808   24.1411 H   0  0  0  0  0  0
  -31.3292  -17.2921   21.9223 H   0  0  0  0  0  0
  -30.7052  -19.6663   21.7647 H   0  0  0  0  0  0
  -28.5008  -16.3179   18.8823 H   0  0  0  0  0  0
  -27.7703  -25.1618   18.5005 H   0  0  0  0  0  0
  -28.3236  -21.0134   19.0169 H   0  0  0  0  0  0
  -27.6951  -23.5564   17.7320 H   0  0  0  0  0  0
  1 25  1  0  0  0
  1 30  2  0  0  0
  1 74  1  0  0  0
  2  3  1  0  0  0
  2 25  1  0  0  0
  2 84  1  0  0  0
  2 85  1  0  0  0
  3  4  1  0  0  0
  3 86  1  0  0  0
  3 87  1  0  0  0
  4  5  1  0  0  0
  4 88  1  0  0  0
  4 89  1  0  0  0
  5  6  1  0  0  0
  5 26  1  0  0  0
  5 90  1  0  0  0
  6 25  1  0  0  0
  6 91  1  0  0  0
  6 92  1  0  0  0
  7  8  2  0  0  0
  7 26  1  0  0  0
  7 29  1  0  0  0
  8  9  1  0  0  0
  8 22  1  0  0  0
  9 10  1  0  0  0
  9 27  2  0  0  0
 10 11  2  0  0  0
 10 15  1  0  0  0
 11 12  1  0  0  0
 11 93  1  0  0  0
 12 13  2  0  0  0
 12 94  1  0  0  0
 13 14  1  0  0  0
 13 31  1  0  0  0
 14 15  2  0  0  0
 14 95  1  0  0  0
 15 96  1  0  0  0
 16 17  2  0  0  0
 16 21  1  0  0  0
 16 31  1  0  0  0
 17 18  1  0  0  0
 17 97  1  0  0  0
 18 19  2  0  0  0
 18 98  1  0  0  0
 19 20  1  0  0  0
 19 24  1  0  0  0
 20 21  2  0  0  0
 20 99  1  0  0  0
 21 23  1  0  0  0
 22 28  1  0  0  0
 22 32  2  0  0  0
 26 27  1  0  0  0
 28100  1  0  0  0
 28101  1  0  0  0
 29102  1  0  0  0
 29103  1  0  0  0
 33 34  1  0  0  0
 33 66  1  0  0  0
 33 70  2  0  0  0
 34 36  1  0  0  0
 34 59  1  0  0  0
 34104  1  0  0  0
 35 44  2  0  0  0
 35 45  1  0  0  0
 35 68  1  0  0  0
 36 56  1  0  0  0
 36105  1  0  0  0
 37 39  1  0  0  0
 37 47  1  0  0  0
 37 66  1  0  0  0
 37106  1  0  0  0
 38 43  2  0  0  0
 38 46  1  0  0  0
 38 47  1  0  0  0
 39 64  1  0  0  0
 39 67  2  0  0  0
 40 52  1  0  0  0
 40 53  2  0  0  0
 40 58  1  0  0  0
 41107  1  0  0  0
 41108  1  0  0  0
 41109  1  0  0  0
 41 48  1  0  0  0
 42 43  1  0  0  0
 42 66  1  0  0  0
 42110  1  0  0  0
 42111  1  0  0  0
 43 44  1  0  0  0
 44112  1  0  0  0
 45 46  2  0  0  0
 45113  1  0  0  0
 46114  1  0  0  0
 47115  1  0  0  0
 47116  1  0  0  0
 48 56  1  0  0  0
 48 65  1  0  0  0
 48117  1  0  0  0
 49 50  1  0  0  0
 49 53  1  0  0  0
 49 64  1  0  0  0
 49118  1  0  0  0
 50 51  1  0  0  0
 50119  1  0  0  0
 50120  1  0  0  0
 51 52  1  0  0  0
 51121  1  0  0  0
 51122  1  0  0  0
 52123  1  0  0  0
 52124  1  0  0  0
 53 54  1  0  0  0
 54 55  2  0  0  0
 54125  1  0  0  0
 55 57  1  0  0  0
 55126  1  0  0  0
 56 69  2  0  0  0
 57 58  2  0  0  0
 57127  1  0  0  0
 58128  1  0  0  0
 59 60  1  0  0  0
 59 61  1  0  0  0
 59 62  1  0  0  0
 60129  1  0  0  0
 60130  1  0  0  0
 60131  1  0  0  0
 61132  1  0  0  0
 61133  1  0  0  0
 61134  1  0  0  0
 62135  1  0  0  0
 62136  1  0  0  0
 62137  1  0  0  0
 63 65  1  0  0  0
 63138  1  0  0  0
 63139  1  0  0  0
 63140  1  0  0  0
 64141  1  0  0  0
 65142  1  0  0  0
 68 77  1  0  0  0
 71 72  2  0  0  0
 71 74  1  0  0  0
 71143  1  0  0  0
 72 75  1  0  0  0
 72144  1  0  0  0
 73 74  2  0  0  0
 73 76  1  0  0  0
 73145  1  0  0  0
 75 76  2  0  0  0
 75 80  1  0  0  0
 76 83  1  0  0  0
 77 78  2  0  0  0
 77146  1  0  0  0
 78 79  1  0  0  0
 78 82  1  0  0  0
 79 80  1  0  0  0
 79 81  2  0  0  0
 80147  1  0  0  0
 82148  1  0  0  0
M  ISO  4   1 100  68 101  74 100  77 101
M  END
> <chiral flag>
0

> <version>
0

> <s_m_source_file>
/data/baiqing/PycharmProjects/Reinvent-master-3.2/result/LINK_invent/BTK/process_docking_weight1_custom_product_contain_oxygen_bond_distance_aromatic_linkinvent_7_9_3/rearranged_h_0097.sdf

> <i_m_source_file_index>
72

> <r_mmod_Potential_Energy-OPLS-2005>
595.840026855469

> <r_mmod_Stretch_Energy-OPLS-2005>
239.237365722656

> <r_mmod_Bend_Energy-OPLS-2005>
365.459106445312

> <r_mmod_Torsional_Energy-OPLS-2005>
208.231109619141

> <r_mmod_Improper_Torsional_Energy-OPLS-2005>
6.50754642486572

> <r_mmod_Van_der_Waal_Energy-OPLS-2005>
142.488510131836

> <r_mmod_Electrostatic_Energy-OPLS-2005>
-369.515441894531

> <r_mmod_Solvation_Energy-OPLS-2005>
-219.223678588867

> <b_mmod_Minimization_Converged-OPLS-2005>
0

> <r_mmod_RMS_Derivative-OPLS-2005>
0.153886750340462

$$$$
72
                    3D
 Structure written by MMmdl.
158166  0  0  1  0            999 V2000
  -30.6515  -14.4736   20.4886 C   0  0  0  0  0  0
  -30.4455  -12.2923   19.3885 C   0  0  0  0  0  0
  -29.4881  -12.4577   18.1855 C   0  0  0  0  0  0
  -28.0194  -12.2770   18.6253 C   0  0  0  0  0  0
  -27.6593  -13.1613   19.8473 C   0  0  2  0  0  0
  -28.7075  -12.9811   20.9747 C   0  0  0  0  0  0
  -25.2673  -13.8037   20.5513 C   0  0  0  0  0  0
  -24.1907  -13.0394   20.9093 C   0  0  0  0  0  0
  -24.6393  -11.6839   20.8660 C   0  0  0  0  0  0
  -23.9010  -10.4260   21.0329 C   0  0  0  0  0  0
  -24.3560   -9.4217   21.9158 C   0  0  0  0  0  0
  -23.6246   -8.2254   22.0748 C   0  0  0  0  0  0
  -22.4241   -8.0255   21.3510 C   0  0  0  0  0  0
  -21.9824   -9.0217   20.4604 C   0  0  0  0  0  0
  -22.7168  -10.2109   20.3004 C   0  0  0  0  0  0
  -21.6868   -6.0680   22.5273 C   0  0  0  0  0  0
  -21.4019   -6.5613   23.8191 C   0  0  0  0  0  0
  -21.3648   -5.6778   24.9167 C   0  0  0  0  0  0
  -21.6036   -4.3043   24.7232 C   0  0  0  0  0  0
  -21.8842   -3.8115   23.4365 C   0  0  0  0  0  0
  -21.9216   -4.6911   22.3412 C   0  0  0  0  0  0
  -22.7940  -13.5234   21.1808 C   0  0  0  0  0  0
  -22.1694   -4.2077   21.0985 F   0  0  0  0  0  0
  -21.5631   -3.4537   25.7755 F   0  0  0  0  0  0
  -30.0420  -13.2688   20.4054 N   0  0  0  0  0  0
  -26.3041  -12.9124   20.3196 N   0  0  0  0  0  0
  -25.9290  -11.6320   20.5664 N   0  0  0  0  0  0
  -22.0564  -12.8243   22.0374 N   0  0  0  0  0  0
  -25.4457  -15.1751   20.3837 N   0  0  0  0  0  0
  -31.8368  -14.6896   20.2309 O   0  0  0  0  0  0
  -21.6666   -6.8804   21.4207 O   0  0  0  0  0  0
  -22.3648  -14.5566   20.6669 O   0  0  0  0  0  0
  -24.6164  -31.8666   23.2114 C   0  0  0  0  0  0
  -25.9083  -32.4812   23.8359 C   0  0  1  0  0  0
  -27.2360  -27.4641   20.0659 C   0  0  0  0  0  0
  -25.5944  -33.8607   24.2322 N   0  0  0  0  0  0
  -23.3984  -30.4905   21.5526 C   0  0  2  0  0  0
  -24.8423  -28.9504   20.1206 C   0  0  0  0  0  0
  -22.7448  -29.4647   22.5036 C   0  0  0  0  0  0
  -18.0291  -28.1427   22.8451 C   0  0  0  0  0  0
  -24.1517  -36.7382   23.2623 C   0  0  0  0  0  0
  -25.9226  -30.8369   21.3545 C   0  0  0  0  0  0
  -26.0031  -29.4673   20.7128 C   0  0  0  0  0  0
  -27.2058  -28.7284   20.6870 C   0  0  0  0  0  0
  -26.0680  -26.9556   19.4655 C   0  0  0  0  0  0
  -24.8684  -27.6913   19.4949 C   0  0  0  0  0  0
  -23.6050  -29.8179   20.1673 C   0  0  0  0  0  0
  -25.4121  -36.3121   24.0327 C   0  0  1  0  0  0
  -20.5928  -28.3562   23.1303 C   0  0  2  0  0  0
  -20.6775  -26.9405   22.5124 C   0  0  0  0  0  0
  -19.5669  -26.6641   21.4960 C   0  0  0  0  0  0
  -18.1846  -26.8089   22.1378 C   0  0  0  0  0  0
  -19.1589  -28.8766   23.2957 C   0  0  0  0  0  0
  -18.9600  -30.1344   23.9052 C   0  0  0  0  0  0
  -17.6632  -30.6527   24.0784 C   0  0  0  0  0  0
  -25.9042  -34.9463   23.5120 C   0  0  0  0  0  0
  -16.5493  -29.9134   23.6431 C   0  0  0  0  0  0
  -16.7318  -28.6587   23.0342 C   0  0  0  0  0  0
  -26.4481  -31.6544   25.0659 C   0  0  0  0  0  0
  -25.3769  -31.3609   26.1432 C   0  0  0  0  0  0
  -27.0288  -30.2989   24.5973 C   0  0  0  0  0  0
  -27.6077  -32.4223   25.7458 C   0  0  0  0  0  0
  -27.5597  -37.1849   24.8450 C   0  0  0  0  0  0
  -21.4186  -29.3024   22.3785 N   0  0  0  0  0  0
  -26.4319  -37.3785   23.9379 N   0  0  0  0  0  0
  -24.6654  -31.0773   22.1013 N   0  0  0  0  0  0
  -23.4232  -28.8173   23.3079 O   0  0  0  0  0  0
  -28.4134  -26.7632   19.9668 O   0  0  0  0  0  0
  -26.5575  -34.8927   22.4663 O   0  0  0  0  0  0
  -23.5372  -32.1431   23.7522 O   0  0  0  0  0  0
  -29.9600  -18.6294   22.3646 C   0  0  0  0  0  0
  -30.2739  -17.3116   21.9662 C   0  0  0  0  0  0
  -28.6659  -18.9549   20.3251 C   0  0  0  0  0  0
  -29.1294  -19.4602   21.5616 C   0  0  0  0  0  0
  -29.7365  -16.8075   20.7654 C   0  0  0  0  0  0
  -28.9513  -17.6333   19.9442 C   0  0  0  0  0  0
  -28.6638  -20.7865   22.0763 C   0  0  0  0  0  0
  -28.2632  -24.3502   20.4077 C   0  0  0  0  0  0
  -28.5629  -23.2633   21.4596 C   0  0  0  0  0  0
  -28.6100  -25.7510   20.9465 C   0  0  0  0  0  0
  -28.1214  -21.8306   21.0687 C   0  0  2  0  0  0
  -29.7273  -15.4381   20.4524 N   0  0  0  0  0  0
  -26.6493  -21.6946   21.0278 N   0  3  0  0  0  0
  -28.6857  -21.0385   23.2862 O   0  0  0  0  0  0
  -28.3951  -17.1300   18.8143 F   0  0  0  0  0  0
  -31.4842  -12.4346   19.0813 H   0  0  0  0  0  0
  -30.3837  -11.2825   19.7914 H   0  0  0  0  0  0
  -29.7407  -11.7268   17.4149 H   0  0  0  0  0  0
  -29.6182  -13.4401   17.7282 H   0  0  0  0  0  0
  -27.8792  -11.2277   18.8874 H   0  0  0  0  0  0
  -27.3422  -12.4642   17.7888 H   0  0  0  0  0  0
  -27.6836  -14.1869   19.4883 H   0  0  0  0  0  0
  -28.6755  -11.9711   21.3770 H   0  0  0  0  0  0
  -28.4752  -13.6390   21.8154 H   0  0  0  0  0  0
  -25.2677   -9.5756   22.4749 H   0  0  0  0  0  0
  -23.9967   -7.4644   22.7500 H   0  0  0  0  0  0
  -21.0746   -8.8722   19.8865 H   0  0  0  0  0  0
  -22.3605  -10.9647   19.6120 H   0  0  0  0  0  0
  -21.2026   -7.6124   23.9672 H   0  0  0  0  0  0
  -21.1428   -6.0510   25.9058 H   0  0  0  0  0  0
  -22.0612   -2.7569   23.2913 H   0  0  0  0  0  0
  -22.4130  -11.9886   22.4771 H   0  0  0  0  0  0
  -21.1130  -13.1159   22.2568 H   0  0  0  0  0  0
  -24.6543  -15.8093   20.4097 H   0  0  0  0  0  0
  -26.3052  -15.6190   20.0833 H   0  0  0  0  0  0
  -26.7169  -32.5526   23.1135 H   0  0  0  0  0  0
  -25.0100  -33.9723   25.0477 H   0  0  0  0  0  0
  -22.6847  -31.3053   21.4128 H   0  0  0  0  0  0
  -23.3722  -35.9775   23.3288 H   0  0  0  0  0  0
  -24.3615  -36.8985   22.2037 H   0  0  0  0  0  0
  -23.7336  -37.6625   23.6624 H   0  0  0  0  0  0
  -26.0154  -31.5931   20.5730 H   0  0  0  0  0  0
  -26.8239  -30.9051   21.9554 H   0  0  0  0  0  0
  -28.1101  -29.1212   21.1304 H   0  0  0  0  0  0
  -26.0927  -26.0065   18.9513 H   0  0  0  0  0  0
  -23.9821  -27.2931   19.0213 H   0  0  0  0  0  0
  -23.7229  -30.5938   19.4109 H   0  0  0  0  0  0
  -22.7248  -29.2467   19.8593 H   0  0  0  0  0  0
  -25.1288  -36.1986   25.0812 H   0  0  0  0  0  0
  -21.0046  -28.2903   24.1420 H   0  0  0  0  0  0
  -21.6588  -26.7526   22.0723 H   0  0  0  0  0  0
  -20.5725  -26.2127   23.3171 H   0  0  0  0  0  0
  -19.6796  -25.6680   21.0736 H   0  0  0  0  0  0
  -19.6666  -27.3707   20.6725 H   0  0  0  0  0  0
  -17.4113  -26.7140   21.3741 H   0  0  0  0  0  0
  -18.0116  -26.0091   22.8562 H   0  0  0  0  0  0
  -19.8107  -30.7062   24.2496 H   0  0  0  0  0  0
  -17.5273  -31.6117   24.5593 H   0  0  0  0  0  0
  -15.5521  -30.3070   23.7817 H   0  0  0  0  0  0
  -15.8668  -28.1016   22.6944 H   0  0  0  0  0  0
  -24.5933  -30.6964   25.7763 H   0  0  0  0  0  0
  -24.8982  -32.2751   26.4961 H   0  0  0  0  0  0
  -25.8168  -30.8709   27.0135 H   0  0  0  0  0  0
  -26.2790  -29.6774   24.1072 H   0  0  0  0  0  0
  -27.4124  -29.7180   25.4370 H   0  0  0  0  0  0
  -27.8597  -30.4298   23.9043 H   0  0  0  0  0  0
  -27.2697  -33.3492   26.2118 H   0  0  0  0  0  0
  -28.3896  -32.6822   25.0301 H   0  0  0  0  0  0
  -28.0751  -31.8268   26.5325 H   0  0  0  0  0  0
  -28.2597  -38.0160   24.7480 H   0  0  0  0  0  0
  -28.1108  -36.2683   24.6290 H   0  0  0  0  0  0
  -27.2305  -37.1523   25.8848 H   0  0  0  0  0  0
  -20.9359  -29.8796   21.7035 H   0  0  0  0  0  0
  -26.0225  -38.2887   24.1276 H   0  0  0  0  0  0
  -30.3342  -18.9811   23.3152 H   0  0  0  0  0  0
  -30.8484  -16.6714   22.6257 H   0  0  0  0  0  0
  -28.0053  -19.5260   19.6909 H   0  0  0  0  0  0
  -27.2132  -24.3244   20.1180 H   0  0  0  0  0  0
  -28.8375  -24.1461   19.4999 H   0  0  0  0  0  0
  -28.1218  -23.5529   22.4153 H   0  0  0  0  0  0
  -29.6403  -23.2477   21.6370 H   0  0  0  0  0  0
  -29.6644  -25.7757   21.2315 H   0  0  0  0  0  0
  -28.0408  -25.9596   21.8529 H   0  0  0  0  0  0
  -28.5269  -21.6183   20.0797 H   0  0  0  0  0  0
  -28.8183  -15.0707   20.2345 H   0  0  0  0  0  0
  -26.3844  -20.8501   20.5546 H   0  0  0  0  0  0
  -26.2497  -22.4608   20.5159 H   0  0  0  0  0  0
  -26.2535  -21.6738   21.9517 H   0  0  0  0  0  0
  1 25  1  0  0  0
  1 30  2  0  0  0
  1 82  1  0  0  0
  2  3  1  0  0  0
  2 25  1  0  0  0
  2 86  1  0  0  0
  2 87  1  0  0  0
  3  4  1  0  0  0
  3 88  1  0  0  0
  3 89  1  0  0  0
  4  5  1  0  0  0
  4 90  1  0  0  0
  4 91  1  0  0  0
  5  6  1  0  0  0
  5 26  1  0  0  0
  5 92  1  0  0  0
  6 25  1  0  0  0
  6 93  1  0  0  0
  6 94  1  0  0  0
  7  8  2  0  0  0
  7 26  1  0  0  0
  7 29  1  0  0  0
  8  9  1  0  0  0
  8 22  1  0  0  0
  9 10  1  0  0  0
  9 27  2  0  0  0
 10 11  2  0  0  0
 10 15  1  0  0  0
 11 12  1  0  0  0
 11 95  1  0  0  0
 12 13  2  0  0  0
 12 96  1  0  0  0
 13 14  1  0  0  0
 13 31  1  0  0  0
 14 15  2  0  0  0
 14 97  1  0  0  0
 15 98  1  0  0  0
 16 17  2  0  0  0
 16 21  1  0  0  0
 16 31  1  0  0  0
 17 18  1  0  0  0
 17 99  1  0  0  0
 18 19  2  0  0  0
 18100  1  0  0  0
 19 20  1  0  0  0
 19 24  1  0  0  0
 20 21  2  0  0  0
 20101  1  0  0  0
 21 23  1  0  0  0
 22 28  1  0  0  0
 22 32  2  0  0  0
 26 27  1  0  0  0
 28102  1  0  0  0
 28103  1  0  0  0
 29104  1  0  0  0
 29105  1  0  0  0
 33 34  1  0  0  0
 33 66  1  0  0  0
 33 70  2  0  0  0
 34 36  1  0  0  0
 34 59  1  0  0  0
 34106  1  0  0  0
 35 44  2  0  0  0
 35 45  1  0  0  0
 35 68  1  0  0  0
 36 56  1  0  0  0
 36107  1  0  0  0
 37 39  1  0  0  0
 37 47  1  0  0  0
 37 66  1  0  0  0
 37108  1  0  0  0
 38 43  2  0  0  0
 38 46  1  0  0  0
 38 47  1  0  0  0
 39 64  1  0  0  0
 39 67  2  0  0  0
 40 52  1  0  0  0
 40 53  2  0  0  0
 40 58  1  0  0  0
 41109  1  0  0  0
 41110  1  0  0  0
 41111  1  0  0  0
 41 48  1  0  0  0
 42 43  1  0  0  0
 42 66  1  0  0  0
 42112  1  0  0  0
 42113  1  0  0  0
 43 44  1  0  0  0
 44114  1  0  0  0
 45 46  2  0  0  0
 45115  1  0  0  0
 46116  1  0  0  0
 47117  1  0  0  0
 47118  1  0  0  0
 48 56  1  0  0  0
 48 65  1  0  0  0
 48119  1  0  0  0
 49 50  1  0  0  0
 49 53  1  0  0  0
 49 64  1  0  0  0
 49120  1  0  0  0
 50 51  1  0  0  0
 50121  1  0  0  0
 50122  1  0  0  0
 51 52  1  0  0  0
 51123  1  0  0  0
 51124  1  0  0  0
 52125  1  0  0  0
 52126  1  0  0  0
 53 54  1  0  0  0
 54 55  2  0  0  0
 54127  1  0  0  0
 55 57  1  0  0  0
 55128  1  0  0  0
 56 69  2  0  0  0
 57 58  2  0  0  0
 57129  1  0  0  0
 58130  1  0  0  0
 59 60  1  0  0  0
 59 61  1  0  0  0
 59 62  1  0  0  0
 60131  1  0  0  0
 60132  1  0  0  0
 60133  1  0  0  0
 61134  1  0  0  0
 61135  1  0  0  0
 61136  1  0  0  0
 62137  1  0  0  0
 62138  1  0  0  0
 62139  1  0  0  0
 63 65  1  0  0  0
 63140  1  0  0  0
 63141  1  0  0  0
 63142  1  0  0  0
 64143  1  0  0  0
 65144  1  0  0  0
 68 80  1  0  0  0
 71 72  2  0  0  0
 71 74  1  0  0  0
 71145  1  0  0  0
 72 75  1  0  0  0
 72146  1  0  0  0
 73 74  2  0  0  0
 73 76  1  0  0  0
 73147  1  0  0  0
 74 77  1  0  0  0
 75 76  2  0  0  0
 75 82  1  0  0  0
 76 85  1  0  0  0
 77 81  1  0  0  0
 77 84  2  0  0  0
 78 79  1  0  0  0
 78 80  1  0  0  0
 78148  1  0  0  0
 78149  1  0  0  0
 79 81  1  0  0  0
 79150  1  0  0  0
 79151  1  0  0  0
 80152  1  0  0  0
 80153  1  0  0  0
 81 83  1  0  0  0
 81154  1  0  0  0
 82155  1  0  0  0
 83156  1  0  0  0
 83157  1  0  0  0
 83158  1  0  0  0
M  CHG  1  83   1
M  ISO  4   1 100  68 101  80 101  82 100
M  END
> <chiral flag>
0

> <version>
0

> <s_m_source_file>
/data/baiqing/PycharmProjects/Reinvent-master-3.2/result/LINK_invent/BTK/process_docking_weight1_custom_product_contain_oxygen_bond_distance_aromatic_linkinvent_7_9_3/rearranged_h_0097.sdf

> <i_m_source_file_index>
73

> <r_mmod_Potential_Energy-OPLS-2005>
-303.163970947266

> <r_mmod_Stretch_Energy-OPLS-2005>
33.9883460998535

> <r_mmod_Bend_Energy-OPLS-2005>
101.614158630371

> <r_mmod_Torsional_Energy-OPLS-2005>
296.522186279297

> <r_mmod_Improper_Torsional_Energy-OPLS-2005>
14.8030338287354

> <r_mmod_Van_der_Waal_Energy-OPLS-2005>
149.412857055664

> <r_mmod_Electrostatic_Energy-OPLS-2005>
-384.468963623047

> <r_mmod_Solvation_Energy-OPLS-2005>
-535.575134277344

> <b_mmod_Minimization_Converged-OPLS-2005>
0

> <r_mmod_RMS_Derivative-OPLS-2005>
7.3397274017334

$$$$
73
                    3D
 Structure written by MMmdl.
155164  0  0  1  0            999 V2000
  -30.6640  -14.5454   20.5052 C   0  0  0  0  0  0
  -30.4222  -12.3328   19.4289 C   0  0  0  0  0  0
  -29.4888  -12.4957   18.2080 C   0  0  0  0  0  0
  -28.0088  -12.3598   18.6249 C   0  0  0  0  0  0
  -27.6525  -13.2146   19.8707 C   0  0  2  0  0  0
  -28.7015  -13.0286   20.9904 C   0  0  0  0  0  0
  -25.2523  -13.8186   20.5688 C   0  0  0  0  0  0
  -24.1793  -13.0444   20.9198 C   0  0  0  0  0  0
  -24.6363  -11.6913   20.8762 C   0  0  0  0  0  0
  -23.9028  -10.4297   21.0423 C   0  0  0  0  0  0
  -24.3587   -9.4203   21.9200 C   0  0  0  0  0  0
  -23.6248   -8.2236   22.0758 C   0  0  0  0  0  0
  -22.4242   -8.0270   21.3531 C   0  0  0  0  0  0
  -21.9869   -9.0268   20.4670 C   0  0  0  0  0  0
  -22.7192  -10.2152   20.3077 C   0  0  0  0  0  0
  -21.6843   -6.0713   22.5271 C   0  0  0  0  0  0
  -21.4026   -6.5625   23.8202 C   0  0  0  0  0  0
  -21.3664   -5.6780   24.9173 C   0  0  0  0  0  0
  -21.6041   -4.3041   24.7220 C   0  0  0  0  0  0
  -21.8826   -3.8123   23.4336 C   0  0  0  0  0  0
  -21.9190   -4.6934   22.3388 C   0  0  0  0  0  0
  -22.7814  -13.5242   21.1860 C   0  0  0  0  0  0
  -22.1660   -4.2127   21.0961 F   0  0  0  0  0  0
  -21.5619   -3.4526   25.7723 F   0  0  0  0  0  0
  -30.0230  -13.3426   20.4260 N   0  0  0  0  0  0
  -26.2985  -12.9368   20.3403 N   0  0  0  0  0  0
  -25.9290  -11.6544   20.5817 N   0  0  0  0  0  0
  -22.0440  -12.8273   22.0434 N   0  0  0  0  0  0
  -25.4153  -15.1907   20.4097 N   0  0  0  0  0  0
  -31.8309  -14.6832   20.1289 O   0  0  0  0  0  0
  -21.6621   -6.8859   21.4228 O   0  0  0  0  0  0
  -22.3527  -14.5546   20.6683 O   0  0  0  0  0  0
  -24.6215  -31.8674   23.2071 C   0  0  0  0  0  0
  -25.9097  -32.4811   23.8375 C   0  0  1  0  0  0
  -27.2173  -27.3738   20.1031 C   0  0  0  0  0  0
  -25.5949  -33.8611   24.2302 N   0  0  0  0  0  0
  -23.4086  -30.4968   21.5494 C   0  0  2  0  0  0
  -24.8484  -28.9609   20.1159 C   0  0  0  0  0  0
  -22.7435  -29.4690   22.4934 C   0  0  0  0  0  0
  -18.0281  -28.1388   22.8497 C   0  0  0  0  0  0
  -24.1485  -36.7292   23.2626 C   0  0  0  0  0  0
  -25.9482  -30.8135   21.3768 C   0  0  0  0  0  0
  -26.0158  -29.4489   20.7142 C   0  0  0  0  0  0
  -27.1994  -28.6645   20.7031 C   0  0  0  0  0  0
  -26.0158  -26.9186   19.5060 C   0  0  0  0  0  0
  -24.8461  -27.6959   19.5132 C   0  0  0  0  0  0
  -23.6192  -29.8392   20.1626 C   0  0  0  0  0  0
  -25.4110  -36.3094   24.0326 C   0  0  1  0  0  0
  -20.5883  -28.3706   23.1272 C   0  0  2  0  0  0
  -20.6779  -26.9432   22.5398 C   0  0  0  0  0  0
  -19.5744  -26.6397   21.5207 C   0  0  0  0  0  0
  -18.1931  -26.7930   22.1634 C   0  0  0  0  0  0
  -19.1537  -28.8854   23.2886 C   0  0  0  0  0  0
  -18.9465  -30.1460   23.8906 C   0  0  0  0  0  0
  -17.6466  -30.6588   24.0580 C   0  0  0  0  0  0
  -25.9061  -34.9470   23.5104 C   0  0  0  0  0  0
  -16.5358  -29.9093   23.6335 C   0  0  0  0  0  0
  -16.7276  -28.6514   23.0355 C   0  0  0  0  0  0
  -26.4482  -31.6623   25.0747 C   0  0  0  0  0  0
  -25.3719  -31.3813   26.1487 C   0  0  0  0  0  0
  -27.0348  -30.3036   24.6250 C   0  0  0  0  0  0
  -27.6028  -32.4382   25.7508 C   0  0  0  0  0  0
  -27.5591  -37.1787   24.8443 C   0  0  0  0  0  0
  -21.4158  -29.3060   22.3665 N   0  0  0  0  0  0
  -26.4277  -37.3802   23.9428 N   0  0  0  0  0  0
  -24.6767  -31.0753   22.0995 N   0  0  0  0  0  0
  -23.4174  -28.8235   23.3006 O   0  0  0  0  0  0
  -28.3870  -26.6156   20.1370 O   0  0  0  0  0  0
  -26.5611  -34.8919   22.4656 O   0  0  0  0  0  0
  -23.5400  -32.1449   23.7439 O   0  0  0  0  0  0
  -30.9547  -19.0032   20.5842 C   0  0  0  0  0  0
  -31.2692  -17.6095   20.5503 C   0  0  0  0  0  0
  -29.5933  -19.1456   20.7432 C   0  0  0  0  0  0
  -30.0847  -16.9531   20.7381 C   0  0  0  0  0  0
  -28.6334  -20.3236   20.7645 C   0  0  0  0  0  0
  -30.2878  -23.7027   20.5784 C   0  0  0  0  0  0
  -30.3467  -22.2168   20.9734 C   0  0  0  0  0  0
  -28.0897  -22.7563   20.4240 C   0  0  0  0  0  0
  -28.8168  -24.1185   20.6237 C   0  0  2  0  0  0
  -28.4444  -25.2581   19.6054 C   0  0  0  0  0  0
  -29.0262  -21.6397   20.7141 N   0  0  0  0  0  0
  -29.8688  -15.5999   20.8394 N   0  0  0  0  0  0
  -27.4283  -20.0503   20.7863 O   0  0  0  0  0  0
  -29.0646  -17.8661   20.8521 O   0  0  0  0  0  0
  -31.4655  -12.4341   19.1258 H   0  0  0  0  0  0
  -30.3265  -11.3339   19.8545 H   0  0  0  0  0  0
  -29.7182  -11.7501   17.4445 H   0  0  0  0  0  0
  -29.6512  -13.4685   17.7397 H   0  0  0  0  0  0
  -27.8143  -11.3053   18.8282 H   0  0  0  0  0  0
  -27.3562  -12.6295   17.7925 H   0  0  0  0  0  0
  -27.6797  -14.2568   19.5529 H   0  0  0  0  0  0
  -28.6910  -11.9979   21.3498 H   0  0  0  0  0  0
  -28.4668  -13.6494   21.8568 H   0  0  0  0  0  0
  -25.2748   -9.5647   22.4769 H   0  0  0  0  0  0
  -23.9934   -7.4641   22.7481 H   0  0  0  0  0  0
  -21.0783   -8.8812   19.9006 H   0  0  0  0  0  0
  -22.3645  -10.9701   19.6183 H   0  0  0  0  0  0
  -21.2042   -7.6132   23.9695 H   0  0  0  0  0  0
  -21.1477   -6.0518   25.9078 H   0  0  0  0  0  0
  -22.0595   -2.7576   23.2854 H   0  0  0  0  0  0
  -22.4007  -11.9935   22.4878 H   0  0  0  0  0  0
  -21.1095  -13.1385   22.2691 H   0  0  0  0  0  0
  -24.6319  -15.8277   20.5159 H   0  0  0  0  0  0
  -26.2519  -15.6471   20.0674 H   0  0  0  0  0  0
  -26.7186  -32.5488   23.1146 H   0  0  0  0  0  0
  -25.0139  -33.9766   25.0476 H   0  0  0  0  0  0
  -22.7013  -31.3175   21.4129 H   0  0  0  0  0  0
  -23.3761  -35.9605   23.3253 H   0  0  0  0  0  0
  -24.3593  -36.8946   22.2050 H   0  0  0  0  0  0
  -23.7210  -37.6469   23.6673 H   0  0  0  0  0  0
  -26.0932  -31.5852   20.6195 H   0  0  0  0  0  0
  -26.8226  -30.8404   22.0162 H   0  0  0  0  0  0
  -28.0990  -29.0399   21.1706 H   0  0  0  0  0  0
  -25.9106  -25.9585   19.0317 H   0  0  0  0  0  0
  -23.9444  -27.3059   19.0591 H   0  0  0  0  0  0
  -23.7431  -30.6198   19.4119 H   0  0  0  0  0  0
  -22.7389  -29.2738   19.8534 H   0  0  0  0  0  0
  -25.1277  -36.1932   25.0817 H   0  0  0  0  0  0
  -20.9979  -28.3293   24.1389 H   0  0  0  0  0  0
  -20.5689  -26.2327   23.3606 H   0  0  0  0  0  0
  -21.6654  -26.7478   22.1188 H   0  0  0  0  0  0
  -19.6913  -25.6304   21.1244 H   0  0  0  0  0  0
  -19.6665  -27.3210   20.6734 H   0  0  0  0  0  0
  -17.4193  -26.6671   21.4044 H   0  0  0  0  0  0
  -18.0344  -26.0068   22.9030 H   0  0  0  0  0  0
  -19.7944  -30.7272   24.2274 H   0  0  0  0  0  0
  -17.5028  -31.6260   24.5202 H   0  0  0  0  0  0
  -15.5365  -30.3011   23.7637 H   0  0  0  0  0  0
  -15.8676  -28.0839   22.7057 H   0  0  0  0  0  0
  -24.5832  -30.7234   25.7830 H   0  0  0  0  0  0
  -24.9001  -32.3027   26.4913 H   0  0  0  0  0  0
  -25.8016  -30.8973   27.0268 H   0  0  0  0  0  0
  -26.2971  -29.6776   24.1228 H   0  0  0  0  0  0
  -27.3972  -29.7304   25.4797 H   0  0  0  0  0  0
  -27.8857  -30.4301   23.9552 H   0  0  0  0  0  0
  -27.2602  -33.3658   26.2105 H   0  0  0  0  0  0
  -28.3809  -32.7004   25.0326 H   0  0  0  0  0  0
  -28.0744  -31.8534   26.5418 H   0  0  0  0  0  0
  -28.2547  -38.0148   24.7585 H   0  0  0  0  0  0
  -28.1149  -36.2687   24.6128 H   0  0  0  0  0  0
  -27.2335  -37.1245   25.8847 H   0  0  0  0  0  0
  -20.9314  -29.8794   21.6901 H   0  0  0  0  0  0
  -26.0147  -38.2861   24.1481 H   0  0  0  0  0  0
  -31.6786  -19.7922   20.4811 H   0  0  0  0  0  0
  -32.2452  -17.1630   20.4208 H   0  0  0  0  0  0
  -30.6685  -23.7857   19.5588 H   0  0  0  0  0  0
  -30.9151  -24.3370   21.2069 H   0  0  0  0  0  0
  -30.5829  -22.1043   22.0324 H   0  0  0  0  0  0
  -31.1334  -21.7474   20.3920 H   0  0  0  0  0  0
  -27.7385  -22.6476   19.3967 H   0  0  0  0  0  0
  -27.2101  -22.7137   21.0705 H   0  0  0  0  0  0
  -28.5842  -24.4606   21.6349 H   0  0  0  0  0  0
  -27.5765  -24.9352   19.0457 H   0  0  0  0  0  0
  -29.2079  -25.2950   18.8286 H   0  0  0  0  0  0
  -28.9269  -15.3403   21.0796 H   0  0  0  0  0  0
  1 25  1  0  0  0
  1 30  2  0  0  0
  1 82  1  0  0  0
  2  3  1  0  0  0
  2 25  1  0  0  0
  2 85  1  0  0  0
  2 86  1  0  0  0
  3  4  1  0  0  0
  3 87  1  0  0  0
  3 88  1  0  0  0
  4  5  1  0  0  0
  4 89  1  0  0  0
  4 90  1  0  0  0
  5  6  1  0  0  0
  5 26  1  0  0  0
  5 91  1  0  0  0
  6 25  1  0  0  0
  6 92  1  0  0  0
  6 93  1  0  0  0
  7  8  2  0  0  0
  7 26  1  0  0  0
  7 29  1  0  0  0
  8  9  1  0  0  0
  8 22  1  0  0  0
  9 10  1  0  0  0
  9 27  2  0  0  0
 10 11  2  0  0  0
 10 15  1  0  0  0
 11 12  1  0  0  0
 11 94  1  0  0  0
 12 13  2  0  0  0
 12 95  1  0  0  0
 13 14  1  0  0  0
 13 31  1  0  0  0
 14 15  2  0  0  0
 14 96  1  0  0  0
 15 97  1  0  0  0
 16 17  2  0  0  0
 16 21  1  0  0  0
 16 31  1  0  0  0
 17 18  1  0  0  0
 17 98  1  0  0  0
 18 19  2  0  0  0
 18 99  1  0  0  0
 19 20  1  0  0  0
 19 24  1  0  0  0
 20 21  2  0  0  0
 20100  1  0  0  0
 21 23  1  0  0  0
 22 28  1  0  0  0
 22 32  2  0  0  0
 26 27  1  0  0  0
 28101  1  0  0  0
 28102  1  0  0  0
 29103  1  0  0  0
 29104  1  0  0  0
 33 34  1  0  0  0
 33 66  1  0  0  0
 33 70  2  0  0  0
 34 36  1  0  0  0
 34 59  1  0  0  0
 34105  1  0  0  0
 35 44  2  0  0  0
 35 45  1  0  0  0
 35 68  1  0  0  0
 36 56  1  0  0  0
 36106  1  0  0  0
 37 39  1  0  0  0
 37 47  1  0  0  0
 37 66  1  0  0  0
 37107  1  0  0  0
 38 43  2  0  0  0
 38 46  1  0  0  0
 38 47  1  0  0  0
 39 64  1  0  0  0
 39 67  2  0  0  0
 40 52  1  0  0  0
 40 53  2  0  0  0
 40 58  1  0  0  0
 41108  1  0  0  0
 41109  1  0  0  0
 41110  1  0  0  0
 41 48  1  0  0  0
 42 43  1  0  0  0
 42 66  1  0  0  0
 42111  1  0  0  0
 42112  1  0  0  0
 43 44  1  0  0  0
 44113  1  0  0  0
 45 46  2  0  0  0
 45114  1  0  0  0
 46115  1  0  0  0
 47116  1  0  0  0
 47117  1  0  0  0
 48 56  1  0  0  0
 48 65  1  0  0  0
 48118  1  0  0  0
 49 50  1  0  0  0
 49 53  1  0  0  0
 49 64  1  0  0  0
 49119  1  0  0  0
 50 51  1  0  0  0
 50120  1  0  0  0
 50121  1  0  0  0
 51 52  1  0  0  0
 51122  1  0  0  0
 51123  1  0  0  0
 52124  1  0  0  0
 52125  1  0  0  0
 53 54  1  0  0  0
 54 55  2  0  0  0
 54126  1  0  0  0
 55 57  1  0  0  0
 55127  1  0  0  0
 56 69  2  0  0  0
 57 58  2  0  0  0
 57128  1  0  0  0
 58129  1  0  0  0
 59 60  1  0  0  0
 59 61  1  0  0  0
 59 62  1  0  0  0
 60130  1  0  0  0
 60131  1  0  0  0
 60132  1  0  0  0
 61133  1  0  0  0
 61134  1  0  0  0
 61135  1  0  0  0
 62136  1  0  0  0
 62137  1  0  0  0
 62138  1  0  0  0
 63 65  1  0  0  0
 63139  1  0  0  0
 63140  1  0  0  0
 63141  1  0  0  0
 64142  1  0  0  0
 65143  1  0  0  0
 68 80  1  0  0  0
 71 72  1  0  0  0
 71 73  2  0  0  0
 71144  1  0  0  0
 72 74  2  0  0  0
 72145  1  0  0  0
 73 75  1  0  0  0
 73 84  1  0  0  0
 74 82  1  0  0  0
 74 84  1  0  0  0
 75 81  1  0  0  0
 75 83  2  0  0  0
 76 77  1  0  0  0
 76 79  1  0  0  0
 76146  1  0  0  0
 76147  1  0  0  0
 77 81  1  0  0  0
 77148  1  0  0  0
 77149  1  0  0  0
 78 79  1  0  0  0
 78 81  1  0  0  0
 78150  1  0  0  0
 78151  1  0  0  0
 79 80  1  0  0  0
 79152  1  0  0  0
 80153  1  0  0  0
 80154  1  0  0  0
 82155  1  0  0  0
M  ISO  4   1 100  68 101  80 101  82 100
M  END
> <chiral flag>
0

> <version>
0

> <s_m_source_file>
/data/baiqing/PycharmProjects/Reinvent-master-3.2/result/LINK_invent/BTK/process_docking_weight1_custom_product_contain_oxygen_bond_distance_aromatic_linkinvent_7_9_3/rearranged_h_0097.sdf

> <i_m_source_file_index>
74

> <r_mmod_Potential_Energy-OPLS-2005>
122.925430297852

> <r_mmod_Stretch_Energy-OPLS-2005>
53.9371528625488

> <r_mmod_Bend_Energy-OPLS-2005>
157.619491577148

> <r_mmod_Torsional_Energy-OPLS-2005>
309.172454833984

> <r_mmod_Improper_Torsional_Energy-OPLS-2005>
4.78283596038818

> <r_mmod_Van_der_Waal_Energy-OPLS-2005>
140.918930053711

> <r_mmod_Electrostatic_Energy-OPLS-2005>
-339.027954101562

> <r_mmod_Solvation_Energy-OPLS-2005>
-230.267791748047

> <b_mmod_Minimization_Converged-OPLS-2005>
0

> <r_mmod_RMS_Derivative-OPLS-2005>
5.04780864715576

$$$$
74
                    3D
 Structure written by MMmdl.
161170  0  0  1  0            999 V2000
  -30.7365  -14.4430   20.6158 C   0  0  0  0  0  0
  -30.4154  -12.3093   19.4164 C   0  0  0  0  0  0
  -29.4865  -12.5133   18.2042 C   0  0  0  0  0  0
  -28.0092  -12.3730   18.6182 C   0  0  0  0  0  0
  -27.6596  -13.2100   19.8778 C   0  0  2  0  0  0
  -28.7008  -12.9903   20.9977 C   0  0  0  0  0  0
  -25.2562  -13.8177   20.5677 C   0  0  0  0  0  0
  -24.1816  -13.0446   20.9167 C   0  0  0  0  0  0
  -24.6374  -11.6914   20.8738 C   0  0  0  0  0  0
  -23.9048  -10.4292   21.0404 C   0  0  0  0  0  0
  -24.3605   -9.4207   21.9181 C   0  0  0  0  0  0
  -23.6280   -8.2243   22.0746 C   0  0  0  0  0  0
  -22.4264   -8.0285   21.3541 C   0  0  0  0  0  0
  -21.9898   -9.0255   20.4641 C   0  0  0  0  0  0
  -22.7225  -10.2132   20.3048 C   0  0  0  0  0  0
  -21.6851   -6.0740   22.5273 C   0  0  0  0  0  0
  -21.4017   -6.5640   23.8209 C   0  0  0  0  0  0
  -21.3658   -5.6788   24.9165 C   0  0  0  0  0  0
  -21.6043   -4.3050   24.7211 C   0  0  0  0  0  0
  -21.8822   -3.8146   23.4332 C   0  0  0  0  0  0
  -21.9191   -4.6967   22.3390 C   0  0  0  0  0  0
  -22.7839  -13.5242   21.1836 C   0  0  0  0  0  0
  -22.1660   -4.2156   21.0966 F   0  0  0  0  0  0
  -21.5618   -3.4527   25.7720 F   0  0  0  0  0  0
  -30.0338  -13.2903   20.4449 N   0  0  0  0  0  0
  -26.3004  -12.9349   20.3384 N   0  0  0  0  0  0
  -25.9300  -11.6503   20.5770 N   0  0  0  0  0  0
  -22.0484  -12.8234   22.0396 N   0  0  0  0  0  0
  -25.4298  -15.1893   20.4091 N   0  0  0  0  0  0
  -31.8320  -14.6389   20.0836 O   0  0  0  0  0  0
  -21.6633   -6.8883   21.4235 O   0  0  0  0  0  0
  -22.3516  -14.5556   20.6697 O   0  0  0  0  0  0
  -24.6152  -31.8681   23.2112 C   0  0  0  0  0  0
  -25.9050  -32.4815   23.8401 C   0  0  1  0  0  0
  -27.2245  -27.4254   20.1005 C   0  0  0  0  0  0
  -25.5918  -33.8614   24.2324 N   0  0  0  0  0  0
  -23.4031  -30.4923   21.5512 C   0  0  2  0  0  0
  -24.8495  -28.9592   20.1133 C   0  0  0  0  0  0
  -22.7415  -29.4658   22.4990 C   0  0  0  0  0  0
  -18.0277  -28.1365   22.8480 C   0  0  0  0  0  0
  -24.1491  -36.7315   23.2631 C   0  0  0  0  0  0
  -25.9335  -30.8279   21.3685 C   0  0  0  0  0  0
  -26.0090  -29.4609   20.7189 C   0  0  0  0  0  0
  -27.2013  -28.6994   20.7142 C   0  0  0  0  0  0
  -26.0606  -26.9549   19.4613 C   0  0  0  0  0  0
  -24.8701  -27.7043   19.4815 C   0  0  0  0  0  0
  -23.6124  -29.8269   20.1650 C   0  0  0  0  0  0
  -25.4113  -36.3104   24.0327 C   0  0  1  0  0  0
  -20.5869  -28.3654   23.1325 C   0  0  2  0  0  0
  -20.6767  -26.9394   22.5409 C   0  0  0  0  0  0
  -19.5764  -26.6412   21.5176 C   0  0  0  0  0  0
  -18.1929  -26.7934   22.1562 C   0  0  0  0  0  0
  -19.1524  -28.8818   23.2911 C   0  0  0  0  0  0
  -18.9450  -30.1414   23.8938 C   0  0  0  0  0  0
  -17.6453  -30.6561   24.0589 C   0  0  0  0  0  0
  -25.9040  -34.9467   23.5121 C   0  0  0  0  0  0
  -16.5347  -29.9064   23.6329 C   0  0  0  0  0  0
  -16.7266  -28.6491   23.0339 C   0  0  0  0  0  0
  -26.4474  -31.6595   25.0729 C   0  0  0  0  0  0
  -25.3744  -31.3714   26.1485 C   0  0  0  0  0  0
  -27.0297  -30.3035   24.6099 C   0  0  0  0  0  0
  -27.6045  -32.4323   25.7490 C   0  0  0  0  0  0
  -27.5579  -37.1816   24.8459 C   0  0  0  0  0  0
  -21.4140  -29.3038   22.3741 N   0  0  0  0  0  0
  -26.4292  -37.3792   23.9400 N   0  0  0  0  0  0
  -24.6684  -31.0782   22.1014 N   0  0  0  0  0  0
  -23.4192  -28.8199   23.3029 O   0  0  0  0  0  0
  -28.3728  -26.6663   20.0641 O   0  0  0  0  0  0
  -26.5600  -34.8916   22.4680 O   0  0  0  0  0  0
  -23.5347  -32.1431   23.7512 O   0  0  0  0  0  0
  -29.4792  -18.1724   20.2267 C   0  0  0  0  0  0
  -28.8609  -19.4137   19.9450 C   0  0  0  0  0  0
  -30.0309  -18.9732   22.4491 C   0  0  0  0  0  0
  -30.0686  -17.9393   21.4885 C   0  0  0  0  0  0
  -28.8161  -20.4526   20.9063 C   0  0  0  0  0  0
  -29.4086  -20.2088   22.1738 C   0  0  0  0  0  0
  -26.4024  -23.9474   20.8660 C   0  0  0  0  0  0
  -25.8248  -22.6279   20.3745 C   0  0  0  0  0  0
  -26.6826  -21.4578   20.8800 C   0  0  0  0  0  0
  -28.6863  -22.9447   20.9999 C   0  0  0  0  0  0
  -27.8744  -24.1829   20.4923 C   0  0  2  0  0  0
  -30.7906  -16.6312   21.8271 C   0  0  0  0  0  0
  -28.4488  -25.5553   20.9843 C   0  0  0  0  0  0
  -28.1085  -21.6421   20.5930 N   0  0  0  0  0  0
  -30.1503  -15.3906   21.3665 N   0  0  0  0  0  0
  -25.7299  -24.7270   21.5469 O   0  0  0  0  0  0
  -29.3579  -21.1364   23.1603 F   0  0  0  0  0  0
  -31.4593  -12.4020   19.1111 H   0  0  0  0  0  0
  -30.3131  -11.2977   19.8122 H   0  0  0  0  0  0
  -29.7255  -11.7903   17.4232 H   0  0  0  0  0  0
  -29.6539  -13.5012   17.7720 H   0  0  0  0  0  0
  -27.8164  -11.3170   18.8094 H   0  0  0  0  0  0
  -27.3586  -12.6549   17.7896 H   0  0  0  0  0  0
  -27.7053  -14.2594   19.5850 H   0  0  0  0  0  0
  -28.6744  -11.9557   21.3432 H   0  0  0  0  0  0
  -28.4555  -13.5922   21.8737 H   0  0  0  0  0  0
  -25.2740   -9.5677   22.4764 H   0  0  0  0  0  0
  -23.9989   -7.4629   22.7463 H   0  0  0  0  0  0
  -21.0830   -8.8774   19.8947 H   0  0  0  0  0  0
  -22.3684  -10.9669   19.6159 H   0  0  0  0  0  0
  -21.2026   -7.6150   23.9716 H   0  0  0  0  0  0
  -21.1476   -6.0509   25.9071 H   0  0  0  0  0  0
  -22.0607   -2.7611   23.2819 H   0  0  0  0  0  0
  -22.4083  -11.9882   22.4775 H   0  0  0  0  0  0
  -21.1106  -13.1267   22.2615 H   0  0  0  0  0  0
  -24.6675  -15.8495   20.5173 H   0  0  0  0  0  0
  -26.2900  -15.6272   20.1030 H   0  0  0  0  0  0
  -26.7125  -32.5523   23.1167 H   0  0  0  0  0  0
  -25.0083  -33.9769   25.0481 H   0  0  0  0  0  0
  -22.6915  -31.3094   21.4139 H   0  0  0  0  0  0
  -23.3737  -35.9666   23.3305 H   0  0  0  0  0  0
  -24.3577  -36.8920   22.2043 H   0  0  0  0  0  0
  -23.7264  -37.6529   23.6644 H   0  0  0  0  0  0
  -26.0496  -31.5911   20.5981 H   0  0  0  0  0  0
  -26.8215  -30.8803   21.9865 H   0  0  0  0  0  0
  -28.0986  -29.0830   21.1800 H   0  0  0  0  0  0
  -26.0710  -26.0057   18.9479 H   0  0  0  0  0  0
  -23.9837  -27.3175   18.9978 H   0  0  0  0  0  0
  -23.7212  -30.6027   19.4067 H   0  0  0  0  0  0
  -22.7364  -29.2467   19.8684 H   0  0  0  0  0  0
  -25.1290  -36.1968   25.0819 H   0  0  0  0  0  0
  -20.9961  -28.3206   24.1443 H   0  0  0  0  0  0
  -20.5647  -26.2252   23.3580 H   0  0  0  0  0  0
  -21.6648  -26.7433   22.1227 H   0  0  0  0  0  0
  -19.6930  -25.6343   21.1150 H   0  0  0  0  0  0
  -19.6721  -27.3267   20.6747 H   0  0  0  0  0  0
  -17.4227  -26.6736   21.3926 H   0  0  0  0  0  0
  -18.0282  -26.0024   22.8892 H   0  0  0  0  0  0
  -19.7927  -30.7213   24.2331 H   0  0  0  0  0  0
  -17.4996  -31.6236   24.5198 H   0  0  0  0  0  0
  -15.5344  -30.2971   23.7629 H   0  0  0  0  0  0
  -15.8665  -28.0823   22.7035 H   0  0  0  0  0  0
  -24.5915  -30.7055   25.7836 H   0  0  0  0  0  0
  -24.8938  -32.2874   26.4934 H   0  0  0  0  0  0
  -25.8102  -30.8894   27.0246 H   0  0  0  0  0  0
  -26.2837  -29.6813   24.1137 H   0  0  0  0  0  0
  -27.4046  -29.7252   25.4553 H   0  0  0  0  0  0
  -27.8685  -30.4337   23.9256 H   0  0  0  0  0  0
  -27.2649  -33.3608   26.2095 H   0  0  0  0  0  0
  -28.3838  -32.6915   25.0311 H   0  0  0  0  0  0
  -28.0733  -31.8441   26.5388 H   0  0  0  0  0  0
  -28.2605  -38.0105   24.7500 H   0  0  0  0  0  0
  -28.1067  -36.2638   24.6297 H   0  0  0  0  0  0
  -27.2291  -37.1481   25.8859 H   0  0  0  0  0  0
  -20.9287  -29.8783   21.6989 H   0  0  0  0  0  0
  -26.0177  -38.2863   24.1418 H   0  0  0  0  0  0
  -29.5040  -17.4052   19.4652 H   0  0  0  0  0  0
  -28.4092  -19.5637   18.9743 H   0  0  0  0  0  0
  -30.4754  -18.8243   23.4219 H   0  0  0  0  0  0
  -25.8116  -22.6427   19.2847 H   0  0  0  0  0  0
  -24.7928  -22.5216   20.7077 H   0  0  0  0  0  0
  -26.3220  -20.5345   20.4227 H   0  0  0  0  0  0
  -26.5408  -21.3445   21.9573 H   0  0  0  0  0  0
  -28.7511  -23.0119   22.0857 H   0  0  0  0  0  0
  -29.7098  -23.0049   20.6262 H   0  0  0  0  0  0
  -27.9268  -24.1762   19.4040 H   0  0  0  0  0  0
  -30.8915  -16.5534   22.9103 H   0  0  0  0  0  0
  -31.8107  -16.7149   21.4494 H   0  0  0  0  0  0
  -29.5129  -25.4195   21.1785 H   0  0  0  0  0  0
  -28.0291  -25.8408   21.9504 H   0  0  0  0  0  0
  -29.2395  -15.1762   21.7430 H   0  0  0  0  0  0
  1 25  1  0  0  0
  1 30  2  0  0  0
  1 85  1  0  0  0
  2  3  1  0  0  0
  2 25  1  0  0  0
  2 88  1  0  0  0
  2 89  1  0  0  0
  3  4  1  0  0  0
  3 90  1  0  0  0
  3 91  1  0  0  0
  4  5  1  0  0  0
  4 92  1  0  0  0
  4 93  1  0  0  0
  5  6  1  0  0  0
  5 26  1  0  0  0
  5 94  1  0  0  0
  6 25  1  0  0  0
  6 95  1  0  0  0
  6 96  1  0  0  0
  7  8  2  0  0  0
  7 26  1  0  0  0
  7 29  1  0  0  0
  8  9  1  0  0  0
  8 22  1  0  0  0
  9 10  1  0  0  0
  9 27  2  0  0  0
 10 11  2  0  0  0
 10 15  1  0  0  0
 11 12  1  0  0  0
 11 97  1  0  0  0
 12 13  2  0  0  0
 12 98  1  0  0  0
 13 14  1  0  0  0
 13 31  1  0  0  0
 14 15  2  0  0  0
 14 99  1  0  0  0
 15100  1  0  0  0
 16 17  2  0  0  0
 16 21  1  0  0  0
 16 31  1  0  0  0
 17 18  1  0  0  0
 17101  1  0  0  0
 18 19  2  0  0  0
 18102  1  0  0  0
 19 20  1  0  0  0
 19 24  1  0  0  0
 20 21  2  0  0  0
 20103  1  0  0  0
 21 23  1  0  0  0
 22 28  1  0  0  0
 22 32  2  0  0  0
 26 27  1  0  0  0
 28104  1  0  0  0
 28105  1  0  0  0
 29106  1  0  0  0
 29107  1  0  0  0
 33 34  1  0  0  0
 33 66  1  0  0  0
 33 70  2  0  0  0
 34 36  1  0  0  0
 34 59  1  0  0  0
 34108  1  0  0  0
 35 44  2  0  0  0
 35 45  1  0  0  0
 35 68  1  0  0  0
 36 56  1  0  0  0
 36109  1  0  0  0
 37 39  1  0  0  0
 37 47  1  0  0  0
 37 66  1  0  0  0
 37110  1  0  0  0
 38 43  2  0  0  0
 38 46  1  0  0  0
 38 47  1  0  0  0
 39 64  1  0  0  0
 39 67  2  0  0  0
 40 52  1  0  0  0
 40 53  2  0  0  0
 40 58  1  0  0  0
 41111  1  0  0  0
 41112  1  0  0  0
 41113  1  0  0  0
 41 48  1  0  0  0
 42 43  1  0  0  0
 42 66  1  0  0  0
 42114  1  0  0  0
 42115  1  0  0  0
 43 44  1  0  0  0
 44116  1  0  0  0
 45 46  2  0  0  0
 45117  1  0  0  0
 46118  1  0  0  0
 47119  1  0  0  0
 47120  1  0  0  0
 48 56  1  0  0  0
 48 65  1  0  0  0
 48121  1  0  0  0
 49 50  1  0  0  0
 49 53  1  0  0  0
 49 64  1  0  0  0
 49122  1  0  0  0
 50 51  1  0  0  0
 50123  1  0  0  0
 50124  1  0  0  0
 51 52  1  0  0  0
 51125  1  0  0  0
 51126  1  0  0  0
 52127  1  0  0  0
 52128  1  0  0  0
 53 54  1  0  0  0
 54 55  2  0  0  0
 54129  1  0  0  0
 55 57  1  0  0  0
 55130  1  0  0  0
 56 69  2  0  0  0
 57 58  2  0  0  0
 57131  1  0  0  0
 58132  1  0  0  0
 59 60  1  0  0  0
 59 61  1  0  0  0
 59 62  1  0  0  0
 60133  1  0  0  0
 60134  1  0  0  0
 60135  1  0  0  0
 61136  1  0  0  0
 61137  1  0  0  0
 61138  1  0  0  0
 62139  1  0  0  0
 62140  1  0  0  0
 62141  1  0  0  0
 63 65  1  0  0  0
 63142  1  0  0  0
 63143  1  0  0  0
 63144  1  0  0  0
 64145  1  0  0  0
 65146  1  0  0  0
 68 83  1  0  0  0
 71 72  2  0  0  0
 71 74  1  0  0  0
 71147  1  0  0  0
 72 75  1  0  0  0
 72148  1  0  0  0
 73 74  2  0  0  0
 73 76  1  0  0  0
 73149  1  0  0  0
 74 82  1  0  0  0
 75 76  2  0  0  0
 75 84  1  0  0  0
 76 87  1  0  0  0
 77 78  1  0  0  0
 77 81  1  0  0  0
 77 86  2  0  0  0
 78 79  1  0  0  0
 78150  1  0  0  0
 78151  1  0  0  0
 79 84  1  0  0  0
 79152  1  0  0  0
 79153  1  0  0  0
 80 81  1  0  0  0
 80 84  1  0  0  0
 80154  1  0  0  0
 80155  1  0  0  0
 81 83  1  0  0  0
 81156  1  0  0  0
 82 85  1  0  0  0
 82157  1  0  0  0
 82158  1  0  0  0
 83159  1  0  0  0
 83160  1  0  0  0
 85161  1  0  0  0
M  ISO  4   1 100  68 101  83 101  85 100
M  END
> <chiral flag>
0

> <version>
0

> <s_m_source_file>
/data/baiqing/PycharmProjects/Reinvent-master-3.2/result/LINK_invent/BTK/process_docking_weight1_custom_product_contain_oxygen_bond_distance_aromatic_linkinvent_7_9_3/rearranged_h_0097.sdf

> <i_m_source_file_index>
75

> <r_mmod_Potential_Energy-OPLS-2005>
-75.4485168457031

> <r_mmod_Stretch_Energy-OPLS-2005>
42.1099243164062

> <r_mmod_Bend_Energy-OPLS-2005>
104.857284545898

> <r_mmod_Torsional_Energy-OPLS-2005>
212.449981689453

> <r_mmod_Improper_Torsional_Energy-OPLS-2005>
6.45543241500854

> <r_mmod_Van_der_Waal_Energy-OPLS-2005>
159.173767089844

> <r_mmod_Electrostatic_Energy-OPLS-2005>
-380.310729980469

> <r_mmod_Solvation_Energy-OPLS-2005>
-231.461578369141

> <b_mmod_Minimization_Converged-OPLS-2005>
0

> <r_mmod_RMS_Derivative-OPLS-2005>
1.30805265903473

$$$$
75
                    3D
 Structure written by MMmdl.
164172  0  0  1  0            999 V2000
  -30.6072  -14.6543   20.6249 C   0  0  0  0  0  0
  -30.4578  -12.4382   19.4551 C   0  0  0  0  0  0
  -29.5126  -12.5514   18.2351 C   0  0  0  0  0  0
  -28.0267  -12.3842   18.6285 C   0  0  0  0  0  0
  -27.6595  -13.2064   19.8902 C   0  0  2  0  0  0
  -28.7060  -12.9173   20.9827 C   0  0  0  0  0  0
  -25.2528  -13.8138   20.5661 C   0  0  0  0  0  0
  -24.1801  -13.0384   20.9124 C   0  0  0  0  0  0
  -24.6385  -11.6853   20.8713 C   0  0  0  0  0  0
  -23.9071  -10.4244   21.0382 C   0  0  0  0  0  0
  -24.3641   -9.4144   21.9143 C   0  0  0  0  0  0
  -23.6318   -8.2176   22.0709 C   0  0  0  0  0  0
  -22.4280   -8.0243   21.3518 C   0  0  0  0  0  0
  -21.9915   -9.0208   20.4618 C   0  0  0  0  0  0
  -22.7248  -10.2077   20.3011 C   0  0  0  0  0  0
  -21.6839   -6.0718   22.5269 C   0  0  0  0  0  0
  -21.4003   -6.5621   23.8205 C   0  0  0  0  0  0
  -21.3665   -5.6756   24.9157 C   0  0  0  0  0  0
  -21.6054   -4.3022   24.7195 C   0  0  0  0  0  0
  -21.8843   -3.8121   23.4298 C   0  0  0  0  0  0
  -21.9184   -4.6953   22.3377 C   0  0  0  0  0  0
  -22.7814  -13.5144   21.1809 C   0  0  0  0  0  0
  -22.1642   -4.2157   21.0951 F   0  0  0  0  0  0
  -21.5651   -3.4509   25.7692 F   0  0  0  0  0  0
  -30.0020  -13.4116   20.4824 N   0  0  0  0  0  0
  -26.2990  -12.9302   20.3452 N   0  0  0  0  0  0
  -25.9329  -11.6446   20.5832 N   0  0  0  0  0  0
  -22.0544  -12.8137   22.0435 N   0  0  0  0  0  0
  -25.4102  -15.1884   20.4105 N   0  0  0  0  0  0
  -31.7376  -14.8212   20.1477 O   0  0  0  0  0  0
  -21.6615   -6.8852   21.4231 O   0  0  0  0  0  0
  -22.3461  -14.5417   20.6658 O   0  0  0  0  0  0
  -24.6288  -31.8626   23.2008 C   0  0  0  0  0  0
  -25.9117  -32.4811   23.8367 C   0  0  1  0  0  0
  -27.2188  -27.3003   20.0915 C   0  0  0  0  0  0
  -25.5919  -33.8613   24.2282 N   0  0  0  0  0  0
  -23.4252  -30.4870   21.5450 C   0  0  2  0  0  0
  -24.8707  -28.9499   20.1055 C   0  0  0  0  0  0
  -22.7529  -29.4641   22.4930 C   0  0  0  0  0  0
  -18.0312  -28.1421   22.8508 C   0  0  0  0  0  0
  -24.1482  -36.7276   23.2639 C   0  0  0  0  0  0
  -25.9726  -30.7872   21.3746 C   0  0  0  0  0  0
  -26.0473  -29.4158   20.7053 C   0  0  0  0  0  0
  -27.2295  -28.6078   20.6779 C   0  0  0  0  0  0
  -26.0090  -26.8934   19.4786 C   0  0  0  0  0  0
  -24.8587  -27.6998   19.4750 C   0  0  0  0  0  0
  -23.6373  -29.8270   20.1593 C   0  0  0  0  0  0
  -25.4117  -36.3098   24.0340 C   0  0  1  0  0  0
  -20.5926  -28.3718   23.1302 C   0  0  2  0  0  0
  -20.6803  -26.9442   22.5444 C   0  0  0  0  0  0
  -19.5785  -26.6402   21.5250 C   0  0  0  0  0  0
  -18.1950  -26.7987   22.1606 C   0  0  0  0  0  0
  -19.1576  -28.8888   23.2899 C   0  0  0  0  0  0
  -18.9466  -30.1479   23.8932 C   0  0  0  0  0  0
  -17.6462  -30.6617   24.0547 C   0  0  0  0  0  0
  -25.9067  -34.9481   23.5116 C   0  0  0  0  0  0
  -16.5358  -29.9114   23.6307 C   0  0  0  0  0  0
  -16.7289  -28.6518   23.0368 C   0  0  0  0  0  0
  -26.4486  -31.6633   25.0747 C   0  0  0  0  0  0
  -25.3669  -31.3769   26.1436 C   0  0  0  0  0  0
  -27.0311  -30.3054   24.6197 C   0  0  0  0  0  0
  -27.6077  -32.4378   25.7478 C   0  0  0  0  0  0
  -27.5624  -37.1769   24.8436 C   0  0  0  0  0  0
  -21.4247  -29.3047   22.3686 N   0  0  0  0  0  0
  -26.4275  -37.3818   23.9468 N   0  0  0  0  0  0
  -24.6954  -31.0618   22.0964 N   0  0  0  0  0  0
  -23.4247  -28.8190   23.3020 O   0  0  0  0  0  0
  -28.3280  -26.4279   20.1150 O   0  0  0  0  0  0
  -26.5640  -34.8947   22.4686 O   0  0  0  0  0  0
  -23.5434  -32.1447   23.7297 O   0  0  0  0  0  0
  -30.7223  -18.1135   21.5111 C   0  0  0  0  0  0
  -29.4348  -17.6431   19.5379 C   0  0  0  0  0  0
  -30.6611  -19.5109   21.2294 C   0  0  0  0  0  0
  -29.4029  -19.0421   19.2302 C   0  0  0  0  0  0
  -30.0796  -17.1393   20.6970 C   0  0  0  0  0  0
  -29.9647  -20.0245   20.1009 C   0  0  0  0  0  0
  -28.8052  -16.9634   24.4189 C   0  0  0  0  0  0
  -28.5946  -16.8246   23.0998 C   0  0  0  0  0  0
  -31.3680  -20.4656   22.1717 C   0  0  0  0  0  0
  -28.7873  -19.4704   17.9153 C   0  0  0  0  0  0
  -28.9689  -15.5915   22.2888 C   0  0  0  0  0  0
  -29.2770  -23.8998   20.0691 C   0  0  0  0  0  0
  -28.0778  -24.9574   20.0409 C   0  0  0  0  0  0
  -28.9156  -22.3291   20.0714 C   0  0  0  0  0  0
  -29.9008  -15.7488   21.1440 N   0  0  0  0  0  0
  -30.0238  -21.4050   19.7976 O   0  0  0  0  0  0
  -31.4888  -12.6085   19.1432 H   0  0  0  0  0  0
  -30.4540  -11.4227   19.8567 H   0  0  0  0  0  0
  -29.7855  -11.8179   17.4748 H   0  0  0  0  0  0
  -29.6490  -13.5362   17.7850 H   0  0  0  0  0  0
  -27.8452  -11.3269   18.8249 H   0  0  0  0  0  0
  -27.3771  -12.6499   17.7961 H   0  0  0  0  0  0
  -27.7108  -14.2638   19.6271 H   0  0  0  0  0  0
  -28.7556  -11.8374   21.1414 H   0  0  0  0  0  0
  -28.4171  -13.2389   21.9733 H   0  0  0  0  0  0
  -25.2786   -9.5600   22.4709 H   0  0  0  0  0  0
  -24.0015   -7.4555   22.7417 H   0  0  0  0  0  0
  -21.0816   -8.8726   19.8968 H   0  0  0  0  0  0
  -22.3700  -10.9607   19.6118 H   0  0  0  0  0  0
  -21.1987   -7.6126   23.9740 H   0  0  0  0  0  0
  -21.1479   -6.0446   25.9078 H   0  0  0  0  0  0
  -22.0639   -2.7595   23.2763 H   0  0  0  0  0  0
  -22.4273  -11.9853   22.4825 H   0  0  0  0  0  0
  -21.1204  -13.1136   22.2781 H   0  0  0  0  0  0
  -24.6211  -15.8206   20.4762 H   0  0  0  0  0  0
  -26.2760  -15.6602   20.1810 H   0  0  0  0  0  0
  -26.7202  -32.5452   23.1133 H   0  0  0  0  0  0
  -25.0023  -33.9773   25.0394 H   0  0  0  0  0  0
  -22.7178  -31.3071   21.4058 H   0  0  0  0  0  0
  -23.3818  -35.9526   23.3191 H   0  0  0  0  0  0
  -24.3574  -36.8993   22.2068 H   0  0  0  0  0  0
  -23.7130  -37.6403   23.6719 H   0  0  0  0  0  0
  -26.1138  -31.5618   20.6190 H   0  0  0  0  0  0
  -26.8487  -30.8276   22.0093 H   0  0  0  0  0  0
  -28.1425  -28.9665   21.1353 H   0  0  0  0  0  0
  -25.9041  -25.9405   18.9846 H   0  0  0  0  0  0
  -23.9635  -27.3482   18.9820 H   0  0  0  0  0  0
  -23.7492  -30.6042   19.4046 H   0  0  0  0  0  0
  -22.7576  -29.2550   19.8584 H   0  0  0  0  0  0
  -25.1304  -36.1920   25.0829 H   0  0  0  0  0  0
  -21.0031  -28.3287   24.1415 H   0  0  0  0  0  0
  -20.5747  -26.2326   23.3651 H   0  0  0  0  0  0
  -21.6663  -26.7506   22.1200 H   0  0  0  0  0  0
  -19.6935  -25.6311   21.1294 H   0  0  0  0  0  0
  -19.6733  -27.3188   20.6765 H   0  0  0  0  0  0
  -17.4260  -26.6812   21.3944 H   0  0  0  0  0  0
  -18.0247  -26.0117   22.8967 H   0  0  0  0  0  0
  -19.7918  -30.7303   24.2332 H   0  0  0  0  0  0
  -17.4990  -31.6298   24.5149 H   0  0  0  0  0  0
  -15.5358  -30.3009   23.7639 H   0  0  0  0  0  0
  -15.8679  -28.0817   22.7113 H   0  0  0  0  0  0
  -24.5873  -30.7121   25.7692 H   0  0  0  0  0  0
  -24.8807  -32.2917   26.4841 H   0  0  0  0  0  0
  -25.7941  -30.8929   27.0222 H   0  0  0  0  0  0
  -26.2863  -29.6832   24.1228 H   0  0  0  0  0  0
  -27.3992  -29.7317   25.4704 H   0  0  0  0  0  0
  -27.8749  -30.4328   23.9419 H   0  0  0  0  0  0
  -27.2726  -33.3667   26.2104 H   0  0  0  0  0  0
  -28.3834  -32.6988   25.0266 H   0  0  0  0  0  0
  -28.0826  -31.8484   26.5322 H   0  0  0  0  0  0
  -28.2559  -38.0158   24.7689 H   0  0  0  0  0  0
  -28.1233  -36.2736   24.6017 H   0  0  0  0  0  0
  -27.2384  -37.1064   25.8830 H   0  0  0  0  0  0
  -20.9470  -29.8693   21.6811 H   0  0  0  0  0  0
  -26.0164  -38.2869   24.1594 H   0  0  0  0  0  0
  -31.2148  -17.7852   22.4178 H   0  0  0  0  0  0
  -28.9328  -16.9382   18.8866 H   0  0  0  0  0  0
  -28.5145  -17.8652   24.9380 H   0  0  0  0  0  0
  -29.2741  -16.1840   25.0051 H   0  0  0  0  0  0
  -28.1164  -17.6324   22.5601 H   0  0  0  0  0  0
  -32.3120  -20.0366   22.5087 H   0  0  0  0  0  0
  -30.7456  -20.6525   23.0458 H   0  0  0  0  0  0
  -31.5833  -21.4229   21.6950 H   0  0  0  0  0  0
  -28.5215  -18.6038   17.3077 H   0  0  0  0  0  0
  -29.5001  -20.0698   17.3476 H   0  0  0  0  0  0
  -27.8894  -20.0624   18.0794 H   0  0  0  0  0  0
  -28.0088  -15.2792   21.8793 H   0  0  0  0  0  0
  -29.3344  -14.8312   22.9827 H   0  0  0  0  0  0
  -29.9077  -24.1077   20.9330 H   0  0  0  0  0  0
  -29.9089  -24.1018   19.2031 H   0  0  0  0  0  0
  -27.3932  -24.7074   20.8546 H   0  0  0  0  0  0
  -27.5537  -24.7345   19.1119 H   0  0  0  0  0  0
  -28.1561  -22.1443   19.3105 H   0  0  0  0  0  0
  -28.4618  -22.0674   21.0289 H   0  0  0  0  0  0
  1 25  1  0  0  0
  1 30  2  0  0  0
  1 85  1  0  0  0
  2  3  1  0  0  0
  2 25  1  0  0  0
  2 87  1  0  0  0
  2 88  1  0  0  0
  3  4  1  0  0  0
  3 89  1  0  0  0
  3 90  1  0  0  0
  4  5  1  0  0  0
  4 91  1  0  0  0
  4 92  1  0  0  0
  5  6  1  0  0  0
  5 26  1  0  0  0
  5 93  1  0  0  0
  6 25  1  0  0  0
  6 94  1  0  0  0
  6 95  1  0  0  0
  7  8  2  0  0  0
  7 26  1  0  0  0
  7 29  1  0  0  0
  8  9  1  0  0  0
  8 22  1  0  0  0
  9 10  1  0  0  0
  9 27  2  0  0  0
 10 11  2  0  0  0
 10 15  1  0  0  0
 11 12  1  0  0  0
 11 96  1  0  0  0
 12 13  2  0  0  0
 12 97  1  0  0  0
 13 14  1  0  0  0
 13 31  1  0  0  0
 14 15  2  0  0  0
 14 98  1  0  0  0
 15 99  1  0  0  0
 16 17  2  0  0  0
 16 21  1  0  0  0
 16 31  1  0  0  0
 17 18  1  0  0  0
 17100  1  0  0  0
 18 19  2  0  0  0
 18101  1  0  0  0
 19 20  1  0  0  0
 19 24  1  0  0  0
 20 21  2  0  0  0
 20102  1  0  0  0
 21 23  1  0  0  0
 22 28  1  0  0  0
 22 32  2  0  0  0
 26 27  1  0  0  0
 28103  1  0  0  0
 28104  1  0  0  0
 29105  1  0  0  0
 29106  1  0  0  0
 33 34  1  0  0  0
 33 66  1  0  0  0
 33 70  2  0  0  0
 34 36  1  0  0  0
 34 59  1  0  0  0
 34107  1  0  0  0
 35 44  2  0  0  0
 35 45  1  0  0  0
 35 68  1  0  0  0
 36 56  1  0  0  0
 36108  1  0  0  0
 37 39  1  0  0  0
 37 47  1  0  0  0
 37 66  1  0  0  0
 37109  1  0  0  0
 38 43  2  0  0  0
 38 46  1  0  0  0
 38 47  1  0  0  0
 39 64  1  0  0  0
 39 67  2  0  0  0
 40 52  1  0  0  0
 40 53  2  0  0  0
 40 58  1  0  0  0
 41110  1  0  0  0
 41111  1  0  0  0
 41112  1  0  0  0
 41 48  1  0  0  0
 42 43  1  0  0  0
 42 66  1  0  0  0
 42113  1  0  0  0
 42114  1  0  0  0
 43 44  1  0  0  0
 44115  1  0  0  0
 45 46  2  0  0  0
 45116  1  0  0  0
 46117  1  0  0  0
 47118  1  0  0  0
 47119  1  0  0  0
 48 56  1  0  0  0
 48 65  1  0  0  0
 48120  1  0  0  0
 49 50  1  0  0  0
 49 53  1  0  0  0
 49 64  1  0  0  0
 49121  1  0  0  0
 50 51  1  0  0  0
 50122  1  0  0  0
 50123  1  0  0  0
 51 52  1  0  0  0
 51124  1  0  0  0
 51125  1  0  0  0
 52126  1  0  0  0
 52127  1  0  0  0
 53 54  1  0  0  0
 54 55  2  0  0  0
 54128  1  0  0  0
 55 57  1  0  0  0
 55129  1  0  0  0
 56 69  2  0  0  0
 57 58  2  0  0  0
 57130  1  0  0  0
 58131  1  0  0  0
 59 60  1  0  0  0
 59 61  1  0  0  0
 59 62  1  0  0  0
 60132  1  0  0  0
 60133  1  0  0  0
 60134  1  0  0  0
 61135  1  0  0  0
 61136  1  0  0  0
 61137  1  0  0  0
 62138  1  0  0  0
 62139  1  0  0  0
 62140  1  0  0  0
 63 65  1  0  0  0
 63141  1  0  0  0
 63142  1  0  0  0
 63143  1  0  0  0
 64144  1  0  0  0
 65145  1  0  0  0
 68 83  1  0  0  0
 71 73  2  0  0  0
 71 75  1  0  0  0
 71146  1  0  0  0
 72 74  1  0  0  0
 72 75  2  0  0  0
 72147  1  0  0  0
 73 76  1  0  0  0
 73 79  1  0  0  0
 74 76  2  0  0  0
 74 80  1  0  0  0
 75 85  1  0  0  0
 76 86  1  0  0  0
 77 78  2  0  0  0
 77148  1  0  0  0
 77149  1  0  0  0
 78 81  1  0  0  0
 78150  1  0  0  0
 79151  1  0  0  0
 79152  1  0  0  0
 79153  1  0  0  0
 80154  1  0  0  0
 80155  1  0  0  0
 80156  1  0  0  0
 81 85  1  0  0  0
 81157  1  0  0  0
 81158  1  0  0  0
 82 83  1  0  0  0
 82 84  1  0  0  0
 82159  1  0  0  0
 82160  1  0  0  0
 83161  1  0  0  0
 83162  1  0  0  0
 84 86  1  0  0  0
 84163  1  0  0  0
 84164  1  0  0  0
M  ISO  4   1 100  68 101  83 101  85 100
M  END
> <chiral flag>
0

> <version>
0

> <s_m_source_file>
/data/baiqing/PycharmProjects/Reinvent-master-3.2/result/LINK_invent/BTK/process_docking_weight1_custom_product_contain_oxygen_bond_distance_aromatic_linkinvent_7_9_3/rearranged_h_0097.sdf

> <i_m_source_file_index>
76

> <r_mmod_Potential_Energy-OPLS-2005>
316.187133789062

> <r_mmod_Stretch_Energy-OPLS-2005>
103.485816955566

> <r_mmod_Bend_Energy-OPLS-2005>
167.899505615234

> <r_mmod_Torsional_Energy-OPLS-2005>
331.098358154297

> <r_mmod_Improper_Torsional_Energy-OPLS-2005>
5.73695087432861

> <r_mmod_Van_der_Waal_Energy-OPLS-2005>
160.885528564453

> <r_mmod_Electrostatic_Energy-OPLS-2005>
-312.880493164062

> <r_mmod_Solvation_Energy-OPLS-2005>
-193.370513916016

> <b_mmod_Minimization_Converged-OPLS-2005>
0

> <r_mmod_RMS_Derivative-OPLS-2005>
5.25426435470581

$$$$
76
                    3D
 Structure written by MMmdl.
171180  0  0  1  0            999 V2000
  -30.7229  -14.3849   20.6218 C   0  0  0  0  0  0
  -30.4031  -12.2463   19.4364 C   0  0  0  0  0  0
  -29.5196  -12.4948   18.2038 C   0  0  0  0  0  0
  -28.0261  -12.3596   18.5907 C   0  0  0  0  0  0
  -27.6563  -13.1778   19.8519 C   0  0  2  0  0  0
  -28.6757  -12.9563   20.9824 C   0  0  0  0  0  0
  -25.2616  -13.8117   20.5682 C   0  0  0  0  0  0
  -24.1863  -13.0472   20.9200 C   0  0  0  0  0  0
  -24.6330  -11.6905   20.8700 C   0  0  0  0  0  0
  -23.9010  -10.4354   21.0419 C   0  0  0  0  0  0
  -24.3558   -9.4288   21.9198 C   0  0  0  0  0  0
  -23.6232   -8.2332   22.0734 C   0  0  0  0  0  0
  -22.4251   -8.0327   21.3524 C   0  0  0  0  0  0
  -21.9892   -9.0307   20.4639 C   0  0  0  0  0  0
  -22.7210  -10.2172   20.3050 C   0  0  0  0  0  0
  -21.6912   -6.0721   22.5265 C   0  0  0  0  0  0
  -21.4102   -6.5605   23.8203 C   0  0  0  0  0  0
  -21.3624   -5.6751   24.9157 C   0  0  0  0  0  0
  -21.5996   -4.3015   24.7215 C   0  0  0  0  0  0
  -21.8806   -3.8112   23.4355 C   0  0  0  0  0  0
  -21.9250   -4.6939   22.3399 C   0  0  0  0  0  0
  -22.7904  -13.5315   21.1897 C   0  0  0  0  0  0
  -22.1748   -4.2113   21.0990 F   0  0  0  0  0  0
  -21.5535   -3.4467   25.7725 F   0  0  0  0  0  0
  -30.0224  -13.2326   20.4550 N   0  0  0  0  0  0
  -26.2967  -12.9197   20.3136 N   0  0  0  0  0  0
  -25.9227  -11.6399   20.5639 N   0  0  0  0  0  0
  -22.0450  -12.8304   22.0365 N   0  0  0  0  0  0
  -25.4509  -15.1875   20.4194 N   0  0  0  0  0  0
  -31.7860  -14.6166   20.0321 O   0  0  0  0  0  0
  -21.6673   -6.8881   21.4227 O   0  0  0  0  0  0
  -22.3657  -14.5645   20.6717 O   0  0  0  0  0  0
  -24.6161  -31.8702   23.2175 C   0  0  0  0  0  0
  -25.9066  -32.4837   23.8449 C   0  0  1  0  0  0
  -27.2153  -27.4077   20.0865 C   0  0  0  0  0  0
  -25.5935  -33.8644   24.2364 N   0  0  0  0  0  0
  -23.4042  -30.4995   21.5577 C   0  0  2  0  0  0
  -24.8463  -28.9784   20.1143 C   0  0  0  0  0  0
  -22.7403  -29.4681   22.4987 C   0  0  0  0  0  0
  -18.0264  -28.1397   22.8496 C   0  0  0  0  0  0
  -24.1482  -36.7263   23.2632 C   0  0  0  0  0  0
  -25.9417  -30.8232   21.3854 C   0  0  0  0  0  0
  -26.0137  -29.4627   20.7184 C   0  0  0  0  0  0
  -27.1985  -28.6836   20.7071 C   0  0  0  0  0  0
  -26.0277  -26.9695   19.4492 C   0  0  0  0  0  0
  -24.8508  -27.7308   19.4793 C   0  0  0  0  0  0
  -23.6132  -29.8467   20.1683 C   0  0  0  0  0  0
  -25.4118  -36.3106   24.0326 C   0  0  1  0  0  0
  -20.5853  -28.3684   23.1311 C   0  0  2  0  0  0
  -20.6768  -26.9421   22.5416 C   0  0  0  0  0  0
  -19.5737  -26.6399   21.5221 C   0  0  0  0  0  0
  -18.1909  -26.7951   22.1618 C   0  0  0  0  0  0
  -19.1515  -28.8857   23.2900 C   0  0  0  0  0  0
  -18.9445  -30.1465   23.8909 C   0  0  0  0  0  0
  -17.6449  -30.6601   24.0575 C   0  0  0  0  0  0
  -25.9059  -34.9482   23.5139 C   0  0  0  0  0  0
  -16.5341  -29.9100   23.6356 C   0  0  0  0  0  0
  -16.7253  -28.6521   23.0368 C   0  0  0  0  0  0
  -26.4500  -31.6634   25.0790 C   0  0  0  0  0  0
  -25.3741  -31.3739   26.1507 C   0  0  0  0  0  0
  -27.0350  -30.3063   24.6253 C   0  0  0  0  0  0
  -27.6107  -32.4334   25.7524 C   0  0  0  0  0  0
  -27.5574  -37.1800   24.8466 C   0  0  0  0  0  0
  -21.4127  -29.3049   22.3712 N   0  0  0  0  0  0
  -26.4289  -37.3797   23.9413 N   0  0  0  0  0  0
  -24.6720  -31.0778   22.1104 N   0  0  0  0  0  0
  -23.4167  -28.8195   23.3012 O   0  0  0  0  0  0
  -28.3587  -26.6171   20.1307 O   0  0  0  0  0  0
  -26.5576  -34.8921   22.4678 O   0  0  0  0  0  0
  -23.5350  -32.1470   23.7559 O   0  0  0  0  0  0
  -29.1499  -18.2158   19.2746 C   0  0  0  0  0  0
  -29.1782  -16.9226   19.8282 C   0  0  0  0  0  0
  -30.7119  -17.6990   21.5368 C   0  0  0  0  0  0
  -29.9037  -19.2722   19.8406 C   0  0  0  0  0  0
  -30.0060  -16.6423   20.9366 C   0  0  0  0  0  0
  -30.6194  -19.0172   21.0402 C   0  0  0  0  0  0
  -31.4643  -22.3156   20.0182 C   0  0  0  0  0  0
  -31.5813  -23.6081   20.8220 C   0  0  0  0  0  0
  -30.6904  -24.6949   20.2133 C   0  0  0  0  0  0
  -29.0934  -22.8349   19.5541 C   0  0  0  0  0  0
  -29.2385  -24.2200   20.2640 C   0  0  2  0  0  0
  -28.9619  -15.6029   23.6266 C   0  0  0  0  0  0
  -30.9279  -20.1455   23.0708 C   0  0  0  0  0  0
  -30.0050  -20.5781   19.0282 C   0  0  0  0  0  0
  -28.2304  -25.2448   19.6853 C   0  0  0  0  0  0
  -30.2014  -15.0655   22.8825 C   0  0  0  0  0  0
  -30.2183  -21.8782   19.7071 N   0  0  0  0  0  0
  -30.1547  -15.3112   21.4282 N   0  0  0  0  0  0
  -32.4989  -21.7048   19.7343 O   0  0  0  0  0  0
  -31.2805  -20.0138   21.7016 O   0  0  0  0  0  0
  -31.4659  -12.2731   19.1883 H   0  0  0  0  0  0
  -30.2085  -11.2429   19.8231 H   0  0  0  0  0  0
  -29.7733  -11.7870   17.4120 H   0  0  0  0  0  0
  -29.7272  -13.4845   17.8008 H   0  0  0  0  0  0
  -27.8278  -11.3045   18.7758 H   0  0  0  0  0  0
  -27.3958  -12.6616   17.7537 H   0  0  0  0  0  0
  -27.7015  -14.2229   19.5641 H   0  0  0  0  0  0
  -28.6344  -11.9404   21.3778 H   0  0  0  0  0  0
  -28.3804  -13.5903   21.8117 H   0  0  0  0  0  0
  -25.2710   -9.5771   22.4764 H   0  0  0  0  0  0
  -23.9864   -7.4748   22.7482 H   0  0  0  0  0  0
  -21.0820   -8.8890   19.8950 H   0  0  0  0  0  0
  -22.3726  -10.9687   19.6107 H   0  0  0  0  0  0
  -21.2164   -7.6104   23.9710 H   0  0  0  0  0  0
  -21.1455   -6.0484   25.9026 H   0  0  0  0  0  0
  -22.0628   -2.7568   23.2876 H   0  0  0  0  0  0
  -22.3912  -11.9957   22.4874 H   0  0  0  0  0  0
  -21.1093  -13.1460   22.2529 H   0  0  0  0  0  0
  -24.7140  -15.8709   20.5732 H   0  0  0  0  0  0
  -26.3006  -15.5984   20.0555 H   0  0  0  0  0  0
  -26.7138  -32.5536   23.1204 H   0  0  0  0  0  0
  -25.0170  -33.9856   25.0562 H   0  0  0  0  0  0
  -22.6935  -31.3183   21.4236 H   0  0  0  0  0  0
  -23.3799  -35.9541   23.3298 H   0  0  0  0  0  0
  -24.3558  -36.8881   22.2046 H   0  0  0  0  0  0
  -23.7187  -37.6439   23.6662 H   0  0  0  0  0  0
  -26.0778  -31.6029   20.6337 H   0  0  0  0  0  0
  -26.8188  -30.8560   22.0197 H   0  0  0  0  0  0
  -28.0941  -29.0510   21.1908 H   0  0  0  0  0  0
  -25.9633  -26.0360   18.9128 H   0  0  0  0  0  0
  -23.9573  -27.3583   18.9978 H   0  0  0  0  0  0
  -23.7266  -30.6283   19.4155 H   0  0  0  0  0  0
  -22.7370  -29.2705   19.8657 H   0  0  0  0  0  0
  -25.1316  -36.1963   25.0818 H   0  0  0  0  0  0
  -20.9951  -28.3264   24.1423 H   0  0  0  0  0  0
  -20.5704  -26.2287   23.3598 H   0  0  0  0  0  0
  -21.6637  -26.7477   22.1191 H   0  0  0  0  0  0
  -19.6903  -25.6305   21.1262 H   0  0  0  0  0  0
  -19.6701  -27.3212   20.6754 H   0  0  0  0  0  0
  -17.4188  -26.6705   21.4011 H   0  0  0  0  0  0
  -18.0296  -26.0093   22.9006 H   0  0  0  0  0  0
  -19.7914  -30.7290   24.2286 H   0  0  0  0  0  0
  -17.4996  -31.6289   24.5149 H   0  0  0  0  0  0
  -15.5345  -30.3001   23.7699 H   0  0  0  0  0  0
  -15.8636  -28.0849   22.7098 H   0  0  0  0  0  0
  -24.5927  -30.7092   25.7801 H   0  0  0  0  0  0
  -24.8912  -32.2887   26.4957 H   0  0  0  0  0  0
  -25.8048  -30.8877   27.0268 H   0  0  0  0  0  0
  -26.2931  -29.6792   24.1292 H   0  0  0  0  0  0
  -27.4051  -29.7356   25.4783 H   0  0  0  0  0  0
  -27.8804  -30.4351   23.9491 H   0  0  0  0  0  0
  -27.2839  -33.3723   26.2005 H   0  0  0  0  0  0
  -28.3970  -32.6724   25.0350 H   0  0  0  0  0  0
  -28.0705  -31.8483   26.5503 H   0  0  0  0  0  0
  -28.2611  -38.0082   24.7535 H   0  0  0  0  0  0
  -28.1063  -36.2622   24.6299 H   0  0  0  0  0  0
  -27.2271  -37.1437   25.8858 H   0  0  0  0  0  0
  -20.9282  -29.8748   21.6915 H   0  0  0  0  0  0
  -26.0177  -38.2864   24.1451 H   0  0  0  0  0  0
  -28.5694  -18.3774   18.3757 H   0  0  0  0  0  0
  -28.6061  -16.1410   19.3540 H   0  0  0  0  0  0
  -31.3664  -17.4831   22.3675 H   0  0  0  0  0  0
  -32.6202  -23.9302   20.8636 H   0  0  0  0  0  0
  -31.2763  -23.3989   21.8510 H   0  0  0  0  0  0
  -30.9903  -24.8893   19.1839 H   0  0  0  0  0  0
  -30.8145  -25.6284   20.7634 H   0  0  0  0  0  0
  -28.9998  -23.0073   18.4803 H   0  0  0  0  0  0
  -28.1597  -22.3562   19.8564 H   0  0  0  0  0  0
  -28.9811  -24.0747   21.3147 H   0  0  0  0  0  0
  -28.9711  -16.6892   23.6982 H   0  0  0  0  0  0
  -28.9607  -15.2112   24.6433 H   0  0  0  0  0  0
  -28.0137  -15.3076   23.1698 H   0  0  0  0  0  0
  -31.5508  -20.9023   23.5420 H   0  0  0  0  0  0
  -31.0807  -19.2227   23.6317 H   0  0  0  0  0  0
  -29.8838  -20.4488   23.1661 H   0  0  0  0  0  0
  -29.1271  -20.6538   18.3822 H   0  0  0  0  0  0
  -30.8346  -20.3963   18.3429 H   0  0  0  0  0  0
  -27.2652  -24.8317   19.9788 H   0  0  0  0  0  0
  -28.2704  -25.2365   18.5957 H   0  0  0  0  0  0
  -30.2707  -13.9968   23.0839 H   0  0  0  0  0  0
  -31.1139  -15.4808   23.3093 H   0  0  0  0  0  0
  1 25  1  0  0  0
  1 30  2  0  0  0
  1 88  1  0  0  0
  2  3  1  0  0  0
  2 25  1  0  0  0
  2 91  1  0  0  0
  2 92  1  0  0  0
  3  4  1  0  0  0
  3 93  1  0  0  0
  3 94  1  0  0  0
  4  5  1  0  0  0
  4 95  1  0  0  0
  4 96  1  0  0  0
  5  6  1  0  0  0
  5 26  1  0  0  0
  5 97  1  0  0  0
  6 25  1  0  0  0
  6 98  1  0  0  0
  6 99  1  0  0  0
  7  8  2  0  0  0
  7 26  1  0  0  0
  7 29  1  0  0  0
  8  9  1  0  0  0
  8 22  1  0  0  0
  9 10  1  0  0  0
  9 27  2  0  0  0
 10 11  2  0  0  0
 10 15  1  0  0  0
 11 12  1  0  0  0
 11100  1  0  0  0
 12 13  2  0  0  0
 12101  1  0  0  0
 13 14  1  0  0  0
 13 31  1  0  0  0
 14 15  2  0  0  0
 14102  1  0  0  0
 15103  1  0  0  0
 16 17  2  0  0  0
 16 21  1  0  0  0
 16 31  1  0  0  0
 17 18  1  0  0  0
 17104  1  0  0  0
 18 19  2  0  0  0
 18105  1  0  0  0
 19 20  1  0  0  0
 19 24  1  0  0  0
 20 21  2  0  0  0
 20106  1  0  0  0
 21 23  1  0  0  0
 22 28  1  0  0  0
 22 32  2  0  0  0
 26 27  1  0  0  0
 28107  1  0  0  0
 28108  1  0  0  0
 29109  1  0  0  0
 29110  1  0  0  0
 33 34  1  0  0  0
 33 66  1  0  0  0
 33 70  2  0  0  0
 34 36  1  0  0  0
 34 59  1  0  0  0
 34111  1  0  0  0
 35 44  2  0  0  0
 35 45  1  0  0  0
 35 68  1  0  0  0
 36 56  1  0  0  0
 36112  1  0  0  0
 37 39  1  0  0  0
 37 47  1  0  0  0
 37 66  1  0  0  0
 37113  1  0  0  0
 38 43  2  0  0  0
 38 46  1  0  0  0
 38 47  1  0  0  0
 39 64  1  0  0  0
 39 67  2  0  0  0
 40 52  1  0  0  0
 40 53  2  0  0  0
 40 58  1  0  0  0
 41114  1  0  0  0
 41115  1  0  0  0
 41116  1  0  0  0
 41 48  1  0  0  0
 42 43  1  0  0  0
 42 66  1  0  0  0
 42117  1  0  0  0
 42118  1  0  0  0
 43 44  1  0  0  0
 44119  1  0  0  0
 45 46  2  0  0  0
 45120  1  0  0  0
 46121  1  0  0  0
 47122  1  0  0  0
 47123  1  0  0  0
 48 56  1  0  0  0
 48 65  1  0  0  0
 48124  1  0  0  0
 49 50  1  0  0  0
 49 53  1  0  0  0
 49 64  1  0  0  0
 49125  1  0  0  0
 50 51  1  0  0  0
 50126  1  0  0  0
 50127  1  0  0  0
 51 52  1  0  0  0
 51128  1  0  0  0
 51129  1  0  0  0
 52130  1  0  0  0
 52131  1  0  0  0
 53 54  1  0  0  0
 54 55  2  0  0  0
 54132  1  0  0  0
 55 57  1  0  0  0
 55133  1  0  0  0
 56 69  2  0  0  0
 57 58  2  0  0  0
 57134  1  0  0  0
 58135  1  0  0  0
 59 60  1  0  0  0
 59 61  1  0  0  0
 59 62  1  0  0  0
 60136  1  0  0  0
 60137  1  0  0  0
 60138  1  0  0  0
 61139  1  0  0  0
 61140  1  0  0  0
 61141  1  0  0  0
 62142  1  0  0  0
 62143  1  0  0  0
 62144  1  0  0  0
 63 65  1  0  0  0
 63145  1  0  0  0
 63146  1  0  0  0
 63147  1  0  0  0
 64148  1  0  0  0
 65149  1  0  0  0
 68 85  1  0  0  0
 71 72  2  0  0  0
 71 74  1  0  0  0
 71150  1  0  0  0
 72 75  1  0  0  0
 72151  1  0  0  0
 73 75  2  0  0  0
 73 76  1  0  0  0
 73152  1  0  0  0
 74 76  2  0  0  0
 74 84  1  0  0  0
 75 88  1  0  0  0
 76 90  1  0  0  0
 77 78  1  0  0  0
 77 87  1  0  0  0
 77 89  2  0  0  0
 78 79  1  0  0  0
 78153  1  0  0  0
 78154  1  0  0  0
 79 81  1  0  0  0
 79155  1  0  0  0
 79156  1  0  0  0
 80 81  1  0  0  0
 80 87  1  0  0  0
 80157  1  0  0  0
 80158  1  0  0  0
 81 85  1  0  0  0
 81159  1  0  0  0
 82 86  1  0  0  0
 82160  1  0  0  0
 82161  1  0  0  0
 82162  1  0  0  0
 83 90  1  0  0  0
 83163  1  0  0  0
 83164  1  0  0  0
 83165  1  0  0  0
 84 87  1  0  0  0
 84166  1  0  0  0
 84167  1  0  0  0
 85168  1  0  0  0
 85169  1  0  0  0
 86 88  1  0  0  0
 86170  1  0  0  0
 86171  1  0  0  0
M  ISO  4   1 100  68 101  85 101  88 100
M  END
> <chiral flag>
0

> <version>
0

> <s_m_source_file>
/data/baiqing/PycharmProjects/Reinvent-master-3.2/result/LINK_invent/BTK/process_docking_weight1_custom_product_contain_oxygen_bond_distance_aromatic_linkinvent_7_9_3/rearranged_h_0097.sdf

> <i_m_source_file_index>
77

> <r_mmod_Potential_Energy-OPLS-2005>
229.805206298828

> <r_mmod_Stretch_Energy-OPLS-2005>
44.5180244445801

> <r_mmod_Bend_Energy-OPLS-2005>
120.905517578125

> <r_mmod_Torsional_Energy-OPLS-2005>
347.970184326172

> <r_mmod_Improper_Torsional_Energy-OPLS-2005>
5.44216394424438

> <r_mmod_Van_der_Waal_Energy-OPLS-2005>
186.65348815918

> <r_mmod_Electrostatic_Energy-OPLS-2005>
-266.076599121094

> <r_mmod_Solvation_Energy-OPLS-2005>
-224.731369018555

> <b_mmod_Minimization_Converged-OPLS-2005>
0

> <r_mmod_RMS_Derivative-OPLS-2005>
7.03674602508545

$$$$
77
                    3D
 Structure written by MMmdl.
158167  0  0  1  0            999 V2000
  -30.6172  -14.6319   20.5064 C   0  0  0  0  0  0
  -30.4367  -12.3852   19.4507 C   0  0  0  0  0  0
  -29.5073  -12.5332   18.2261 C   0  0  0  0  0  0
  -28.0298  -12.3682   18.6378 C   0  0  0  0  0  0
  -27.6565  -13.2189   19.8815 C   0  0  2  0  0  0
  -28.7026  -13.0535   21.0069 C   0  0  0  0  0  0
  -25.2543  -13.8188   20.5725 C   0  0  0  0  0  0
  -24.1804  -13.0436   20.9185 C   0  0  0  0  0  0
  -24.6392  -11.6916   20.8738 C   0  0  0  0  0  0
  -23.9076  -10.4296   21.0395 C   0  0  0  0  0  0
  -24.3615   -9.4210   21.9177 C   0  0  0  0  0  0
  -23.6280   -8.2246   22.0764 C   0  0  0  0  0  0
  -22.4249   -8.0298   21.3560 C   0  0  0  0  0  0
  -21.9899   -9.0259   20.4652 C   0  0  0  0  0  0
  -22.7248  -10.2127   20.3056 C   0  0  0  0  0  0
  -21.6851   -6.0738   22.5281 C   0  0  0  0  0  0
  -21.4017   -6.5648   23.8216 C   0  0  0  0  0  0
  -21.3677   -5.6801   24.9171 C   0  0  0  0  0  0
  -21.6040   -4.3056   24.7227 C   0  0  0  0  0  0
  -21.8820   -3.8151   23.4345 C   0  0  0  0  0  0
  -21.9188   -4.6966   22.3387 C   0  0  0  0  0  0
  -22.7825  -13.5229   21.1882 C   0  0  0  0  0  0
  -22.1652   -4.2162   21.0958 F   0  0  0  0  0  0
  -21.5643   -3.4536   25.7738 F   0  0  0  0  0  0
  -30.0214  -13.3993   20.4439 N   0  0  0  0  0  0
  -26.2989  -12.9371   20.3396 N   0  0  0  0  0  0
  -25.9327  -11.6520   20.5807 N   0  0  0  0  0  0
  -22.0473  -12.8184   22.0426 N   0  0  0  0  0  0
  -25.4229  -15.1940   20.4258 N   0  0  0  0  0  0
  -31.7445  -14.8320   20.0432 O   0  0  0  0  0  0
  -21.6637   -6.8874   21.4243 O   0  0  0  0  0  0
  -22.3496  -14.5530   20.6768 O   0  0  0  0  0  0
  -24.6277  -31.8633   23.2031 C   0  0  0  0  0  0
  -25.9124  -32.4802   23.8373 C   0  0  1  0  0  0
  -27.2162  -27.2993   20.1069 C   0  0  0  0  0  0
  -25.5932  -33.8606   24.2268 N   0  0  0  0  0  0
  -23.4206  -30.4870   21.5445 C   0  0  2  0  0  0
  -24.8691  -28.9414   20.1050 C   0  0  0  0  0  0
  -22.7447  -29.4666   22.4920 C   0  0  0  0  0  0
  -18.0280  -28.1432   22.8513 C   0  0  0  0  0  0
  -24.1488  -36.7315   23.2642 C   0  0  0  0  0  0
  -25.9639  -30.7774   21.3843 C   0  0  0  0  0  0
  -26.0344  -29.4030   20.7300 C   0  0  0  0  0  0
  -27.2040  -28.5836   20.7415 C   0  0  0  0  0  0
  -26.0432  -26.9192   19.4256 C   0  0  0  0  0  0
  -24.8756  -27.7026   19.4484 C   0  0  0  0  0  0
  -23.6348  -29.8212   20.1603 C   0  0  0  0  0  0
  -25.4116  -36.3091   24.0320 C   0  0  1  0  0  0
  -20.5885  -28.3756   23.1298 C   0  0  2  0  0  0
  -20.6792  -26.9475   22.5435 C   0  0  0  0  0  0
  -19.5748  -26.6414   21.5258 C   0  0  0  0  0  0
  -18.1916  -26.7971   22.1647 C   0  0  0  0  0  0
  -19.1535  -28.8894   23.2911 C   0  0  0  0  0  0
  -18.9448  -30.1497   23.8944 C   0  0  0  0  0  0
  -17.6445  -30.6630   24.0592 C   0  0  0  0  0  0
  -25.9051  -34.9462   23.5086 C   0  0  0  0  0  0
  -16.5348  -29.9132   23.6353 C   0  0  0  0  0  0
  -16.7264  -28.6549   23.0387 C   0  0  0  0  0  0
  -26.4478  -31.6625   25.0781 C   0  0  0  0  0  0
  -25.3676  -31.3774   26.1492 C   0  0  0  0  0  0
  -27.0334  -30.3040   24.6294 C   0  0  0  0  0  0
  -27.6031  -32.4381   25.7558 C   0  0  0  0  0  0
  -27.5577  -37.1807   24.8448 C   0  0  0  0  0  0
  -21.4158  -29.3105   22.3653 N   0  0  0  0  0  0
  -26.4288  -37.3792   23.9416 N   0  0  0  0  0  0
  -24.6890  -31.0608   22.0987 N   0  0  0  0  0  0
  -23.4158  -28.8211   23.3004 O   0  0  0  0  0  0
  -28.3156  -26.4267   20.2037 O   0  0  0  0  0  0
  -26.5597  -34.8923   22.4644 O   0  0  0  0  0  0
  -23.5444  -32.1456   23.7368 O   0  0  0  0  0  0
  -29.4741  -19.2204   19.6586 C   0  0  0  0  0  0
  -29.8462  -17.8320   19.7043 C   0  0  0  0  0  0
  -29.5467  -17.8436   22.0852 C   0  0  0  0  0  0
  -29.0813  -19.9462   20.8232 C   0  0  0  0  0  0
  -29.8231  -17.0904   20.9221 C   0  0  0  0  0  0
  -29.2238  -19.2289   22.0503 C   0  0  0  0  0  0
  -26.5854  -23.4593   20.3363 C   0  0  0  0  0  0
  -26.4582  -22.6360   21.6070 C   0  0  0  0  0  0
  -27.1100  -21.2462   21.4628 C   0  0  0  0  0  0
  -29.0240  -22.5654   20.3976 C   0  0  0  0  0  0
  -28.0066  -23.6580   19.7980 C   0  0  2  0  0  0
  -28.4350  -25.1755   19.4088 C   0  0  0  0  0  0
  -28.4182  -21.2372   20.7752 N   0  0  0  0  0  0
  -29.8551  -15.6295   21.0444 N   0  0  0  0  0  0
  -25.5806  -23.8476   19.7356 O   0  0  0  0  0  0
  -29.0109  -19.8530   23.2349 F   0  0  0  0  0  0
  -31.4820  -12.5008   19.1524 H   0  0  0  0  0  0
  -30.3491  -11.3819   19.8714 H   0  0  0  0  0  0
  -29.7656  -11.8076   17.4548 H   0  0  0  0  0  0
  -29.6558  -13.5168   17.7785 H   0  0  0  0  0  0
  -27.8601  -11.3123   18.8517 H   0  0  0  0  0  0
  -27.3747  -12.6191   17.8036 H   0  0  0  0  0  0
  -27.6816  -14.2606   19.5663 H   0  0  0  0  0  0
  -28.7083  -12.0279   21.3784 H   0  0  0  0  0  0
  -28.4481  -13.6688   21.8703 H   0  0  0  0  0  0
  -25.2770   -9.5680   22.4738 H   0  0  0  0  0  0
  -24.0005   -7.4622   22.7471 H   0  0  0  0  0  0
  -21.0847   -8.8758   19.8940 H   0  0  0  0  0  0
  -22.3710  -10.9642   19.6150 H   0  0  0  0  0  0
  -21.1998   -7.6153   23.9732 H   0  0  0  0  0  0
  -21.1518   -6.0521   25.9079 H   0  0  0  0  0  0
  -22.0582   -2.7620   23.2849 H   0  0  0  0  0  0
  -22.4066  -11.9802   22.4739 H   0  0  0  0  0  0
  -21.1141  -13.1255   22.2735 H   0  0  0  0  0  0
  -24.6594  -15.8519   20.5521 H   0  0  0  0  0  0
  -26.2901  -15.6440   20.1621 H   0  0  0  0  0  0
  -26.7183  -32.5435   23.1113 H   0  0  0  0  0  0
  -25.0037  -33.9766   25.0386 H   0  0  0  0  0  0
  -22.7164  -31.3105   21.3999 H   0  0  0  0  0  0
  -23.3764  -35.9639   23.3283 H   0  0  0  0  0  0
  -24.3541  -36.8961   22.2050 H   0  0  0  0  0  0
  -23.7239  -37.6506   23.6689 H   0  0  0  0  0  0
  -26.0967  -31.5306   20.6051 H   0  0  0  0  0  0
  -26.8413  -30.8372   22.0123 H   0  0  0  0  0  0
  -28.0879  -28.9198   21.2652 H   0  0  0  0  0  0
  -25.9931  -26.0014   18.8705 H   0  0  0  0  0  0
  -23.9901  -27.3462   18.9412 H   0  0  0  0  0  0
  -23.7500  -30.5974   19.4031 H   0  0  0  0  0  0
  -22.7546  -29.2502   19.8583 H   0  0  0  0  0  0
  -25.1299  -36.1941   25.0810 H   0  0  0  0  0  0
  -20.9993  -28.3394   24.1412 H   0  0  0  0  0  0
  -20.5793  -26.2360   23.3659 H   0  0  0  0  0  0
  -21.6644  -26.7553   22.1172 H   0  0  0  0  0  0
  -19.6932  -25.6326   21.1273 H   0  0  0  0  0  0
  -19.6704  -27.3244   20.6805 H   0  0  0  0  0  0
  -17.4207  -26.6780   21.4010 H   0  0  0  0  0  0
  -18.0279  -26.0134   22.9049 H   0  0  0  0  0  0
  -19.7924  -30.7321   24.2323 H   0  0  0  0  0  0
  -17.5014  -31.6296   24.5213 H   0  0  0  0  0  0
  -15.5358  -30.3065   23.7657 H   0  0  0  0  0  0
  -15.8655  -28.0871   22.7106 H   0  0  0  0  0  0
  -24.5942  -30.7016   25.7830 H   0  0  0  0  0  0
  -24.8760  -32.2928   26.4797 H   0  0  0  0  0  0
  -25.7989  -30.9072   27.0343 H   0  0  0  0  0  0
  -26.2924  -29.6808   24.1281 H   0  0  0  0  0  0
  -27.3941  -29.7310   25.4845 H   0  0  0  0  0  0
  -27.8831  -30.4298   23.9586 H   0  0  0  0  0  0
  -27.2634  -33.3720   26.2066 H   0  0  0  0  0  0
  -28.3869  -32.6896   25.0393 H   0  0  0  0  0  0
  -28.0687  -31.8575   26.5528 H   0  0  0  0  0  0
  -28.2560  -38.0137   24.7514 H   0  0  0  0  0  0
  -28.1087  -36.2649   24.6228 H   0  0  0  0  0  0
  -27.2278  -37.1401   25.8847 H   0  0  0  0  0  0
  -20.9365  -29.8803   21.6822 H   0  0  0  0  0  0
  -26.0156  -38.2861   24.1467 H   0  0  0  0  0  0
  -29.4163  -19.7059   18.6950 H   0  0  0  0  0  0
  -30.0664  -17.3260   18.7767 H   0  0  0  0  0  0
  -29.5396  -17.3428   23.0436 H   0  0  0  0  0  0
  -25.4028  -22.5285   21.8612 H   0  0  0  0  0  0
  -26.9266  -23.1889   22.4198 H   0  0  0  0  0  0
  -26.4286  -20.5947   20.9113 H   0  0  0  0  0  0
  -27.1670  -20.8164   22.4620 H   0  0  0  0  0  0
  -29.5227  -22.9802   21.2748 H   0  0  0  0  0  0
  -29.8067  -22.3769   19.6617 H   0  0  0  0  0  0
  -27.8785  -23.2402   18.7986 H   0  0  0  0  0  0
  -28.0379  -25.3835   18.4167 H   0  0  0  0  0  0
  -29.5058  -25.1121   19.2190 H   0  0  0  0  0  0
  -29.0803  -15.2484   21.5654 H   0  0  0  0  0  0
  1 25  1  0  0  0
  1 30  2  0  0  0
  1 84  1  0  0  0
  2  3  1  0  0  0
  2 25  1  0  0  0
  2 87  1  0  0  0
  2 88  1  0  0  0
  3  4  1  0  0  0
  3 89  1  0  0  0
  3 90  1  0  0  0
  4  5  1  0  0  0
  4 91  1  0  0  0
  4 92  1  0  0  0
  5  6  1  0  0  0
  5 26  1  0  0  0
  5 93  1  0  0  0
  6 25  1  0  0  0
  6 94  1  0  0  0
  6 95  1  0  0  0
  7  8  2  0  0  0
  7 26  1  0  0  0
  7 29  1  0  0  0
  8  9  1  0  0  0
  8 22  1  0  0  0
  9 10  1  0  0  0
  9 27  2  0  0  0
 10 11  2  0  0  0
 10 15  1  0  0  0
 11 12  1  0  0  0
 11 96  1  0  0  0
 12 13  2  0  0  0
 12 97  1  0  0  0
 13 14  1  0  0  0
 13 31  1  0  0  0
 14 15  2  0  0  0
 14 98  1  0  0  0
 15 99  1  0  0  0
 16 17  2  0  0  0
 16 21  1  0  0  0
 16 31  1  0  0  0
 17 18  1  0  0  0
 17100  1  0  0  0
 18 19  2  0  0  0
 18101  1  0  0  0
 19 20  1  0  0  0
 19 24  1  0  0  0
 20 21  2  0  0  0
 20102  1  0  0  0
 21 23  1  0  0  0
 22 28  1  0  0  0
 22 32  2  0  0  0
 26 27  1  0  0  0
 28103  1  0  0  0
 28104  1  0  0  0
 29105  1  0  0  0
 29106  1  0  0  0
 33 34  1  0  0  0
 33 66  1  0  0  0
 33 70  2  0  0  0
 34 36  1  0  0  0
 34 59  1  0  0  0
 34107  1  0  0  0
 35 44  2  0  0  0
 35 45  1  0  0  0
 35 68  1  0  0  0
 36 56  1  0  0  0
 36108  1  0  0  0
 37 39  1  0  0  0
 37 47  1  0  0  0
 37 66  1  0  0  0
 37109  1  0  0  0
 38 43  2  0  0  0
 38 46  1  0  0  0
 38 47  1  0  0  0
 39 64  1  0  0  0
 39 67  2  0  0  0
 40 52  1  0  0  0
 40 53  2  0  0  0
 40 58  1  0  0  0
 41110  1  0  0  0
 41111  1  0  0  0
 41112  1  0  0  0
 41 48  1  0  0  0
 42 43  1  0  0  0
 42 66  1  0  0  0
 42113  1  0  0  0
 42114  1  0  0  0
 43 44  1  0  0  0
 44115  1  0  0  0
 45 46  2  0  0  0
 45116  1  0  0  0
 46117  1  0  0  0
 47118  1  0  0  0
 47119  1  0  0  0
 48 56  1  0  0  0
 48 65  1  0  0  0
 48120  1  0  0  0
 49 50  1  0  0  0
 49 53  1  0  0  0
 49 64  1  0  0  0
 49121  1  0  0  0
 50 51  1  0  0  0
 50122  1  0  0  0
 50123  1  0  0  0
 51 52  1  0  0  0
 51124  1  0  0  0
 51125  1  0  0  0
 52126  1  0  0  0
 52127  1  0  0  0
 53 54  1  0  0  0
 54 55  2  0  0  0
 54128  1  0  0  0
 55 57  1  0  0  0
 55129  1  0  0  0
 56 69  2  0  0  0
 57 58  2  0  0  0
 57130  1  0  0  0
 58131  1  0  0  0
 59 60  1  0  0  0
 59 61  1  0  0  0
 59 62  1  0  0  0
 60132  1  0  0  0
 60133  1  0  0  0
 60134  1  0  0  0
 61135  1  0  0  0
 61136  1  0  0  0
 61137  1  0  0  0
 62138  1  0  0  0
 62139  1  0  0  0
 62140  1  0  0  0
 63 65  1  0  0  0
 63141  1  0  0  0
 63142  1  0  0  0
 63143  1  0  0  0
 64144  1  0  0  0
 65145  1  0  0  0
 68 82  1  0  0  0
 71 72  2  0  0  0
 71 74  1  0  0  0
 71146  1  0  0  0
 72 75  1  0  0  0
 72147  1  0  0  0
 73 75  2  0  0  0
 73 76  1  0  0  0
 73148  1  0  0  0
 74 76  2  0  0  0
 74 83  1  0  0  0
 75 84  1  0  0  0
 76 86  1  0  0  0
 77 78  1  0  0  0
 77 81  1  0  0  0
 77 85  2  0  0  0
 78 79  1  0  0  0
 78149  1  0  0  0
 78150  1  0  0  0
 79 83  1  0  0  0
 79151  1  0  0  0
 79152  1  0  0  0
 80 81  1  0  0  0
 80 83  1  0  0  0
 80153  1  0  0  0
 80154  1  0  0  0
 81 82  1  0  0  0
 81155  1  0  0  0
 82156  1  0  0  0
 82157  1  0  0  0
 84158  1  0  0  0
M  ISO  4   1 100  68 101  82 101  84 100
M  END
> <chiral flag>
0

> <version>
0

> <s_m_source_file>
/data/baiqing/PycharmProjects/Reinvent-master-3.2/result/LINK_invent/BTK/process_docking_weight1_custom_product_contain_oxygen_bond_distance_aromatic_linkinvent_7_9_3/rearranged_h_0097.sdf

> <i_m_source_file_index>
78

> <r_mmod_Potential_Energy-OPLS-2005>
202.784713745117

> <r_mmod_Stretch_Energy-OPLS-2005>
95.3648986816406

> <r_mmod_Bend_Energy-OPLS-2005>
212.331481933594

> <r_mmod_Torsional_Energy-OPLS-2005>
251.202835083008

> <r_mmod_Improper_Torsional_Energy-OPLS-2005>
5.77939081192017

> <r_mmod_Van_der_Waal_Energy-OPLS-2005>
151.830535888672

> <r_mmod_Electrostatic_Energy-OPLS-2005>
-341.539794921875

> <r_mmod_Solvation_Energy-OPLS-2005>
-227.146362304688

> <b_mmod_Minimization_Converged-OPLS-2005>
0

> <r_mmod_RMS_Derivative-OPLS-2005>
4.44240283966064

$$$$
78
                    3D
 Structure written by MMmdl.
157165  0  0  1  0            999 V2000
  -30.6121  -14.7007   20.4822 C   0  0  0  0  0  0
  -30.4325  -12.4338   19.4594 C   0  0  0  0  0  0
  -29.5080  -12.5031   18.2243 C   0  0  0  0  0  0
  -28.0323  -12.3338   18.6373 C   0  0  0  0  0  0
  -27.6424  -13.2271   19.8453 C   0  0  2  0  0  0
  -28.6854  -13.1347   20.9799 C   0  0  0  0  0  0
  -25.2517  -13.8172   20.5669 C   0  0  0  0  0  0
  -24.1812  -13.0435   20.9230 C   0  0  0  0  0  0
  -24.6396  -11.6910   20.8753 C   0  0  0  0  0  0
  -23.9062  -10.4293   21.0410 C   0  0  0  0  0  0
  -24.3624   -9.4207   21.9177 C   0  0  0  0  0  0
  -23.6309   -8.2239   22.0742 C   0  0  0  0  0  0
  -22.4293   -8.0275   21.3533 C   0  0  0  0  0  0
  -21.9917   -9.0255   20.4639 C   0  0  0  0  0  0
  -22.7238  -10.2138   20.3055 C   0  0  0  0  0  0
  -21.6854   -6.0738   22.5278 C   0  0  0  0  0  0
  -21.4006   -6.5638   23.8213 C   0  0  0  0  0  0
  -21.3661   -5.6791   24.9176 C   0  0  0  0  0  0
  -21.6051   -4.3052   24.7222 C   0  0  0  0  0  0
  -21.8822   -3.8146   23.4341 C   0  0  0  0  0  0
  -21.9194   -4.6966   22.3398 C   0  0  0  0  0  0
  -22.7833  -13.5228   21.1877 C   0  0  0  0  0  0
  -22.1668   -4.2154   21.0977 F   0  0  0  0  0  0
  -21.5629   -3.4534   25.7731 F   0  0  0  0  0  0
  -29.9889  -13.4806   20.4039 N   0  0  0  0  0  0
  -26.2934  -12.9377   20.3239 N   0  0  0  0  0  0
  -25.9319  -11.6525   20.5729 N   0  0  0  0  0  0
  -22.0464  -12.8229   22.0431 N   0  0  0  0  0  0
  -25.4194  -15.1879   20.4035 N   0  0  0  0  0  0
  -31.7968  -14.8161   20.1577 O   0  0  0  0  0  0
  -21.6642   -6.8884   21.4241 O   0  0  0  0  0  0
  -22.3515  -14.5522   20.6699 O   0  0  0  0  0  0
  -24.6290  -31.8574   23.1995 C   0  0  0  0  0  0
  -25.9127  -32.4764   23.8333 C   0  0  1  0  0  0
  -27.2111  -27.2876   20.1368 C   0  0  0  0  0  0
  -25.5926  -33.8563   24.2251 N   0  0  0  0  0  0
  -23.4234  -30.4809   21.5416 C   0  0  2  0  0  0
  -24.8678  -28.9240   20.1154 C   0  0  0  0  0  0
  -22.7482  -29.4617   22.4906 C   0  0  0  0  0  0
  -18.0285  -28.1397   22.8487 C   0  0  0  0  0  0
  -24.1486  -36.7296   23.2636 C   0  0  0  0  0  0
  -25.9659  -30.7788   21.3726 C   0  0  0  0  0  0
  -26.0387  -29.4017   20.7192 C   0  0  0  0  0  0
  -27.2180  -28.5959   20.7164 C   0  0  0  0  0  0
  -26.0230  -26.8633   19.5097 C   0  0  0  0  0  0
  -24.8624  -27.6609   19.5010 C   0  0  0  0  0  0
  -23.6405  -29.8123   20.1582 C   0  0  0  0  0  0
  -25.4112  -36.3070   24.0321 C   0  0  1  0  0  0
  -20.5887  -28.3707   23.1273 C   0  0  2  0  0  0
  -20.6774  -26.9429   22.5405 C   0  0  0  0  0  0
  -19.5746  -26.6388   21.5215 C   0  0  0  0  0  0
  -18.1928  -26.7937   22.1631 C   0  0  0  0  0  0
  -19.1540  -28.8868   23.2874 C   0  0  0  0  0  0
  -18.9468  -30.1468   23.8894 C   0  0  0  0  0  0
  -17.6468  -30.6598   24.0578 C   0  0  0  0  0  0
  -25.9056  -34.9442   23.5091 C   0  0  0  0  0  0
  -16.5358  -29.9101   23.6334 C   0  0  0  0  0  0
  -16.7274  -28.6520   23.0354 C   0  0  0  0  0  0
  -26.4493  -31.6593   25.0722 C   0  0  0  0  0  0
  -25.3720  -31.3775   26.1455 C   0  0  0  0  0  0
  -27.0340  -30.3007   24.6209 C   0  0  0  0  0  0
  -27.6035  -32.4345   25.7507 C   0  0  0  0  0  0
  -27.5575  -37.1800   24.8460 C   0  0  0  0  0  0
  -21.4189  -29.3057   22.3659 N   0  0  0  0  0  0
  -26.4282  -37.3773   23.9412 N   0  0  0  0  0  0
  -24.6919  -31.0570   22.0949 N   0  0  0  0  0  0
  -23.4198  -28.8162   23.2998 O   0  0  0  0  0  0
  -28.3079  -26.4130   20.1486 O   0  0  0  0  0  0
  -26.5630  -34.8919   22.4657 O   0  0  0  0  0  0
  -23.5445  -32.1369   23.7316 O   0  0  0  0  0  0
  -29.5394  -19.8537   20.7128 C   0  0  0  0  0  0
  -27.9761  -18.1509   19.9943 C   0  0  0  0  0  0
  -28.6248  -20.9439   20.4156 C   0  0  0  0  0  0
  -29.2469  -18.4457   20.5204 C   0  0  0  0  0  0
  -27.3470  -20.5460   19.9239 C   0  0  0  0  0  0
  -27.0519  -19.1770   19.7066 C   0  0  0  0  0  0
  -29.0045  -22.4228   20.7432 C   0  0  0  0  0  0
  -30.8496  -17.4765   22.2695 C   0  0  0  0  0  0
  -28.5026  -23.7029   19.9277 C   0  0  0  0  0  0
  -28.1188  -25.0478   20.7277 C   0  0  0  0  0  0
  -30.2617  -17.2682   20.8617 C   0  0  2  0  0  0
  -26.3001  -21.4395   19.6672 N   0  0  0  0  0  0
  -29.8341  -15.8115   20.7504 N   0  0  0  0  0  0
  -29.8013  -22.6455   21.6603 O   0  0  0  0  0  0
  -25.8284  -18.8369   19.2304 F   0  0  0  0  0  0
  -31.4736  -12.5625   19.1575 H   0  0  0  0  0  0
  -30.3769  -11.4506   19.9283 H   0  0  0  0  0  0
  -29.7871  -11.7331   17.5040 H   0  0  0  0  0  0
  -29.6403  -13.4583   17.7144 H   0  0  0  0  0  0
  -27.8842  -11.2841   18.8918 H   0  0  0  0  0  0
  -27.3760  -12.5336   17.7895 H   0  0  0  0  0  0
  -27.6421  -14.2524   19.4745 H   0  0  0  0  0  0
  -28.7111  -12.1282   21.4014 H   0  0  0  0  0  0
  -28.4237  -13.8036   21.8013 H   0  0  0  0  0  0
  -25.2769   -9.5688   22.4753 H   0  0  0  0  0  0
  -24.0022   -7.4625   22.7445 H   0  0  0  0  0  0
  -21.0849   -8.8781   19.8946 H   0  0  0  0  0  0
  -22.3698  -10.9685   19.6168 H   0  0  0  0  0  0
  -21.1994   -7.6144   23.9722 H   0  0  0  0  0  0
  -21.1480   -6.0513   25.9084 H   0  0  0  0  0  0
  -22.0601   -2.7606   23.2838 H   0  0  0  0  0  0
  -22.4092  -11.9931   22.4884 H   0  0  0  0  0  0
  -21.1067  -13.1240   22.2581 H   0  0  0  0  0  0
  -24.6373  -15.8299   20.4758 H   0  0  0  0  0  0
  -26.2332  -15.6055   19.9761 H   0  0  0  0  0  0
  -26.7197  -32.5416   23.1080 H   0  0  0  0  0  0
  -25.0076  -33.9703   25.0398 H   0  0  0  0  0  0
  -22.7183  -31.3019   21.3956 H   0  0  0  0  0  0
  -23.3737  -35.9639   23.3292 H   0  0  0  0  0  0
  -24.3580  -36.8930   22.2052 H   0  0  0  0  0  0
  -23.7250  -37.6501   23.6669 H   0  0  0  0  0  0
  -26.0970  -31.5377   20.6001 H   0  0  0  0  0  0
  -26.8469  -30.8315   22.0008 H   0  0  0  0  0  0
  -28.1168  -28.9569   21.1970 H   0  0  0  0  0  0
  -25.9845  -25.8913   19.0385 H   0  0  0  0  0  0
  -23.9652  -27.2861   19.0280 H   0  0  0  0  0  0
  -23.7688  -30.5873   19.4014 H   0  0  0  0  0  0
  -22.7581  -29.2474   19.8532 H   0  0  0  0  0  0
  -25.1289  -36.1909   25.0812 H   0  0  0  0  0  0
  -20.9985  -28.3286   24.1395 H   0  0  0  0  0  0
  -20.5677  -26.2324   23.3611 H   0  0  0  0  0  0
  -21.6643  -26.7452   22.1202 H   0  0  0  0  0  0
  -19.6906  -25.6293   21.1258 H   0  0  0  0  0  0
  -19.6681  -27.3190   20.6741 H   0  0  0  0  0  0
  -17.4194  -26.6682   21.4040 H   0  0  0  0  0  0
  -18.0336  -26.0086   22.9037 H   0  0  0  0  0  0
  -19.7951  -30.7287   24.2259 H   0  0  0  0  0  0
  -17.5033  -31.6283   24.5179 H   0  0  0  0  0  0
  -15.5364  -30.3014   23.7665 H   0  0  0  0  0  0
  -15.8674  -28.0853   22.7061 H   0  0  0  0  0  0
  -24.5855  -30.7163   25.7802 H   0  0  0  0  0  0
  -24.8965  -32.2973   26.4877 H   0  0  0  0  0  0
  -25.8032  -30.8948   27.0236 H   0  0  0  0  0  0
  -26.2935  -29.6764   24.1198 H   0  0  0  0  0  0
  -27.3984  -29.7261   25.4738 H   0  0  0  0  0  0
  -27.8825  -30.4283   23.9481 H   0  0  0  0  0  0
  -27.2610  -33.3627   26.2102 H   0  0  0  0  0  0
  -28.3846  -32.6950   25.0349 H   0  0  0  0  0  0
  -28.0711  -31.8472   26.5422 H   0  0  0  0  0  0
  -28.2581  -38.0106   24.7512 H   0  0  0  0  0  0
  -28.1077  -36.2638   24.6268 H   0  0  0  0  0  0
  -27.2302  -37.1436   25.8864 H   0  0  0  0  0  0
  -20.9363  -29.8803   21.6893 H   0  0  0  0  0  0
  -26.0151  -38.2841   24.1423 H   0  0  0  0  0  0
  -30.5078  -20.1188   21.1111 H   0  0  0  0  0  0
  -27.6834  -17.1292   19.8139 H   0  0  0  0  0  0
  -31.5627  -16.6937   22.5302 H   0  0  0  0  0  0
  -30.0656  -17.4708   23.0271 H   0  0  0  0  0  0
  -31.3859  -18.4214   22.3480 H   0  0  0  0  0  0
  -27.6917  -23.4320   19.2567 H   0  0  0  0  0  0
  -29.3316  -23.9504   19.2666 H   0  0  0  0  0  0
  -28.6960  -25.0614   21.6523 H   0  0  0  0  0  0
  -27.0891  -24.9363   21.0712 H   0  0  0  0  0  0
  -31.0761  -17.3942   20.1459 H   0  0  0  0  0  0
  -26.1856  -22.2291   20.2898 H   0  0  0  0  0  0
  -25.4094  -20.9814   19.4933 H   0  0  0  0  0  0
  -28.8648  -15.6190   20.9468 H   0  0  0  0  0  0
  1 25  1  0  0  0
  1 30  2  0  0  0
  1 83  1  0  0  0
  2  3  1  0  0  0
  2 25  1  0  0  0
  2 86  1  0  0  0
  2 87  1  0  0  0
  3  4  1  0  0  0
  3 88  1  0  0  0
  3 89  1  0  0  0
  4  5  1  0  0  0
  4 90  1  0  0  0
  4 91  1  0  0  0
  5  6  1  0  0  0
  5 26  1  0  0  0
  5 92  1  0  0  0
  6 25  1  0  0  0
  6 93  1  0  0  0
  6 94  1  0  0  0
  7  8  2  0  0  0
  7 26  1  0  0  0
  7 29  1  0  0  0
  8  9  1  0  0  0
  8 22  1  0  0  0
  9 10  1  0  0  0
  9 27  2  0  0  0
 10 11  2  0  0  0
 10 15  1  0  0  0
 11 12  1  0  0  0
 11 95  1  0  0  0
 12 13  2  0  0  0
 12 96  1  0  0  0
 13 14  1  0  0  0
 13 31  1  0  0  0
 14 15  2  0  0  0
 14 97  1  0  0  0
 15 98  1  0  0  0
 16 17  2  0  0  0
 16 21  1  0  0  0
 16 31  1  0  0  0
 17 18  1  0  0  0
 17 99  1  0  0  0
 18 19  2  0  0  0
 18100  1  0  0  0
 19 20  1  0  0  0
 19 24  1  0  0  0
 20 21  2  0  0  0
 20101  1  0  0  0
 21 23  1  0  0  0
 22 28  1  0  0  0
 22 32  2  0  0  0
 26 27  1  0  0  0
 28102  1  0  0  0
 28103  1  0  0  0
 29104  1  0  0  0
 29105  1  0  0  0
 33 34  1  0  0  0
 33 66  1  0  0  0
 33 70  2  0  0  0
 34 36  1  0  0  0
 34 59  1  0  0  0
 34106  1  0  0  0
 35 44  2  0  0  0
 35 45  1  0  0  0
 35 68  1  0  0  0
 36 56  1  0  0  0
 36107  1  0  0  0
 37 39  1  0  0  0
 37 47  1  0  0  0
 37 66  1  0  0  0
 37108  1  0  0  0
 38 43  2  0  0  0
 38 46  1  0  0  0
 38 47  1  0  0  0
 39 64  1  0  0  0
 39 67  2  0  0  0
 40 52  1  0  0  0
 40 53  2  0  0  0
 40 58  1  0  0  0
 41109  1  0  0  0
 41110  1  0  0  0
 41111  1  0  0  0
 41 48  1  0  0  0
 42 43  1  0  0  0
 42 66  1  0  0  0
 42112  1  0  0  0
 42113  1  0  0  0
 43 44  1  0  0  0
 44114  1  0  0  0
 45 46  2  0  0  0
 45115  1  0  0  0
 46116  1  0  0  0
 47117  1  0  0  0
 47118  1  0  0  0
 48 56  1  0  0  0
 48 65  1  0  0  0
 48119  1  0  0  0
 49 50  1  0  0  0
 49 53  1  0  0  0
 49 64  1  0  0  0
 49120  1  0  0  0
 50 51  1  0  0  0
 50121  1  0  0  0
 50122  1  0  0  0
 51 52  1  0  0  0
 51123  1  0  0  0
 51124  1  0  0  0
 52125  1  0  0  0
 52126  1  0  0  0
 53 54  1  0  0  0
 54 55  2  0  0  0
 54127  1  0  0  0
 55 57  1  0  0  0
 55128  1  0  0  0
 56 69  2  0  0  0
 57 58  2  0  0  0
 57129  1  0  0  0
 58130  1  0  0  0
 59 60  1  0  0  0
 59 61  1  0  0  0
 59 62  1  0  0  0
 60131  1  0  0  0
 60132  1  0  0  0
 60133  1  0  0  0
 61134  1  0  0  0
 61135  1  0  0  0
 61136  1  0  0  0
 62137  1  0  0  0
 62138  1  0  0  0
 62139  1  0  0  0
 63 65  1  0  0  0
 63140  1  0  0  0
 63141  1  0  0  0
 63142  1  0  0  0
 64143  1  0  0  0
 65144  1  0  0  0
 68 80  1  0  0  0
 71 73  2  0  0  0
 71 74  1  0  0  0
 71145  1  0  0  0
 72 74  2  0  0  0
 72 76  1  0  0  0
 72146  1  0  0  0
 73 75  1  0  0  0
 73 77  1  0  0  0
 74 81  1  0  0  0
 75 76  2  0  0  0
 75 82  1  0  0  0
 76 85  1  0  0  0
 77 79  1  0  0  0
 77 84  2  0  0  0
 78147  1  0  0  0
 78148  1  0  0  0
 78149  1  0  0  0
 78 81  1  0  0  0
 79 80  1  0  0  0
 79150  1  0  0  0
 79151  1  0  0  0
 80152  1  0  0  0
 80153  1  0  0  0
 81 83  1  0  0  0
 81154  1  0  0  0
 82155  1  0  0  0
 82156  1  0  0  0
 83157  1  0  0  0
M  ISO  4   1 100  68 101  80 101  83 100
M  END
> <chiral flag>
0

> <version>
0

> <s_m_source_file>
/data/baiqing/PycharmProjects/Reinvent-master-3.2/result/LINK_invent/BTK/process_docking_weight1_custom_product_contain_oxygen_bond_distance_aromatic_linkinvent_7_9_3/rearranged_h_0097.sdf

> <i_m_source_file_index>
79

> <r_mmod_Potential_Energy-OPLS-2005>
135.212615966797

> <r_mmod_Stretch_Energy-OPLS-2005>
108.044639587402

> <r_mmod_Bend_Energy-OPLS-2005>
150.929428100586

> <r_mmod_Torsional_Energy-OPLS-2005>
251.530258178711

> <r_mmod_Improper_Torsional_Energy-OPLS-2005>
9.7252721786499

> <r_mmod_Van_der_Waal_Energy-OPLS-2005>
139.549667358398

> <r_mmod_Electrostatic_Energy-OPLS-2005>
-378.758941650391

> <r_mmod_Solvation_Energy-OPLS-2005>
-214.795669555664

> <b_mmod_Minimization_Converged-OPLS-2005>
0

> <r_mmod_RMS_Derivative-OPLS-2005>
1.76038086414337

$$$$
79
                    3D
 Structure written by MMmdl.
155163  0  0  1  0            999 V2000
  -30.7479  -14.4836   20.5472 C   0  0  0  0  0  0
  -30.4017  -12.3124   19.4293 C   0  0  0  0  0  0
  -29.4864  -12.4874   18.2039 C   0  0  0  0  0  0
  -28.0104  -12.3507   18.6215 C   0  0  0  0  0  0
  -27.6507  -13.2177   19.8591 C   0  0  2  0  0  0
  -28.6967  -13.0670   20.9865 C   0  0  0  0  0  0
  -25.2556  -13.8187   20.5695 C   0  0  0  0  0  0
  -24.1829  -13.0448   20.9207 C   0  0  0  0  0  0
  -24.6395  -11.6918   20.8748 C   0  0  0  0  0  0
  -23.9062  -10.4297   21.0409 C   0  0  0  0  0  0
  -24.3621   -9.4214   21.9184 C   0  0  0  0  0  0
  -23.6301   -8.2245   22.0752 C   0  0  0  0  0  0
  -22.4279   -8.0285   21.3547 C   0  0  0  0  0  0
  -21.9913   -9.0256   20.4648 C   0  0  0  0  0  0
  -22.7237  -10.2136   20.3059 C   0  0  0  0  0  0
  -21.6856   -6.0737   22.5281 C   0  0  0  0  0  0
  -21.4013   -6.5640   23.8214 C   0  0  0  0  0  0
  -21.3661   -5.6794   24.9177 C   0  0  0  0  0  0
  -21.6049   -4.3056   24.7228 C   0  0  0  0  0  0
  -21.8819   -3.8149   23.4348 C   0  0  0  0  0  0
  -21.9195   -4.6965   22.3405 C   0  0  0  0  0  0
  -22.7850  -13.5239   21.1863 C   0  0  0  0  0  0
  -22.1663   -4.2151   21.0982 F   0  0  0  0  0  0
  -21.5630   -3.4541   25.7741 F   0  0  0  0  0  0
  -30.0164  -13.3434   20.4072 N   0  0  0  0  0  0
  -26.2981  -12.9377   20.3323 N   0  0  0  0  0  0
  -25.9323  -11.6527   20.5770 N   0  0  0  0  0  0
  -22.0489  -12.8222   22.0410 N   0  0  0  0  0  0
  -25.4259  -15.1908   20.4092 N   0  0  0  0  0  0
  -31.9157  -14.5329   20.1515 O   0  0  0  0  0  0
  -21.6647   -6.8880   21.4243 O   0  0  0  0  0  0
  -22.3537  -14.5548   20.6716 O   0  0  0  0  0  0
  -24.6152  -31.8673   23.2092 C   0  0  0  0  0  0
  -25.9046  -32.4818   23.8386 C   0  0  1  0  0  0
  -27.2239  -27.4239   20.1050 C   0  0  0  0  0  0
  -25.5899  -33.8617   24.2316 N   0  0  0  0  0  0
  -23.4018  -30.4923   21.5497 C   0  0  2  0  0  0
  -24.8455  -28.9545   20.1156 C   0  0  0  0  0  0
  -22.7405  -29.4666   22.4985 C   0  0  0  0  0  0
  -18.0269  -28.1370   22.8495 C   0  0  0  0  0  0
  -24.1485  -36.7317   23.2636 C   0  0  0  0  0  0
  -25.9310  -30.8327   21.3604 C   0  0  0  0  0  0
  -26.0074  -29.4668   20.7065 C   0  0  0  0  0  0
  -27.2028  -28.7120   20.6896 C   0  0  0  0  0  0
  -26.0454  -26.9248   19.5117 C   0  0  0  0  0  0
  -24.8599  -27.6837   19.5142 C   0  0  0  0  0  0
  -23.6092  -29.8241   20.1642 C   0  0  0  0  0  0
  -25.4105  -36.3109   24.0333 C   0  0  1  0  0  0
  -20.5861  -28.3657   23.1311 C   0  0  2  0  0  0
  -20.6759  -26.9395   22.5411 C   0  0  0  0  0  0
  -19.5739  -26.6380   21.5208 C   0  0  0  0  0  0
  -18.1918  -26.7915   22.1622 C   0  0  0  0  0  0
  -19.1520  -28.8831   23.2901 C   0  0  0  0  0  0
  -18.9454  -30.1439   23.8909 C   0  0  0  0  0  0
  -17.6459  -30.6580   24.0565 C   0  0  0  0  0  0
  -25.9034  -34.9473   23.5121 C   0  0  0  0  0  0
  -16.5348  -29.9083   23.6326 C   0  0  0  0  0  0
  -16.7261  -28.6498   23.0352 C   0  0  0  0  0  0
  -26.4469  -31.6604   25.0722 C   0  0  0  0  0  0
  -25.3739  -31.3720   26.1477 C   0  0  0  0  0  0
  -27.0300  -30.3045   24.6105 C   0  0  0  0  0  0
  -27.6038  -32.4328   25.7492 C   0  0  0  0  0  0
  -27.5579  -37.1809   24.8462 C   0  0  0  0  0  0
  -21.4134  -29.3033   22.3724 N   0  0  0  0  0  0
  -26.4288  -37.3796   23.9411 N   0  0  0  0  0  0
  -24.6679  -31.0776   22.0987 N   0  0  0  0  0  0
  -23.4181  -28.8209   23.3026 O   0  0  0  0  0  0
  -28.3884  -26.6868   20.1083 O   0  0  0  0  0  0
  -26.5600  -34.8930   22.4686 O   0  0  0  0  0  0
  -23.5346  -32.1428   23.7489 O   0  0  0  0  0  0
  -30.7722  -19.1213   20.3157 C   0  0  0  0  0  0
  -30.2321  -20.3983   20.0707 C   0  0  0  0  0  0
  -28.6439  -18.3537   21.1863 C   0  0  0  0  0  0
  -29.9966  -18.0839   20.8811 C   0  0  0  0  0  0
  -28.1023  -19.6450   20.9507 C   0  0  0  0  0  0
  -28.8855  -20.6929   20.3971 C   0  0  0  0  0  0
  -30.6874  -16.7810   21.2160 C   0  0  0  0  0  0
  -28.4005  -24.3193   19.3128 C   0  0  0  0  0  0
  -28.2979  -25.3023   20.5039 C   0  0  0  0  0  0
  -29.1140  -22.9698   19.5961 C   0  0  0  0  0  0
  -26.7746  -19.9025   21.2814 N   0  0  0  0  0  0
  -30.0837  -15.6068   20.9161 N   0  0  0  0  0  0
  -31.8262  -16.8564   21.6950 O   0  0  0  0  0  0
  -28.3087  -21.9490   20.2090 O   0  0  0  0  0  0
  -31.4485  -12.3741   19.1279 H   0  0  0  0  0  0
  -30.2790  -11.3193   19.8642 H   0  0  0  0  0  0
  -29.7293  -11.7444   17.4430 H   0  0  0  0  0  0
  -29.6573  -13.4633   17.7463 H   0  0  0  0  0  0
  -27.8292  -11.2980   18.8421 H   0  0  0  0  0  0
  -27.3578  -12.5996   17.7842 H   0  0  0  0  0  0
  -27.6745  -14.2547   19.5245 H   0  0  0  0  0  0
  -28.6783  -12.0572   21.3989 H   0  0  0  0  0  0
  -28.4706  -13.7371   21.8175 H   0  0  0  0  0  0
  -25.2763   -9.5694   22.4762 H   0  0  0  0  0  0
  -24.0015   -7.4635   22.7467 H   0  0  0  0  0  0
  -21.0845   -8.8778   19.8949 H   0  0  0  0  0  0
  -22.3697  -10.9682   19.6175 H   0  0  0  0  0  0
  -21.1999   -7.6148   23.9720 H   0  0  0  0  0  0
  -21.1485   -6.0522   25.9080 H   0  0  0  0  0  0
  -22.0595   -2.7612   23.2852 H   0  0  0  0  0  0
  -22.4108  -11.9884   22.4800 H   0  0  0  0  0  0
  -21.1107  -13.1253   22.2617 H   0  0  0  0  0  0
  -24.6546  -15.8404   20.5152 H   0  0  0  0  0  0
  -26.2651  -15.6286   20.0523 H   0  0  0  0  0  0
  -26.7117  -32.5522   23.1148 H   0  0  0  0  0  0
  -25.0062  -33.9782   25.0469 H   0  0  0  0  0  0
  -22.6910  -31.3099   21.4112 H   0  0  0  0  0  0
  -23.3746  -35.9651   23.3297 H   0  0  0  0  0  0
  -24.3583  -36.8937   22.2052 H   0  0  0  0  0  0
  -23.7236  -37.6519   23.6658 H   0  0  0  0  0  0
  -26.0449  -31.6002   20.5929 H   0  0  0  0  0  0
  -26.8182  -30.8841   21.9802 H   0  0  0  0  0  0
  -28.1029  -29.1061   21.1409 H   0  0  0  0  0  0
  -26.0357  -25.9529   19.0416 H   0  0  0  0  0  0
  -23.9653  -27.2833   19.0572 H   0  0  0  0  0  0
  -23.7190  -30.5995   19.4052 H   0  0  0  0  0  0
  -22.7322  -29.2461   19.8665 H   0  0  0  0  0  0
  -25.1280  -36.1968   25.0825 H   0  0  0  0  0  0
  -20.9957  -28.3221   24.1429 H   0  0  0  0  0  0
  -20.5653  -26.2272   23.3601 H   0  0  0  0  0  0
  -21.6631  -26.7432   22.1212 H   0  0  0  0  0  0
  -19.6899  -25.6296   21.1225 H   0  0  0  0  0  0
  -19.6669  -27.3200   20.6747 H   0  0  0  0  0  0
  -17.4187  -26.6665   21.4025 H   0  0  0  0  0  0
  -18.0325  -26.0047   22.9012 H   0  0  0  0  0  0
  -19.7936  -30.7247   24.2280 H   0  0  0  0  0  0
  -17.5019  -31.6262   24.5164 H   0  0  0  0  0  0
  -15.5352  -30.2994   23.7638 H   0  0  0  0  0  0
  -15.8661  -28.0820   22.7062 H   0  0  0  0  0  0
  -24.5921  -30.7044   25.7837 H   0  0  0  0  0  0
  -24.8923  -32.2880   26.4910 H   0  0  0  0  0  0
  -25.8103  -30.8919   27.0246 H   0  0  0  0  0  0
  -26.2845  -29.6813   24.1153 H   0  0  0  0  0  0
  -27.4060  -29.7274   25.4564 H   0  0  0  0  0  0
  -27.8683  -30.4361   23.9259 H   0  0  0  0  0  0
  -27.2650  -33.3629   26.2068 H   0  0  0  0  0  0
  -28.3854  -32.6886   25.0326 H   0  0  0  0  0  0
  -28.0697  -31.8455   26.5414 H   0  0  0  0  0  0
  -28.2592  -38.0113   24.7526 H   0  0  0  0  0  0
  -28.1078  -36.2645   24.6261 H   0  0  0  0  0  0
  -27.2303  -37.1429   25.8867 H   0  0  0  0  0  0
  -20.9292  -29.8770   21.6960 H   0  0  0  0  0  0
  -26.0175  -38.2871   24.1426 H   0  0  0  0  0  0
  -31.8116  -18.9425   20.0747 H   0  0  0  0  0  0
  -30.8913  -21.1386   19.6430 H   0  0  0  0  0  0
  -28.0375  -17.5811   21.6384 H   0  0  0  0  0  0
  -28.9868  -24.8214   18.5428 H   0  0  0  0  0  0
  -27.4233  -24.1435   18.8656 H   0  0  0  0  0  0
  -29.1352  -25.1321   21.1807 H   0  0  0  0  0  0
  -27.4034  -25.0970   21.0952 H   0  0  0  0  0  0
  -30.0065  -23.1557   20.1955 H   0  0  0  0  0  0
  -29.4545  -22.5854   18.6332 H   0  0  0  0  0  0
  -26.1273  -19.1225   21.3278 H   0  0  0  0  0  0
  -26.3677  -20.7341   20.8634 H   0  0  0  0  0  0
  -29.0836  -15.6024   20.8299 H   0  0  0  0  0  0
  1 25  1  0  0  0
  1 30  2  0  0  0
  1 82  1  0  0  0
  2  3  1  0  0  0
  2 25  1  0  0  0
  2 85  1  0  0  0
  2 86  1  0  0  0
  3  4  1  0  0  0
  3 87  1  0  0  0
  3 88  1  0  0  0
  4  5  1  0  0  0
  4 89  1  0  0  0
  4 90  1  0  0  0
  5  6  1  0  0  0
  5 26  1  0  0  0
  5 91  1  0  0  0
  6 25  1  0  0  0
  6 92  1  0  0  0
  6 93  1  0  0  0
  7  8  2  0  0  0
  7 26  1  0  0  0
  7 29  1  0  0  0
  8  9  1  0  0  0
  8 22  1  0  0  0
  9 10  1  0  0  0
  9 27  2  0  0  0
 10 11  2  0  0  0
 10 15  1  0  0  0
 11 12  1  0  0  0
 11 94  1  0  0  0
 12 13  2  0  0  0
 12 95  1  0  0  0
 13 14  1  0  0  0
 13 31  1  0  0  0
 14 15  2  0  0  0
 14 96  1  0  0  0
 15 97  1  0  0  0
 16 17  2  0  0  0
 16 21  1  0  0  0
 16 31  1  0  0  0
 17 18  1  0  0  0
 17 98  1  0  0  0
 18 19  2  0  0  0
 18 99  1  0  0  0
 19 20  1  0  0  0
 19 24  1  0  0  0
 20 21  2  0  0  0
 20100  1  0  0  0
 21 23  1  0  0  0
 22 28  1  0  0  0
 22 32  2  0  0  0
 26 27  1  0  0  0
 28101  1  0  0  0
 28102  1  0  0  0
 29103  1  0  0  0
 29104  1  0  0  0
 33 34  1  0  0  0
 33 66  1  0  0  0
 33 70  2  0  0  0
 34 36  1  0  0  0
 34 59  1  0  0  0
 34105  1  0  0  0
 35 44  2  0  0  0
 35 45  1  0  0  0
 35 68  1  0  0  0
 36 56  1  0  0  0
 36106  1  0  0  0
 37 39  1  0  0  0
 37 47  1  0  0  0
 37 66  1  0  0  0
 37107  1  0  0  0
 38 43  2  0  0  0
 38 46  1  0  0  0
 38 47  1  0  0  0
 39 64  1  0  0  0
 39 67  2  0  0  0
 40 52  1  0  0  0
 40 53  2  0  0  0
 40 58  1  0  0  0
 41108  1  0  0  0
 41109  1  0  0  0
 41110  1  0  0  0
 41 48  1  0  0  0
 42 43  1  0  0  0
 42 66  1  0  0  0
 42111  1  0  0  0
 42112  1  0  0  0
 43 44  1  0  0  0
 44113  1  0  0  0
 45 46  2  0  0  0
 45114  1  0  0  0
 46115  1  0  0  0
 47116  1  0  0  0
 47117  1  0  0  0
 48 56  1  0  0  0
 48 65  1  0  0  0
 48118  1  0  0  0
 49 50  1  0  0  0
 49 53  1  0  0  0
 49 64  1  0  0  0
 49119  1  0  0  0
 50 51  1  0  0  0
 50120  1  0  0  0
 50121  1  0  0  0
 51 52  1  0  0  0
 51122  1  0  0  0
 51123  1  0  0  0
 52124  1  0  0  0
 52125  1  0  0  0
 53 54  1  0  0  0
 54 55  2  0  0  0
 54126  1  0  0  0
 55 57  1  0  0  0
 55127  1  0  0  0
 56 69  2  0  0  0
 57 58  2  0  0  0
 57128  1  0  0  0
 58129  1  0  0  0
 59 60  1  0  0  0
 59 61  1  0  0  0
 59 62  1  0  0  0
 60130  1  0  0  0
 60131  1  0  0  0
 60132  1  0  0  0
 61133  1  0  0  0
 61134  1  0  0  0
 61135  1  0  0  0
 62136  1  0  0  0
 62137  1  0  0  0
 62138  1  0  0  0
 63 65  1  0  0  0
 63139  1  0  0  0
 63140  1  0  0  0
 63141  1  0  0  0
 64142  1  0  0  0
 65143  1  0  0  0
 68 79  1  0  0  0
 71 72  2  0  0  0
 71 74  1  0  0  0
 71144  1  0  0  0
 72 76  1  0  0  0
 72145  1  0  0  0
 73 74  2  0  0  0
 73 75  1  0  0  0
 73146  1  0  0  0
 74 77  1  0  0  0
 75 76  2  0  0  0
 75 81  1  0  0  0
 76 84  1  0  0  0
 77 82  1  0  0  0
 77 83  2  0  0  0
 78 79  1  0  0  0
 78 80  1  0  0  0
 78147  1  0  0  0
 78148  1  0  0  0
 79149  1  0  0  0
 79150  1  0  0  0
 80 84  1  0  0  0
 80151  1  0  0  0
 80152  1  0  0  0
 81153  1  0  0  0
 81154  1  0  0  0
 82155  1  0  0  0
M  ISO  4   1 100  68 101  79 101  82 100
M  END
> <chiral flag>
0

> <version>
0

> <s_m_source_file>
/data/baiqing/PycharmProjects/Reinvent-master-3.2/result/LINK_invent/BTK/process_docking_weight1_custom_product_contain_oxygen_bond_distance_aromatic_linkinvent_7_9_3/rearranged_h_0097.sdf

> <i_m_source_file_index>
80

> <r_mmod_Potential_Energy-OPLS-2005>
-138.470733642578

> <r_mmod_Stretch_Energy-OPLS-2005>
40.3692016601562

> <r_mmod_Bend_Energy-OPLS-2005>
109.025825500488

> <r_mmod_Torsional_Energy-OPLS-2005>
257.484405517578

> <r_mmod_Improper_Torsional_Energy-OPLS-2005>
9.35019874572754

> <r_mmod_Van_der_Waal_Energy-OPLS-2005>
166.104782104492

> <r_mmod_Electrostatic_Energy-OPLS-2005>
-506.610992431641

> <r_mmod_Solvation_Energy-OPLS-2005>
-235.024475097656

> <b_mmod_Minimization_Converged-OPLS-2005>
0

> <r_mmod_RMS_Derivative-OPLS-2005>
1.03845739364624

$$$$
80
                    3D
 Structure written by MMmdl.
160169  0  0  1  0            999 V2000
  -30.7428  -14.4070   20.6271 C   0  0  0  0  0  0
  -30.4082  -12.2962   19.3888 C   0  0  0  0  0  0
  -29.4648  -12.4932   18.1861 C   0  0  0  0  0  0
  -27.9982  -12.3320   18.6194 C   0  0  0  0  0  0
  -27.6542  -13.1870   19.8644 C   0  0  2  0  0  0
  -28.6987  -12.9741   20.9833 C   0  0  0  0  0  0
  -25.2584  -13.8108   20.5583 C   0  0  0  0  0  0
  -24.1828  -13.0408   20.9143 C   0  0  0  0  0  0
  -24.6341  -11.6870   20.8732 C   0  0  0  0  0  0
  -23.9005  -10.4273   21.0432 C   0  0  0  0  0  0
  -24.3580   -9.4209   21.9205 C   0  0  0  0  0  0
  -23.6278   -8.2229   22.0759 C   0  0  0  0  0  0
  -22.4268   -8.0257   21.3529 C   0  0  0  0  0  0
  -21.9917   -9.0215   20.4606 C   0  0  0  0  0  0
  -22.7218  -10.2115   20.3047 C   0  0  0  0  0  0
  -21.6837   -6.0725   22.5286 C   0  0  0  0  0  0
  -21.3985   -6.5628   23.8215 C   0  0  0  0  0  0
  -21.3679   -5.6794   24.9185 C   0  0  0  0  0  0
  -21.6050   -4.3055   24.7250 C   0  0  0  0  0  0
  -21.8816   -3.8138   23.4366 C   0  0  0  0  0  0
  -21.9182   -4.6945   22.3421 C   0  0  0  0  0  0
  -22.7870  -13.5252   21.1814 C   0  0  0  0  0  0
  -22.1655   -4.2144   21.0988 F   0  0  0  0  0  0
  -21.5651   -3.4531   25.7756 F   0  0  0  0  0  0
  -30.0252  -13.2724   20.4228 N   0  0  0  0  0  0
  -26.2981  -12.9215   20.3331 N   0  0  0  0  0  0
  -25.9264  -11.6401   20.5781 N   0  0  0  0  0  0
  -22.0510  -12.8208   22.0328 N   0  0  0  0  0  0
  -25.4321  -15.1834   20.3884 N   0  0  0  0  0  0
  -31.8737  -14.5613   20.1516 O   0  0  0  0  0  0
  -21.6627   -6.8868   21.4247 O   0  0  0  0  0  0
  -22.3597  -14.5608   20.6752 O   0  0  0  0  0  0
  -24.6182  -31.8615   23.2120 C   0  0  0  0  0  0
  -25.9087  -32.4757   23.8340 C   0  0  1  0  0  0
  -27.2238  -27.4518   20.0712 C   0  0  0  0  0  0
  -25.5956  -33.8534   24.2312 N   0  0  0  0  0  0
  -23.4012  -30.4932   21.5505 C   0  0  2  0  0  0
  -24.8449  -28.9876   20.0930 C   0  0  0  0  0  0
  -22.7344  -29.4669   22.4940 C   0  0  0  0  0  0
  -18.0267  -28.1358   22.8444 C   0  0  0  0  0  0
  -24.1448  -36.7261   23.2666 C   0  0  0  0  0  0
  -25.9285  -30.8464   21.3541 C   0  0  0  0  0  0
  -26.0085  -29.4886   20.6907 C   0  0  0  0  0  0
  -27.2023  -28.7284   20.6812 C   0  0  0  0  0  0
  -26.0494  -27.0044   19.4152 C   0  0  0  0  0  0
  -24.8612  -27.7465   19.4473 C   0  0  0  0  0  0
  -23.5955  -29.8324   20.1611 C   0  0  0  0  0  0
  -25.4092  -36.3079   24.0359 C   0  0  1  0  0  0
  -20.5850  -28.3632   23.1278 C   0  0  2  0  0  0
  -20.6729  -26.9370   22.5367 C   0  0  0  0  0  0
  -19.5723  -26.6374   21.5143 C   0  0  0  0  0  0
  -18.1924  -26.7909   22.1557 C   0  0  0  0  0  0
  -19.1523  -28.8818   23.2859 C   0  0  0  0  0  0
  -18.9457  -30.1409   23.8892 C   0  0  0  0  0  0
  -17.6476  -30.6582   24.0527 C   0  0  0  0  0  0
  -25.9028  -34.9415   23.5121 C   0  0  0  0  0  0
  -16.5353  -29.9064   23.6370 C   0  0  0  0  0  0
  -16.7264  -28.6468   23.0385 C   0  0  0  0  0  0
  -26.4566  -31.6505   25.0596 C   0  0  0  0  0  0
  -25.3853  -31.3405   26.1308 C   0  0  0  0  0  0
  -27.0400  -30.3008   24.5846 C   0  0  0  0  0  0
  -27.6172  -32.4160   25.7365 C   0  0  0  0  0  0
  -27.5541  -37.1807   24.8505 C   0  0  0  0  0  0
  -21.4081  -29.2997   22.3652 N   0  0  0  0  0  0
  -26.4263  -37.3785   23.9446 N   0  0  0  0  0  0
  -24.6703  -31.0719   22.1032 N   0  0  0  0  0  0
  -23.4076  -28.8167   23.2992 O   0  0  0  0  0  0
  -28.3130  -26.5808   20.2567 O   0  0  0  0  0  0
  -26.5532  -34.8901   22.4651 O   0  0  0  0  0  0
  -23.5380  -32.1297   23.7567 O   0  0  0  0  0  0
  -29.8570  -18.6085   20.5205 C   0  0  0  0  0  0
  -28.8446  -18.0911   22.6738 C   0  0  0  0  0  0
  -29.0940  -19.7877   20.4334 C   0  0  0  0  0  0
  -28.1002  -19.2881   22.6006 C   0  0  0  0  0  0
  -29.7341  -17.7495   21.6309 C   0  0  0  0  0  0
  -28.2093  -20.1517   21.4746 C   0  0  0  0  0  0
  -26.1211  -21.3677   21.6554 C   0  0  0  0  0  0
  -30.6157  -16.5395   21.7026 C   0  0  0  0  0  0
  -25.3543  -22.6861   21.7145 C   0  0  0  0  0  0
  -25.9749  -23.7801   20.8659 C   0  0  0  0  0  0
  -28.1340  -22.5538   20.7571 C   0  0  0  0  0  0
  -27.5157  -23.9422   21.0824 C   0  0  1  0  0  0
  -28.0711  -25.1258   20.1806 C   0  0  0  0  0  0
  -27.4589  -21.3745   21.3791 N   0  0  0  0  0  0
  -30.0776  -15.4007   21.2389 N   0  0  0  0  0  0
  -25.4706  -20.3415   21.8795 O   0  0  0  0  0  0
  -31.7727  -16.6601   22.1213 O   0  0  0  0  0  0
  -31.4408  -12.4044   19.0617 H   0  0  0  0  0  0
  -30.3253  -11.2793   19.7744 H   0  0  0  0  0  0
  -29.6993  -11.7763   17.3979 H   0  0  0  0  0  0
  -29.6113  -13.4841   17.7554 H   0  0  0  0  0  0
  -27.8286  -11.2746   18.8361 H   0  0  0  0  0  0
  -27.3291  -12.5809   17.7953 H   0  0  0  0  0  0
  -27.6995  -14.2300   19.5496 H   0  0  0  0  0  0
  -28.6815  -11.9382   21.3294 H   0  0  0  0  0  0
  -28.4560  -13.5782   21.8583 H   0  0  0  0  0  0
  -25.2718   -9.5704   22.4788 H   0  0  0  0  0  0
  -23.9986   -7.4629   22.7493 H   0  0  0  0  0  0
  -21.0866   -8.8701   19.8885 H   0  0  0  0  0  0
  -22.3672  -10.9637   19.6142 H   0  0  0  0  0  0
  -21.1948   -7.6137   23.9728 H   0  0  0  0  0  0
  -21.1505   -6.0515   25.9096 H   0  0  0  0  0  0
  -22.0579   -2.7593   23.2867 H   0  0  0  0  0  0
  -22.4086  -11.9824   22.4665 H   0  0  0  0  0  0
  -21.1126  -13.1217   22.2547 H   0  0  0  0  0  0
  -24.6652  -15.8366   20.4999 H   0  0  0  0  0  0
  -26.2773  -15.6234   20.0435 H   0  0  0  0  0  0
  -26.7082  -32.5459   23.1025 H   0  0  0  0  0  0
  -25.0158  -33.9663   25.0505 H   0  0  0  0  0  0
  -22.7050  -31.3218   21.4125 H   0  0  0  0  0  0
  -23.3706  -35.9587   23.3319 H   0  0  0  0  0  0
  -24.3543  -36.8842   22.2077 H   0  0  0  0  0  0
  -23.7156  -37.6462   23.6643 H   0  0  0  0  0  0
  -26.0247  -31.6215   20.5900 H   0  0  0  0  0  0
  -26.8265  -30.8978   21.9561 H   0  0  0  0  0  0
  -28.0842  -29.0936   21.1848 H   0  0  0  0  0  0
  -26.0086  -26.0527   18.9116 H   0  0  0  0  0  0
  -23.9709  -27.3604   18.9721 H   0  0  0  0  0  0
  -23.6602  -30.5978   19.3872 H   0  0  0  0  0  0
  -22.7292  -29.2235   19.8906 H   0  0  0  0  0  0
  -25.1284  -36.1930   25.0846 H   0  0  0  0  0  0
  -20.9945  -28.3187   24.1389 H   0  0  0  0  0  0
  -20.5572  -26.2226   23.3525 H   0  0  0  0  0  0
  -21.6621  -26.7371   22.1229 H   0  0  0  0  0  0
  -19.6839  -25.6299   21.1146 H   0  0  0  0  0  0
  -19.6682  -27.3175   20.6678 H   0  0  0  0  0  0
  -17.4180  -26.6598   21.3989 H   0  0  0  0  0  0
  -18.0387  -26.0078   22.8982 H   0  0  0  0  0  0
  -19.7958  -30.7166   24.2273 H   0  0  0  0  0  0
  -17.5072  -31.6305   24.5016 H   0  0  0  0  0  0
  -15.5358  -30.2929   23.7768 H   0  0  0  0  0  0
  -15.8647  -28.0742   22.7179 H   0  0  0  0  0  0
  -24.6234  -30.6552   25.7586 H   0  0  0  0  0  0
  -24.8810  -32.2390   26.4843 H   0  0  0  0  0  0
  -25.8312  -30.8554   26.9990 H   0  0  0  0  0  0
  -26.2927  -29.6804   24.0884 H   0  0  0  0  0  0
  -27.4230  -29.7204   25.4247 H   0  0  0  0  0  0
  -27.8712  -30.4411   23.8912 H   0  0  0  0  0  0
  -27.2938  -33.3562   26.1844 H   0  0  0  0  0  0
  -28.4091  -32.6491   25.0224 H   0  0  0  0  0  0
  -28.0667  -31.8211   26.5326 H   0  0  0  0  0  0
  -28.2647  -38.0056   24.7639 H   0  0  0  0  0  0
  -28.0952  -36.2590   24.6286 H   0  0  0  0  0  0
  -27.2213  -37.1439   25.8902 H   0  0  0  0  0  0
  -20.9188  -29.8649   21.6861 H   0  0  0  0  0  0
  -26.0099  -38.2827   24.1522 H   0  0  0  0  0  0
  -30.5480  -18.3650   19.7235 H   0  0  0  0  0  0
  -28.7511  -17.4472   23.5397 H   0  0  0  0  0  0
  -29.2048  -20.4087   19.5591 H   0  0  0  0  0  0
  -27.4473  -19.5370   23.4258 H   0  0  0  0  0  0
  -25.2808  -23.0115   22.7518 H   0  0  0  0  0  0
  -24.3372  -22.5207   21.3582 H   0  0  0  0  0  0
  -25.4285  -24.6974   21.1023 H   0  0  0  0  0  0
  -25.7744  -23.5837   19.8120 H   0  0  0  0  0  0
  -29.1822  -22.5537   21.0543 H   0  0  0  0  0  0
  -28.1232  -22.4026   19.6781 H   0  0  0  0  0  0
  -27.7286  -24.1316   22.1401 H   0  0  0  0  0  0
  -27.2976  -25.4914   20.8190 H   0  0  0  0  0  0
  -27.7616  -24.9096   19.1593 H   0  0  0  0  0  0
  -29.0733  -15.3390   21.2380 H   0  0  0  0  0  0
  1 25  1  0  0  0
  1 30  2  0  0  0
  1 85  1  0  0  0
  2  3  1  0  0  0
  2 25  1  0  0  0
  2 88  1  0  0  0
  2 89  1  0  0  0
  3  4  1  0  0  0
  3 90  1  0  0  0
  3 91  1  0  0  0
  4  5  1  0  0  0
  4 92  1  0  0  0
  4 93  1  0  0  0
  5  6  1  0  0  0
  5 26  1  0  0  0
  5 94  1  0  0  0
  6 25  1  0  0  0
  6 95  1  0  0  0
  6 96  1  0  0  0
  7  8  2  0  0  0
  7 26  1  0  0  0
  7 29  1  0  0  0
  8  9  1  0  0  0
  8 22  1  0  0  0
  9 10  1  0  0  0
  9 27  2  0  0  0
 10 11  2  0  0  0
 10 15  1  0  0  0
 11 12  1  0  0  0
 11 97  1  0  0  0
 12 13  2  0  0  0
 12 98  1  0  0  0
 13 14  1  0  0  0
 13 31  1  0  0  0
 14 15  2  0  0  0
 14 99  1  0  0  0
 15100  1  0  0  0
 16 17  2  0  0  0
 16 21  1  0  0  0
 16 31  1  0  0  0
 17 18  1  0  0  0
 17101  1  0  0  0
 18 19  2  0  0  0
 18102  1  0  0  0
 19 20  1  0  0  0
 19 24  1  0  0  0
 20 21  2  0  0  0
 20103  1  0  0  0
 21 23  1  0  0  0
 22 28  1  0  0  0
 22 32  2  0  0  0
 26 27  1  0  0  0
 28104  1  0  0  0
 28105  1  0  0  0
 29106  1  0  0  0
 29107  1  0  0  0
 33 34  1  0  0  0
 33 66  1  0  0  0
 33 70  2  0  0  0
 34 36  1  0  0  0
 34 59  1  0  0  0
 34108  1  0  0  0
 35 44  2  0  0  0
 35 45  1  0  0  0
 35 68  1  0  0  0
 36 56  1  0  0  0
 36109  1  0  0  0
 37 39  1  0  0  0
 37 47  1  0  0  0
 37 66  1  0  0  0
 37110  1  0  0  0
 38 43  2  0  0  0
 38 46  1  0  0  0
 38 47  1  0  0  0
 39 64  1  0  0  0
 39 67  2  0  0  0
 40 52  1  0  0  0
 40 53  2  0  0  0
 40 58  1  0  0  0
 41111  1  0  0  0
 41112  1  0  0  0
 41113  1  0  0  0
 41 48  1  0  0  0
 42 43  1  0  0  0
 42 66  1  0  0  0
 42114  1  0  0  0
 42115  1  0  0  0
 43 44  1  0  0  0
 44116  1  0  0  0
 45 46  2  0  0  0
 45117  1  0  0  0
 46118  1  0  0  0
 47119  1  0  0  0
 47120  1  0  0  0
 48 56  1  0  0  0
 48 65  1  0  0  0
 48121  1  0  0  0
 49 50  1  0  0  0
 49 53  1  0  0  0
 49 64  1  0  0  0
 49122  1  0  0  0
 50 51  1  0  0  0
 50123  1  0  0  0
 50124  1  0  0  0
 51 52  1  0  0  0
 51125  1  0  0  0
 51126  1  0  0  0
 52127  1  0  0  0
 52128  1  0  0  0
 53 54  1  0  0  0
 54 55  2  0  0  0
 54129  1  0  0  0
 55 57  1  0  0  0
 55130  1  0  0  0
 56 69  2  0  0  0
 57 58  2  0  0  0
 57131  1  0  0  0
 58132  1  0  0  0
 59 60  1  0  0  0
 59 61  1  0  0  0
 59 62  1  0  0  0
 60133  1  0  0  0
 60134  1  0  0  0
 60135  1  0  0  0
 61136  1  0  0  0
 61137  1  0  0  0
 61138  1  0  0  0
 62139  1  0  0  0
 62140  1  0  0  0
 62141  1  0  0  0
 63 65  1  0  0  0
 63142  1  0  0  0
 63143  1  0  0  0
 63144  1  0  0  0
 64145  1  0  0  0
 65146  1  0  0  0
 68 83  1  0  0  0
 71 73  2  0  0  0
 71 75  1  0  0  0
 71147  1  0  0  0
 72 74  1  0  0  0
 72 75  2  0  0  0
 72148  1  0  0  0
 73 76  1  0  0  0
 73149  1  0  0  0
 74 76  2  0  0  0
 74150  1  0  0  0
 75 78  1  0  0  0
 76 84  1  0  0  0
 77 79  1  0  0  0
 77 84  1  0  0  0
 77 86  2  0  0  0
 78 85  1  0  0  0
 78 87  2  0  0  0
 79 80  1  0  0  0
 79151  1  0  0  0
 79152  1  0  0  0
 80 82  1  0  0  0
 80153  1  0  0  0
 80154  1  0  0  0
 81 82  1  0  0  0
 81 84  1  0  0  0
 81155  1  0  0  0
 81156  1  0  0  0
 82 83  1  0  0  0
 82157  1  0  0  0
 83158  1  0  0  0
 83159  1  0  0  0
 85160  1  0  0  0
M  ISO  4   1 100  68 101  83 101  85 100
M  END
> <chiral flag>
0

> <version>
0

> <s_m_source_file>
/data/baiqing/PycharmProjects/Reinvent-master-3.2/result/LINK_invent/BTK/process_docking_weight1_custom_product_contain_oxygen_bond_distance_aromatic_linkinvent_7_9_3/rearranged_h_0097.sdf

> <i_m_source_file_index>
81

> <r_mmod_Potential_Energy-OPLS-2005>
275.109100341797

> <r_mmod_Stretch_Energy-OPLS-2005>
54.1716537475586

> <r_mmod_Bend_Energy-OPLS-2005>
293.178955078125

> <r_mmod_Torsional_Energy-OPLS-2005>
310.624572753906

> <r_mmod_Improper_Torsional_Energy-OPLS-2005>
4.8470721244812

> <r_mmod_Van_der_Waal_Energy-OPLS-2005>
223.634704589844

> <r_mmod_Electrostatic_Energy-OPLS-2005>
-402.700347900391

> <r_mmod_Solvation_Energy-OPLS-2005>
-231.344268798828

> <b_mmod_Minimization_Converged-OPLS-2005>
0

> <r_mmod_RMS_Derivative-OPLS-2005>
6.25748872756958

$$$$
81
                    3D
 Structure written by MMmdl.
161170  0  0  1  0            999 V2000
  -30.6499  -14.7660   20.5001 C   0  0  0  0  0  0
  -30.4141  -12.4786   19.4924 C   0  0  0  0  0  0
  -29.5075  -12.5310   18.2463 C   0  0  0  0  0  0
  -28.0360  -12.3487   18.6553 C   0  0  0  0  0  0
  -27.6391  -13.2471   19.8582 C   0  0  2  0  0  0
  -28.6789  -13.1981   20.9990 C   0  0  0  0  0  0
  -25.2476  -13.8230   20.5711 C   0  0  0  0  0  0
  -24.1787  -13.0446   20.9205 C   0  0  0  0  0  0
  -24.6409  -11.6936   20.8749 C   0  0  0  0  0  0
  -23.9095  -10.4298   21.0396 C   0  0  0  0  0  0
  -24.3643   -9.4212   21.9176 C   0  0  0  0  0  0
  -23.6319   -8.2245   22.0741 C   0  0  0  0  0  0
  -22.4298   -8.0288   21.3536 C   0  0  0  0  0  0
  -21.9937   -9.0258   20.4635 C   0  0  0  0  0  0
  -22.7262  -10.2139   20.3045 C   0  0  0  0  0  0
  -21.6860   -6.0753   22.5286 C   0  0  0  0  0  0
  -21.4016   -6.5654   23.8219 C   0  0  0  0  0  0
  -21.3662   -5.6800   24.9178 C   0  0  0  0  0  0
  -21.6042   -4.3062   24.7225 C   0  0  0  0  0  0
  -21.8819   -3.8161   23.4342 C   0  0  0  0  0  0
  -21.9200   -4.6984   22.3402 C   0  0  0  0  0  0
  -22.7806  -13.5216   21.1863 C   0  0  0  0  0  0
  -22.1662   -4.2168   21.0976 F   0  0  0  0  0  0
  -21.5627   -3.4540   25.7730 F   0  0  0  0  0  0
  -29.9799  -13.5561   20.4242 N   0  0  0  0  0  0
  -26.2931  -12.9471   20.3338 N   0  0  0  0  0  0
  -25.9353  -11.6593   20.5788 N   0  0  0  0  0  0
  -22.0465  -12.8200   22.0422 N   0  0  0  0  0  0
  -25.4152  -15.1956   20.4134 N   0  0  0  0  0  0
  -31.7729  -14.8387   19.9866 O   0  0  0  0  0  0
  -21.6656   -6.8894   21.4244 O   0  0  0  0  0  0
  -22.3483  -14.5521   20.6715 O   0  0  0  0  0  0
  -24.6321  -31.8490   23.1921 C   0  0  0  0  0  0
  -25.9133  -32.4718   23.8297 C   0  0  1  0  0  0
  -27.2297  -27.2328   20.1352 C   0  0  0  0  0  0
  -25.5911  -33.8528   24.2214 N   0  0  0  0  0  0
  -23.4324  -30.4657   21.5338 C   0  0  2  0  0  0
  -24.8840  -28.9032   20.0985 C   0  0  0  0  0  0
  -22.7506  -29.4557   22.4882 C   0  0  0  0  0  0
  -18.0292  -28.1388   22.8481 C   0  0  0  0  0  0
  -24.1480  -36.7280   23.2642 C   0  0  0  0  0  0
  -25.9760  -30.7514   21.3762 C   0  0  0  0  0  0
  -26.0482  -29.3705   20.7186 C   0  0  0  0  0  0
  -27.2158  -28.5422   20.7332 C   0  0  0  0  0  0
  -26.0521  -26.8360   19.4712 C   0  0  0  0  0  0
  -24.8930  -27.6475   19.4614 C   0  0  0  0  0  0
  -23.6521  -29.7913   20.1502 C   0  0  0  0  0  0
  -25.4109  -36.3055   24.0319 C   0  0  1  0  0  0
  -20.5892  -28.3705   23.1264 C   0  0  2  0  0  0
  -20.6770  -26.9418   22.5416 C   0  0  0  0  0  0
  -19.5750  -26.6377   21.5217 C   0  0  0  0  0  0
  -18.1932  -26.7925   22.1623 C   0  0  0  0  0  0
  -19.1544  -28.8864   23.2867 C   0  0  0  0  0  0
  -18.9462  -30.1464   23.8889 C   0  0  0  0  0  0
  -17.6461  -30.6586   24.0569 C   0  0  0  0  0  0
  -25.9056  -34.9424   23.5075 C   0  0  0  0  0  0
  -16.5355  -29.9086   23.6332 C   0  0  0  0  0  0
  -16.7276  -28.6503   23.0352 C   0  0  0  0  0  0
  -26.4495  -31.6570   25.0714 C   0  0  0  0  0  0
  -25.3704  -31.3749   26.1431 C   0  0  0  0  0  0
  -27.0342  -30.2975   24.6237 C   0  0  0  0  0  0
  -27.6033  -32.4335   25.7490 C   0  0  0  0  0  0
  -27.5577  -37.1792   24.8461 C   0  0  0  0  0  0
  -21.4207  -29.3038   22.3642 N   0  0  0  0  0  0
  -26.4284  -37.3762   23.9409 N   0  0  0  0  0  0
  -24.6990  -31.0425   22.0909 N   0  0  0  0  0  0
  -23.4186  -28.8115   23.3013 O   0  0  0  0  0  0
  -28.3190  -26.3423   20.3009 O   0  0  0  0  0  0
  -26.5651  -34.8911   22.4662 O   0  0  0  0  0  0
  -23.5462  -32.1336   23.7196 O   0  0  0  0  0  0
  -27.2643  -18.0973   21.9040 C   0  0  0  0  0  0
  -27.5863  -19.3392   21.3221 C   0  0  0  0  0  0
  -28.0843  -16.9636   21.7384 C   0  0  0  0  0  0
  -29.5859  -18.3082   20.3773 C   0  0  0  0  0  0
  -28.7301  -19.5017   20.5130 C   0  0  0  0  0  0
  -29.2838  -17.0092   20.9969 C   0  0  0  0  0  0
  -28.4062  -20.6865   18.4633 C   0  0  0  0  0  0
  -27.3735  -21.6871   17.9461 C   0  0  0  0  0  0
  -27.8169  -23.1328   18.1464 C   0  0  0  0  0  0
  -28.8450  -22.2481   20.3288 C   0  0  0  0  0  0
  -28.0487  -23.5208   19.6229 C   0  0  1  0  0  0
  -31.1167  -16.1563   22.3650 C   0  0  0  0  0  0
  -28.6133  -25.0767   19.5373 C   0  0  0  0  0  0
  -28.7861  -20.7983   19.7537 N   0  0  0  0  0  0
  -30.1968  -15.8526   21.2616 N   0  0  0  0  0  0
  -28.8021  -19.7897   17.7104 O   0  0  0  0  0  0
  -31.4606  -12.5696   19.1968 H   0  0  0  0  0  0
  -30.3372  -11.5040   19.9772 H   0  0  0  0  0  0
  -29.7974  -11.7611   17.5308 H   0  0  0  0  0  0
  -29.6363  -13.4890   17.7399 H   0  0  0  0  0  0
  -27.8953  -11.2993   18.9150 H   0  0  0  0  0  0
  -27.3801  -12.5417   17.8057 H   0  0  0  0  0  0
  -27.6292  -14.2689   19.4783 H   0  0  0  0  0  0
  -28.7162  -12.2037   21.4458 H   0  0  0  0  0  0
  -28.4042  -13.8818   21.8016 H   0  0  0  0  0  0
  -25.2778   -9.5704   22.4759 H   0  0  0  0  0  0
  -24.0034   -7.4645   22.7462 H   0  0  0  0  0  0
  -21.0866   -8.8779   19.8942 H   0  0  0  0  0  0
  -22.3711  -10.9684   19.6164 H   0  0  0  0  0  0
  -21.1992   -7.6158   23.9733 H   0  0  0  0  0  0
  -21.1484   -6.0521   25.9084 H   0  0  0  0  0  0
  -22.0593   -2.7623   23.2838 H   0  0  0  0  0  0
  -22.4100  -11.9881   22.4835 H   0  0  0  0  0  0
  -21.1072  -13.1197   22.2599 H   0  0  0  0  0  0
  -24.6533  -15.8531   20.5332 H   0  0  0  0  0  0
  -26.2795  -15.6414   20.1337 H   0  0  0  0  0  0
  -26.7201  -32.5348   23.1033 H   0  0  0  0  0  0
  -25.0014  -33.9660   25.0328 H   0  0  0  0  0  0
  -22.7324  -31.2897   21.3814 H   0  0  0  0  0  0
  -23.3744  -35.9611   23.3283 H   0  0  0  0  0  0
  -24.3580  -36.8935   22.2066 H   0  0  0  0  0  0
  -23.7231  -37.6468   23.6692 H   0  0  0  0  0  0
  -26.1191  -31.5099   20.6053 H   0  0  0  0  0  0
  -26.8519  -30.8027   22.0117 H   0  0  0  0  0  0
  -28.0993  -28.8833   21.2536 H   0  0  0  0  0  0
  -26.0042  -25.8637   19.0023 H   0  0  0  0  0  0
  -24.0015  -27.2844   18.9688 H   0  0  0  0  0  0
  -23.7738  -30.5645   19.3910 H   0  0  0  0  0  0
  -22.7715  -29.2220   19.8479 H   0  0  0  0  0  0
  -25.1300  -36.1890   25.0815 H   0  0  0  0  0  0
  -20.9999  -28.3285   24.1377 H   0  0  0  0  0  0
  -20.5648  -26.2323   23.3629 H   0  0  0  0  0  0
  -21.6639  -26.7419   22.1223 H   0  0  0  0  0  0
  -19.6912  -25.6284   21.1257 H   0  0  0  0  0  0
  -19.6683  -27.3179   20.6741 H   0  0  0  0  0  0
  -17.4201  -26.6675   21.4028 H   0  0  0  0  0  0
  -18.0332  -26.0071   22.9023 H   0  0  0  0  0  0
  -19.7941  -30.7283   24.2254 H   0  0  0  0  0  0
  -17.5016  -31.6266   24.5171 H   0  0  0  0  0  0
  -15.5357  -30.2988   23.7657 H   0  0  0  0  0  0
  -15.8674  -28.0822   22.7070 H   0  0  0  0  0  0
  -24.5852  -30.7133   25.7760 H   0  0  0  0  0  0
  -24.8931  -32.2929   26.4865 H   0  0  0  0  0  0
  -25.8000  -30.8908   27.0204 H   0  0  0  0  0  0
  -26.2934  -29.6718   24.1241 H   0  0  0  0  0  0
  -27.3976  -29.7258   25.4785 H   0  0  0  0  0  0
  -27.8835  -30.4238   23.9517 H   0  0  0  0  0  0
  -27.2618  -33.3631   26.2054 H   0  0  0  0  0  0
  -28.3842  -32.6902   25.0322 H   0  0  0  0  0  0
  -28.0699  -31.8476   26.5415 H   0  0  0  0  0  0
  -28.2578  -38.0107   24.7519 H   0  0  0  0  0  0
  -28.1085  -36.2634   24.6251 H   0  0  0  0  0  0
  -27.2304  -37.1404   25.8868 H   0  0  0  0  0  0
  -20.9403  -29.8764   21.6844 H   0  0  0  0  0  0
  -26.0146  -38.2830   24.1417 H   0  0  0  0  0  0
  -26.3677  -18.0118   22.5019 H   0  0  0  0  0  0
  -26.9008  -20.1657   21.4514 H   0  0  0  0  0  0
  -27.8129  -16.0601   22.2656 H   0  0  0  0  0  0
  -30.4949  -18.3984   19.7995 H   0  0  0  0  0  0
  -26.4316  -21.5082   18.4678 H   0  0  0  0  0  0
  -27.1841  -21.4993   16.8884 H   0  0  0  0  0  0
  -27.0665  -23.7905   17.7052 H   0  0  0  0  0  0
  -28.7326  -23.2926   17.5734 H   0  0  0  0  0  0
  -28.5741  -22.2075   21.3831 H   0  0  0  0  0  0
  -29.9057  -22.4994   20.3253 H   0  0  0  0  0  0
  -27.0618  -23.5648   20.0855 H   0  0  0  0  0  0
  -30.6200  -16.7312   23.1475 H   0  0  0  0  0  0
  -31.9637  -16.7437   22.0075 H   0  0  0  0  0  0
  -31.5054  -15.2528   22.8404 H   0  0  0  0  0  0
  -28.4777  -25.4194   18.5111 H   0  0  0  0  0  0
  -29.6967  -24.9811   19.6093 H   0  0  0  0  0  0
  1 25  1  0  0  0
  1 30  2  0  0  0
  1 85  1  0  0  0
  2  3  1  0  0  0
  2 25  1  0  0  0
  2 87  1  0  0  0
  2 88  1  0  0  0
  3  4  1  0  0  0
  3 89  1  0  0  0
  3 90  1  0  0  0
  4  5  1  0  0  0
  4 91  1  0  0  0
  4 92  1  0  0  0
  5  6  1  0  0  0
  5 26  1  0  0  0
  5 93  1  0  0  0
  6 25  1  0  0  0
  6 94  1  0  0  0
  6 95  1  0  0  0
  7  8  2  0  0  0
  7 26  1  0  0  0
  7 29  1  0  0  0
  8  9  1  0  0  0
  8 22  1  0  0  0
  9 10  1  0  0  0
  9 27  2  0  0  0
 10 11  2  0  0  0
 10 15  1  0  0  0
 11 12  1  0  0  0
 11 96  1  0  0  0
 12 13  2  0  0  0
 12 97  1  0  0  0
 13 14  1  0  0  0
 13 31  1  0  0  0
 14 15  2  0  0  0
 14 98  1  0  0  0
 15 99  1  0  0  0
 16 17  2  0  0  0
 16 21  1  0  0  0
 16 31  1  0  0  0
 17 18  1  0  0  0
 17100  1  0  0  0
 18 19  2  0  0  0
 18101  1  0  0  0
 19 20  1  0  0  0
 19 24  1  0  0  0
 20 21  2  0  0  0
 20102  1  0  0  0
 21 23  1  0  0  0
 22 28  1  0  0  0
 22 32  2  0  0  0
 26 27  1  0  0  0
 28103  1  0  0  0
 28104  1  0  0  0
 29105  1  0  0  0
 29106  1  0  0  0
 33 34  1  0  0  0
 33 66  1  0  0  0
 33 70  2  0  0  0
 34 36  1  0  0  0
 34 59  1  0  0  0
 34107  1  0  0  0
 35 44  2  0  0  0
 35 45  1  0  0  0
 35 68  1  0  0  0
 36 56  1  0  0  0
 36108  1  0  0  0
 37 39  1  0  0  0
 37 47  1  0  0  0
 37 66  1  0  0  0
 37109  1  0  0  0
 38 43  2  0  0  0
 38 46  1  0  0  0
 38 47  1  0  0  0
 39 64  1  0  0  0
 39 67  2  0  0  0
 40 52  1  0  0  0
 40 53  2  0  0  0
 40 58  1  0  0  0
 41110  1  0  0  0
 41111  1  0  0  0
 41112  1  0  0  0
 41 48  1  0  0  0
 42 43  1  0  0  0
 42 66  1  0  0  0
 42113  1  0  0  0
 42114  1  0  0  0
 43 44  1  0  0  0
 44115  1  0  0  0
 45 46  2  0  0  0
 45116  1  0  0  0
 46117  1  0  0  0
 47118  1  0  0  0
 47119  1  0  0  0
 48 56  1  0  0  0
 48 65  1  0  0  0
 48120  1  0  0  0
 49 50  1  0  0  0
 49 53  1  0  0  0
 49 64  1  0  0  0
 49121  1  0  0  0
 50 51  1  0  0  0
 50122  1  0  0  0
 50123  1  0  0  0
 51 52  1  0  0  0
 51124  1  0  0  0
 51125  1  0  0  0
 52126  1  0  0  0
 52127  1  0  0  0
 53 54  1  0  0  0
 54 55  2  0  0  0
 54128  1  0  0  0
 55 57  1  0  0  0
 55129  1  0  0  0
 56 69  2  0  0  0
 57 58  2  0  0  0
 57130  1  0  0  0
 58131  1  0  0  0
 59 60  1  0  0  0
 59 61  1  0  0  0
 59 62  1  0  0  0
 60132  1  0  0  0
 60133  1  0  0  0
 60134  1  0  0  0
 61135  1  0  0  0
 61136  1  0  0  0
 61137  1  0  0  0
 62138  1  0  0  0
 62139  1  0  0  0
 62140  1  0  0  0
 63 65  1  0  0  0
 63141  1  0  0  0
 63142  1  0  0  0
 63143  1  0  0  0
 64144  1  0  0  0
 65145  1  0  0  0
 68 83  1  0  0  0
 71 72  2  0  0  0
 71 73  1  0  0  0
 71146  1  0  0  0
 72 75  1  0  0  0
 72147  1  0  0  0
 73 76  2  0  0  0
 73148  1  0  0  0
 74 75  2  0  0  0
 74 76  1  0  0  0
 74149  1  0  0  0
 75 84  1  0  0  0
 76 85  1  0  0  0
 77 78  1  0  0  0
 77 84  1  0  0  0
 77 86  2  0  0  0
 78 79  1  0  0  0
 78150  1  0  0  0
 78151  1  0  0  0
 79 81  1  0  0  0
 79152  1  0  0  0
 79153  1  0  0  0
 80 81  1  0  0  0
 80 84  1  0  0  0
 80154  1  0  0  0
 80155  1  0  0  0
 81 83  1  0  0  0
 81156  1  0  0  0
 82 85  1  0  0  0
 82157  1  0  0  0
 82158  1  0  0  0
 82159  1  0  0  0
 83160  1  0  0  0
 83161  1  0  0  0
M  ISO  4   1 100  68 101  83 101  85 100
M  END
> <chiral flag>
0

> <version>
0

> <s_m_source_file>
/data/baiqing/PycharmProjects/Reinvent-master-3.2/result/LINK_invent/BTK/process_docking_weight1_custom_product_contain_oxygen_bond_distance_aromatic_linkinvent_7_9_3/rearranged_h_0097.sdf

> <i_m_source_file_index>
82

> <r_mmod_Potential_Energy-OPLS-2005>
657.352783203125

> <r_mmod_Stretch_Energy-OPLS-2005>
174.669342041016

> <r_mmod_Bend_Energy-OPLS-2005>
286.759338378906

> <r_mmod_Torsional_Energy-OPLS-2005>
420.864685058594

> <r_mmod_Improper_Torsional_Energy-OPLS-2005>
9.91605567932129

> <r_mmod_Van_der_Waal_Energy-OPLS-2005>
134.535858154297

> <r_mmod_Electrostatic_Energy-OPLS-2005>
-266.334289550781

> <r_mmod_Solvation_Energy-OPLS-2005>
-204.879623413086

> <b_mmod_Minimization_Converged-OPLS-2005>
0

> <r_mmod_RMS_Derivative-OPLS-2005>
1.69792175292969

$$$$
83
                    3D
 Structure written by MMmdl.
159167  0  0  1  0            999 V2000
  -30.7201  -14.5027   20.6200 C   0  0  0  0  0  0
  -30.4203  -12.3404   19.4389 C   0  0  0  0  0  0
  -29.4976  -12.5167   18.2173 C   0  0  0  0  0  0
  -28.0197  -12.3596   18.6268 C   0  0  0  0  0  0
  -27.6580  -13.2096   19.8734 C   0  0  2  0  0  0
  -28.6979  -13.0237   21.0010 C   0  0  0  0  0  0
  -25.2560  -13.8139   20.5720 C   0  0  0  0  0  0
  -24.1807  -13.0419   20.9142 C   0  0  0  0  0  0
  -24.6380  -11.6886   20.8744 C   0  0  0  0  0  0
  -23.9067  -10.4276   21.0412 C   0  0  0  0  0  0
  -24.3619   -9.4191   21.9178 C   0  0  0  0  0  0
  -23.6284   -8.2237   22.0731 C   0  0  0  0  0  0
  -22.4263   -8.0281   21.3527 C   0  0  0  0  0  0
  -21.9911   -9.0258   20.4633 C   0  0  0  0  0  0
  -22.7253  -10.2119   20.3053 C   0  0  0  0  0  0
  -21.6853   -6.0741   22.5279 C   0  0  0  0  0  0
  -21.4027   -6.5648   23.8219 C   0  0  0  0  0  0
  -21.3642   -5.6789   24.9171 C   0  0  0  0  0  0
  -21.6040   -4.3057   24.7218 C   0  0  0  0  0  0
  -21.8819   -3.8147   23.4343 C   0  0  0  0  0  0
  -21.9183   -4.6966   22.3402 C   0  0  0  0  0  0
  -22.7827  -13.5213   21.1836 C   0  0  0  0  0  0
  -22.1648   -4.2157   21.0977 F   0  0  0  0  0  0
  -21.5614   -3.4533   25.7725 F   0  0  0  0  0  0
  -30.0278  -13.3361   20.4554 N   0  0  0  0  0  0
  -26.3010  -12.9325   20.3394 N   0  0  0  0  0  0
  -25.9315  -11.6477   20.5799 N   0  0  0  0  0  0
  -22.0455  -12.8225   22.0398 N   0  0  0  0  0  0
  -25.4307  -15.1865   20.4279 N   0  0  0  0  0  0
  -31.8023  -14.6743   20.0495 O   0  0  0  0  0  0
  -21.6635   -6.8875   21.4230 O   0  0  0  0  0  0
  -22.3526  -14.5528   20.6684 O   0  0  0  0  0  0
  -24.6194  -31.8671   23.2106 C   0  0  0  0  0  0
  -25.9059  -32.4819   23.8423 C   0  0  1  0  0  0
  -27.2332  -27.3899   20.0864 C   0  0  0  0  0  0
  -25.5889  -33.8623   24.2340 N   0  0  0  0  0  0
  -23.4109  -30.4918   21.5518 C   0  0  2  0  0  0
  -24.8563  -28.9591   20.1104 C   0  0  0  0  0  0
  -22.7446  -29.4645   22.4969 C   0  0  0  0  0  0
  -18.0276  -28.1355   22.8505 C   0  0  0  0  0  0
  -24.1485  -36.7318   23.2639 C   0  0  0  0  0  0
  -25.9472  -30.8155   21.3745 C   0  0  0  0  0  0
  -26.0203  -29.4485   20.7156 C   0  0  0  0  0  0
  -27.2070  -28.6701   20.7023 C   0  0  0  0  0  0
  -26.0470  -26.9485   19.4480 C   0  0  0  0  0  0
  -24.8678  -27.7113   19.4715 C   0  0  0  0  0  0
  -23.6221  -29.8298   20.1647 C   0  0  0  0  0  0
  -25.4094  -36.3117   24.0349 C   0  0  1  0  0  0
  -20.5882  -28.3653   23.1302 C   0  0  2  0  0  0
  -20.6755  -26.9380   22.5411 C   0  0  0  0  0  0
  -19.5729  -26.6365   21.5210 C   0  0  0  0  0  0
  -18.1911  -26.7903   22.1630 C   0  0  0  0  0  0
  -19.1534  -28.8821   23.2906 C   0  0  0  0  0  0
  -18.9451  -30.1424   23.8925 C   0  0  0  0  0  0
  -17.6453  -30.6576   24.0552 C   0  0  0  0  0  0
  -25.9015  -34.9478   23.5141 C   0  0  0  0  0  0
  -16.5346  -29.9077   23.6304 C   0  0  0  0  0  0
  -16.7263  -28.6476   23.0362 C   0  0  0  0  0  0
  -26.4470  -31.6607   25.0762 C   0  0  0  0  0  0
  -25.3729  -31.3725   26.1507 C   0  0  0  0  0  0
  -27.0281  -30.3041   24.6140 C   0  0  0  0  0  0
  -27.6044  -32.4334   25.7518 C   0  0  0  0  0  0
  -27.5575  -37.1809   24.8463 C   0  0  0  0  0  0
  -21.4169  -29.3035   22.3716 N   0  0  0  0  0  0
  -26.4281  -37.3792   23.9412 N   0  0  0  0  0  0
  -24.6780  -31.0733   22.1032 N   0  0  0  0  0  0
  -23.4203  -28.8144   23.2994 O   0  0  0  0  0  0
  -28.3900  -26.6134   20.1366 O   0  0  0  0  0  0
  -26.5587  -34.8923   22.4704 O   0  0  0  0  0  0
  -23.5372  -32.1439   23.7461 O   0  0  0  0  0  0
  -31.0751  -18.0059   19.4406 C   0  0  0  0  0  0
  -31.6504  -19.1937   18.9522 C   0  0  0  0  0  0
  -29.5454  -19.3213   20.7871 C   0  0  0  0  0  0
  -30.0176  -18.0416   20.3693 C   0  0  0  0  0  0
  -31.1850  -20.4640   19.3762 C   0  0  0  0  0  0
  -30.1104  -20.5354   20.3007 C   0  0  0  0  0  0
  -29.3813  -16.7594   20.8245 C   0  0  0  0  0  0
  -32.5206  -21.6121   17.7507 C   0  0  0  0  0  0
  -30.2239  -15.6680   21.5287 C   0  0  0  0  0  0
  -29.2618  -24.2191   20.4541 C   0  0  0  0  0  0
  -28.3262  -25.2224   19.7139 C   0  0  0  0  0  0
  -29.1692  -22.7612   19.8929 C   0  0  0  0  0  0
  -28.1327  -16.6022   20.7004 N   0  0  0  0  0  0
  -31.7684  -21.6408   18.9579 O   0  0  0  0  0  0
  -29.6678  -21.7562   20.8044 O   0  0  0  0  0  0
  -31.4649  -12.4328   19.1384 H   0  0  0  0  0  0
  -30.3222  -11.3312   19.8414 H   0  0  0  0  0  0
  -29.7524  -11.7856   17.4485 H   0  0  0  0  0  0
  -29.6601  -13.4993   17.7716 H   0  0  0  0  0  0
  -27.8409  -11.3029   18.8352 H   0  0  0  0  0  0
  -27.3673  -12.6253   17.7927 H   0  0  0  0  0  0
  -27.6912  -14.2493   19.5538 H   0  0  0  0  0  0
  -28.6787  -11.9959   21.3675 H   0  0  0  0  0  0
  -28.4339  -13.6416   21.8567 H   0  0  0  0  0  0
  -25.2742   -9.5679   22.4776 H   0  0  0  0  0  0
  -23.9977   -7.4643   22.7463 H   0  0  0  0  0  0
  -21.0834   -8.8814   19.8955 H   0  0  0  0  0  0
  -22.3723  -10.9671   19.6191 H   0  0  0  0  0  0
  -21.2051   -7.6159   23.9744 H   0  0  0  0  0  0
  -21.1449   -6.0500   25.9077 H   0  0  0  0  0  0
  -22.0611   -2.7607   23.2843 H   0  0  0  0  0  0
  -22.4068  -11.9889   22.4799 H   0  0  0  0  0  0
  -21.1078  -13.1274   22.2621 H   0  0  0  0  0  0
  -24.6936  -15.8484   20.6410 H   0  0  0  0  0  0
  -26.3558  -15.6160   20.3765 H   0  0  0  0  0  0
  -26.7122  -32.5525   23.1180 H   0  0  0  0  0  0
  -25.0060  -33.9785   25.0506 H   0  0  0  0  0  0
  -22.7020  -31.3103   21.4129 H   0  0  0  0  0  0
  -23.3749  -35.9650   23.3310 H   0  0  0  0  0  0
  -24.3573  -36.8917   22.2046 H   0  0  0  0  0  0
  -23.7223  -37.6522   23.6640 H   0  0  0  0  0  0
  -26.0668  -31.5826   20.6082 H   0  0  0  0  0  0
  -26.8353  -30.8684   21.9930 H   0  0  0  0  0  0
  -28.1044  -29.0410   21.1777 H   0  0  0  0  0  0
  -25.9960  -26.0166   18.9079 H   0  0  0  0  0  0
  -23.9783  -27.3376   18.9814 H   0  0  0  0  0  0
  -23.7347  -30.6100   19.4125 H   0  0  0  0  0  0
  -22.7464  -29.2542   19.8589 H   0  0  0  0  0  0
  -25.1265  -36.1995   25.0840 H   0  0  0  0  0  0
  -20.9982  -28.3207   24.1423 H   0  0  0  0  0  0
  -20.5615  -26.2269   23.3597 H   0  0  0  0  0  0
  -21.6616  -26.7380   22.1214 H   0  0  0  0  0  0
  -19.6873  -25.6275   21.1225 H   0  0  0  0  0  0
  -19.6652  -27.3187   20.6739 H   0  0  0  0  0  0
  -17.4166  -26.6660   21.4044 H   0  0  0  0  0  0
  -18.0319  -26.0038   22.9019 H   0  0  0  0  0  0
  -19.7924  -30.7226   24.2326 H   0  0  0  0  0  0
  -17.4996  -31.6255   24.5143 H   0  0  0  0  0  0
  -15.5343  -30.2981   23.7590 H   0  0  0  0  0  0
  -15.8661  -28.0772   22.7096 H   0  0  0  0  0  0
  -24.5915  -30.7041   25.7864 H   0  0  0  0  0  0
  -24.8907  -32.2886   26.4939 H   0  0  0  0  0  0
  -25.8098  -30.8928   27.0277 H   0  0  0  0  0  0
  -26.2824  -29.6834   24.1154 H   0  0  0  0  0  0
  -27.3992  -29.7233   25.4593 H   0  0  0  0  0  0
  -27.8699  -30.4344   23.9332 H   0  0  0  0  0  0
  -27.2656  -33.3636   26.2093 H   0  0  0  0  0  0
  -28.3855  -32.6888   25.0345 H   0  0  0  0  0  0
  -28.0702  -31.8460   26.5434 H   0  0  0  0  0  0
  -28.2599  -38.0107   24.7506 H   0  0  0  0  0  0
  -28.1074  -36.2632   24.6306 H   0  0  0  0  0  0
  -27.2299  -37.1479   25.8872 H   0  0  0  0  0  0
  -20.9321  -29.8817   21.6997 H   0  0  0  0  0  0
  -26.0194  -38.2881   24.1412 H   0  0  0  0  0  0
  -31.4408  -17.0576   19.0764 H   0  0  0  0  0  0
  -32.4652  -19.0962   18.2504 H   0  0  0  0  0  0
  -28.7330  -19.3678   21.5008 H   0  0  0  0  0  0
  -33.4614  -21.0726   17.8733 H   0  0  0  0  0  0
  -32.7761  -22.6287   17.4507 H   0  0  0  0  0  0
  -31.9450  -21.1705   16.9366 H   0  0  0  0  0  0
  -29.6847  -15.2893   22.3941 H   0  0  0  0  0  0
  -31.1046  -16.1497   21.9543 H   0  0  0  0  0  0
  -28.9868  -24.2063   21.5084 H   0  0  0  0  0  0
  -30.2953  -24.5665   20.4189 H   0  0  0  0  0  0
  -27.3353  -24.8064   19.8777 H   0  0  0  0  0  0
  -28.5176  -25.1924   18.6406 H   0  0  0  0  0  0
  -29.6498  -22.7303   18.9156 H   0  0  0  0  0  0
  -28.1205  -22.5167   19.7142 H   0  0  0  0  0  0
  -27.7169  -17.4064   20.2446 H   0  0  0  0  0  0
  1 25  1  0  0  0
  1 30  2  0  0  0
  1 79  1  0  0  0
  2  3  1  0  0  0
  2 25  1  0  0  0
  2 86  1  0  0  0
  2 87  1  0  0  0
  3  4  1  0  0  0
  3 88  1  0  0  0
  3 89  1  0  0  0
  4  5  1  0  0  0
  4 90  1  0  0  0
  4 91  1  0  0  0
  5  6  1  0  0  0
  5 26  1  0  0  0
  5 92  1  0  0  0
  6 25  1  0  0  0
  6 93  1  0  0  0
  6 94  1  0  0  0
  7  8  2  0  0  0
  7 26  1  0  0  0
  7 29  1  0  0  0
  8  9  1  0  0  0
  8 22  1  0  0  0
  9 10  1  0  0  0
  9 27  2  0  0  0
 10 11  2  0  0  0
 10 15  1  0  0  0
 11 12  1  0  0  0
 11 95  1  0  0  0
 12 13  2  0  0  0
 12 96  1  0  0  0
 13 14  1  0  0  0
 13 31  1  0  0  0
 14 15  2  0  0  0
 14 97  1  0  0  0
 15 98  1  0  0  0
 16 17  2  0  0  0
 16 21  1  0  0  0
 16 31  1  0  0  0
 17 18  1  0  0  0
 17 99  1  0  0  0
 18 19  2  0  0  0
 18100  1  0  0  0
 19 20  1  0  0  0
 19 24  1  0  0  0
 20 21  2  0  0  0
 20101  1  0  0  0
 21 23  1  0  0  0
 22 28  1  0  0  0
 22 32  2  0  0  0
 26 27  1  0  0  0
 28102  1  0  0  0
 28103  1  0  0  0
 29104  1  0  0  0
 29105  1  0  0  0
 33 34  1  0  0  0
 33 66  1  0  0  0
 33 70  2  0  0  0
 34 36  1  0  0  0
 34 59  1  0  0  0
 34106  1  0  0  0
 35 44  2  0  0  0
 35 45  1  0  0  0
 35 68  1  0  0  0
 36 56  1  0  0  0
 36107  1  0  0  0
 37 39  1  0  0  0
 37 47  1  0  0  0
 37 66  1  0  0  0
 37108  1  0  0  0
 38 43  2  0  0  0
 38 46  1  0  0  0
 38 47  1  0  0  0
 39 64  1  0  0  0
 39 67  2  0  0  0
 40 52  1  0  0  0
 40 53  2  0  0  0
 40 58  1  0  0  0
 41109  1  0  0  0
 41110  1  0  0  0
 41111  1  0  0  0
 41 48  1  0  0  0
 42 43  1  0  0  0
 42 66  1  0  0  0
 42112  1  0  0  0
 42113  1  0  0  0
 43 44  1  0  0  0
 44114  1  0  0  0
 45 46  2  0  0  0
 45115  1  0  0  0
 46116  1  0  0  0
 47117  1  0  0  0
 47118  1  0  0  0
 48 56  1  0  0  0
 48 65  1  0  0  0
 48119  1  0  0  0
 49 50  1  0  0  0
 49 53  1  0  0  0
 49 64  1  0  0  0
 49120  1  0  0  0
 50 51  1  0  0  0
 50121  1  0  0  0
 50122  1  0  0  0
 51 52  1  0  0  0
 51123  1  0  0  0
 51124  1  0  0  0
 52125  1  0  0  0
 52126  1  0  0  0
 53 54  1  0  0  0
 54 55  2  0  0  0
 54127  1  0  0  0
 55 57  1  0  0  0
 55128  1  0  0  0
 56 69  2  0  0  0
 57 58  2  0  0  0
 57129  1  0  0  0
 58130  1  0  0  0
 59 60  1  0  0  0
 59 61  1  0  0  0
 59 62  1  0  0  0
 60131  1  0  0  0
 60132  1  0  0  0
 60133  1  0  0  0
 61134  1  0  0  0
 61135  1  0  0  0
 61136  1  0  0  0
 62137  1  0  0  0
 62138  1  0  0  0
 62139  1  0  0  0
 63 65  1  0  0  0
 63140  1  0  0  0
 63141  1  0  0  0
 63142  1  0  0  0
 64143  1  0  0  0
 65144  1  0  0  0
 68 81  1  0  0  0
 71 72  2  0  0  0
 71 74  1  0  0  0
 71145  1  0  0  0
 72 75  1  0  0  0
 72146  1  0  0  0
 73 74  2  0  0  0
 73 76  1  0  0  0
 73147  1  0  0  0
 74 77  1  0  0  0
 75 76  2  0  0  0
 75 84  1  0  0  0
 76 85  1  0  0  0
 77 79  1  0  0  0
 77 83  2  0  0  0
 78 84  1  0  0  0
 78148  1  0  0  0
 78149  1  0  0  0
 78150  1  0  0  0
 79151  1  0  0  0
 79152  1  0  0  0
 80 81  1  0  0  0
 80 82  1  0  0  0
 80153  1  0  0  0
 80154  1  0  0  0
 81155  1  0  0  0
 81156  1  0  0  0
 82 85  1  0  0  0
 82157  1  0  0  0
 82158  1  0  0  0
 83159  1  0  0  0
M  ISO  4   1 100  68 101  79 100  81 101
M  END
> <chiral flag>
0

> <version>
0

> <s_m_source_file>
/data/baiqing/PycharmProjects/Reinvent-master-3.2/result/LINK_invent/BTK/process_docking_weight1_custom_product_contain_oxygen_bond_distance_aromatic_linkinvent_7_9_3/rearranged_h_0097.sdf

> <i_m_source_file_index>
83

> <r_mmod_Potential_Energy-OPLS-2005>
3.47280812263489

> <r_mmod_Stretch_Energy-OPLS-2005>
51.9134712219238

> <r_mmod_Bend_Energy-OPLS-2005>
122.340492248535

> <r_mmod_Torsional_Energy-OPLS-2005>
211.176116943359

> <r_mmod_Improper_Torsional_Energy-OPLS-2005>
3.19497585296631

> <r_mmod_Van_der_Waal_Energy-OPLS-2005>
156.767379760742

> <r_mmod_Electrostatic_Energy-OPLS-2005>
-362.902587890625

> <r_mmod_Solvation_Energy-OPLS-2005>
-198.307220458984

> <b_mmod_Minimization_Converged-OPLS-2005>
0

> <r_mmod_RMS_Derivative-OPLS-2005>
3.06473731994629

$$$$
84
                    3D
 Structure written by MMmdl.
159168  0  0  1  0            999 V2000
  -30.7478  -14.4215   20.5740 C   0  0  0  0  0  0
  -30.4055  -12.2736   19.4293 C   0  0  0  0  0  0
  -29.4932  -12.4943   18.2063 C   0  0  0  0  0  0
  -28.0101  -12.3746   18.6102 C   0  0  0  0  0  0
  -27.6584  -13.2103   19.8702 C   0  0  2  0  0  0
  -28.6984  -13.0000   20.9936 C   0  0  0  0  0  0
  -25.2579  -13.8160   20.5681 C   0  0  0  0  0  0
  -24.1834  -13.0437   20.9168 C   0  0  0  0  0  0
  -24.6383  -11.6901   20.8713 C   0  0  0  0  0  0
  -23.9046  -10.4289   21.0395 C   0  0  0  0  0  0
  -24.3597   -9.4214   21.9178 C   0  0  0  0  0  0
  -23.6282   -8.2245   22.0751 C   0  0  0  0  0  0
  -22.4266   -8.0274   21.3546 C   0  0  0  0  0  0
  -21.9890   -9.0247   20.4655 C   0  0  0  0  0  0
  -22.7208  -10.2129   20.3055 C   0  0  0  0  0  0
  -21.6857   -6.0723   22.5277 C   0  0  0  0  0  0
  -21.4014   -6.5631   23.8210 C   0  0  0  0  0  0
  -21.3663   -5.6785   24.9172 C   0  0  0  0  0  0
  -21.6047   -4.3047   24.7220 C   0  0  0  0  0  0
  -21.8819   -3.8140   23.4348 C   0  0  0  0  0  0
  -21.9195   -4.6955   22.3402 C   0  0  0  0  0  0
  -22.7861  -13.5250   21.1832 C   0  0  0  0  0  0
  -22.1669   -4.2139   21.0978 F   0  0  0  0  0  0
  -21.5631   -3.4530   25.7741 F   0  0  0  0  0  0
  -30.0317  -13.2736   20.4404 N   0  0  0  0  0  0
  -26.3015  -12.9340   20.3335 N   0  0  0  0  0  0
  -25.9306  -11.6493   20.5729 N   0  0  0  0  0  0
  -22.0502  -12.8245   22.0393 N   0  0  0  0  0  0
  -25.4296  -15.1876   20.4106 N   0  0  0  0  0  0
  -31.8918  -14.5285   20.1244 O   0  0  0  0  0  0
  -21.6638   -6.8865   21.4240 O   0  0  0  0  0  0
  -22.3552  -14.5556   20.6683 O   0  0  0  0  0  0
  -24.6094  -31.8704   23.2124 C   0  0  0  0  0  0
  -25.8999  -32.4836   23.8416 C   0  0  1  0  0  0
  -27.2408  -27.4754   20.1016 C   0  0  0  0  0  0
  -25.5866  -33.8634   24.2336 N   0  0  0  0  0  0
  -23.3969  -30.4931   21.5506 C   0  0  2  0  0  0
  -24.8476  -28.9623   20.1141 C   0  0  0  0  0  0
  -22.7379  -29.4671   22.4993 C   0  0  0  0  0  0
  -18.0263  -28.1362   22.8488 C   0  0  0  0  0  0
  -24.1488  -36.7343   23.2641 C   0  0  0  0  0  0
  -25.9196  -30.8495   21.3603 C   0  0  0  0  0  0
  -26.0015  -29.4861   20.7120 C   0  0  0  0  0  0
  -27.2020  -28.7477   20.7087 C   0  0  0  0  0  0
  -26.0800  -26.9572   19.4955 C   0  0  0  0  0  0
  -24.8788  -27.6940   19.5040 C   0  0  0  0  0  0
  -23.6055  -29.8233   20.1653 C   0  0  0  0  0  0
  -25.4108  -36.3127   24.0340 C   0  0  1  0  0  0
  -20.5847  -28.3651   23.1318 C   0  0  2  0  0  0
  -20.6751  -26.9388   22.5420 C   0  0  0  0  0  0
  -19.5741  -26.6369   21.5205 C   0  0  0  0  0  0
  -18.1917  -26.7908   22.1617 C   0  0  0  0  0  0
  -19.1509  -28.8822   23.2900 C   0  0  0  0  0  0
  -18.9445  -30.1428   23.8912 C   0  0  0  0  0  0
  -17.6454  -30.6575   24.0561 C   0  0  0  0  0  0
  -25.9030  -34.9484   23.5138 C   0  0  0  0  0  0
  -16.5343  -29.9082   23.6320 C   0  0  0  0  0  0
  -16.7255  -28.6497   23.0344 C   0  0  0  0  0  0
  -26.4442  -31.6599   25.0726 C   0  0  0  0  0  0
  -25.3731  -31.3708   26.1500 C   0  0  0  0  0  0
  -27.0267  -30.3045   24.6067 C   0  0  0  0  0  0
  -27.6021  -32.4323   25.7475 C   0  0  0  0  0  0
  -27.5576  -37.1840   24.8466 C   0  0  0  0  0  0
  -21.4110  -29.3025   22.3726 N   0  0  0  0  0  0
  -26.4297  -37.3802   23.9392 N   0  0  0  0  0  0
  -24.6597  -31.0845   22.1000 N   0  0  0  0  0  0
  -23.4162  -28.8222   23.3030 O   0  0  0  0  0  0
  -28.3836  -26.7225   20.0906 O   0  0  0  0  0  0
  -26.5608  -34.8928   22.4710 O   0  0  0  0  0  0
  -23.5296  -32.1435   23.7535 O   0  0  0  0  0  0
  -29.0506  -18.4800   21.2813 C   0  0  0  0  0  0
  -31.1250  -18.8961   22.4806 C   0  0  0  0  0  0
  -28.7589  -19.8571   21.3140 C   0  0  0  0  0  0
  -30.8241  -20.2709   22.5318 C   0  0  0  0  0  0
  -30.2718  -18.0000   21.8030 C   0  0  0  0  0  0
  -29.6697  -20.7679   21.8944 C   0  0  0  0  0  0
  -29.3312  -24.9884   21.4183 C   0  0  0  0  0  0
  -30.7447  -16.6336   21.5395 C   0  0  0  0  0  0
  -28.7684  -26.2036   21.2983 C   0  0  0  0  0  0
  -30.0309  -15.5965   21.0537 C   0  0  0  0  0  0
  -29.5815  -24.0738   20.2300 C   0  0  0  0  0  0
  -29.7526  -24.4061   22.7623 C   0  0  0  0  0  0
  -29.0202  -22.6669   20.4837 C   0  0  0  0  0  0
  -29.2606  -22.9562   22.9614 C   0  0  0  0  0  0
  -29.4972  -22.1542   21.7643 N   0  0  0  0  0  0
  -31.4551  -12.3327   19.1349 H   0  0  0  0  0  0
  -30.2703  -11.2670   19.8296 H   0  0  0  0  0  0
  -29.7247  -11.7670   17.4277 H   0  0  0  0  0  0
  -29.6837  -13.4779   17.7737 H   0  0  0  0  0  0
  -27.8014  -11.3206   18.7957 H   0  0  0  0  0  0
  -27.3707  -12.6715   17.7776 H   0  0  0  0  0  0
  -27.6993  -14.2562   19.5671 H   0  0  0  0  0  0
  -28.6619  -11.9734   21.3615 H   0  0  0  0  0  0
  -28.4729  -13.6251   21.8589 H   0  0  0  0  0  0
  -25.2740   -9.5702   22.4752 H   0  0  0  0  0  0
  -24.0004   -7.4630   22.7456 H   0  0  0  0  0  0
  -21.0822   -8.8750   19.8962 H   0  0  0  0  0  0
  -22.3654  -10.9659   19.6166 H   0  0  0  0  0  0
  -21.2005   -7.6138   23.9701 H   0  0  0  0  0  0
  -21.1489   -6.0520   25.9070 H   0  0  0  0  0  0
  -22.0596   -2.7602   23.2845 H   0  0  0  0  0  0
  -22.4116  -11.9915   22.4797 H   0  0  0  0  0  0
  -21.1121  -13.1291   22.2589 H   0  0  0  0  0  0
  -24.6625  -15.8420   20.5226 H   0  0  0  0  0  0
  -26.2813  -15.6287   20.0891 H   0  0  0  0  0  0
  -26.7081  -32.5567   23.1197 H   0  0  0  0  0  0
  -24.9984  -33.9804   25.0459 H   0  0  0  0  0  0
  -22.6838  -31.3083   21.4115 H   0  0  0  0  0  0
  -23.3714  -35.9716   23.3365 H   0  0  0  0  0  0
  -24.3564  -36.8895   22.2040 H   0  0  0  0  0  0
  -23.7292  -37.6591   23.6617 H   0  0  0  0  0  0
  -26.0242  -31.6155   20.5910 H   0  0  0  0  0  0
  -26.8095  -30.9050   21.9755 H   0  0  0  0  0  0
  -28.0951  -29.1470   21.1680 H   0  0  0  0  0  0
  -26.1116  -25.9820   19.0305 H   0  0  0  0  0  0
  -23.9925  -27.2829   19.0406 H   0  0  0  0  0  0
  -23.7084  -30.5980   19.4044 H   0  0  0  0  0  0
  -22.7319  -29.2384   19.8733 H   0  0  0  0  0  0
  -25.1281  -36.2004   25.0837 H   0  0  0  0  0  0
  -20.9939  -28.3224   24.1437 H   0  0  0  0  0  0
  -20.5633  -26.2265   23.3609 H   0  0  0  0  0  0
  -21.6629  -26.7429   22.1229 H   0  0  0  0  0  0
  -19.6912  -25.6280   21.1235 H   0  0  0  0  0  0
  -19.6681  -27.3177   20.6734 H   0  0  0  0  0  0
  -17.4182  -26.6642   21.4024 H   0  0  0  0  0  0
  -18.0333  -26.0041   22.9009 H   0  0  0  0  0  0
  -19.7929  -30.7225   24.2291 H   0  0  0  0  0  0
  -17.5022  -31.6262   24.5149 H   0  0  0  0  0  0
  -15.5350  -30.2996   23.7638 H   0  0  0  0  0  0
  -15.8651  -28.0831   22.7049 H   0  0  0  0  0  0
  -24.5839  -30.7127   25.7848 H   0  0  0  0  0  0
  -24.8997  -32.2870   26.5035 H   0  0  0  0  0  0
  -25.8089  -30.8800   27.0209 H   0  0  0  0  0  0
  -26.2805  -29.6825   24.1103 H   0  0  0  0  0  0
  -27.4037  -29.7250   25.4505 H   0  0  0  0  0  0
  -27.8638  -30.4380   23.9209 H   0  0  0  0  0  0
  -27.2632  -33.3602   26.2092 H   0  0  0  0  0  0
  -28.3792  -32.6921   25.0277 H   0  0  0  0  0  0
  -28.0729  -31.8431   26.5351 H   0  0  0  0  0  0
  -28.2632  -38.0095   24.7435 H   0  0  0  0  0  0
  -28.1024  -36.2621   24.6371 H   0  0  0  0  0  0
  -27.2289  -37.1602   25.8870 H   0  0  0  0  0  0
  -20.9258  -29.8747   21.6959 H   0  0  0  0  0  0
  -26.0195  -38.2895   24.1332 H   0  0  0  0  0  0
  -28.3695  -17.8197   20.7658 H   0  0  0  0  0  0
  -32.0601  -18.5471   22.8954 H   0  0  0  0  0  0
  -27.8541  -20.2101   20.8409 H   0  0  0  0  0  0
  -31.5316  -20.9503   22.9867 H   0  0  0  0  0  0
  -31.8086  -16.4964   21.6841 H   0  0  0  0  0  0
  -28.5739  -26.8641   22.1338 H   0  0  0  0  0  0
  -28.9611  -15.6701   20.9419 H   0  0  0  0  0  0
  -30.6587  -24.0160   20.0681 H   0  0  0  0  0  0
  -29.1537  -24.4870   19.3158 H   0  0  0  0  0  0
  -29.4028  -25.0390   23.5793 H   0  0  0  0  0  0
  -30.8422  -24.4246   22.8040 H   0  0  0  0  0  0
  -29.3135  -22.0038   19.6677 H   0  0  0  0  0  0
  -27.9298  -22.6974   20.4920 H   0  0  0  0  0  0
  -28.1895  -22.9585   23.1692 H   0  0  0  0  0  0
  -29.7447  -22.5107   23.8319 H   0  0  0  0  0  0
  1 25  1  0  0  0
  1 30  2  0  0  0
  1 80  1  0  0  0
  2  3  1  0  0  0
  2 25  1  0  0  0
  2 86  1  0  0  0
  2 87  1  0  0  0
  3  4  1  0  0  0
  3 88  1  0  0  0
  3 89  1  0  0  0
  4  5  1  0  0  0
  4 90  1  0  0  0
  4 91  1  0  0  0
  5  6  1  0  0  0
  5 26  1  0  0  0
  5 92  1  0  0  0
  6 25  1  0  0  0
  6 93  1  0  0  0
  6 94  1  0  0  0
  7  8  2  0  0  0
  7 26  1  0  0  0
  7 29  1  0  0  0
  8  9  1  0  0  0
  8 22  1  0  0  0
  9 10  1  0  0  0
  9 27  2  0  0  0
 10 11  2  0  0  0
 10 15  1  0  0  0
 11 12  1  0  0  0
 11 95  1  0  0  0
 12 13  2  0  0  0
 12 96  1  0  0  0
 13 14  1  0  0  0
 13 31  1  0  0  0
 14 15  2  0  0  0
 14 97  1  0  0  0
 15 98  1  0  0  0
 16 17  2  0  0  0
 16 21  1  0  0  0
 16 31  1  0  0  0
 17 18  1  0  0  0
 17 99  1  0  0  0
 18 19  2  0  0  0
 18100  1  0  0  0
 19 20  1  0  0  0
 19 24  1  0  0  0
 20 21  2  0  0  0
 20101  1  0  0  0
 21 23  1  0  0  0
 22 28  1  0  0  0
 22 32  2  0  0  0
 26 27  1  0  0  0
 28102  1  0  0  0
 28103  1  0  0  0
 29104  1  0  0  0
 29105  1  0  0  0
 33 34  1  0  0  0
 33 66  1  0  0  0
 33 70  2  0  0  0
 34 36  1  0  0  0
 34 59  1  0  0  0
 34106  1  0  0  0
 35 44  2  0  0  0
 35 45  1  0  0  0
 35 68  1  0  0  0
 36 56  1  0  0  0
 36107  1  0  0  0
 37 39  1  0  0  0
 37 47  1  0  0  0
 37 66  1  0  0  0
 37108  1  0  0  0
 38 43  2  0  0  0
 38 46  1  0  0  0
 38 47  1  0  0  0
 39 64  1  0  0  0
 39 67  2  0  0  0
 40 52  1  0  0  0
 40 53  2  0  0  0
 40 58  1  0  0  0
 41109  1  0  0  0
 41110  1  0  0  0
 41111  1  0  0  0
 41 48  1  0  0  0
 42 43  1  0  0  0
 42 66  1  0  0  0
 42112  1  0  0  0
 42113  1  0  0  0
 43 44  1  0  0  0
 44114  1  0  0  0
 45 46  2  0  0  0
 45115  1  0  0  0
 46116  1  0  0  0
 47117  1  0  0  0
 47118  1  0  0  0
 48 56  1  0  0  0
 48 65  1  0  0  0
 48119  1  0  0  0
 49 50  1  0  0  0
 49 53  1  0  0  0
 49 64  1  0  0  0
 49120  1  0  0  0
 50 51  1  0  0  0
 50121  1  0  0  0
 50122  1  0  0  0
 51 52  1  0  0  0
 51123  1  0  0  0
 51124  1  0  0  0
 52125  1  0  0  0
 52126  1  0  0  0
 53 54  1  0  0  0
 54 55  2  0  0  0
 54127  1  0  0  0
 55 57  1  0  0  0
 55128  1  0  0  0
 56 69  2  0  0  0
 57 58  2  0  0  0
 57129  1  0  0  0
 58130  1  0  0  0
 59 60  1  0  0  0
 59 61  1  0  0  0
 59 62  1  0  0  0
 60131  1  0  0  0
 60132  1  0  0  0
 60133  1  0  0  0
 61134  1  0  0  0
 61135  1  0  0  0
 61136  1  0  0  0
 62137  1  0  0  0
 62138  1  0  0  0
 62139  1  0  0  0
 63 65  1  0  0  0
 63140  1  0  0  0
 63141  1  0  0  0
 63142  1  0  0  0
 64143  1  0  0  0
 65144  1  0  0  0
 68 79  1  0  0  0
 71 73  2  0  0  0
 71 75  1  0  0  0
 71145  1  0  0  0
 72 74  1  0  0  0
 72 75  2  0  0  0
 72146  1  0  0  0
 73 76  1  0  0  0
 73147  1  0  0  0
 74 76  2  0  0  0
 74148  1  0  0  0
 75 78  1  0  0  0
 76 85  1  0  0  0
 77 79  2  0  0  0
 77 81  1  0  0  0
 77 82  1  0  0  0
 78 80  2  0  0  0
 78149  1  0  0  0
 79150  1  0  0  0
 80151  1  0  0  0
 81 83  1  0  0  0
 81152  1  0  0  0
 81153  1  0  0  0
 82 84  1  0  0  0
 82154  1  0  0  0
 82155  1  0  0  0
 83 85  1  0  0  0
 83156  1  0  0  0
 83157  1  0  0  0
 84 85  1  0  0  0
 84158  1  0  0  0
 84159  1  0  0  0
M  ISO  4   1 100  68 101  79 101  80 100
M  END
> <chiral flag>
0

> <version>
0

> <s_m_source_file>
/data/baiqing/PycharmProjects/Reinvent-master-3.2/result/LINK_invent/BTK/process_docking_weight1_custom_product_contain_oxygen_bond_distance_aromatic_linkinvent_7_9_3/rearranged_h_0097.sdf

> <i_m_source_file_index>
84

> <r_mmod_Potential_Energy-OPLS-2005>
-10.9810400009155

> <r_mmod_Stretch_Energy-OPLS-2005>
31.2433643341064

> <r_mmod_Bend_Energy-OPLS-2005>
99.6205139160156

> <r_mmod_Torsional_Energy-OPLS-2005>
233.118270874023

> <r_mmod_Improper_Torsional_Energy-OPLS-2005>
9.14666366577148

> <r_mmod_Van_der_Waal_Energy-OPLS-2005>
165.046020507812

> <r_mmod_Electrostatic_Energy-OPLS-2005>
-359.410003662109

> <r_mmod_Solvation_Energy-OPLS-2005>
-201.94548034668

> <b_mmod_Minimization_Converged-OPLS-2005>
0

> <r_mmod_RMS_Derivative-OPLS-2005>
1.6372082233429

$$$$
85
                    3D
 Structure written by MMmdl.
164173  0  0  1  0            999 V2000
  -30.7338  -14.5608   20.5720 C   0  0  0  0  0  0
  -30.4121  -12.3691   19.4501 C   0  0  0  0  0  0
  -29.4920  -12.4945   18.2215 C   0  0  0  0  0  0
  -28.0217  -12.3264   18.6419 C   0  0  0  0  0  0
  -27.6465  -13.2108   19.8560 C   0  0  2  0  0  0
  -28.6902  -13.0928   20.9923 C   0  0  0  0  0  0
  -25.2528  -13.8158   20.5692 C   0  0  0  0  0  0
  -24.1801  -13.0427   20.9216 C   0  0  0  0  0  0
  -24.6375  -11.6897   20.8757 C   0  0  0  0  0  0
  -23.9060  -10.4279   21.0413 C   0  0  0  0  0  0
  -24.3610   -9.4190   21.9189 C   0  0  0  0  0  0
  -23.6281   -8.2231   22.0754 C   0  0  0  0  0  0
  -22.4265   -8.0280   21.3545 C   0  0  0  0  0  0
  -21.9903   -9.0250   20.4645 C   0  0  0  0  0  0
  -22.7233  -10.2127   20.3051 C   0  0  0  0  0  0
  -21.6850   -6.0724   22.5274 C   0  0  0  0  0  0
  -21.4007   -6.5635   23.8204 C   0  0  0  0  0  0
  -21.3653   -5.6793   24.9166 C   0  0  0  0  0  0
  -21.6040   -4.3053   24.7219 C   0  0  0  0  0  0
  -21.8820   -3.8138   23.4343 C   0  0  0  0  0  0
  -21.9194   -4.6954   22.3397 C   0  0  0  0  0  0
  -22.7824  -13.5218   21.1889 C   0  0  0  0  0  0
  -22.1665   -4.2139   21.0974 F   0  0  0  0  0  0
  -21.5623   -3.4537   25.7729 F   0  0  0  0  0  0
  -30.0152  -13.4011   20.4330 N   0  0  0  0  0  0
  -26.2945  -12.9334   20.3300 N   0  0  0  0  0  0
  -25.9302  -11.6497   20.5778 N   0  0  0  0  0  0
  -22.0473  -12.8201   22.0439 N   0  0  0  0  0  0
  -25.4223  -15.1878   20.4075 N   0  0  0  0  0  0
  -31.8491  -14.6704   20.0502 O   0  0  0  0  0  0
  -21.6639   -6.8867   21.4234 O   0  0  0  0  0  0
  -22.3509  -14.5537   20.6756 O   0  0  0  0  0  0
  -24.6181  -31.8637   23.2063 C   0  0  0  0  0  0
  -25.9062  -32.4814   23.8369 C   0  0  1  0  0  0
  -27.2354  -27.3916   20.0895 C   0  0  0  0  0  0
  -25.5909  -33.8609   24.2311 N   0  0  0  0  0  0
  -23.4110  -30.4871   21.5440 C   0  0  2  0  0  0
  -24.8596  -28.9517   20.1000 C   0  0  0  0  0  0
  -22.7436  -29.4635   22.4921 C   0  0  0  0  0  0
  -18.0274  -28.1420   22.8503 C   0  0  0  0  0  0
  -24.1459  -36.7261   23.2647 C   0  0  0  0  0  0
  -25.9413  -30.8147   21.3649 C   0  0  0  0  0  0
  -26.0164  -29.4450   20.7122 C   0  0  0  0  0  0
  -27.2003  -28.6647   20.7184 C   0  0  0  0  0  0
  -26.0634  -26.9349   19.4490 C   0  0  0  0  0  0
  -24.8789  -27.6978   19.4656 C   0  0  0  0  0  0
  -23.6224  -29.8232   20.1562 C   0  0  0  0  0  0
  -25.4086  -36.3102   24.0365 C   0  0  1  0  0  0
  -20.5868  -28.3698   23.1304 C   0  0  2  0  0  0
  -20.6759  -26.9424   22.5423 C   0  0  0  0  0  0
  -19.5733  -26.6409   21.5222 C   0  0  0  0  0  0
  -18.1910  -26.7970   22.1634 C   0  0  0  0  0  0
  -19.1529  -28.8872   23.2907 C   0  0  0  0  0  0
  -18.9462  -30.1473   23.8928 C   0  0  0  0  0  0
  -17.6470  -30.6626   24.0573 C   0  0  0  0  0  0
  -25.9031  -34.9478   23.5132 C   0  0  0  0  0  0
  -16.5349  -29.9139   23.6345 C   0  0  0  0  0  0
  -16.7268  -28.6553   23.0367 C   0  0  0  0  0  0
  -26.4495  -31.6607   25.0704 C   0  0  0  0  0  0
  -25.3773  -31.3707   26.1450 C   0  0  0  0  0  0
  -27.0340  -30.3064   24.6071 C   0  0  0  0  0  0
  -27.6055  -32.4341   25.7480 C   0  0  0  0  0  0
  -27.5568  -37.1774   24.8488 C   0  0  0  0  0  0
  -21.4151  -29.3046   22.3680 N   0  0  0  0  0  0
  -26.4261  -37.3801   23.9461 N   0  0  0  0  0  0
  -24.6755  -31.0705   22.0975 N   0  0  0  0  0  0
  -23.4174  -28.8171   23.2986 O   0  0  0  0  0  0
  -28.3702  -26.5981   20.2006 O   0  0  0  0  0  0
  -26.5577  -34.8946   22.4680 O   0  0  0  0  0  0
  -23.5366  -32.1391   23.7431 O   0  0  0  0  0  0
  -28.7822  -17.9870   19.2104 C   0  0  0  0  0  0
  -28.6958  -19.2673   18.6215 C   0  0  0  0  0  0
  -29.5333  -20.2845   20.6358 C   0  0  0  0  0  0
  -29.2167  -17.8189   20.5405 C   0  0  0  0  0  0
  -29.0743  -20.4631   19.3036 C   0  0  0  0  0  0
  -29.5914  -18.9964   21.2454 C   0  0  0  0  0  0
  -28.9132  -21.8613   17.3054 C   0  0  0  0  0  0
  -27.9862  -22.8986   16.6915 C   0  0  0  0  0  0
  -28.3235  -24.2821   17.2186 C   0  0  0  0  0  0
  -29.0508  -23.0949   19.3950 C   0  0  0  0  0  0
  -28.3067  -24.3534   18.7583 C   0  0  1  0  0  0
  -31.2776  -16.1973   22.2780 C   0  0  0  0  0  0
  -29.0898  -16.4133   21.2004 C   0  0  0  0  0  0
  -28.8462  -25.8039   19.0966 C   0  0  0  0  0  0
  -28.9427  -21.7798   18.6593 N   0  0  0  0  0  0
  -30.2914  -15.5552   21.4038 N   0  0  0  0  0  0
  -29.5903  -21.1525   16.5515 O   0  0  0  0  0  0
  -29.9744  -18.9121   22.5419 F   0  0  0  0  0  0
  -31.4566  -12.4503   19.1436 H   0  0  0  0  0  0
  -30.3193  -11.3780   19.8965 H   0  0  0  0  0  0
  -29.7524  -11.7383   17.4797 H   0  0  0  0  0  0
  -29.6360  -13.4628   17.7398 H   0  0  0  0  0  0
  -27.8708  -11.2758   18.8926 H   0  0  0  0  0  0
  -27.3591  -12.5363   17.8010 H   0  0  0  0  0  0
  -27.6517  -14.2289   19.4744 H   0  0  0  0  0  0
  -28.6907  -12.0834   21.4043 H   0  0  0  0  0  0
  -28.4334  -13.7513   21.8227 H   0  0  0  0  0  0
  -25.2746   -9.5663   22.4776 H   0  0  0  0  0  0
  -23.9977   -7.4611   22.7473 H   0  0  0  0  0  0
  -21.0835   -8.8772   19.8947 H   0  0  0  0  0  0
  -22.3697  -10.9668   19.6161 H   0  0  0  0  0  0
  -21.1998   -7.6148   23.9702 H   0  0  0  0  0  0
  -21.1471   -6.0524   25.9072 H   0  0  0  0  0  0
  -22.0604   -2.7603   23.2845 H   0  0  0  0  0  0
  -22.4095  -11.9847   22.4783 H   0  0  0  0  0  0
  -21.1099  -13.1221   22.2686 H   0  0  0  0  0  0
  -24.6476  -15.8354   20.5056 H   0  0  0  0  0  0
  -26.2617  -15.6297   20.0584 H   0  0  0  0  0  0
  -26.7126  -32.5520   23.1124 H   0  0  0  0  0  0
  -25.0169  -33.9765   25.0532 H   0  0  0  0  0  0
  -22.7025  -31.3069   21.4023 H   0  0  0  0  0  0
  -23.3767  -35.9545   23.3320 H   0  0  0  0  0  0
  -24.3555  -36.8845   22.2052 H   0  0  0  0  0  0
  -23.7145  -37.6447   23.6631 H   0  0  0  0  0  0
  -26.0535  -31.5761   20.5917 H   0  0  0  0  0  0
  -26.8293  -30.8721   21.9824 H   0  0  0  0  0  0
  -28.0868  -29.0313   21.2162 H   0  0  0  0  0  0
  -26.0329  -25.9776   18.9561 H   0  0  0  0  0  0
  -23.9894  -27.3142   18.9843 H   0  0  0  0  0  0
  -23.7354  -30.6015   19.3999 H   0  0  0  0  0  0
  -22.7449  -29.2480   19.8569 H   0  0  0  0  0  0
  -25.1249  -36.1956   25.0851 H   0  0  0  0  0  0
  -20.9972  -28.3265   24.1421 H   0  0  0  0  0  0
  -20.5655  -26.2314   23.3612 H   0  0  0  0  0  0
  -21.6627  -26.7470   22.1197 H   0  0  0  0  0  0
  -19.6895  -25.6324   21.1245 H   0  0  0  0  0  0
  -19.6690  -27.3229   20.6754 H   0  0  0  0  0  0
  -17.4185  -26.6748   21.4025 H   0  0  0  0  0  0
  -18.0288  -26.0105   22.9018 H   0  0  0  0  0  0
  -19.7941  -30.7267   24.2310 H   0  0  0  0  0  0
  -17.5045  -31.6312   24.5171 H   0  0  0  0  0  0
  -15.5363  -30.3060   23.7671 H   0  0  0  0  0  0
  -15.8655  -28.0889   22.7077 H   0  0  0  0  0  0
  -24.6000  -30.6978   25.7818 H   0  0  0  0  0  0
  -24.8897  -32.2844   26.4849 H   0  0  0  0  0  0
  -25.8146  -30.8957   27.0239 H   0  0  0  0  0  0
  -26.2882  -29.6806   24.1153 H   0  0  0  0  0  0
  -27.4171  -29.7310   25.4508 H   0  0  0  0  0  0
  -27.8687  -30.4416   23.9190 H   0  0  0  0  0  0
  -27.2685  -33.3676   26.2001 H   0  0  0  0  0  0
  -28.3907  -32.6838   25.0336 H   0  0  0  0  0  0
  -28.0669  -31.8498   26.5445 H   0  0  0  0  0  0
  -28.2574  -38.0085   24.7579 H   0  0  0  0  0  0
  -28.1061  -36.2622   24.6240 H   0  0  0  0  0  0
  -27.2302  -37.1327   25.8892 H   0  0  0  0  0  0
  -20.9303  -29.8805   21.6946 H   0  0  0  0  0  0
  -26.0148  -38.2863   24.1527 H   0  0  0  0  0  0
  -28.4558  -17.1304   18.6360 H   0  0  0  0  0  0
  -28.3039  -19.2975   17.6145 H   0  0  0  0  0  0
  -29.8297  -21.1388   21.2251 H   0  0  0  0  0  0
  -26.9568  -22.6341   16.9381 H   0  0  0  0  0  0
  -28.0718  -22.8761   15.6049 H   0  0  0  0  0  0
  -27.6127  -24.9986   16.8039 H   0  0  0  0  0  0
  -29.3058  -24.5724   16.8408 H   0  0  0  0  0  0
  -28.7030  -22.9730   20.4204 H   0  0  0  0  0  0
  -30.1161  -23.3154   19.4682 H   0  0  0  0  0  0
  -27.2669  -24.2710   19.0668 H   0  0  0  0  0  0
  -30.7984  -16.6389   23.1514 H   0  0  0  0  0  0
  -31.8086  -16.9848   21.7415 H   0  0  0  0  0  0
  -32.0178  -15.4874   22.6508 H   0  0  0  0  0  0
  -28.3477  -15.8622   20.6337 H   0  0  0  0  0  0
  -28.6213  -16.5561   22.1754 H   0  0  0  0  0  0
  -28.7345  -26.4517   18.2253 H   0  0  0  0  0  0
  -29.9263  -25.7313   19.2266 H   0  0  0  0  0  0
  1 25  1  0  0  0
  1 30  2  0  0  0
  1 86  1  0  0  0
  2  3  1  0  0  0
  2 25  1  0  0  0
  2 89  1  0  0  0
  2 90  1  0  0  0
  3  4  1  0  0  0
  3 91  1  0  0  0
  3 92  1  0  0  0
  4  5  1  0  0  0
  4 93  1  0  0  0
  4 94  1  0  0  0
  5  6  1  0  0  0
  5 26  1  0  0  0
  5 95  1  0  0  0
  6 25  1  0  0  0
  6 96  1  0  0  0
  6 97  1  0  0  0
  7  8  2  0  0  0
  7 26  1  0  0  0
  7 29  1  0  0  0
  8  9  1  0  0  0
  8 22  1  0  0  0
  9 10  1  0  0  0
  9 27  2  0  0  0
 10 11  2  0  0  0
 10 15  1  0  0  0
 11 12  1  0  0  0
 11 98  1  0  0  0
 12 13  2  0  0  0
 12 99  1  0  0  0
 13 14  1  0  0  0
 13 31  1  0  0  0
 14 15  2  0  0  0
 14100  1  0  0  0
 15101  1  0  0  0
 16 17  2  0  0  0
 16 21  1  0  0  0
 16 31  1  0  0  0
 17 18  1  0  0  0
 17102  1  0  0  0
 18 19  2  0  0  0
 18103  1  0  0  0
 19 20  1  0  0  0
 19 24  1  0  0  0
 20 21  2  0  0  0
 20104  1  0  0  0
 21 23  1  0  0  0
 22 28  1  0  0  0
 22 32  2  0  0  0
 26 27  1  0  0  0
 28105  1  0  0  0
 28106  1  0  0  0
 29107  1  0  0  0
 29108  1  0  0  0
 33 34  1  0  0  0
 33 66  1  0  0  0
 33 70  2  0  0  0
 34 36  1  0  0  0
 34 59  1  0  0  0
 34109  1  0  0  0
 35 44  2  0  0  0
 35 45  1  0  0  0
 35 68  1  0  0  0
 36 56  1  0  0  0
 36110  1  0  0  0
 37 39  1  0  0  0
 37 47  1  0  0  0
 37 66  1  0  0  0
 37111  1  0  0  0
 38 43  2  0  0  0
 38 46  1  0  0  0
 38 47  1  0  0  0
 39 64  1  0  0  0
 39 67  2  0  0  0
 40 52  1  0  0  0
 40 53  2  0  0  0
 40 58  1  0  0  0
 41112  1  0  0  0
 41113  1  0  0  0
 41114  1  0  0  0
 41 48  1  0  0  0
 42 43  1  0  0  0
 42 66  1  0  0  0
 42115  1  0  0  0
 42116  1  0  0  0
 43 44  1  0  0  0
 44117  1  0  0  0
 45 46  2  0  0  0
 45118  1  0  0  0
 46119  1  0  0  0
 47120  1  0  0  0
 47121  1  0  0  0
 48 56  1  0  0  0
 48 65  1  0  0  0
 48122  1  0  0  0
 49 50  1  0  0  0
 49 53  1  0  0  0
 49 64  1  0  0  0
 49123  1  0  0  0
 50 51  1  0  0  0
 50124  1  0  0  0
 50125  1  0  0  0
 51 52  1  0  0  0
 51126  1  0  0  0
 51127  1  0  0  0
 52128  1  0  0  0
 52129  1  0  0  0
 53 54  1  0  0  0
 54 55  2  0  0  0
 54130  1  0  0  0
 55 57  1  0  0  0
 55131  1  0  0  0
 56 69  2  0  0  0
 57 58  2  0  0  0
 57132  1  0  0  0
 58133  1  0  0  0
 59 60  1  0  0  0
 59 61  1  0  0  0
 59 62  1  0  0  0
 60134  1  0  0  0
 60135  1  0  0  0
 60136  1  0  0  0
 61137  1  0  0  0
 61138  1  0  0  0
 61139  1  0  0  0
 62140  1  0  0  0
 62141  1  0  0  0
 62142  1  0  0  0
 63 65  1  0  0  0
 63143  1  0  0  0
 63144  1  0  0  0
 63145  1  0  0  0
 64146  1  0  0  0
 65147  1  0  0  0
 68 84  1  0  0  0
 71 72  2  0  0  0
 71 74  1  0  0  0
 71148  1  0  0  0
 72 75  1  0  0  0
 72149  1  0  0  0
 73 75  2  0  0  0
 73 76  1  0  0  0
 73150  1  0  0  0
 74 76  2  0  0  0
 74 83  1  0  0  0
 75 85  1  0  0  0
 76 88  1  0  0  0
 77 78  1  0  0  0
 77 85  1  0  0  0
 77 87  2  0  0  0
 78 79  1  0  0  0
 78151  1  0  0  0
 78152  1  0  0  0
 79 81  1  0  0  0
 79153  1  0  0  0
 79154  1  0  0  0
 80 81  1  0  0  0
 80 85  1  0  0  0
 80155  1  0  0  0
 80156  1  0  0  0
 81 84  1  0  0  0
 81157  1  0  0  0
 82 86  1  0  0  0
 82158  1  0  0  0
 82159  1  0  0  0
 82160  1  0  0  0
 83 86  1  0  0  0
 83161  1  0  0  0
 83162  1  0  0  0
 84163  1  0  0  0
 84164  1  0  0  0
M  ISO  4   1 100  68 101  84 101  86 100
M  END
> <chiral flag>
0

> <version>
0

> <s_m_source_file>
/data/baiqing/PycharmProjects/Reinvent-master-3.2/result/LINK_invent/BTK/process_docking_weight1_custom_product_contain_oxygen_bond_distance_aromatic_linkinvent_7_9_3/rearranged_h_0097.sdf

> <i_m_source_file_index>
85

> <r_mmod_Potential_Energy-OPLS-2005>
291.633087158203

> <r_mmod_Stretch_Energy-OPLS-2005>
69.8267517089844

> <r_mmod_Bend_Energy-OPLS-2005>
156.759368896484

> <r_mmod_Torsional_Energy-OPLS-2005>
348.978546142578

> <r_mmod_Improper_Torsional_Energy-OPLS-2005>
5.60425662994385

> <r_mmod_Van_der_Waal_Energy-OPLS-2005>
166.03742980957

> <r_mmod_Electrostatic_Energy-OPLS-2005>
-273.312316894531

> <r_mmod_Solvation_Energy-OPLS-2005>
-212.038528442383

> <b_mmod_Minimization_Converged-OPLS-2005>
0

> <r_mmod_RMS_Derivative-OPLS-2005>
2.20677852630615

$$$$
86
                    3D
 Structure written by MMmdl.
160169  0  0  1  0            999 V2000
  -30.7498  -14.4710   20.6170 C   0  0  0  0  0  0
  -30.4167  -12.3279   19.4300 C   0  0  0  0  0  0
  -29.4953  -12.5234   18.2109 C   0  0  0  0  0  0
  -28.0198  -12.3664   18.6244 C   0  0  0  0  0  0
  -27.6604  -13.2187   19.8703 C   0  0  2  0  0  0
  -28.7004  -13.0315   20.9970 C   0  0  0  0  0  0
  -25.2590  -13.8199   20.5739 C   0  0  0  0  0  0
  -24.1835  -13.0448   20.9160 C   0  0  0  0  0  0
  -24.6398  -11.6926   20.8692 C   0  0  0  0  0  0
  -23.9065  -10.4314   21.0380 C   0  0  0  0  0  0
  -24.3624   -9.4243   21.9168 C   0  0  0  0  0  0
  -23.6322   -8.2267   22.0729 C   0  0  0  0  0  0
  -22.4305   -8.0284   21.3529 C   0  0  0  0  0  0
  -21.9920   -9.0250   20.4635 C   0  0  0  0  0  0
  -22.7228  -10.2146   20.3044 C   0  0  0  0  0  0
  -21.6859   -6.0754   22.5294 C   0  0  0  0  0  0
  -21.4019   -6.5659   23.8229 C   0  0  0  0  0  0
  -21.3651   -5.6806   24.9189 C   0  0  0  0  0  0
  -21.6035   -4.3067   24.7235 C   0  0  0  0  0  0
  -21.8818   -3.8162   23.4364 C   0  0  0  0  0  0
  -21.9199   -4.6981   22.3422 C   0  0  0  0  0  0
  -22.7852  -13.5235   21.1860 C   0  0  0  0  0  0
  -22.1666   -4.2162   21.1002 F   0  0  0  0  0  0
  -21.5611   -3.4555   25.7751 F   0  0  0  0  0  0
  -30.0337  -13.3237   20.4451 N   0  0  0  0  0  0
  -26.3023  -12.9387   20.3348 N   0  0  0  0  0  0
  -25.9332  -11.6523   20.5708 N   0  0  0  0  0  0
  -22.0502  -12.8211   22.0410 N   0  0  0  0  0  0
  -25.4354  -15.1931   20.4304 N   0  0  0  0  0  0
  -31.8497  -14.6439   20.0880 O   0  0  0  0  0  0
  -21.6657   -6.8885   21.4243 O   0  0  0  0  0  0
  -22.3516  -14.5547   20.6738 O   0  0  0  0  0  0
  -24.6154  -31.8699   23.2126 C   0  0  0  0  0  0
  -25.9034  -32.4839   23.8428 C   0  0  1  0  0  0
  -27.2217  -27.4076   20.1023 C   0  0  0  0  0  0
  -25.5885  -33.8641   24.2354 N   0  0  0  0  0  0
  -23.4060  -30.4949   21.5541 C   0  0  2  0  0  0
  -24.8567  -28.9670   20.1132 C   0  0  0  0  0  0
  -22.7411  -29.4675   22.4981 C   0  0  0  0  0  0
  -18.0291  -28.1394   22.8453 C   0  0  0  0  0  0
  -24.1490  -36.7325   23.2632 C   0  0  0  0  0  0
  -25.9401  -30.8210   21.3835 C   0  0  0  0  0  0
  -26.0158  -29.4516   20.7365 C   0  0  0  0  0  0
  -27.1987  -28.6685   20.7515 C   0  0  0  0  0  0
  -26.0720  -26.9941   19.4032 C   0  0  0  0  0  0
  -24.8801  -27.7339   19.4462 C   0  0  0  0  0  0
  -23.6181  -29.8327   20.1678 C   0  0  0  0  0  0
  -25.4113  -36.3132   24.0328 C   0  0  1  0  0  0
  -20.5869  -28.3691   23.1276 C   0  0  2  0  0  0
  -20.6798  -26.9426   22.5360 C   0  0  0  0  0  0
  -19.5793  -26.6427   21.5121 C   0  0  0  0  0  0
  -18.1974  -26.7938   22.1569 C   0  0  0  0  0  0
  -19.1535  -28.8858   23.2858 C   0  0  0  0  0  0
  -18.9463  -30.1448   23.8913 C   0  0  0  0  0  0
  -17.6464  -30.6565   24.0580 C   0  0  0  0  0  0
  -25.9031  -34.9485   23.5146 C   0  0  0  0  0  0
  -16.5350  -29.9095   23.6325 C   0  0  0  0  0  0
  -16.7277  -28.6528   23.0308 C   0  0  0  0  0  0
  -26.4455  -31.6616   25.0753 C   0  0  0  0  0  0
  -25.3699  -31.3733   26.1489 C   0  0  0  0  0  0
  -27.0280  -30.3044   24.6143 C   0  0  0  0  0  0
  -27.6044  -32.4333   25.7501 C   0  0  0  0  0  0
  -27.5590  -37.1821   24.8458 C   0  0  0  0  0  0
  -21.4143  -29.3071   22.3699 N   0  0  0  0  0  0
  -26.4314  -37.3812   23.9386 N   0  0  0  0  0  0
  -24.6717  -31.0753   22.1075 N   0  0  0  0  0  0
  -23.4150  -28.8197   23.3032 O   0  0  0  0  0  0
  -28.3242  -26.5716   20.1014 O   0  0  0  0  0  0
  -26.5603  -34.8920   22.4710 O   0  0  0  0  0  0
  -23.5331  -32.1463   23.7479 O   0  0  0  0  0  0
  -29.6767  -18.3611   20.3407 C   0  0  0  0  0  0
  -30.1731  -18.9737   22.6344 C   0  0  0  0  0  0
  -29.0886  -19.6322   20.1363 C   0  0  0  0  0  0
  -29.5731  -20.2390   22.4376 C   0  0  0  0  0  0
  -30.2095  -18.0098   21.6015 C   0  0  0  0  0  0
  -28.9944  -20.5796   21.1909 C   0  0  0  0  0  0
  -26.8460  -21.5981   20.9440 C   0  0  0  0  0  0
  -28.7638  -23.0351   21.1282 C   0  0  0  0  0  0
  -25.8790  -22.7823   20.8472 C   0  0  0  0  0  0
  -26.5612  -24.1118   20.5445 C   0  0  0  0  0  0
  -27.8532  -24.2884   21.3403 C   0  0  2  0  0  0
  -30.8799  -16.6486   21.8556 C   0  0  0  0  0  0
  -28.4868  -25.7425   21.2824 C   0  0  0  0  0  0
  -28.1958  -21.7824   21.0587 N   0  0  0  0  0  0
  -30.1837  -15.4430   21.3621 N   0  0  0  0  0  0
  -26.3198  -20.4775   20.9234 O   0  0  0  0  0  0
  -29.9874  -23.1972   21.0446 O   0  0  0  0  0  0
  -31.4625  -12.4107   19.1291 H   0  0  0  0  0  0
  -30.3051  -11.3227   19.8399 H   0  0  0  0  0  0
  -29.7431  -11.8058   17.4277 H   0  0  0  0  0  0
  -29.6582  -13.5118   17.7790 H   0  0  0  0  0  0
  -27.8477  -11.3104   18.8361 H   0  0  0  0  0  0
  -27.3613  -12.6222   17.7941 H   0  0  0  0  0  0
  -27.6952  -14.2634   19.5565 H   0  0  0  0  0  0
  -28.6796  -12.0070   21.3724 H   0  0  0  0  0  0
  -28.4523  -13.6568   21.8540 H   0  0  0  0  0  0
  -25.2759   -9.5749   22.4745 H   0  0  0  0  0  0
  -24.0040   -7.4670   22.7465 H   0  0  0  0  0  0
  -21.0833   -8.8779   19.8963 H   0  0  0  0  0  0
  -22.3671  -10.9687   19.6175 H   0  0  0  0  0  0
  -21.2013   -7.6165   23.9741 H   0  0  0  0  0  0
  -21.1453   -6.0530   25.9094 H   0  0  0  0  0  0
  -22.0600   -2.7618   23.2872 H   0  0  0  0  0  0
  -22.4120  -11.9866   22.4773 H   0  0  0  0  0  0
  -21.1130  -13.1237   22.2633 H   0  0  0  0  0  0
  -24.6795  -15.8556   20.5728 H   0  0  0  0  0  0
  -26.3115  -15.6395   20.1846 H   0  0  0  0  0  0
  -26.7088  -32.5562   23.1186 H   0  0  0  0  0  0
  -25.0014  -33.9830   25.0482 H   0  0  0  0  0  0
  -22.6975  -31.3147   21.4164 H   0  0  0  0  0  0
  -23.3759  -35.9658   23.3325 H   0  0  0  0  0  0
  -24.3575  -36.8914   22.2039 H   0  0  0  0  0  0
  -23.7240  -37.6534   23.6627 H   0  0  0  0  0  0
  -26.0597  -31.5843   20.6141 H   0  0  0  0  0  0
  -26.8261  -30.8771   22.0041 H   0  0  0  0  0  0
  -28.0811  -29.0214   21.2655 H   0  0  0  0  0  0
  -26.0871  -26.0848   18.8237 H   0  0  0  0  0  0
  -24.0010  -27.3691   18.9338 H   0  0  0  0  0  0
  -23.7232  -30.6079   19.4090 H   0  0  0  0  0  0
  -22.7444  -29.2500   19.8719 H   0  0  0  0  0  0
  -25.1302  -36.2022   25.0828 H   0  0  0  0  0  0
  -20.9904  -28.3272   24.1420 H   0  0  0  0  0  0
  -20.5647  -26.2280   23.3501 H   0  0  0  0  0  0
  -21.6708  -26.7427   22.1233 H   0  0  0  0  0  0
  -19.6763  -27.3289   20.6696 H   0  0  0  0  0  0
  -19.6939  -25.6357   21.1081 H   0  0  0  0  0  0
  -17.4246  -26.6676   21.3980 H   0  0  0  0  0  0
  -18.0420  -26.0072   22.8959 H   0  0  0  0  0  0
  -19.7923  -30.7244   24.2365 H   0  0  0  0  0  0
  -17.4997  -31.6200   24.5254 H   0  0  0  0  0  0
  -15.5360  -30.3016   23.7652 H   0  0  0  0  0  0
  -15.8679  -28.0881   22.6981 H   0  0  0  0  0  0
  -24.5854  -30.7114   25.7802 H   0  0  0  0  0  0
  -24.8902  -32.2893   26.4933 H   0  0  0  0  0  0
  -25.8007  -30.8873   27.0253 H   0  0  0  0  0  0
  -26.2831  -29.6821   24.1161 H   0  0  0  0  0  0
  -27.4006  -29.7262   25.4614 H   0  0  0  0  0  0
  -27.8697  -30.4361   23.9342 H   0  0  0  0  0  0
  -27.2672  -33.3618   26.2122 H   0  0  0  0  0  0
  -28.3812  -32.6920   25.0294 H   0  0  0  0  0  0
  -28.0758  -31.8437   26.5372 H   0  0  0  0  0  0
  -28.2637  -38.0096   24.7512 H   0  0  0  0  0  0
  -28.1071  -36.2630   24.6309 H   0  0  0  0  0  0
  -27.2295  -37.1506   25.8861 H   0  0  0  0  0  0
  -20.9312  -29.8768   21.6891 H   0  0  0  0  0  0
  -26.0211  -38.2904   24.1380 H   0  0  0  0  0  0
  -29.7095  -17.6498   19.5252 H   0  0  0  0  0  0
  -30.5953  -18.7405   23.6026 H   0  0  0  0  0  0
  -28.6563  -19.8545   19.1715 H   0  0  0  0  0  0
  -29.5252  -20.9298   23.2690 H   0  0  0  0  0  0
  -25.3399  -22.8494   21.7937 H   0  0  0  0  0  0
  -25.1349  -22.5721   20.0780 H   0  0  0  0  0  0
  -25.8512  -24.8941   20.8047 H   0  0  0  0  0  0
  -26.7808  -24.1732   19.4787 H   0  0  0  0  0  0
  -27.5764  -24.1793   22.3903 H   0  0  0  0  0  0
  -31.0100  -16.5154   22.9312 H   0  0  0  0  0  0
  -31.8937  -16.7135   21.4553 H   0  0  0  0  0  0
  -29.5582  -25.6799   21.4747 H   0  0  0  0  0  0
  -28.1058  -26.3030   22.1379 H   0  0  0  0  0  0
  -29.2635  -15.2622   21.7331 H   0  0  0  0  0  0
  1 25  1  0  0  0
  1 30  2  0  0  0
  1 85  1  0  0  0
  2  3  1  0  0  0
  2 25  1  0  0  0
  2 88  1  0  0  0
  2 89  1  0  0  0
  3  4  1  0  0  0
  3 90  1  0  0  0
  3 91  1  0  0  0
  4  5  1  0  0  0
  4 92  1  0  0  0
  4 93  1  0  0  0
  5  6  1  0  0  0
  5 26  1  0  0  0
  5 94  1  0  0  0
  6 25  1  0  0  0
  6 95  1  0  0  0
  6 96  1  0  0  0
  7  8  2  0  0  0
  7 26  1  0  0  0
  7 29  1  0  0  0
  8  9  1  0  0  0
  8 22  1  0  0  0
  9 10  1  0  0  0
  9 27  2  0  0  0
 10 11  2  0  0  0
 10 15  1  0  0  0
 11 12  1  0  0  0
 11 97  1  0  0  0
 12 13  2  0  0  0
 12 98  1  0  0  0
 13 14  1  0  0  0
 13 31  1  0  0  0
 14 15  2  0  0  0
 14 99  1  0  0  0
 15100  1  0  0  0
 16 17  2  0  0  0
 16 21  1  0  0  0
 16 31  1  0  0  0
 17 18  1  0  0  0
 17101  1  0  0  0
 18 19  2  0  0  0
 18102  1  0  0  0
 19 20  1  0  0  0
 19 24  1  0  0  0
 20 21  2  0  0  0
 20103  1  0  0  0
 21 23  1  0  0  0
 22 28  1  0  0  0
 22 32  2  0  0  0
 26 27  1  0  0  0
 28104  1  0  0  0
 28105  1  0  0  0
 29106  1  0  0  0
 29107  1  0  0  0
 33 34  1  0  0  0
 33 66  1  0  0  0
 33 70  2  0  0  0
 34 36  1  0  0  0
 34 59  1  0  0  0
 34108  1  0  0  0
 35 44  2  0  0  0
 35 45  1  0  0  0
 35 68  1  0  0  0
 36 56  1  0  0  0
 36109  1  0  0  0
 37 39  1  0  0  0
 37 47  1  0  0  0
 37 66  1  0  0  0
 37110  1  0  0  0
 38 43  2  0  0  0
 38 46  1  0  0  0
 38 47  1  0  0  0
 39 64  1  0  0  0
 39 67  2  0  0  0
 40 52  1  0  0  0
 40 53  2  0  0  0
 40 58  1  0  0  0
 41111  1  0  0  0
 41112  1  0  0  0
 41113  1  0  0  0
 41 48  1  0  0  0
 42 43  1  0  0  0
 42 66  1  0  0  0
 42114  1  0  0  0
 42115  1  0  0  0
 43 44  1  0  0  0
 44116  1  0  0  0
 45 46  2  0  0  0
 45117  1  0  0  0
 46118  1  0  0  0
 47119  1  0  0  0
 47120  1  0  0  0
 48 56  1  0  0  0
 48 65  1  0  0  0
 48121  1  0  0  0
 49 50  1  0  0  0
 49 53  1  0  0  0
 49 64  1  0  0  0
 49122  1  0  0  0
 50 51  1  0  0  0
 50123  1  0  0  0
 50124  1  0  0  0
 51 52  1  0  0  0
 51125  1  0  0  0
 51126  1  0  0  0
 52127  1  0  0  0
 52128  1  0  0  0
 53 54  1  0  0  0
 54 55  2  0  0  0
 54129  1  0  0  0
 55 57  1  0  0  0
 55130  1  0  0  0
 56 69  2  0  0  0
 57 58  2  0  0  0
 57131  1  0  0  0
 58132  1  0  0  0
 59 60  1  0  0  0
 59 61  1  0  0  0
 59 62  1  0  0  0
 60133  1  0  0  0
 60134  1  0  0  0
 60135  1  0  0  0
 61136  1  0  0  0
 61137  1  0  0  0
 61138  1  0  0  0
 62139  1  0  0  0
 62140  1  0  0  0
 62141  1  0  0  0
 63 65  1  0  0  0
 63142  1  0  0  0
 63143  1  0  0  0
 63144  1  0  0  0
 64145  1  0  0  0
 65146  1  0  0  0
 68 83  1  0  0  0
 71 73  2  0  0  0
 71 75  1  0  0  0
 71147  1  0  0  0
 72 74  1  0  0  0
 72 75  2  0  0  0
 72148  1  0  0  0
 73 76  1  0  0  0
 73149  1  0  0  0
 74 76  2  0  0  0
 74150  1  0  0  0
 75 82  1  0  0  0
 76 84  1  0  0  0
 77 79  1  0  0  0
 77 84  1  0  0  0
 77 86  2  0  0  0
 78 81  1  0  0  0
 78 84  1  0  0  0
 78 87  2  0  0  0
 79 80  1  0  0  0
 79151  1  0  0  0
 79152  1  0  0  0
 80 81  1  0  0  0
 80153  1  0  0  0
 80154  1  0  0  0
 81 83  1  0  0  0
 81155  1  0  0  0
 82 85  1  0  0  0
 82156  1  0  0  0
 82157  1  0  0  0
 83158  1  0  0  0
 83159  1  0  0  0
 85160  1  0  0  0
M  ISO  4   1 100  68 101  83 101  85 100
M  END
> <chiral flag>
0

> <version>
0

> <s_m_source_file>
/data/baiqing/PycharmProjects/Reinvent-master-3.2/result/LINK_invent/BTK/process_docking_weight1_custom_product_contain_oxygen_bond_distance_aromatic_linkinvent_7_9_3/rearranged_h_0097.sdf

> <i_m_source_file_index>
86

> <r_mmod_Potential_Energy-OPLS-2005>
18.5667324066162

> <r_mmod_Stretch_Energy-OPLS-2005>
53.5964431762695

> <r_mmod_Bend_Energy-OPLS-2005>
123.483154296875

> <r_mmod_Torsional_Energy-OPLS-2005>
274.327819824219

> <r_mmod_Improper_Torsional_Energy-OPLS-2005>
2.66200804710388

> <r_mmod_Van_der_Waal_Energy-OPLS-2005>
173.988174438477

> <r_mmod_Electrostatic_Energy-OPLS-2005>
-390.180389404297

> <r_mmod_Solvation_Energy-OPLS-2005>
-238.999755859375

> <b_mmod_Minimization_Converged-OPLS-2005>
0

> <r_mmod_RMS_Derivative-OPLS-2005>
3.35161900520325

$$$$
87
                    3D
 Structure written by MMmdl.
159168  0  0  1  0            999 V2000
  -30.6659  -14.6089   20.5808 C   0  0  0  0  0  0
  -30.4283  -12.3923   19.4685 C   0  0  0  0  0  0
  -29.5052  -12.5193   18.2349 C   0  0  0  0  0  0
  -28.0325  -12.3369   18.6448 C   0  0  0  0  0  0
  -27.6549  -13.2097   19.8687 C   0  0  2  0  0  0
  -28.6855  -13.0446   21.0042 C   0  0  0  0  0  0
  -25.2576  -13.8160   20.5673 C   0  0  0  0  0  0
  -24.1823  -13.0423   20.9195 C   0  0  0  0  0  0
  -24.6381  -11.6896   20.8728 C   0  0  0  0  0  0
  -23.9046  -10.4280   21.0414 C   0  0  0  0  0  0
  -24.3601   -9.4212   21.9209 C   0  0  0  0  0  0
  -23.6283   -8.2243   22.0764 C   0  0  0  0  0  0
  -22.4271   -8.0287   21.3542 C   0  0  0  0  0  0
  -21.9901   -9.0260   20.4646 C   0  0  0  0  0  0
  -22.7220  -10.2145   20.3064 C   0  0  0  0  0  0
  -21.6860   -6.0730   22.5282 C   0  0  0  0  0  0
  -21.4009   -6.5628   23.8218 C   0  0  0  0  0  0
  -21.3651   -5.6784   24.9182 C   0  0  0  0  0  0
  -21.6047   -4.3045   24.7227 C   0  0  0  0  0  0
  -21.8818   -3.8142   23.4348 C   0  0  0  0  0  0
  -21.9187   -4.6954   22.3402 C   0  0  0  0  0  0
  -22.7868  -13.5252   21.1872 C   0  0  0  0  0  0
  -22.1668   -4.2134   21.0983 F   0  0  0  0  0  0
  -21.5628   -3.4536   25.7745 F   0  0  0  0  0  0
  -30.0138  -13.4008   20.4718 N   0  0  0  0  0  0
  -26.2980  -12.9316   20.3315 N   0  0  0  0  0  0
  -25.9304  -11.6473   20.5743 N   0  0  0  0  0  0
  -22.0506  -12.8222   22.0414 N   0  0  0  0  0  0
  -25.4373  -15.1862   20.4067 N   0  0  0  0  0  0
  -31.7467  -14.8019   20.0120 O   0  0  0  0  0  0
  -21.6644   -6.8882   21.4246 O   0  0  0  0  0  0
  -22.3548  -14.5560   20.6761 O   0  0  0  0  0  0
  -24.6211  -31.8612   23.2026 C   0  0  0  0  0  0
  -25.9051  -32.4802   23.8373 C   0  0  1  0  0  0
  -27.2289  -27.3405   20.1225 C   0  0  0  0  0  0
  -25.5828  -33.8596   24.2295 N   0  0  0  0  0  0
  -23.4167  -30.4815   21.5464 C   0  0  2  0  0  0
  -24.8681  -28.9359   20.1129 C   0  0  0  0  0  0
  -22.7460  -29.4598   22.4948 C   0  0  0  0  0  0
  -18.0257  -28.1391   22.8490 C   0  0  0  0  0  0
  -24.1464  -36.7325   23.2648 C   0  0  0  0  0  0
  -25.9513  -30.8011   21.3672 C   0  0  0  0  0  0
  -26.0334  -29.4271   20.7157 C   0  0  0  0  0  0
  -27.2217  -28.6415   20.7090 C   0  0  0  0  0  0
  -26.0445  -26.8899   19.5036 C   0  0  0  0  0  0
  -24.8729  -27.6725   19.4974 C   0  0  0  0  0  0
  -23.6340  -29.8138   20.1631 C   0  0  0  0  0  0
  -25.4086  -36.3112   24.0325 C   0  0  1  0  0  0
  -20.5861  -28.3683   23.1301 C   0  0  2  0  0  0
  -20.6757  -26.9417   22.5401 C   0  0  0  0  0  0
  -19.5734  -26.6417   21.5183 C   0  0  0  0  0  0
  -18.1923  -26.7937   22.1623 C   0  0  0  0  0  0
  -19.1512  -28.8846   23.2894 C   0  0  0  0  0  0
  -18.9455  -30.1443   23.8924 C   0  0  0  0  0  0
  -17.6466  -30.6603   24.0570 C   0  0  0  0  0  0
  -25.9017  -34.9475   23.5135 C   0  0  0  0  0  0
  -16.5344  -29.9124   23.6323 C   0  0  0  0  0  0
  -16.7245  -28.6529   23.0357 C   0  0  0  0  0  0
  -26.4449  -31.6588   25.0726 C   0  0  0  0  0  0
  -25.3681  -31.3640   26.1439 C   0  0  0  0  0  0
  -27.0337  -30.3048   24.6105 C   0  0  0  0  0  0
  -27.6037  -32.4324   25.7477 C   0  0  0  0  0  0
  -27.5569  -37.1816   24.8455 C   0  0  0  0  0  0
  -21.4167  -29.3047   22.3704 N   0  0  0  0  0  0
  -26.4278  -37.3783   23.9407 N   0  0  0  0  0  0
  -24.6821  -31.0641   22.0972 N   0  0  0  0  0  0
  -23.4208  -28.8111   23.2991 O   0  0  0  0  0  0
  -28.3582  -26.5201   20.1218 O   0  0  0  0  0  0
  -26.5664  -34.8948   22.4738 O   0  0  0  0  0  0
  -23.5375  -32.1351   23.7371 O   0  0  0  0  0  0
  -29.4912  -17.5206   19.6239 C   0  0  0  0  0  0
  -30.0935  -18.3123   21.8032 C   0  0  0  0  0  0
  -29.2998  -18.8722   19.2069 C   0  0  0  0  0  0
  -29.9107  -19.6642   21.3884 C   0  0  0  0  0  0
  -29.9113  -17.1897   20.9377 C   0  0  0  0  0  0
  -29.5370  -19.9920   20.0608 C   0  0  0  0  0  0
  -30.1685  -21.7065   18.4349 C   0  0  0  0  0  0
  -30.0535  -15.7510   21.4690 C   0  0  0  0  0  0
  -30.1624  -23.1417   17.8786 C   0  0  0  0  0  0
  -29.9137  -24.2398   18.9173 C   0  0  0  0  0  0
  -28.8807  -22.5002   20.4121 C   0  0  0  0  0  0
  -28.6551  -23.9254   19.7230 C   0  0  1  0  0  0
  -28.2374  -25.1481   20.6501 C   0  0  0  0  0  0
  -29.7477  -15.5332   22.6815 N   0  0  0  0  0  0
  -29.4799  -21.3882   19.5748 N   0  0  0  0  0  0
  -30.8123  -20.8794   17.7784 O   0  0  0  0  0  0
  -31.4722  -12.4988   19.1723 H   0  0  0  0  0  0
  -30.3512  -11.3906   19.8953 H   0  0  0  0  0  0
  -29.7762  -11.7790   17.4814 H   0  0  0  0  0  0
  -29.6406  -13.4964   17.7697 H   0  0  0  0  0  0
  -27.8910  -11.2844   18.8931 H   0  0  0  0  0  0
  -27.3675  -12.5422   17.8060 H   0  0  0  0  0  0
  -27.6860  -14.2481   19.5395 H   0  0  0  0  0  0
  -28.6939  -12.0145   21.3630 H   0  0  0  0  0  0
  -28.3758  -13.6330   21.8644 H   0  0  0  0  0  0
  -25.2746   -9.5693   22.4792 H   0  0  0  0  0  0
  -23.9988   -7.4630   22.7482 H   0  0  0  0  0  0
  -21.0839   -8.8772   19.8954 H   0  0  0  0  0  0
  -22.3678  -10.9689   19.6166 H   0  0  0  0  0  0
  -21.2007   -7.6142   23.9707 H   0  0  0  0  0  0
  -21.1481   -6.0527   25.9084 H   0  0  0  0  0  0
  -22.0604   -2.7601   23.2859 H   0  0  0  0  0  0
  -22.4109  -11.9819   22.4684 H   0  0  0  0  0  0
  -21.1153  -13.1283   22.2702 H   0  0  0  0  0  0
  -24.6850  -15.8581   20.5144 H   0  0  0  0  0  0
  -26.3053  -15.6114   20.1036 H   0  0  0  0  0  0
  -26.7105  -32.5495   23.1131 H   0  0  0  0  0  0
  -24.9745  -33.9669   25.0278 H   0  0  0  0  0  0
  -22.7070  -31.3011   21.4039 H   0  0  0  0  0  0
  -23.3732  -35.9664   23.3274 H   0  0  0  0  0  0
  -24.3538  -36.8991   22.2075 H   0  0  0  0  0  0
  -23.7224  -37.6502   23.6704 H   0  0  0  0  0  0
  -26.0569  -31.5623   20.5940 H   0  0  0  0  0  0
  -26.8412  -30.8717   21.9801 H   0  0  0  0  0  0
  -28.1217  -29.0181   21.1765 H   0  0  0  0  0  0
  -26.0230  -25.9214   19.0264 H   0  0  0  0  0  0
  -23.9754  -27.2943   19.0296 H   0  0  0  0  0  0
  -23.7583  -30.5908   19.4063 H   0  0  0  0  0  0
  -22.7545  -29.2401   19.8607 H   0  0  0  0  0  0
  -25.1262  -36.1969   25.0818 H   0  0  0  0  0  0
  -20.9936  -28.3289   24.1425 H   0  0  0  0  0  0
  -20.5648  -26.2287   23.3586 H   0  0  0  0  0  0
  -21.6641  -26.7465   22.1206 H   0  0  0  0  0  0
  -19.6902  -25.6330   21.1201 H   0  0  0  0  0  0
  -19.6695  -27.3260   20.6734 H   0  0  0  0  0  0
  -17.4177  -26.6639   21.4050 H   0  0  0  0  0  0
  -18.0365  -26.0081   22.9023 H   0  0  0  0  0  0
  -19.7931  -30.7215   24.2389 H   0  0  0  0  0  0
  -17.5034  -31.6296   24.5186 H   0  0  0  0  0  0
  -15.5352  -30.3073   23.7624 H   0  0  0  0  0  0
  -15.8618  -28.0861   22.7097 H   0  0  0  0  0  0
  -24.5885  -30.6966   25.7692 H   0  0  0  0  0  0
  -24.8806  -32.2756   26.4913 H   0  0  0  0  0  0
  -25.8026  -30.8750   27.0170 H   0  0  0  0  0  0
  -26.2899  -29.6754   24.1168 H   0  0  0  0  0  0
  -27.4127  -29.7319   25.4572 H   0  0  0  0  0  0
  -27.8714  -30.4376   23.9261 H   0  0  0  0  0  0
  -27.2680  -33.3642   26.2035 H   0  0  0  0  0  0
  -28.3852  -32.6824   25.0293 H   0  0  0  0  0  0
  -28.0681  -31.8420   26.5376 H   0  0  0  0  0  0
  -28.2583  -38.0120   24.7552 H   0  0  0  0  0  0
  -28.1092  -36.2662   24.6255 H   0  0  0  0  0  0
  -27.2279  -37.1419   25.8853 H   0  0  0  0  0  0
  -20.9345  -29.8796   21.6930 H   0  0  0  0  0  0
  -26.0171  -38.2849   24.1468 H   0  0  0  0  0  0
  -29.2945  -16.7287   18.9147 H   0  0  0  0  0  0
  -30.3971  -18.1414   22.8260 H   0  0  0  0  0  0
  -28.9862  -19.0451   18.1873 H   0  0  0  0  0  0
  -30.1042  -20.4519   22.1021 H   0  0  0  0  0  0
  -29.4042  -23.1930   17.0980 H   0  0  0  0  0  0
  -31.1193  -23.3307   17.3903 H   0  0  0  0  0  0
  -29.8086  -25.1980   18.4051 H   0  0  0  0  0  0
  -30.7785  -24.3370   19.5742 H   0  0  0  0  0  0
  -27.9323  -22.1464   20.8188 H   0  0  0  0  0  0
  -29.5367  -22.6437   21.2735 H   0  0  0  0  0  0
  -27.8375  -23.8054   19.0110 H   0  0  0  0  0  0
  -28.8665  -25.1222   21.5399 H   0  0  0  0  0  0
  -27.2280  -24.9741   21.0274 H   0  0  0  0  0  0
  -29.4081  -16.3828   23.1168 H   0  0  0  0  0  0
  1 25  1  0  0  0
  1 30  2  0  0  0
  1 78  1  0  0  0
  2  3  1  0  0  0
  2 25  1  0  0  0
  2 87  1  0  0  0
  2 88  1  0  0  0
  3  4  1  0  0  0
  3 89  1  0  0  0
  3 90  1  0  0  0
  4  5  1  0  0  0
  4 91  1  0  0  0
  4 92  1  0  0  0
  5  6  1  0  0  0
  5 26  1  0  0  0
  5 93  1  0  0  0
  6 25  1  0  0  0
  6 94  1  0  0  0
  6 95  1  0  0  0
  7  8  2  0  0  0
  7 26  1  0  0  0
  7 29  1  0  0  0
  8  9  1  0  0  0
  8 22  1  0  0  0
  9 10  1  0  0  0
  9 27  2  0  0  0
 10 11  2  0  0  0
 10 15  1  0  0  0
 11 12  1  0  0  0
 11 96  1  0  0  0
 12 13  2  0  0  0
 12 97  1  0  0  0
 13 14  1  0  0  0
 13 31  1  0  0  0
 14 15  2  0  0  0
 14 98  1  0  0  0
 15 99  1  0  0  0
 16 17  2  0  0  0
 16 21  1  0  0  0
 16 31  1  0  0  0
 17 18  1  0  0  0
 17100  1  0  0  0
 18 19  2  0  0  0
 18101  1  0  0  0
 19 20  1  0  0  0
 19 24  1  0  0  0
 20 21  2  0  0  0
 20102  1  0  0  0
 21 23  1  0  0  0
 22 28  1  0  0  0
 22 32  2  0  0  0
 26 27  1  0  0  0
 28103  1  0  0  0
 28104  1  0  0  0
 29105  1  0  0  0
 29106  1  0  0  0
 33 34  1  0  0  0
 33 66  1  0  0  0
 33 70  2  0  0  0
 34 36  1  0  0  0
 34 59  1  0  0  0
 34107  1  0  0  0
 35 44  2  0  0  0
 35 45  1  0  0  0
 35 68  1  0  0  0
 36 56  1  0  0  0
 36108  1  0  0  0
 37 39  1  0  0  0
 37 47  1  0  0  0
 37 66  1  0  0  0
 37109  1  0  0  0
 38 43  2  0  0  0
 38 46  1  0  0  0
 38 47  1  0  0  0
 39 64  1  0  0  0
 39 67  2  0  0  0
 40 52  1  0  0  0
 40 53  2  0  0  0
 40 58  1  0  0  0
 41110  1  0  0  0
 41111  1  0  0  0
 41112  1  0  0  0
 41 48  1  0  0  0
 42 43  1  0  0  0
 42 66  1  0  0  0
 42113  1  0  0  0
 42114  1  0  0  0
 43 44  1  0  0  0
 44115  1  0  0  0
 45 46  2  0  0  0
 45116  1  0  0  0
 46117  1  0  0  0
 47118  1  0  0  0
 47119  1  0  0  0
 48 56  1  0  0  0
 48 65  1  0  0  0
 48120  1  0  0  0
 49 50  1  0  0  0
 49 53  1  0  0  0
 49 64  1  0  0  0
 49121  1  0  0  0
 50 51  1  0  0  0
 50122  1  0  0  0
 50123  1  0  0  0
 51 52  1  0  0  0
 51124  1  0  0  0
 51125  1  0  0  0
 52126  1  0  0  0
 52127  1  0  0  0
 53 54  1  0  0  0
 54 55  2  0  0  0
 54128  1  0  0  0
 55 57  1  0  0  0
 55129  1  0  0  0
 56 69  2  0  0  0
 57 58  2  0  0  0
 57130  1  0  0  0
 58131  1  0  0  0
 59 60  1  0  0  0
 59 61  1  0  0  0
 59 62  1  0  0  0
 60132  1  0  0  0
 60133  1  0  0  0
 60134  1  0  0  0
 61135  1  0  0  0
 61136  1  0  0  0
 61137  1  0  0  0
 62138  1  0  0  0
 62139  1  0  0  0
 62140  1  0  0  0
 63 65  1  0  0  0
 63141  1  0  0  0
 63142  1  0  0  0
 63143  1  0  0  0
 64144  1  0  0  0
 65145  1  0  0  0
 68 83  1  0  0  0
 71 73  2  0  0  0
 71 75  1  0  0  0
 71146  1  0  0  0
 72 74  1  0  0  0
 72 75  2  0  0  0
 72147  1  0  0  0
 73 76  1  0  0  0
 73148  1  0  0  0
 74 76  2  0  0  0
 74149  1  0  0  0
 75 78  1  0  0  0
 76 85  1  0  0  0
 77 79  1  0  0  0
 77 85  1  0  0  0
 77 86  2  0  0  0
 78 84  2  0  0  0
 79 80  1  0  0  0
 79150  1  0  0  0
 79151  1  0  0  0
 80 82  1  0  0  0
 80152  1  0  0  0
 80153  1  0  0  0
 81 82  1  0  0  0
 81 85  1  0  0  0
 81154  1  0  0  0
 81155  1  0  0  0
 82 83  1  0  0  0
 82156  1  0  0  0
 83157  1  0  0  0
 83158  1  0  0  0
 84159  1  0  0  0
M  ISO  4   1 100  68 101  78 100  83 101
M  END
> <chiral flag>
0

> <version>
0

> <s_m_source_file>
/data/baiqing/PycharmProjects/Reinvent-master-3.2/result/LINK_invent/BTK/process_docking_weight1_custom_product_contain_oxygen_bond_distance_aromatic_linkinvent_7_9_3/rearranged_h_0097.sdf

> <i_m_source_file_index>
87

> <r_mmod_Potential_Energy-OPLS-2005>
310.508392333984

> <r_mmod_Stretch_Energy-OPLS-2005>
92.8556671142578

> <r_mmod_Bend_Energy-OPLS-2005>
144.152755737305

> <r_mmod_Torsional_Energy-OPLS-2005>
279.119171142578

> <r_mmod_Improper_Torsional_Energy-OPLS-2005>
3.35333919525146

> <r_mmod_Van_der_Waal_Energy-OPLS-2005>
157.293746948242

> <r_mmod_Electrostatic_Energy-OPLS-2005>
-189.938247680664

> <r_mmod_Solvation_Energy-OPLS-2005>
-213.385299682617

> <b_mmod_Minimization_Converged-OPLS-2005>
0

> <r_mmod_RMS_Derivative-OPLS-2005>
3.87396955490112

$$$$
88
                    3D
 Structure written by MMmdl.
169178  0  0  1  0            999 V2000
  -30.7419  -14.3698   20.7343 C   0  0  0  0  0  0
  -30.4144  -12.2986   19.4353 C   0  0  0  0  0  0
  -29.4969  -12.5787   18.2278 C   0  0  0  0  0  0
  -28.0196  -12.4066   18.6258 C   0  0  0  0  0  0
  -27.6671  -13.2107   19.9038 C   0  0  2  0  0  0
  -28.6932  -12.9345   21.0291 C   0  0  0  0  0  0
  -25.2503  -13.8169   20.5750 C   0  0  0  0  0  0
  -24.1783  -13.0394   20.9132 C   0  0  0  0  0  0
  -24.6381  -11.6876   20.8660 C   0  0  0  0  0  0
  -23.9083  -10.4255   21.0338 C   0  0  0  0  0  0
  -24.3642   -9.4174   21.9113 C   0  0  0  0  0  0
  -23.6314   -8.2223   22.0721 C   0  0  0  0  0  0
  -22.4293   -8.0264   21.3517 C   0  0  0  0  0  0
  -21.9938   -9.0223   20.4584 C   0  0  0  0  0  0
  -22.7277  -10.2092   20.2967 C   0  0  0  0  0  0
  -21.6848   -6.0720   22.5263 C   0  0  0  0  0  0
  -21.4064   -6.5633   23.8207 C   0  0  0  0  0  0
  -21.3719   -5.6785   24.9164 C   0  0  0  0  0  0
  -21.6055   -4.3049   24.7219 C   0  0  0  0  0  0
  -21.8793   -3.8141   23.4331 C   0  0  0  0  0  0
  -21.9174   -4.6947   22.3389 C   0  0  0  0  0  0
  -22.7804  -13.5102   21.1908 C   0  0  0  0  0  0
  -22.1614   -4.2125   21.0963 F   0  0  0  0  0  0
  -21.5651   -3.4546   25.7740 F   0  0  0  0  0  0
  -30.0472  -13.2246   20.5125 N   0  0  0  0  0  0
  -26.2996  -12.9389   20.3434 N   0  0  0  0  0  0
  -25.9301  -11.6527   20.5695 N   0  0  0  0  0  0
  -22.0591  -12.7973   22.0478 N   0  0  0  0  0  0
  -25.4139  -15.1938   20.4424 N   0  0  0  0  0  0
  -31.7196  -14.7191   20.0595 O   0  0  0  0  0  0
  -21.6645   -6.8869   21.4227 O   0  0  0  0  0  0
  -22.3417  -14.5435   20.6863 O   0  0  0  0  0  0
  -24.6122  -31.8702   23.2110 C   0  0  0  0  0  0
  -25.9061  -32.4819   23.8367 C   0  0  1  0  0  0
  -27.2636  -27.4700   20.1215 C   0  0  0  0  0  0
  -25.5980  -33.8627   24.2327 N   0  0  0  0  0  0
  -23.4000  -30.4871   21.5438 C   0  0  2  0  0  0
  -24.8620  -28.9597   20.1129 C   0  0  0  0  0  0
  -22.7380  -29.4697   22.4981 C   0  0  0  0  0  0
  -18.0241  -28.1489   22.8466 C   0  0  0  0  0  0
  -24.1516  -36.7320   23.2605 C   0  0  0  0  0  0
  -25.9177  -30.8472   21.3597 C   0  0  0  0  0  0
  -26.0070  -29.4737   20.7343 C   0  0  0  0  0  0
  -27.2071  -28.7305   20.7558 C   0  0  0  0  0  0
  -26.1135  -26.9759   19.4707 C   0  0  0  0  0  0
  -24.9105  -27.7099   19.4709 C   0  0  0  0  0  0
  -23.6125  -29.8098   20.1603 C   0  0  0  0  0  0
  -25.4153  -36.3095   24.0272 C   0  0  1  0  0  0
  -20.5824  -28.3806   23.1350 C   0  0  2  0  0  0
  -20.6789  -26.9563   22.5429 C   0  0  0  0  0  0
  -19.5767  -26.6457   21.5250 C   0  0  0  0  0  0
  -18.1926  -26.8044   22.1605 C   0  0  0  0  0  0
  -19.1483  -28.8949   23.2903 C   0  0  0  0  0  0
  -18.9436  -30.1534   23.8966 C   0  0  0  0  0  0
  -17.6452  -30.6696   24.0615 C   0  0  0  0  0  0
  -25.9059  -34.9469   23.5064 C   0  0  0  0  0  0
  -16.5348  -29.9229   23.6300 C   0  0  0  0  0  0
  -16.7245  -28.6639   23.0331 C   0  0  0  0  0  0
  -26.4537  -31.6573   25.0650 C   0  0  0  0  0  0
  -25.3779  -31.3672   26.1357 C   0  0  0  0  0  0
  -27.0407  -30.3017   24.6009 C   0  0  0  0  0  0
  -27.6103  -32.4269   25.7469 C   0  0  0  0  0  0
  -27.5607  -37.1803   24.8434 C   0  0  0  0  0  0
  -21.4103  -29.3179   22.3769 N   0  0  0  0  0  0
  -26.4345  -37.3772   23.9340 N   0  0  0  0  0  0
  -24.6603  -31.0809   22.1002 N   0  0  0  0  0  0
  -23.4142  -28.8191   23.3008 O   0  0  0  0  0  0
  -28.4113  -26.7192   20.0414 O   0  0  0  0  0  0
  -26.5563  -34.8893   22.4594 O   0  0  0  0  0  0
  -23.5320  -32.1473   23.7508 O   0  0  0  0  0  0
  -29.7772  -17.3493   21.2868 C   0  0  0  0  0  0
  -29.8082  -18.7146   21.6160 C   0  0  0  0  0  0
  -31.2362  -16.8710   23.1824 C   0  0  0  0  0  0
  -30.4941  -16.4214   22.0713 C   0  0  0  0  0  0
  -30.5356  -19.1659   22.7411 C   0  0  0  0  0  0
  -31.2776  -18.2464   23.5244 C   0  0  0  0  0  0
  -27.7987  -23.0023   22.1140 C   0  0  0  0  0  0
  -30.1608  -23.6012   22.8783 C   0  0  0  0  0  0
  -27.8182  -24.3327   21.3669 C   0  0  0  0  0  0
  -29.4393  -24.9126   23.2625 C   0  0  0  0  0  0
  -29.2399  -22.4944   22.2888 C   0  0  1  0  0  0
  -28.4804  -25.4710   22.1734 C   0  0  1  0  0  0
  -32.6722  -17.8395   25.4539 C   0  0  0  0  0  0
  -29.2270  -21.1913   23.1125 C   0  0  0  0  0  0
  -29.1704  -26.4886   21.2315 C   0  0  0  0  0  0
  -30.3643  -15.0341   21.8355 N   0  0  0  0  0  0
  -30.5227  -20.5125   23.1226 N   0  0  0  0  0  0
  -31.9830  -18.7506   24.6025 O   0  0  0  0  0  0
  -31.4666  -12.3906   19.1635 H   0  0  0  0  0  0
  -30.2911  -11.2705   19.7823 H   0  0  0  0  0  0
  -29.7510  -11.9226   17.3954 H   0  0  0  0  0  0
  -29.6568  -13.5995   17.8788 H   0  0  0  0  0  0
  -27.8382  -11.3438   18.7920 H   0  0  0  0  0  0
  -27.3696  -12.7082   17.8039 H   0  0  0  0  0  0
  -27.7288  -14.2686   19.6525 H   0  0  0  0  0  0
  -28.6467  -11.8874   21.3347 H   0  0  0  0  0  0
  -28.4316  -13.5031   21.9240 H   0  0  0  0  0  0
  -25.2803   -9.5636   22.4654 H   0  0  0  0  0  0
  -24.0022   -7.4603   22.7459 H   0  0  0  0  0  0
  -21.0879   -8.8732   19.8862 H   0  0  0  0  0  0
  -22.3770  -10.9610   19.6051 H   0  0  0  0  0  0
  -21.2113   -7.6138   23.9731 H   0  0  0  0  0  0
  -21.1591   -6.0497   25.9061 H   0  0  0  0  0  0
  -22.0529   -2.7592   23.2823 H   0  0  0  0  0  0
  -22.4330  -11.9537   22.4581 H   0  0  0  0  0  0
  -21.1216  -13.0819   22.2950 H   0  0  0  0  0  0
  -24.6694  -15.8354   20.6912 H   0  0  0  0  0  0
  -26.2871  -15.6619   20.2347 H   0  0  0  0  0  0
  -26.7131  -32.5613   23.1142 H   0  0  0  0  0  0
  -25.0334  -33.9826   25.0609 H   0  0  0  0  0  0
  -22.6854  -31.2989   21.3936 H   0  0  0  0  0  0
  -23.3791  -35.9634   23.3221 H   0  0  0  0  0  0
  -24.3575  -36.9036   22.2021 H   0  0  0  0  0  0
  -23.7258  -37.6476   23.6709 H   0  0  0  0  0  0
  -25.9984  -31.6001   20.5754 H   0  0  0  0  0  0
  -26.8151  -30.9311   21.9619 H   0  0  0  0  0  0
  -28.0848  -29.1385   21.2311 H   0  0  0  0  0  0
  -26.1642  -26.0248   18.9598 H   0  0  0  0  0  0
  -24.0408  -27.3236   18.9529 H   0  0  0  0  0  0
  -23.6873  -30.5736   19.3865 H   0  0  0  0  0  0
  -22.7523  -29.1975   19.8800 H   0  0  0  0  0  0
  -25.1350  -36.1942   25.0754 H   0  0  0  0  0  0
  -20.9852  -28.3419   24.1505 H   0  0  0  0  0  0
  -20.5847  -26.2445   23.3627 H   0  0  0  0  0  0
  -21.6659  -26.7721   22.1162 H   0  0  0  0  0  0
  -19.6984  -25.6337   21.1377 H   0  0  0  0  0  0
  -19.6757  -27.3206   20.6736 H   0  0  0  0  0  0
  -17.4214  -26.6801   21.3970 H   0  0  0  0  0  0
  -18.0306  -26.0188   22.8985 H   0  0  0  0  0  0
  -19.7890  -30.7313   24.2425 H   0  0  0  0  0  0
  -17.5007  -31.6376   24.5221 H   0  0  0  0  0  0
  -15.5370  -30.3229   23.7558 H   0  0  0  0  0  0
  -15.8606  -28.1011   22.7051 H   0  0  0  0  0  0
  -24.5971  -30.7033   25.7617 H   0  0  0  0  0  0
  -24.8985  -32.2851   26.4743 H   0  0  0  0  0  0
  -25.8078  -30.8812   27.0121 H   0  0  0  0  0  0
  -26.2973  -29.6701   24.1127 H   0  0  0  0  0  0
  -27.4283  -29.7280   25.4445 H   0  0  0  0  0  0
  -27.8729  -30.4308   23.9088 H   0  0  0  0  0  0
  -27.2732  -33.3577   26.2014 H   0  0  0  0  0  0
  -28.3997  -32.6787   25.0383 H   0  0  0  0  0  0
  -28.0675  -31.8392   26.5430 H   0  0  0  0  0  0
  -28.2563  -38.0157   24.7527 H   0  0  0  0  0  0
  -28.1182  -36.2675   24.6258 H   0  0  0  0  0  0
  -27.2270  -37.1426   25.8819 H   0  0  0  0  0  0
  -20.9298  -29.8988   21.7040 H   0  0  0  0  0  0
  -26.0231  -38.2845   24.1326 H   0  0  0  0  0  0
  -29.1713  -17.0216   20.4544 H   0  0  0  0  0  0
  -29.2423  -19.4080   21.0114 H   0  0  0  0  0  0
  -31.7591  -16.1317   23.7712 H   0  0  0  0  0  0
  -27.1998  -22.2783   21.5589 H   0  0  0  0  0  0
  -27.3118  -23.1251   23.0840 H   0  0  0  0  0  0
  -30.6679  -23.2235   23.7643 H   0  0  0  0  0  0
  -30.9612  -23.8309   22.1725 H   0  0  0  0  0  0
  -26.8041  -24.6216   21.0948 H   0  0  0  0  0  0
  -28.3522  -24.1781   20.4276 H   0  0  0  0  0  0
  -30.1783  -25.6609   23.5537 H   0  0  0  0  0  0
  -28.8594  -24.7179   24.1666 H   0  0  0  0  0  0
  -29.6197  -22.2602   21.2894 H   0  0  0  0  0  0
  -27.6874  -26.0077   22.7000 H   0  0  0  0  0  0
  -33.2599  -18.4028   26.1800 H   0  0  0  0  0  0
  -33.3657  -17.2023   24.9042 H   0  0  0  0  0  0
  -31.9770  -17.2172   26.0170 H   0  0  0  0  0  0
  -28.4429  -20.5318   22.7373 H   0  0  0  0  0  0
  -28.9298  -21.4012   24.1397 H   0  0  0  0  0  0
  -30.1220  -26.0614   20.9111 H   0  0  0  0  0  0
  -29.4217  -27.4179   21.7424 H   0  0  0  0  0  0
  -29.7065  -14.5473   22.4266 H   0  0  0  0  0  0
  -31.0716  -20.6722   23.9630 H   0  0  0  0  0  0
  1 25  1  0  0  0
  1 30  2  0  0  0
  1 86  1  0  0  0
  2  3  1  0  0  0
  2 25  1  0  0  0
  2 89  1  0  0  0
  2 90  1  0  0  0
  3  4  1  0  0  0
  3 91  1  0  0  0
  3 92  1  0  0  0
  4  5  1  0  0  0
  4 93  1  0  0  0
  4 94  1  0  0  0
  5  6  1  0  0  0
  5 26  1  0  0  0
  5 95  1  0  0  0
  6 25  1  0  0  0
  6 96  1  0  0  0
  6 97  1  0  0  0
  7  8  2  0  0  0
  7 26  1  0  0  0
  7 29  1  0  0  0
  8  9  1  0  0  0
  8 22  1  0  0  0
  9 10  1  0  0  0
  9 27  2  0  0  0
 10 11  2  0  0  0
 10 15  1  0  0  0
 11 12  1  0  0  0
 11 98  1  0  0  0
 12 13  2  0  0  0
 12 99  1  0  0  0
 13 14  1  0  0  0
 13 31  1  0  0  0
 14 15  2  0  0  0
 14100  1  0  0  0
 15101  1  0  0  0
 16 17  2  0  0  0
 16 21  1  0  0  0
 16 31  1  0  0  0
 17 18  1  0  0  0
 17102  1  0  0  0
 18 19  2  0  0  0
 18103  1  0  0  0
 19 20  1  0  0  0
 19 24  1  0  0  0
 20 21  2  0  0  0
 20104  1  0  0  0
 21 23  1  0  0  0
 22 28  1  0  0  0
 22 32  2  0  0  0
 26 27  1  0  0  0
 28105  1  0  0  0
 28106  1  0  0  0
 29107  1  0  0  0
 29108  1  0  0  0
 33 34  1  0  0  0
 33 66  1  0  0  0
 33 70  2  0  0  0
 34 36  1  0  0  0
 34 59  1  0  0  0
 34109  1  0  0  0
 35 44  2  0  0  0
 35 45  1  0  0  0
 35 68  1  0  0  0
 36 56  1  0  0  0
 36110  1  0  0  0
 37 39  1  0  0  0
 37 47  1  0  0  0
 37 66  1  0  0  0
 37111  1  0  0  0
 38 43  2  0  0  0
 38 46  1  0  0  0
 38 47  1  0  0  0
 39 64  1  0  0  0
 39 67  2  0  0  0
 40 52  1  0  0  0
 40 53  2  0  0  0
 40 58  1  0  0  0
 41112  1  0  0  0
 41113  1  0  0  0
 41114  1  0  0  0
 41 48  1  0  0  0
 42 43  1  0  0  0
 42 66  1  0  0  0
 42115  1  0  0  0
 42116  1  0  0  0
 43 44  1  0  0  0
 44117  1  0  0  0
 45 46  2  0  0  0
 45118  1  0  0  0
 46119  1  0  0  0
 47120  1  0  0  0
 47121  1  0  0  0
 48 56  1  0  0  0
 48 65  1  0  0  0
 48122  1  0  0  0
 49 50  1  0  0  0
 49 53  1  0  0  0
 49 64  1  0  0  0
 49123  1  0  0  0
 50 51  1  0  0  0
 50124  1  0  0  0
 50125  1  0  0  0
 51 52  1  0  0  0
 51126  1  0  0  0
 51127  1  0  0  0
 52128  1  0  0  0
 52129  1  0  0  0
 53 54  1  0  0  0
 54 55  2  0  0  0
 54130  1  0  0  0
 55 57  1  0  0  0
 55131  1  0  0  0
 56 69  2  0  0  0
 57 58  2  0  0  0
 57132  1  0  0  0
 58133  1  0  0  0
 59 60  1  0  0  0
 59 61  1  0  0  0
 59 62  1  0  0  0
 60134  1  0  0  0
 60135  1  0  0  0
 60136  1  0  0  0
 61137  1  0  0  0
 61138  1  0  0  0
 61139  1  0  0  0
 62140  1  0  0  0
 62141  1  0  0  0
 62142  1  0  0  0
 63 65  1  0  0  0
 63143  1  0  0  0
 63144  1  0  0  0
 63145  1  0  0  0
 64146  1  0  0  0
 65147  1  0  0  0
 68 85  1  0  0  0
 71 72  2  0  0  0
 71 74  1  0  0  0
 71148  1  0  0  0
 72 75  1  0  0  0
 72149  1  0  0  0
 73 74  2  0  0  0
 73 76  1  0  0  0
 73150  1  0  0  0
 74 86  1  0  0  0
 75 76  2  0  0  0
 75 87  1  0  0  0
 76 88  1  0  0  0
 77 79  1  0  0  0
 77 81  1  0  0  0
 77151  1  0  0  0
 77152  1  0  0  0
 78 80  1  0  0  0
 78 81  1  0  0  0
 78153  1  0  0  0
 78154  1  0  0  0
 79 82  1  0  0  0
 79155  1  0  0  0
 79156  1  0  0  0
 80 82  1  0  0  0
 80157  1  0  0  0
 80158  1  0  0  0
 81 84  1  0  0  0
 81159  1  0  0  0
 82 85  1  0  0  0
 82160  1  0  0  0
 83 88  1  0  0  0
 83161  1  0  0  0
 83162  1  0  0  0
 83163  1  0  0  0
 84 87  1  0  0  0
 84164  1  0  0  0
 84165  1  0  0  0
 85166  1  0  0  0
 85167  1  0  0  0
 86168  1  0  0  0
 87169  1  0  0  0
M  ISO  4   1 100  68 101  85 101  86 100
M  END
> <chiral flag>
0

> <version>
0

> <s_m_source_file>
/data/baiqing/PycharmProjects/Reinvent-master-3.2/result/LINK_invent/BTK/process_docking_weight1_custom_product_contain_oxygen_bond_distance_aromatic_linkinvent_7_9_3/rearranged_h_0097.sdf

> <i_m_source_file_index>
88

> <r_mmod_Potential_Energy-OPLS-2005>
23.7485866546631

> <r_mmod_Stretch_Energy-OPLS-2005>
35.8913688659668

> <r_mmod_Bend_Energy-OPLS-2005>
108.992965698242

> <r_mmod_Torsional_Energy-OPLS-2005>
307.907653808594

> <r_mmod_Improper_Torsional_Energy-OPLS-2005>
8.64519214630127

> <r_mmod_Van_der_Waal_Energy-OPLS-2005>
169.025772094727

> <r_mmod_Electrostatic_Energy-OPLS-2005>
-397.779052734375

> <r_mmod_Solvation_Energy-OPLS-2005>
-217.932083129883

> <b_mmod_Minimization_Converged-OPLS-2005>
0

> <r_mmod_RMS_Derivative-OPLS-2005>
5.93661403656006

$$$$
