0
                    3D
 Structure written by MMmdl.
158166  0  0  1  0            999 V2000
  -30.6916  -14.4586   20.5993 C   0  0  0  0  0  0
  -30.4238  -12.3061   19.4217 C   0  0  0  0  0  0
  -29.4941  -12.5183   18.2086 C   0  0  0  0  0  0
  -28.0134  -12.3797   18.6165 C   0  0  0  0  0  0
  -27.6628  -13.2052   19.8823 C   0  0  2  0  0  0
  -28.7018  -12.9596   21.0005 C   0  0  0  0  0  0
  -25.2582  -13.8164   20.5683 C   0  0  0  0  0  0
  -24.1834  -13.0437   20.9195 C   0  0  0  0  0  0
  -24.6389  -11.6904   20.8754 C   0  0  0  0  0  0
  -23.9063  -10.4291   21.0418 C   0  0  0  0  0  0
  -24.3614   -9.4206   21.9200 C   0  0  0  0  0  0
  -23.6286   -8.2243   22.0763 C   0  0  0  0  0  0
  -22.4270   -8.0285   21.3551 C   0  0  0  0  0  0
  -21.9909   -9.0259   20.4651 C   0  0  0  0  0  0
  -22.7238  -10.2138   20.3061 C   0  0  0  0  0  0
  -21.6845   -6.0738   22.5282 C   0  0  0  0  0  0
  -21.4009   -6.5646   23.8217 C   0  0  0  0  0  0
  -21.3659   -5.6802   24.9182 C   0  0  0  0  0  0
  -21.6045   -4.3063   24.7233 C   0  0  0  0  0  0
  -21.8820   -3.8152   23.4353 C   0  0  0  0  0  0
  -21.9188   -4.6966   22.3407 C   0  0  0  0  0  0
  -22.7859  -13.5240   21.1855 C   0  0  0  0  0  0
  -22.1658   -4.2155   21.0984 F   0  0  0  0  0  0
  -21.5631   -3.4548   25.7745 F   0  0  0  0  0  0
  -30.0360  -13.2741   20.4596 N   0  0  0  0  0  0
  -26.3018  -12.9328   20.3385 N   0  0  0  0  0  0
  -25.9313  -11.6492   20.5779 N   0  0  0  0  0  0
  -22.0485  -12.8226   22.0398 N   0  0  0  0  0  0
  -25.4314  -15.1875   20.4050 N   0  0  0  0  0  0
  -31.8013  -14.6630   20.0980 O   0  0  0  0  0  0
  -21.6632   -6.8882   21.4244 O   0  0  0  0  0  0
  -22.3551  -14.5547   20.6702 O   0  0  0  0  0  0
  -24.6132  -31.8679   23.2106 C   0  0  0  0  0  0
  -25.9028  -32.4823   23.8399 C   0  0  1  0  0  0
  -27.2416  -27.4358   20.0940 C   0  0  0  0  0  0
  -25.5880  -33.8621   24.2330 N   0  0  0  0  0  0
  -23.4011  -30.4906   21.5498 C   0  0  2  0  0  0
  -24.8486  -28.9538   20.1150 C   0  0  0  0  0  0
  -22.7405  -29.4653   22.4988 C   0  0  0  0  0  0
  -18.0269  -28.1371   22.8506 C   0  0  0  0  0  0
  -24.1481  -36.7320   23.2639 C   0  0  0  0  0  0
  -25.9282  -30.8329   21.3630 C   0  0  0  0  0  0
  -26.0054  -29.4657   20.7135 C   0  0  0  0  0  0
  -27.1990  -28.7099   20.7063 C   0  0  0  0  0  0
  -26.0603  -26.9317   19.5005 C   0  0  0  0  0  0
  -24.8703  -27.6855   19.5095 C   0  0  0  0  0  0
  -23.6109  -29.8215   20.1649 C   0  0  0  0  0  0
  -25.4101  -36.3118   24.0338 C   0  0  1  0  0  0
  -20.5858  -28.3660   23.1322 C   0  0  2  0  0  0
  -20.6762  -26.9392   22.5426 C   0  0  0  0  0  0
  -19.5745  -26.6379   21.5218 C   0  0  0  0  0  0
  -18.1918  -26.7924   22.1621 C   0  0  0  0  0  0
  -19.1517  -28.8835   23.2911 C   0  0  0  0  0  0
  -18.9445  -30.1440   23.8924 C   0  0  0  0  0  0
  -17.6449  -30.6586   24.0567 C   0  0  0  0  0  0
  -25.9028  -34.9478   23.5140 C   0  0  0  0  0  0
  -16.5340  -29.9095   23.6314 C   0  0  0  0  0  0
  -16.7259  -28.6500   23.0358 C   0  0  0  0  0  0
  -26.4464  -31.6601   25.0726 C   0  0  0  0  0  0
  -25.3732  -31.3676   26.1470 C   0  0  0  0  0  0
  -27.0306  -30.3057   24.6084 C   0  0  0  0  0  0
  -27.6044  -32.4316   25.7496 C   0  0  0  0  0  0
  -27.5579  -37.1809   24.8461 C   0  0  0  0  0  0
  -21.4132  -29.3032   22.3731 N   0  0  0  0  0  0
  -26.4285  -37.3806   23.9416 N   0  0  0  0  0  0
  -24.6654  -31.0780   22.1002 N   0  0  0  0  0  0
  -23.4189  -28.8203   23.3027 O   0  0  0  0  0  0
  -28.4327  -26.7374   20.1328 O   0  0  0  0  0  0
  -26.5603  -34.8929   22.4708 O   0  0  0  0  0  0
  -23.5325  -32.1414   23.7509 O   0  0  0  0  0  0
  -31.4016  -18.9013   20.7686 C   0  0  0  0  0  0
  -31.3485  -17.4985   20.9168 C   0  0  0  0  0  0
  -28.9400  -17.6303   21.1938 C   0  0  0  0  0  0
  -30.2259  -19.6897   20.8178 C   0  0  0  0  0  0
  -30.1111  -16.8388   21.1099 C   0  0  0  0  0  0
  -28.9912  -19.0357   21.0368 C   0  0  0  0  0  0
  -30.3175  -21.1506   20.5935 C   0  0  0  0  0  0
  -28.6551  -24.2698   19.8953 C   0  0  0  0  0  0
  -28.6733  -25.6601   19.2155 C   0  0  0  0  0  0
  -29.5003  -23.1473   19.2291 C   0  0  2  0  0  0
  -29.1525  -22.9676   17.7322 C   0  0  0  0  0  0
  -29.9896  -15.4180   21.2380 N   0  0  0  0  0  0
  -29.3745  -21.8271   19.9145 N   0  0  0  0  0  0
  -31.3967  -21.8173   21.0157 N   0  3  0  0  0  0
  -28.0092  -24.0855   20.9339 O   0  0  0  0  0  0
  -27.8394  -19.7521   21.0675 F   0  0  0  0  0  0
  -29.8686  -21.9658   17.2186 F   0  0  0  0  0  0
  -29.4268  -24.0633   17.0268 F   0  0  0  0  0  0
  -27.8573  -22.6829   17.5906 F   0  0  0  0  0  0
  -31.4679  -12.4113   19.1226 H   0  0  0  0  0  0
  -30.3270  -11.2900   19.8068 H   0  0  0  0  0  0
  -29.7323  -11.8042   17.4197 H   0  0  0  0  0  0
  -29.6651  -13.5096   17.7858 H   0  0  0  0  0  0
  -27.8130  -11.3228   18.7951 H   0  0  0  0  0  0
  -27.3674  -12.6750   17.7892 H   0  0  0  0  0  0
  -27.7138  -14.2574   19.6013 H   0  0  0  0  0  0
  -28.6765  -11.9144   21.3129 H   0  0  0  0  0  0
  -28.4567  -13.5288   21.8983 H   0  0  0  0  0  0
  -25.2754   -9.5683   22.4785 H   0  0  0  0  0  0
  -23.9991   -7.4634   22.7481 H   0  0  0  0  0  0
  -21.0845   -8.8779   19.8954 H   0  0  0  0  0  0
  -22.3698  -10.9683   19.6174 H   0  0  0  0  0  0
  -21.1999   -7.6157   23.9723 H   0  0  0  0  0  0
  -21.1480   -6.0535   25.9089 H   0  0  0  0  0  0
  -22.0594   -2.7613   23.2856 H   0  0  0  0  0  0
  -22.4074  -11.9862   22.4765 H   0  0  0  0  0  0
  -21.1114  -13.1274   22.2614 H   0  0  0  0  0  0
  -24.6582  -15.8391   20.4901 H   0  0  0  0  0  0
  -26.2625  -15.6108   20.0123 H   0  0  0  0  0  0
  -26.7101  -32.5544   23.1166 H   0  0  0  0  0  0
  -25.0027  -33.9780   25.0473 H   0  0  0  0  0  0
  -22.6886  -31.3061   21.4111 H   0  0  0  0  0  0
  -23.3752  -35.9643   23.3296 H   0  0  0  0  0  0
  -24.3573  -36.8948   22.2056 H   0  0  0  0  0  0
  -23.7213  -37.6512   23.6665 H   0  0  0  0  0  0
  -26.0349  -31.5957   20.5908 H   0  0  0  0  0  0
  -26.8189  -30.8917   21.9766 H   0  0  0  0  0  0
  -28.0929  -29.1022   21.1716 H   0  0  0  0  0  0
  -26.0281  -25.9515   19.0486 H   0  0  0  0  0  0
  -23.9757  -27.2807   19.0566 H   0  0  0  0  0  0
  -23.7228  -30.5965   19.4060 H   0  0  0  0  0  0
  -22.7348  -29.2433   19.8672 H   0  0  0  0  0  0
  -25.1267  -36.1989   25.0829 H   0  0  0  0  0  0
  -20.9948  -28.3230   24.1442 H   0  0  0  0  0  0
  -20.5662  -26.2265   23.3610 H   0  0  0  0  0  0
  -21.6631  -26.7437   22.1217 H   0  0  0  0  0  0
  -19.6903  -25.6298   21.1234 H   0  0  0  0  0  0
  -19.6687  -27.3202   20.6760 H   0  0  0  0  0  0
  -17.4193  -26.6694   21.4016 H   0  0  0  0  0  0
  -18.0302  -26.0041   22.8990 H   0  0  0  0  0  0
  -19.7921  -30.7246   24.2309 H   0  0  0  0  0  0
  -17.5004  -31.6264   24.5174 H   0  0  0  0  0  0
  -15.5342  -30.3016   23.7604 H   0  0  0  0  0  0
  -15.8656  -28.0817   22.7080 H   0  0  0  0  0  0
  -24.5937  -30.6990   25.7801 H   0  0  0  0  0  0
  -24.8885  -32.2816   26.4920 H   0  0  0  0  0  0
  -25.8093  -30.8855   27.0231 H   0  0  0  0  0  0
  -26.2852  -29.6813   24.1146 H   0  0  0  0  0  0
  -27.4108  -29.7287   25.4525 H   0  0  0  0  0  0
  -27.8668  -30.4404   23.9216 H   0  0  0  0  0  0
  -27.2675  -33.3612   26.2096 H   0  0  0  0  0  0
  -28.3849  -32.6874   25.0321 H   0  0  0  0  0  0
  -28.0717  -31.8422   26.5392 H   0  0  0  0  0  0
  -28.2580  -38.0123   24.7536 H   0  0  0  0  0  0
  -28.1088  -36.2655   24.6252 H   0  0  0  0  0  0
  -27.2300  -37.1415   25.8863 H   0  0  0  0  0  0
  -20.9290  -29.8753   21.6955 H   0  0  0  0  0  0
  -26.0175  -38.2880   24.1447 H   0  0  0  0  0  0
  -32.3630  -19.3618   20.5920 H   0  0  0  0  0  0
  -32.2746  -16.9438   20.8718 H   0  0  0  0  0  0
  -27.9780  -17.1661   21.3522 H   0  0  0  0  0  0
  -29.6719  -25.8140   18.8066 H   0  0  0  0  0  0
  -27.9960  -25.6779   18.3639 H   0  0  0  0  0  0
  -30.5436  -23.4604   19.2660 H   0  0  0  0  0  0
  -29.1174  -15.0876   21.6200 H   0  0  0  0  0  0
  -28.4792  -21.3602   19.8246 H   0  0  0  0  0  0
  -32.0902  -21.3306   21.5628 H   0  0  0  0  0  0
  -31.4520  -22.8193   20.9671 H   0  0  0  0  0  0
  1 25  1  0  0  0
  1 30  2  0  0  0
  1 82  1  0  0  0
  2  3  1  0  0  0
  2 25  1  0  0  0
  2 90  1  0  0  0
  2 91  1  0  0  0
  3  4  1  0  0  0
  3 92  1  0  0  0
  3 93  1  0  0  0
  4  5  1  0  0  0
  4 94  1  0  0  0
  4 95  1  0  0  0
  5  6  1  0  0  0
  5 26  1  0  0  0
  5 96  1  0  0  0
  6 25  1  0  0  0
  6 97  1  0  0  0
  6 98  1  0  0  0
  7  8  2  0  0  0
  7 26  1  0  0  0
  7 29  1  0  0  0
  8  9  1  0  0  0
  8 22  1  0  0  0
  9 10  1  0  0  0
  9 27  2  0  0  0
 10 11  2  0  0  0
 10 15  1  0  0  0
 11 12  1  0  0  0
 11 99  1  0  0  0
 12 13  2  0  0  0
 12100  1  0  0  0
 13 14  1  0  0  0
 13 31  1  0  0  0
 14 15  2  0  0  0
 14101  1  0  0  0
 15102  1  0  0  0
 16 17  2  0  0  0
 16 21  1  0  0  0
 16 31  1  0  0  0
 17 18  1  0  0  0
 17103  1  0  0  0
 18 19  2  0  0  0
 18104  1  0  0  0
 19 20  1  0  0  0
 19 24  1  0  0  0
 20 21  2  0  0  0
 20105  1  0  0  0
 21 23  1  0  0  0
 22 28  1  0  0  0
 22 32  2  0  0  0
 26 27  1  0  0  0
 28106  1  0  0  0
 28107  1  0  0  0
 29108  1  0  0  0
 29109  1  0  0  0
 33 34  1  0  0  0
 33 66  1  0  0  0
 33 70  2  0  0  0
 34 36  1  0  0  0
 34 59  1  0  0  0
 34110  1  0  0  0
 35 44  2  0  0  0
 35 45  1  0  0  0
 35 68  1  0  0  0
 36 56  1  0  0  0
 36111  1  0  0  0
 37 39  1  0  0  0
 37 47  1  0  0  0
 37 66  1  0  0  0
 37112  1  0  0  0
 38 43  2  0  0  0
 38 46  1  0  0  0
 38 47  1  0  0  0
 39 64  1  0  0  0
 39 67  2  0  0  0
 40 52  1  0  0  0
 40 53  2  0  0  0
 40 58  1  0  0  0
 41113  1  0  0  0
 41114  1  0  0  0
 41115  1  0  0  0
 41 48  1  0  0  0
 42 43  1  0  0  0
 42 66  1  0  0  0
 42116  1  0  0  0
 42117  1  0  0  0
 43 44  1  0  0  0
 44118  1  0  0  0
 45 46  2  0  0  0
 45119  1  0  0  0
 46120  1  0  0  0
 47121  1  0  0  0
 47122  1  0  0  0
 48 56  1  0  0  0
 48 65  1  0  0  0
 48123  1  0  0  0
 49 50  1  0  0  0
 49 53  1  0  0  0
 49 64  1  0  0  0
 49124  1  0  0  0
 50 51  1  0  0  0
 50125  1  0  0  0
 50126  1  0  0  0
 51 52  1  0  0  0
 51127  1  0  0  0
 51128  1  0  0  0
 52129  1  0  0  0
 52130  1  0  0  0
 53 54  1  0  0  0
 54 55  2  0  0  0
 54131  1  0  0  0
 55 57  1  0  0  0
 55132  1  0  0  0
 56 69  2  0  0  0
 57 58  2  0  0  0
 57133  1  0  0  0
 58134  1  0  0  0
 59 60  1  0  0  0
 59 61  1  0  0  0
 59 62  1  0  0  0
 60135  1  0  0  0
 60136  1  0  0  0
 60137  1  0  0  0
 61138  1  0  0  0
 61139  1  0  0  0
 61140  1  0  0  0
 62141  1  0  0  0
 62142  1  0  0  0
 62143  1  0  0  0
 63 65  1  0  0  0
 63144  1  0  0  0
 63145  1  0  0  0
 63146  1  0  0  0
 64147  1  0  0  0
 65148  1  0  0  0
 68 79  1  0  0  0
 71 72  2  0  0  0
 71 74  1  0  0  0
 71149  1  0  0  0
 72 75  1  0  0  0
 72150  1  0  0  0
 73 75  2  0  0  0
 73 76  1  0  0  0
 73151  1  0  0  0
 74 76  2  0  0  0
 74 77  1  0  0  0
 75 82  1  0  0  0
 76 86  1  0  0  0
 77 83  1  0  0  0
 77 84  2  0  0  0
 78 79  1  0  0  0
 78 80  1  0  0  0
 78 85  2  0  0  0
 79152  1  0  0  0
 79153  1  0  0  0
 80 81  1  0  0  0
 80 83  1  0  0  0
 80154  1  0  0  0
 81 87  1  0  0  0
 81 88  1  0  0  0
 81 89  1  0  0  0
 82155  1  0  0  0
 83156  1  0  0  0
 84157  1  0  0  0
 84158  1  0  0  0
M  CHG  1  84   1
M  ISO  4   1 100  68 101  79 101  82 100
M  END
> <chiral flag>
0

> <version>
0

> <s_m_source_file>
/data/baiqing/PycharmProjects/Reinvent-master-3.2/result/LINK_invent/BTK/process_docking_weight1_custom_product_contain_oxygen_bond_distance_aromatic_linkinvent_7_9_3/rearranged_h_0163.sdf

> <i_m_source_file_index>
1

> <r_mmod_Potential_Energy-OPLS-2005>
-368.327911376953

> <r_mmod_Stretch_Energy-OPLS-2005>
40.1592788696289

> <r_mmod_Bend_Energy-OPLS-2005>
105.420455932617

> <r_mmod_Torsional_Energy-OPLS-2005>
208.965759277344

> <r_mmod_Improper_Torsional_Energy-OPLS-2005>
4.77227258682251

> <r_mmod_Van_der_Waal_Energy-OPLS-2005>
164.150131225586

> <r_mmod_Electrostatic_Energy-OPLS-2005>
-459.897918701172

> <r_mmod_Solvation_Energy-OPLS-2005>
-443.427337646484

> <b_mmod_Minimization_Converged-OPLS-2005>
0

> <r_mmod_RMS_Derivative-OPLS-2005>
1.30450534820557

$$$$
1
                    3D
 Structure written by MMmdl.
165174  0  0  1  0            999 V2000
  -30.6409  -14.5401   20.5684 C   0  0  0  0  0  0
  -30.4447  -12.3493   19.4260 C   0  0  0  0  0  0
  -29.5044  -12.5185   18.2113 C   0  0  0  0  0  0
  -28.0256  -12.3623   18.6224 C   0  0  0  0  0  0
  -27.6644  -13.2014   19.8760 C   0  0  2  0  0  0
  -28.7072  -12.9762   20.9954 C   0  0  0  0  0  0
  -25.2602  -13.8128   20.5663 C   0  0  0  0  0  0
  -24.1854  -13.0425   20.9197 C   0  0  0  0  0  0
  -24.6396  -11.6889   20.8744 C   0  0  0  0  0  0
  -23.9053  -10.4285   21.0411 C   0  0  0  0  0  0
  -24.3605   -9.4202   21.9188 C   0  0  0  0  0  0
  -23.6283   -8.2236   22.0754 C   0  0  0  0  0  0
  -22.4267   -8.0275   21.3542 C   0  0  0  0  0  0
  -21.9900   -9.0251   20.4647 C   0  0  0  0  0  0
  -22.7225  -10.2132   20.3059 C   0  0  0  0  0  0
  -21.6851   -6.0730   22.5280 C   0  0  0  0  0  0
  -21.4011   -6.5635   23.8212 C   0  0  0  0  0  0
  -21.3660   -5.6789   24.9175 C   0  0  0  0  0  0
  -21.6045   -4.3052   24.7225 C   0  0  0  0  0  0
  -21.8820   -3.8142   23.4346 C   0  0  0  0  0  0
  -21.9192   -4.6958   22.3402 C   0  0  0  0  0  0
  -22.7877  -13.5239   21.1850 C   0  0  0  0  0  0
  -22.1660   -4.2145   21.0980 F   0  0  0  0  0  0
  -21.5630   -3.4534   25.7737 F   0  0  0  0  0  0
  -30.0357  -13.3221   20.4532 N   0  0  0  0  0  0
  -26.3035  -12.9289   20.3346 N   0  0  0  0  0  0
  -25.9321  -11.6458   20.5757 N   0  0  0  0  0  0
  -22.0498  -12.8245   22.0399 N   0  0  0  0  0  0
  -25.4319  -15.1836   20.3999 N   0  0  0  0  0  0
  -31.7524  -14.7909   20.0947 O   0  0  0  0  0  0
  -21.6634   -6.8871   21.4240 O   0  0  0  0  0  0
  -22.3581  -14.5550   20.6693 O   0  0  0  0  0  0
  -24.6214  -31.8643   23.2080 C   0  0  0  0  0  0
  -25.9084  -32.4802   23.8387 C   0  0  1  0  0  0
  -27.2336  -27.3766   20.0805 C   0  0  0  0  0  0
  -25.5922  -33.8603   24.2313 N   0  0  0  0  0  0
  -23.4111  -30.4907   21.5509 C   0  0  2  0  0  0
  -24.8547  -28.9555   20.1135 C   0  0  0  0  0  0
  -22.7444  -29.4649   22.4972 C   0  0  0  0  0  0
  -18.0277  -28.1380   22.8488 C   0  0  0  0  0  0
  -24.1490  -36.7307   23.2639 C   0  0  0  0  0  0
  -25.9488  -30.8100   21.3720 C   0  0  0  0  0  0
  -26.0219  -29.4426   20.7125 C   0  0  0  0  0  0
  -27.2080  -28.6603   20.6958 C   0  0  0  0  0  0
  -26.0273  -26.9181   19.4929 C   0  0  0  0  0  0
  -24.8556  -27.6939   19.5043 C   0  0  0  0  0  0
  -23.6212  -29.8295   20.1646 C   0  0  0  0  0  0
  -25.4111  -36.3100   24.0336 C   0  0  1  0  0  0
  -20.5873  -28.3675   23.1305 C   0  0  2  0  0  0
  -20.6769  -26.9408   22.5413 C   0  0  0  0  0  0
  -19.5746  -26.6386   21.5212 C   0  0  0  0  0  0
  -18.1924  -26.7928   22.1621 C   0  0  0  0  0  0
  -19.1527  -28.8844   23.2893 C   0  0  0  0  0  0
  -18.9451  -30.1449   23.8904 C   0  0  0  0  0  0
  -17.6453  -30.6587   24.0562 C   0  0  0  0  0  0
  -25.9042  -34.9465   23.5120 C   0  0  0  0  0  0
  -16.5344  -29.9084   23.6331 C   0  0  0  0  0  0
  -16.7265  -28.6501   23.0352 C   0  0  0  0  0  0
  -26.4486  -31.6596   25.0737 C   0  0  0  0  0  0
  -25.3736  -31.3715   26.1475 C   0  0  0  0  0  0
  -27.0321  -30.3028   24.6154 C   0  0  0  0  0  0
  -27.6058  -32.4319   25.7499 C   0  0  0  0  0  0
  -27.5581  -37.1809   24.8463 C   0  0  0  0  0  0
  -21.4164  -29.3041   22.3713 N   0  0  0  0  0  0
  -26.4294  -37.3787   23.9408 N   0  0  0  0  0  0
  -24.6792  -31.0699   22.1010 N   0  0  0  0  0  0
  -23.4192  -28.8182   23.3027 O   0  0  0  0  0  0
  -28.3998  -26.6075   20.1245 O   0  0  0  0  0  0
  -26.5604  -34.8921   22.4681 O   0  0  0  0  0  0
  -23.5393  -32.1420   23.7442 O   0  0  0  0  0  0
  -28.5437  -17.5354   21.0123 C   0  0  0  0  0  0
  -30.8615  -17.7749   20.5919 C   0  0  0  0  0  0
  -29.7932  -16.9066   20.9050 C   0  0  0  0  0  0
  -29.4280  -19.5967   20.4935 C   0  0  0  0  0  0
  -29.8234  -21.6956   18.9755 C   0  0  0  0  0  0
  -29.2658  -23.1007   18.6119 C   0  0  0  0  0  0
  -28.7201  -23.5288   21.0228 C   0  0  0  0  0  0
  -29.1447  -21.1115   20.2307 C   0  0  2  0  0  0
  -29.3140  -22.1268   21.4035 C   0  0  2  0  0  0
  -29.3375  -24.1723   19.7440 C   0  0  2  0  0  0
  -28.7095  -21.6331   22.7307 C   0  0  0  0  0  0
  -31.1600  -25.3767   20.8377 C   0  0  0  0  0  0
  -28.6031  -25.4779   19.2240 C   0  0  0  0  0  0
  -28.3672  -18.8524   20.7934 N   0  0  0  0  0  0
  -30.6726  -19.1125   20.4124 N   0  0  0  0  0  0
  -29.8710  -15.4867   21.1509 N   0  0  0  0  0  0
  -30.7441  -24.3915   19.8976 O   0  0  0  0  0  0
  -31.4841  -12.4868   19.1220 H   0  0  0  0  0  0
  -30.3813  -11.3348   19.8229 H   0  0  0  0  0  0
  -29.7556  -11.7921   17.4375 H   0  0  0  0  0  0
  -29.6564  -13.5024   17.7647 H   0  0  0  0  0  0
  -27.8470  -11.3052   18.8227 H   0  0  0  0  0  0
  -27.3726  -12.6267   17.7899 H   0  0  0  0  0  0
  -27.7082  -14.2493   19.5793 H   0  0  0  0  0  0
  -28.7010  -11.9316   21.3108 H   0  0  0  0  0  0
  -28.4508  -13.5436   21.8912 H   0  0  0  0  0  0
  -25.2749   -9.5679   22.4762 H   0  0  0  0  0  0
  -23.9993   -7.4625   22.7471 H   0  0  0  0  0  0
  -21.0832   -8.8771   19.8953 H   0  0  0  0  0  0
  -22.3684  -10.9672   19.6169 H   0  0  0  0  0  0
  -21.2001   -7.6144   23.9715 H   0  0  0  0  0  0
  -21.1483   -6.0517   25.9079 H   0  0  0  0  0  0
  -22.0600   -2.7603   23.2845 H   0  0  0  0  0  0
  -22.4089  -11.9899   22.4795 H   0  0  0  0  0  0
  -21.1121  -13.1297   22.2596 H   0  0  0  0  0  0
  -24.6475  -15.8232   20.4663 H   0  0  0  0  0  0
  -26.2394  -15.5940   19.9512 H   0  0  0  0  0  0
  -26.7152  -32.5485   23.1141 H   0  0  0  0  0  0
  -25.0072  -33.9757   25.0458 H   0  0  0  0  0  0
  -22.7026  -31.3100   21.4134 H   0  0  0  0  0  0
  -23.3748  -35.9645   23.3305 H   0  0  0  0  0  0
  -24.3583  -36.8917   22.2052 H   0  0  0  0  0  0
  -23.7246  -37.6516   23.6651 H   0  0  0  0  0  0
  -26.0745  -31.5768   20.6063 H   0  0  0  0  0  0
  -26.8321  -30.8562   21.9976 H   0  0  0  0  0  0
  -28.1060  -29.0347   21.1666 H   0  0  0  0  0  0
  -25.9178  -25.9484   19.0388 H   0  0  0  0  0  0
  -23.9538  -27.3054   19.0512 H   0  0  0  0  0  0
  -23.7356  -30.6073   19.4089 H   0  0  0  0  0  0
  -22.7422  -29.2561   19.8646 H   0  0  0  0  0  0
  -25.1289  -36.1962   25.0828 H   0  0  0  0  0  0
  -20.9960  -28.3238   24.1427 H   0  0  0  0  0  0
  -20.5677  -26.2280   23.3601 H   0  0  0  0  0  0
  -21.6636  -26.7449   22.1202 H   0  0  0  0  0  0
  -19.6908  -25.6300   21.1237 H   0  0  0  0  0  0
  -19.6688  -27.3198   20.6745 H   0  0  0  0  0  0
  -17.4197  -26.6679   21.4019 H   0  0  0  0  0  0
  -18.0321  -26.0067   22.9013 H   0  0  0  0  0  0
  -19.7927  -30.7262   24.2278 H   0  0  0  0  0  0
  -17.5008  -31.6270   24.5157 H   0  0  0  0  0  0
  -15.5343  -30.2986   23.7656 H   0  0  0  0  0  0
  -15.8664  -28.0823   22.7064 H   0  0  0  0  0  0
  -24.5911  -30.7062   25.7807 H   0  0  0  0  0  0
  -24.8924  -32.2872   26.4921 H   0  0  0  0  0  0
  -25.8076  -30.8883   27.0237 H   0  0  0  0  0  0
  -26.2880  -29.6789   24.1188 H   0  0  0  0  0  0
  -27.4046  -29.7272   25.4640 H   0  0  0  0  0  0
  -27.8741  -30.4329   23.9350 H   0  0  0  0  0  0
  -27.2677  -33.3613   26.2096 H   0  0  0  0  0  0
  -28.3855  -32.6887   25.0316 H   0  0  0  0  0  0
  -28.0742  -31.8431   26.5397 H   0  0  0  0  0  0
  -28.2602  -38.0103   24.7504 H   0  0  0  0  0  0
  -28.1071  -36.2633   24.6292 H   0  0  0  0  0  0
  -27.2300  -37.1464   25.8867 H   0  0  0  0  0  0
  -20.9332  -29.8771   21.6936 H   0  0  0  0  0  0
  -26.0181  -38.2867   24.1398 H   0  0  0  0  0  0
  -27.6575  -16.9701   21.2614 H   0  0  0  0  0  0
  -31.8761  -17.4156   20.5075 H   0  0  0  0  0  0
  -30.9019  -21.7436   19.1299 H   0  0  0  0  0  0
  -29.6648  -21.0204   18.1344 H   0  0  0  0  0  0
  -28.2258  -22.9713   18.3078 H   0  0  0  0  0  0
  -29.7817  -23.4703   17.7249 H   0  0  0  0  0  0
  -28.8073  -24.2143   21.8650 H   0  0  0  0  0  0
  -27.6457  -23.4201   20.8665 H   0  0  0  0  0  0
  -28.0781  -21.1267   19.9982 H   0  0  0  0  0  0
  -30.3844  -22.2465   21.5768 H   0  0  0  0  0  0
  -27.6391  -21.4480   22.6350 H   0  0  0  0  0  0
  -28.8489  -22.3688   23.5236 H   0  0  0  0  0  0
  -29.1788  -20.7079   23.0664 H   0  0  0  0  0  0
  -32.2491  -25.3843   20.8802 H   0  0  0  0  0  0
  -30.8035  -25.1716   21.8461 H   0  0  0  0  0  0
  -30.8477  -26.3790   20.5478 H   0  0  0  0  0  0
  -27.6823  -25.1264   18.7790 H   0  0  0  0  0  0
  -29.1668  -25.8684   18.3761 H   0  0  0  0  0  0
  -29.0364  -15.0860   21.5553 H   0  0  0  0  0  0
  1 25  1  0  0  0
  1 30  2  0  0  0
  1 86  1  0  0  0
  2  3  1  0  0  0
  2 25  1  0  0  0
  2 88  1  0  0  0
  2 89  1  0  0  0
  3  4  1  0  0  0
  3 90  1  0  0  0
  3 91  1  0  0  0
  4  5  1  0  0  0
  4 92  1  0  0  0
  4 93  1  0  0  0
  5  6  1  0  0  0
  5 26  1  0  0  0
  5 94  1  0  0  0
  6 25  1  0  0  0
  6 95  1  0  0  0
  6 96  1  0  0  0
  7  8  2  0  0  0
  7 26  1  0  0  0
  7 29  1  0  0  0
  8  9  1  0  0  0
  8 22  1  0  0  0
  9 10  1  0  0  0
  9 27  2  0  0  0
 10 11  2  0  0  0
 10 15  1  0  0  0
 11 12  1  0  0  0
 11 97  1  0  0  0
 12 13  2  0  0  0
 12 98  1  0  0  0
 13 14  1  0  0  0
 13 31  1  0  0  0
 14 15  2  0  0  0
 14 99  1  0  0  0
 15100  1  0  0  0
 16 17  2  0  0  0
 16 21  1  0  0  0
 16 31  1  0  0  0
 17 18  1  0  0  0
 17101  1  0  0  0
 18 19  2  0  0  0
 18102  1  0  0  0
 19 20  1  0  0  0
 19 24  1  0  0  0
 20 21  2  0  0  0
 20103  1  0  0  0
 21 23  1  0  0  0
 22 28  1  0  0  0
 22 32  2  0  0  0
 26 27  1  0  0  0
 28104  1  0  0  0
 28105  1  0  0  0
 29106  1  0  0  0
 29107  1  0  0  0
 33 34  1  0  0  0
 33 66  1  0  0  0
 33 70  2  0  0  0
 34 36  1  0  0  0
 34 59  1  0  0  0
 34108  1  0  0  0
 35 44  2  0  0  0
 35 45  1  0  0  0
 35 68  1  0  0  0
 36 56  1  0  0  0
 36109  1  0  0  0
 37 39  1  0  0  0
 37 47  1  0  0  0
 37 66  1  0  0  0
 37110  1  0  0  0
 38 43  2  0  0  0
 38 46  1  0  0  0
 38 47  1  0  0  0
 39 64  1  0  0  0
 39 67  2  0  0  0
 40 52  1  0  0  0
 40 53  2  0  0  0
 40 58  1  0  0  0
 41111  1  0  0  0
 41112  1  0  0  0
 41113  1  0  0  0
 41 48  1  0  0  0
 42 43  1  0  0  0
 42 66  1  0  0  0
 42114  1  0  0  0
 42115  1  0  0  0
 43 44  1  0  0  0
 44116  1  0  0  0
 45 46  2  0  0  0
 45117  1  0  0  0
 46118  1  0  0  0
 47119  1  0  0  0
 47120  1  0  0  0
 48 56  1  0  0  0
 48 65  1  0  0  0
 48121  1  0  0  0
 49 50  1  0  0  0
 49 53  1  0  0  0
 49 64  1  0  0  0
 49122  1  0  0  0
 50 51  1  0  0  0
 50123  1  0  0  0
 50124  1  0  0  0
 51 52  1  0  0  0
 51125  1  0  0  0
 51126  1  0  0  0
 52127  1  0  0  0
 52128  1  0  0  0
 53 54  1  0  0  0
 54 55  2  0  0  0
 54129  1  0  0  0
 55 57  1  0  0  0
 55130  1  0  0  0
 56 69  2  0  0  0
 57 58  2  0  0  0
 57131  1  0  0  0
 58132  1  0  0  0
 59 60  1  0  0  0
 59 61  1  0  0  0
 59 62  1  0  0  0
 60133  1  0  0  0
 60134  1  0  0  0
 60135  1  0  0  0
 61136  1  0  0  0
 61137  1  0  0  0
 61138  1  0  0  0
 62139  1  0  0  0
 62140  1  0  0  0
 62141  1  0  0  0
 63 65  1  0  0  0
 63142  1  0  0  0
 63143  1  0  0  0
 63144  1  0  0  0
 64145  1  0  0  0
 65146  1  0  0  0
 68 83  1  0  0  0
 71 73  2  0  0  0
 71 84  1  0  0  0
 71147  1  0  0  0
 72 73  1  0  0  0
 72 85  2  0  0  0
 72148  1  0  0  0
 73 86  1  0  0  0
 74 84  2  0  0  0
 74 85  1  0  0  0
 74 78  1  0  0  0
 75 76  1  0  0  0
 75 78  1  0  0  0
 75149  1  0  0  0
 75150  1  0  0  0
 76 80  1  0  0  0
 76151  1  0  0  0
 76152  1  0  0  0
 77 79  1  0  0  0
 77 80  1  0  0  0
 77153  1  0  0  0
 77154  1  0  0  0
 78 79  1  0  0  0
 78155  1  0  0  0
 79 81  1  0  0  0
 79156  1  0  0  0
 80 83  1  0  0  0
 80 87  1  0  0  0
 81157  1  0  0  0
 81158  1  0  0  0
 81159  1  0  0  0
 82 87  1  0  0  0
 82160  1  0  0  0
 82161  1  0  0  0
 82162  1  0  0  0
 83163  1  0  0  0
 83164  1  0  0  0
 86165  1  0  0  0
M  ISO  4   1 100  68 101  83 101  86 100
M  END
> <chiral flag>
0

> <version>
0

> <s_m_source_file>
/data/baiqing/PycharmProjects/Reinvent-master-3.2/result/LINK_invent/BTK/process_docking_weight1_custom_product_contain_oxygen_bond_distance_aromatic_linkinvent_7_9_3/rearranged_h_0163.sdf

> <i_m_source_file_index>
2

> <r_mmod_Potential_Energy-OPLS-2005>
-368.596618652344

> <r_mmod_Stretch_Energy-OPLS-2005>
56.7467346191406

> <r_mmod_Bend_Energy-OPLS-2005>
152.910873413086

> <r_mmod_Torsional_Energy-OPLS-2005>
223.01203918457

> <r_mmod_Improper_Torsional_Energy-OPLS-2005>
5.10891819000244

> <r_mmod_Van_der_Waal_Energy-OPLS-2005>
161.713088989258

> <r_mmod_Electrostatic_Energy-OPLS-2005>
-767.793090820312

> <r_mmod_Solvation_Energy-OPLS-2005>
-224.304763793945

> <b_mmod_Minimization_Converged-OPLS-2005>
0

> <r_mmod_RMS_Derivative-OPLS-2005>
0.539640605449677

$$$$
2
                    3D
 Structure written by MMmdl.
165174  0  0  1  0            999 V2000
  -30.5842  -14.7606   20.4578 C   0  0  0  0  0  0
  -30.4411  -12.4723   19.4504 C   0  0  0  0  0  0
  -29.5049  -12.5014   18.2225 C   0  0  0  0  0  0
  -28.0333  -12.3160   18.6474 C   0  0  0  0  0  0
  -27.6356  -13.2232   19.8409 C   0  0  2  0  0  0
  -28.6869  -13.1699   20.9690 C   0  0  0  0  0  0
  -25.2500  -13.8164   20.5720 C   0  0  0  0  0  0
  -24.1782  -13.0424   20.9216 C   0  0  0  0  0  0
  -24.6361  -11.6907   20.8739 C   0  0  0  0  0  0
  -23.9035  -10.4287   21.0392 C   0  0  0  0  0  0
  -24.3594   -9.4207   21.9163 C   0  0  0  0  0  0
  -23.6278   -8.2244   22.0739 C   0  0  0  0  0  0
  -22.4257   -8.0279   21.3530 C   0  0  0  0  0  0
  -21.9879   -9.0248   20.4628 C   0  0  0  0  0  0
  -22.7210  -10.2121   20.3044 C   0  0  0  0  0  0
  -21.6857   -6.0720   22.5260 C   0  0  0  0  0  0
  -21.4015   -6.5612   23.8196 C   0  0  0  0  0  0
  -21.3674   -5.6767   24.9160 C   0  0  0  0  0  0
  -21.6052   -4.3031   24.7212 C   0  0  0  0  0  0
  -21.8826   -3.8121   23.4331 C   0  0  0  0  0  0
  -21.9193   -4.6943   22.3386 C   0  0  0  0  0  0
  -22.7815  -13.5232   21.1874 C   0  0  0  0  0  0
  -22.1667   -4.2131   21.0970 F   0  0  0  0  0  0
  -21.5640   -3.4524   25.7728 F   0  0  0  0  0  0
  -29.9783  -13.5310   20.3687 N   0  0  0  0  0  0
  -26.2911  -12.9347   20.3261 N   0  0  0  0  0  0
  -25.9276  -11.6501   20.5729 N   0  0  0  0  0  0
  -22.0461  -12.8228   22.0428 N   0  0  0  0  0  0
  -25.4160  -15.1898   20.4185 N   0  0  0  0  0  0
  -31.8007  -14.8751   20.2864 O   0  0  0  0  0  0
  -21.6633   -6.8865   21.4225 O   0  0  0  0  0  0
  -22.3510  -14.5556   20.6733 O   0  0  0  0  0  0
  -24.6338  -31.8568   23.1991 C   0  0  0  0  0  0
  -25.9162  -32.4772   23.8337 C   0  0  1  0  0  0
  -27.2122  -27.2482   20.1207 C   0  0  0  0  0  0
  -25.5960  -33.8573   24.2265 N   0  0  0  0  0  0
  -23.4303  -30.4831   21.5426 C   0  0  2  0  0  0
  -24.8774  -28.9329   20.1100 C   0  0  0  0  0  0
  -22.7526  -29.4622   22.4898 C   0  0  0  0  0  0
  -18.0303  -28.1440   22.8490 C   0  0  0  0  0  0
  -24.1478  -36.7264   23.2632 C   0  0  0  0  0  0
  -25.9796  -30.7684   21.3797 C   0  0  0  0  0  0
  -26.0527  -29.3893   20.7206 C   0  0  0  0  0  0
  -27.2246  -28.5600   20.7137 C   0  0  0  0  0  0
  -26.0097  -26.8734   19.4755 C   0  0  0  0  0  0
  -24.8627  -27.6856   19.4756 C   0  0  0  0  0  0
  -23.6510  -29.8239   20.1573 C   0  0  0  0  0  0
  -25.4113  -36.3068   24.0315 C   0  0  1  0  0  0
  -20.5915  -28.3740   23.1270 C   0  0  2  0  0  0
  -20.6785  -26.9456   22.5421 C   0  0  0  0  0  0
  -19.5747  -26.6417   21.5231 C   0  0  0  0  0  0
  -18.1927  -26.7983   22.1638 C   0  0  0  0  0  0
  -19.1563  -28.8906   23.2877 C   0  0  0  0  0  0
  -18.9485  -30.1497   23.8909 C   0  0  0  0  0  0
  -17.6480  -30.6620   24.0581 C   0  0  0  0  0  0
  -25.9057  -34.9445   23.5086 C   0  0  0  0  0  0
  -16.5374  -29.9124   23.6338 C   0  0  0  0  0  0
  -16.7287  -28.6555   23.0345 C   0  0  0  0  0  0
  -26.4521  -31.6601   25.0731 C   0  0  0  0  0  0
  -25.3733  -31.3800   26.1458 C   0  0  0  0  0  0
  -27.0360  -30.3010   24.6232 C   0  0  0  0  0  0
  -27.6072  -32.4336   25.7504 C   0  0  0  0  0  0
  -27.5569  -37.1793   24.8462 C   0  0  0  0  0  0
  -21.4236  -29.3079   22.3651 N   0  0  0  0  0  0
  -26.4274  -37.3778   23.9419 N   0  0  0  0  0  0
  -24.7007  -31.0537   22.0970 N   0  0  0  0  0  0
  -23.4228  -28.8137   23.2972 O   0  0  0  0  0  0
  -28.2832  -26.3172   20.1778 O   0  0  0  0  0  0
  -26.5618  -34.8913   22.4646 O   0  0  0  0  0  0
  -23.5481  -32.1403   23.7271 O   0  0  0  0  0  0
  -29.6653  -18.5021   20.3265 C   0  0  0  0  0  0
  -29.5900  -17.2144   22.3608 C   0  0  0  0  0  0
  -29.7507  -17.1971   20.9678 C   0  0  0  0  0  0
  -29.4050  -19.7311   21.0708 C   0  0  0  0  0  0
  -29.2139  -19.5342   22.4760 C   0  0  0  0  0  0
  -29.0069  -23.6960   20.2821 C   0  0  0  0  0  0
  -28.5162  -22.1413   20.5249 C   0  0  0  0  0  0
  -27.7217  -21.7228   26.0291 C   0  0  0  0  0  0
  -29.2036  -21.8833   25.6488 C   0  0  0  0  0  0
  -26.8390  -21.6274   24.7760 C   0  0  0  0  0  0
  -29.6817  -20.7445   24.7218 C   0  0  0  0  0  0
  -27.3101  -20.4922   23.8537 C   0  0  0  0  0  0
  -28.7963  -20.6425   23.4587 C   0  0  0  0  0  0
  -27.9154  -24.8508   20.0715 C   0  0  0  0  0  0
  -29.3104  -18.3224   23.0715 N   0  0  0  0  0  0
  -29.4481  -21.1099   20.4867 N   0  0  0  0  0  0
  -29.7560  -15.8635   20.3204 N   0  0  0  0  0  0
  -30.2120  -23.9774   20.2677 O   0  0  0  0  0  0
  -27.3270  -21.9011   20.7439 O   0  0  0  0  0  0
  -31.4769  -12.6244   19.1420 H   0  0  0  0  0  0
  -30.4089  -11.5012   19.9453 H   0  0  0  0  0  0
  -29.7861  -11.7235   17.5118 H   0  0  0  0  0  0
  -29.6173  -13.4517   17.6982 H   0  0  0  0  0  0
  -27.9018  -11.2703   18.9259 H   0  0  0  0  0  0
  -27.3692  -12.4909   17.8002 H   0  0  0  0  0  0
  -27.6188  -14.2385   19.4467 H   0  0  0  0  0  0
  -28.7346  -12.1745   21.4131 H   0  0  0  0  0  0
  -28.4255  -13.8583   21.7751 H   0  0  0  0  0  0
  -25.2725   -9.5696   22.4756 H   0  0  0  0  0  0
  -23.9984   -7.4631   22.7463 H   0  0  0  0  0  0
  -21.0804   -8.8757   19.8943 H   0  0  0  0  0  0
  -22.3643  -10.9658   19.6178 H   0  0  0  0  0  0
  -21.1998   -7.6117   23.9691 H   0  0  0  0  0  0
  -21.1501   -6.0494   25.9063 H   0  0  0  0  0  0
  -22.0591   -2.7585   23.2829 H   0  0  0  0  0  0
  -22.4035  -11.9875   22.4818 H   0  0  0  0  0  0
  -21.1093  -13.1272   22.2666 H   0  0  0  0  0  0
  -24.6427  -15.8345   20.5348 H   0  0  0  0  0  0
  -26.2618  -15.6455   20.1045 H   0  0  0  0  0  0
  -26.7233  -32.5443   23.1079 H   0  0  0  0  0  0
  -25.0157  -33.9713   25.0447 H   0  0  0  0  0  0
  -22.7261  -31.3061   21.3989 H   0  0  0  0  0  0
  -23.3747  -35.9583   23.3284 H   0  0  0  0  0  0
  -24.3561  -36.8902   22.2047 H   0  0  0  0  0  0
  -23.7219  -37.6452   23.6673 H   0  0  0  0  0  0
  -26.1158  -31.5295   20.6095 H   0  0  0  0  0  0
  -26.8576  -30.8220   22.0122 H   0  0  0  0  0  0
  -28.1243  -28.9014   21.2063 H   0  0  0  0  0  0
  -25.9094  -25.9262   18.9683 H   0  0  0  0  0  0
  -23.9635  -27.3373   18.9868 H   0  0  0  0  0  0
  -23.7862  -30.6024   19.4052 H   0  0  0  0  0  0
  -22.7674  -29.2661   19.8415 H   0  0  0  0  0  0
  -25.1288  -36.1890   25.0801 H   0  0  0  0  0  0
  -21.0024  -28.3344   24.1382 H   0  0  0  0  0  0
  -20.5715  -26.2356   23.3632 H   0  0  0  0  0  0
  -21.6649  -26.7494   22.1199 H   0  0  0  0  0  0
  -19.6891  -25.6323   21.1257 H   0  0  0  0  0  0
  -19.6661  -27.3231   20.6758 H   0  0  0  0  0  0
  -17.4197  -26.6756   21.4033 H   0  0  0  0  0  0
  -18.0301  -26.0141   22.9048 H   0  0  0  0  0  0
  -19.7961  -30.7325   24.2281 H   0  0  0  0  0  0
  -17.5035  -31.6288   24.5207 H   0  0  0  0  0  0
  -15.5381  -30.3024   23.7668 H   0  0  0  0  0  0
  -15.8688  -28.0872   22.7045 H   0  0  0  0  0  0
  -24.5881  -30.7173   25.7812 H   0  0  0  0  0  0
  -24.8969  -32.3003   26.4852 H   0  0  0  0  0  0
  -25.8045  -30.9005   27.0257 H   0  0  0  0  0  0
  -26.2962  -29.6766   24.1229 H   0  0  0  0  0  0
  -27.4008  -29.7275   25.4761 H   0  0  0  0  0  0
  -27.8840  -30.4269   23.9497 H   0  0  0  0  0  0
  -27.2693  -33.3659   26.2042 H   0  0  0  0  0  0
  -28.3915  -32.6872   25.0356 H   0  0  0  0  0  0
  -28.0705  -31.8492   26.5465 H   0  0  0  0  0  0
  -28.2590  -38.0087   24.7514 H   0  0  0  0  0  0
  -28.1056  -36.2623   24.6270 H   0  0  0  0  0  0
  -27.2288  -37.1426   25.8863 H   0  0  0  0  0  0
  -20.9435  -29.8817   21.6855 H   0  0  0  0  0  0
  -26.0130  -38.2828   24.1472 H   0  0  0  0  0  0
  -29.7772  -18.5576   19.2534 H   0  0  0  0  0  0
  -29.5944  -16.2920   22.9226 H   0  0  0  0  0  0
  -27.3984  -22.5647   26.6440 H   0  0  0  0  0  0
  -27.5935  -20.8303   26.6439 H   0  0  0  0  0  0
  -29.8122  -21.9098   26.5541 H   0  0  0  0  0  0
  -29.3465  -22.8479   25.1577 H   0  0  0  0  0  0
  -26.8595  -22.5745   24.2346 H   0  0  0  0  0  0
  -25.8007  -21.4616   25.0673 H   0  0  0  0  0  0
  -29.6645  -19.8031   25.2715 H   0  0  0  0  0  0
  -30.7199  -20.9170   24.4359 H   0  0  0  0  0  0
  -26.6886  -20.4705   22.9580 H   0  0  0  0  0  0
  -27.1590  -19.5348   24.3537 H   0  0  0  0  0  0
  -28.9192  -21.6089   22.9879 H   0  0  0  0  0  0
  -27.0994  -24.6510   20.7682 H   0  0  0  0  0  0
  -27.5224  -24.6723   19.0710 H   0  0  0  0  0  0
  -30.3439  -21.3967   20.1121 H   0  0  0  0  0  0
  -28.8397  -15.5824   20.0056 H   0  0  0  0  0  0
  1 25  1  0  0  0
  1 30  2  0  0  0
  1 87  1  0  0  0
  2  3  1  0  0  0
  2 25  1  0  0  0
  2 90  1  0  0  0
  2 91  1  0  0  0
  3  4  1  0  0  0
  3 92  1  0  0  0
  3 93  1  0  0  0
  4  5  1  0  0  0
  4 94  1  0  0  0
  4 95  1  0  0  0
  5  6  1  0  0  0
  5 26  1  0  0  0
  5 96  1  0  0  0
  6 25  1  0  0  0
  6 97  1  0  0  0
  6 98  1  0  0  0
  7  8  2  0  0  0
  7 26  1  0  0  0
  7 29  1  0  0  0
  8  9  1  0  0  0
  8 22  1  0  0  0
  9 10  1  0  0  0
  9 27  2  0  0  0
 10 11  2  0  0  0
 10 15  1  0  0  0
 11 12  1  0  0  0
 11 99  1  0  0  0
 12 13  2  0  0  0
 12100  1  0  0  0
 13 14  1  0  0  0
 13 31  1  0  0  0
 14 15  2  0  0  0
 14101  1  0  0  0
 15102  1  0  0  0
 16 17  2  0  0  0
 16 21  1  0  0  0
 16 31  1  0  0  0
 17 18  1  0  0  0
 17103  1  0  0  0
 18 19  2  0  0  0
 18104  1  0  0  0
 19 20  1  0  0  0
 19 24  1  0  0  0
 20 21  2  0  0  0
 20105  1  0  0  0
 21 23  1  0  0  0
 22 28  1  0  0  0
 22 32  2  0  0  0
 26 27  1  0  0  0
 28106  1  0  0  0
 28107  1  0  0  0
 29108  1  0  0  0
 29109  1  0  0  0
 33 34  1  0  0  0
 33 66  1  0  0  0
 33 70  2  0  0  0
 34 36  1  0  0  0
 34 59  1  0  0  0
 34110  1  0  0  0
 35 44  2  0  0  0
 35 45  1  0  0  0
 35 68  1  0  0  0
 36 56  1  0  0  0
 36111  1  0  0  0
 37 39  1  0  0  0
 37 47  1  0  0  0
 37 66  1  0  0  0
 37112  1  0  0  0
 38 43  2  0  0  0
 38 46  1  0  0  0
 38 47  1  0  0  0
 39 64  1  0  0  0
 39 67  2  0  0  0
 40 52  1  0  0  0
 40 53  2  0  0  0
 40 58  1  0  0  0
 41113  1  0  0  0
 41114  1  0  0  0
 41115  1  0  0  0
 41 48  1  0  0  0
 42 43  1  0  0  0
 42 66  1  0  0  0
 42116  1  0  0  0
 42117  1  0  0  0
 43 44  1  0  0  0
 44118  1  0  0  0
 45 46  2  0  0  0
 45119  1  0  0  0
 46120  1  0  0  0
 47121  1  0  0  0
 47122  1  0  0  0
 48 56  1  0  0  0
 48 65  1  0  0  0
 48123  1  0  0  0
 49 50  1  0  0  0
 49 53  1  0  0  0
 49 64  1  0  0  0
 49124  1  0  0  0
 50 51  1  0  0  0
 50125  1  0  0  0
 50126  1  0  0  0
 51 52  1  0  0  0
 51127  1  0  0  0
 51128  1  0  0  0
 52129  1  0  0  0
 52130  1  0  0  0
 53 54  1  0  0  0
 54 55  2  0  0  0
 54131  1  0  0  0
 55 57  1  0  0  0
 55132  1  0  0  0
 56 69  2  0  0  0
 57 58  2  0  0  0
 57133  1  0  0  0
 58134  1  0  0  0
 59 60  1  0  0  0
 59 61  1  0  0  0
 59 62  1  0  0  0
 60135  1  0  0  0
 60136  1  0  0  0
 60137  1  0  0  0
 61138  1  0  0  0
 61139  1  0  0  0
 61140  1  0  0  0
 62141  1  0  0  0
 62142  1  0  0  0
 62143  1  0  0  0
 63 65  1  0  0  0
 63144  1  0  0  0
 63145  1  0  0  0
 63146  1  0  0  0
 64147  1  0  0  0
 65148  1  0  0  0
 68 84  1  0  0  0
 71 73  2  0  0  0
 71 74  1  0  0  0
 71149  1  0  0  0
 72 73  1  0  0  0
 72 85  2  0  0  0
 72150  1  0  0  0
 73 87  1  0  0  0
 74 75  2  0  0  0
 74 86  1  0  0  0
 75 85  1  0  0  0
 75 83  1  0  0  0
 76 77  1  0  0  0
 76 84  1  0  0  0
 76 88  2  0  0  0
 77 86  1  0  0  0
 77 89  2  0  0  0
 78 79  1  0  0  0
 78 80  1  0  0  0
 78151  1  0  0  0
 78152  1  0  0  0
 79 81  1  0  0  0
 79153  1  0  0  0
 79154  1  0  0  0
 80 82  1  0  0  0
 80155  1  0  0  0
 80156  1  0  0  0
 81 83  1  0  0  0
 81157  1  0  0  0
 81158  1  0  0  0
 82 83  1  0  0  0
 82159  1  0  0  0
 82160  1  0  0  0
 83161  1  0  0  0
 84162  1  0  0  0
 84163  1  0  0  0
 86164  1  0  0  0
 87165  1  0  0  0
M  ISO  4   1 100  68 101  84 101  87 100
M  END
> <chiral flag>
0

> <version>
0

> <s_m_source_file>
/data/baiqing/PycharmProjects/Reinvent-master-3.2/result/LINK_invent/BTK/process_docking_weight1_custom_product_contain_oxygen_bond_distance_aromatic_linkinvent_7_9_3/rearranged_h_0163.sdf

> <i_m_source_file_index>
3

> <r_mmod_Potential_Energy-OPLS-2005>
184.246398925781

> <r_mmod_Stretch_Energy-OPLS-2005>
136.118148803711

> <r_mmod_Bend_Energy-OPLS-2005>
170.880661010742

> <r_mmod_Torsional_Energy-OPLS-2005>
306.939422607422

> <r_mmod_Improper_Torsional_Energy-OPLS-2005>
15.2020883560181

> <r_mmod_Van_der_Waal_Energy-OPLS-2005>
142.110885620117

> <r_mmod_Electrostatic_Energy-OPLS-2005>
-444.575561523438

> <r_mmod_Solvation_Energy-OPLS-2005>
-244.555862426758

> <b_mmod_Minimization_Converged-OPLS-2005>
0

> <r_mmod_RMS_Derivative-OPLS-2005>
2.95036816596985

$$$$
3
                    3D
 Structure written by MMmdl.
160168  0  0  1  0            999 V2000
  -30.6178  -14.7296   20.4563 C   0  0  0  0  0  0
  -30.4353  -12.4425   19.4888 C   0  0  0  0  0  0
  -29.5218  -12.5150   18.2457 C   0  0  0  0  0  0
  -28.0448  -12.3458   18.6467 C   0  0  0  0  0  0
  -27.6491  -13.2348   19.8579 C   0  0  2  0  0  0
  -28.6908  -13.1569   20.9978 C   0  0  0  0  0  0
  -25.2545  -13.8197   20.5718 C   0  0  0  0  0  0
  -24.1825  -13.0447   20.9193 C   0  0  0  0  0  0
  -24.6404  -11.6922   20.8714 C   0  0  0  0  0  0
  -23.9077  -10.4293   21.0381 C   0  0  0  0  0  0
  -24.3621   -9.4210   21.9156 C   0  0  0  0  0  0
  -23.6292   -8.2244   22.0739 C   0  0  0  0  0  0
  -22.4268   -8.0277   21.3546 C   0  0  0  0  0  0
  -21.9897   -9.0253   20.4646 C   0  0  0  0  0  0
  -22.7240  -10.2125   20.3045 C   0  0  0  0  0  0
  -21.6855   -6.0727   22.5271 C   0  0  0  0  0  0
  -21.4026   -6.5631   23.8210 C   0  0  0  0  0  0
  -21.3660   -5.6782   24.9167 C   0  0  0  0  0  0
  -21.6046   -4.3045   24.7223 C   0  0  0  0  0  0
  -21.8824   -3.8140   23.4341 C   0  0  0  0  0  0
  -21.9204   -4.6951   22.3399 C   0  0  0  0  0  0
  -22.7849  -13.5235   21.1851 C   0  0  0  0  0  0
  -22.1670   -4.2145   21.0978 F   0  0  0  0  0  0
  -21.5618   -3.4532   25.7728 F   0  0  0  0  0  0
  -29.9983  -13.5014   20.4287 N   0  0  0  0  0  0
  -26.2973  -12.9402   20.3291 N   0  0  0  0  0  0
  -25.9340  -11.6535   20.5721 N   0  0  0  0  0  0
  -22.0490  -12.8226   22.0398 N   0  0  0  0  0  0
  -25.4244  -15.1930   20.4189 N   0  0  0  0  0  0
  -31.7940  -14.8242   20.0920 O   0  0  0  0  0  0
  -21.6643   -6.8861   21.4228 O   0  0  0  0  0  0
  -22.3544  -14.5551   20.6720 O   0  0  0  0  0  0
  -24.6310  -31.8575   23.2013 C   0  0  0  0  0  0
  -25.9145  -32.4768   23.8351 C   0  0  1  0  0  0
  -27.2082  -27.2676   20.1166 C   0  0  0  0  0  0
  -25.5948  -33.8566   24.2269 N   0  0  0  0  0  0
  -23.4274  -30.4834   21.5450 C   0  0  2  0  0  0
  -24.8727  -28.9424   20.1064 C   0  0  0  0  0  0
  -22.7520  -29.4588   22.4899 C   0  0  0  0  0  0
  -18.0300  -28.1397   22.8476 C   0  0  0  0  0  0
  -24.1497  -36.7297   23.2626 C   0  0  0  0  0  0
  -25.9747  -30.7743   21.3802 C   0  0  0  0  0  0
  -26.0472  -29.3984   20.7187 C   0  0  0  0  0  0
  -27.2187  -28.5734   20.7159 C   0  0  0  0  0  0
  -26.0116  -26.8931   19.4595 C   0  0  0  0  0  0
  -24.8607  -27.6981   19.4655 C   0  0  0  0  0  0
  -23.6461  -29.8302   20.1565 C   0  0  0  0  0  0
  -25.4117  -36.3073   24.0315 C   0  0  1  0  0  0
  -20.5903  -28.3691   23.1284 C   0  0  2  0  0  0
  -20.6781  -26.9406   22.5417 C   0  0  0  0  0  0
  -19.5755  -26.6381   21.5222 C   0  0  0  0  0  0
  -18.1936  -26.7934   22.1628 C   0  0  0  0  0  0
  -19.1552  -28.8866   23.2872 C   0  0  0  0  0  0
  -18.9462  -30.1464   23.8892 C   0  0  0  0  0  0
  -17.6456  -30.6580   24.0570 C   0  0  0  0  0  0
  -25.9061  -34.9442   23.5096 C   0  0  0  0  0  0
  -16.5353  -29.9080   23.6318 C   0  0  0  0  0  0
  -16.7281  -28.6510   23.0320 C   0  0  0  0  0  0
  -26.4511  -31.6579   25.0728 C   0  0  0  0  0  0
  -25.3736  -31.3751   26.1459 C   0  0  0  0  0  0
  -27.0321  -30.2981   24.6200 C   0  0  0  0  0  0
  -27.6071  -32.4297   25.7506 C   0  0  0  0  0  0
  -27.5591  -37.1795   24.8442 C   0  0  0  0  0  0
  -21.4222  -29.3040   22.3678 N   0  0  0  0  0  0
  -26.4285  -37.3774   23.9418 N   0  0  0  0  0  0
  -24.6967  -31.0548   22.0985 N   0  0  0  0  0  0
  -23.4239  -28.8094   23.2953 O   0  0  0  0  0  0
  -28.2797  -26.3443   20.1919 O   0  0  0  0  0  0
  -26.5615  -34.8911   22.4656 O   0  0  0  0  0  0
  -23.5460  -32.1386   23.7313 O   0  0  0  0  0  0
  -30.4719  -17.3124   18.8039 C   0  0  0  0  0  0
  -29.6000  -18.4956   20.7192 C   0  0  0  0  0  0
  -30.6273  -18.5408   18.1253 C   0  0  0  0  0  0
  -30.2855  -19.7842   18.7426 C   0  0  0  0  0  0
  -29.9956  -17.2273   20.1246 C   0  0  0  0  0  0
  -29.7150  -19.7920   20.0526 C   0  0  0  0  0  0
  -31.1833  -18.4319   16.7720 C   0  0  0  0  0  0
  -28.9320  -23.7316   20.4052 C   0  0  0  0  0  0
  -30.6210  -21.1047   18.0354 C   0  0  0  0  0  0
  -28.5571  -22.1966   20.1184 C   0  0  0  0  0  0
  -27.9562  -24.8996   19.9147 C   0  0  0  0  0  0
  -32.2810  -17.7059   16.5585 N   0  0  0  0  0  0
  -29.8706  -15.8697   20.7268 N   0  0  0  0  0  0
  -29.3796  -21.0512   20.6977 N   0  0  0  0  0  0
  -30.5975  -19.0162   15.7316 N   0  3  0  0  0  0
  -29.9762  -24.0024   21.0078 O   0  0  0  0  0  0
  -31.4801  -12.5514   19.1934 H   0  0  0  0  0  0
  -30.3676  -11.4638   19.9644 H   0  0  0  0  0  0
  -29.8035  -11.7483   17.5227 H   0  0  0  0  0  0
  -29.6599  -13.4734   17.7434 H   0  0  0  0  0  0
  -27.8895  -11.2947   18.8904 H   0  0  0  0  0  0
  -27.3993  -12.5597   17.7945 H   0  0  0  0  0  0
  -27.6467  -14.2604   19.4873 H   0  0  0  0  0  0
  -28.7168  -12.1553   21.4281 H   0  0  0  0  0  0
  -28.4275  -13.8321   21.8127 H   0  0  0  0  0  0
  -25.2763   -9.5693   22.4736 H   0  0  0  0  0  0
  -24.0002   -7.4634   22.7465 H   0  0  0  0  0  0
  -21.0824   -8.8791   19.8955 H   0  0  0  0  0  0
  -22.3696  -10.9664   19.6172 H   0  0  0  0  0  0
  -21.2017   -7.6138   23.9717 H   0  0  0  0  0  0
  -21.1479   -6.0506   25.9074 H   0  0  0  0  0  0
  -22.0602   -2.7600   23.2857 H   0  0  0  0  0  0
  -22.4109  -11.9902   22.4805 H   0  0  0  0  0  0
  -21.1118  -13.1261   22.2600 H   0  0  0  0  0  0
  -24.6572  -15.8446   20.5373 H   0  0  0  0  0  0
  -26.2721  -15.6341   20.0843 H   0  0  0  0  0  0
  -26.7215  -32.5427   23.1092 H   0  0  0  0  0  0
  -25.0107  -33.9713   25.0424 H   0  0  0  0  0  0
  -22.7222  -31.3043   21.4046 H   0  0  0  0  0  0
  -23.3758  -35.9629   23.3251 H   0  0  0  0  0  0
  -24.3598  -36.8960   22.2047 H   0  0  0  0  0  0
  -23.7247  -37.6487   23.6675 H   0  0  0  0  0  0
  -26.1122  -31.5376   20.6124 H   0  0  0  0  0  0
  -26.8540  -30.8240   22.0108 H   0  0  0  0  0  0
  -28.1146  -28.9135   21.2161 H   0  0  0  0  0  0
  -25.9199  -25.9514   18.9410 H   0  0  0  0  0  0
  -23.9630  -27.3529   18.9708 H   0  0  0  0  0  0
  -23.7797  -30.6144   19.4099 H   0  0  0  0  0  0
  -22.7638  -29.2716   19.8410 H   0  0  0  0  0  0
  -25.1292  -36.1910   25.0802 H   0  0  0  0  0  0
  -20.9987  -28.3255   24.1407 H   0  0  0  0  0  0
  -20.5688  -26.2284   23.3609 H   0  0  0  0  0  0
  -21.6646  -26.7427   22.1206 H   0  0  0  0  0  0
  -19.6906  -25.6293   21.1243 H   0  0  0  0  0  0
  -19.6692  -27.3199   20.6761 H   0  0  0  0  0  0
  -17.4196  -26.6667   21.4039 H   0  0  0  0  0  0
  -18.0336  -26.0098   22.9048 H   0  0  0  0  0  0
  -19.7932  -30.7293   24.2254 H   0  0  0  0  0  0
  -17.4999  -31.6255   24.5183 H   0  0  0  0  0  0
  -15.5349  -30.2972   23.7650 H   0  0  0  0  0  0
  -15.8682  -28.0840   22.7003 H   0  0  0  0  0  0
  -24.5865  -30.7157   25.7789 H   0  0  0  0  0  0
  -24.8995  -32.2943   26.4909 H   0  0  0  0  0  0
  -25.8047  -30.8888   27.0216 H   0  0  0  0  0  0
  -26.2886  -29.6751   24.1211 H   0  0  0  0  0  0
  -27.3981  -29.7223   25.4709 H   0  0  0  0  0  0
  -27.8787  -30.4233   23.9443 H   0  0  0  0  0  0
  -27.2687  -33.3591   26.2094 H   0  0  0  0  0  0
  -28.3890  -32.6858   25.0344 H   0  0  0  0  0  0
  -28.0728  -31.8409   26.5416 H   0  0  0  0  0  0
  -28.2551  -38.0148   24.7558 H   0  0  0  0  0  0
  -28.1148  -36.2682   24.6173 H   0  0  0  0  0  0
  -27.2325  -37.1325   25.8846 H   0  0  0  0  0  0
  -20.9394  -29.8817   21.6940 H   0  0  0  0  0  0
  -26.0154  -38.2838   24.1465 H   0  0  0  0  0  0
  -30.7247  -16.4034   18.2775 H   0  0  0  0  0  0
  -29.2084  -18.4767   21.7255 H   0  0  0  0  0  0
  -31.5296  -21.0320   17.4396 H   0  0  0  0  0  0
  -30.8229  -21.9108   18.7390 H   0  0  0  0  0  0
  -29.8080  -21.4153   17.3789 H   0  0  0  0  0  0
  -28.4361  -22.0721   19.0451 H   0  0  0  0  0  0
  -27.5494  -22.0716   20.5165 H   0  0  0  0  0  0
  -26.9877  -24.6695   20.3611 H   0  0  0  0  0  0
  -27.8344  -24.7841   18.8371 H   0  0  0  0  0  0
  -32.7439  -17.2781   17.3482 H   0  0  0  0  0  0
  -32.6756  -17.5550   15.6432 H   0  0  0  0  0  0
  -29.0172  -15.7029   21.2387 H   0  0  0  0  0  0
  -29.3634  -21.0331   21.7138 H   0  0  0  0  0  0
  -29.7209  -19.4969   15.8675 H   0  0  0  0  0  0
  -30.9663  -18.9474   14.7962 H   0  0  0  0  0  0
  1 25  1  0  0  0
  1 30  2  0  0  0
  1 83  1  0  0  0
  2  3  1  0  0  0
  2 25  1  0  0  0
  2 87  1  0  0  0
  2 88  1  0  0  0
  3  4  1  0  0  0
  3 89  1  0  0  0
  3 90  1  0  0  0
  4  5  1  0  0  0
  4 91  1  0  0  0
  4 92  1  0  0  0
  5  6  1  0  0  0
  5 26  1  0  0  0
  5 93  1  0  0  0
  6 25  1  0  0  0
  6 94  1  0  0  0
  6 95  1  0  0  0
  7  8  2  0  0  0
  7 26  1  0  0  0
  7 29  1  0  0  0
  8  9  1  0  0  0
  8 22  1  0  0  0
  9 10  1  0  0  0
  9 27  2  0  0  0
 10 11  2  0  0  0
 10 15  1  0  0  0
 11 12  1  0  0  0
 11 96  1  0  0  0
 12 13  2  0  0  0
 12 97  1  0  0  0
 13 14  1  0  0  0
 13 31  1  0  0  0
 14 15  2  0  0  0
 14 98  1  0  0  0
 15 99  1  0  0  0
 16 17  2  0  0  0
 16 21  1  0  0  0
 16 31  1  0  0  0
 17 18  1  0  0  0
 17100  1  0  0  0
 18 19  2  0  0  0
 18101  1  0  0  0
 19 20  1  0  0  0
 19 24  1  0  0  0
 20 21  2  0  0  0
 20102  1  0  0  0
 21 23  1  0  0  0
 22 28  1  0  0  0
 22 32  2  0  0  0
 26 27  1  0  0  0
 28103  1  0  0  0
 28104  1  0  0  0
 29105  1  0  0  0
 29106  1  0  0  0
 33 34  1  0  0  0
 33 66  1  0  0  0
 33 70  2  0  0  0
 34 36  1  0  0  0
 34 59  1  0  0  0
 34107  1  0  0  0
 35 44  2  0  0  0
 35 45  1  0  0  0
 35 68  1  0  0  0
 36 56  1  0  0  0
 36108  1  0  0  0
 37 39  1  0  0  0
 37 47  1  0  0  0
 37 66  1  0  0  0
 37109  1  0  0  0
 38 43  2  0  0  0
 38 46  1  0  0  0
 38 47  1  0  0  0
 39 64  1  0  0  0
 39 67  2  0  0  0
 40 52  1  0  0  0
 40 53  2  0  0  0
 40 58  1  0  0  0
 41110  1  0  0  0
 41111  1  0  0  0
 41112  1  0  0  0
 41 48  1  0  0  0
 42 43  1  0  0  0
 42 66  1  0  0  0
 42113  1  0  0  0
 42114  1  0  0  0
 43 44  1  0  0  0
 44115  1  0  0  0
 45 46  2  0  0  0
 45116  1  0  0  0
 46117  1  0  0  0
 47118  1  0  0  0
 47119  1  0  0  0
 48 56  1  0  0  0
 48 65  1  0  0  0
 48120  1  0  0  0
 49 50  1  0  0  0
 49 53  1  0  0  0
 49 64  1  0  0  0
 49121  1  0  0  0
 50 51  1  0  0  0
 50122  1  0  0  0
 50123  1  0  0  0
 51 52  1  0  0  0
 51124  1  0  0  0
 51125  1  0  0  0
 52126  1  0  0  0
 52127  1  0  0  0
 53 54  1  0  0  0
 54 55  2  0  0  0
 54128  1  0  0  0
 55 57  1  0  0  0
 55129  1  0  0  0
 56 69  2  0  0  0
 57 58  2  0  0  0
 57130  1  0  0  0
 58131  1  0  0  0
 59 60  1  0  0  0
 59 61  1  0  0  0
 59 62  1  0  0  0
 60132  1  0  0  0
 60133  1  0  0  0
 60134  1  0  0  0
 61135  1  0  0  0
 61136  1  0  0  0
 61137  1  0  0  0
 62138  1  0  0  0
 62139  1  0  0  0
 62140  1  0  0  0
 63 65  1  0  0  0
 63141  1  0  0  0
 63142  1  0  0  0
 63143  1  0  0  0
 64144  1  0  0  0
 65145  1  0  0  0
 68 81  1  0  0  0
 71 73  2  0  0  0
 71 75  1  0  0  0
 71146  1  0  0  0
 72 75  2  0  0  0
 72 76  1  0  0  0
 72147  1  0  0  0
 73 74  1  0  0  0
 73 77  1  0  0  0
 74 76  2  0  0  0
 74 79  1  0  0  0
 75 83  1  0  0  0
 76 84  1  0  0  0
 77 82  1  0  0  0
 77 85  2  0  0  0
 78 80  1  0  0  0
 78 81  1  0  0  0
 78 86  2  0  0  0
 79148  1  0  0  0
 79149  1  0  0  0
 79150  1  0  0  0
 80 84  1  0  0  0
 80151  1  0  0  0
 80152  1  0  0  0
 81153  1  0  0  0
 81154  1  0  0  0
 82155  1  0  0  0
 82156  1  0  0  0
 83157  1  0  0  0
 84158  1  0  0  0
 85159  1  0  0  0
 85160  1  0  0  0
M  CHG  1  85   1
M  ISO  4   1 100  68 101  81 101  83 100
M  END
> <chiral flag>
0

> <version>
0

> <s_m_source_file>
/data/baiqing/PycharmProjects/Reinvent-master-3.2/result/LINK_invent/BTK/process_docking_weight1_custom_product_contain_oxygen_bond_distance_aromatic_linkinvent_7_9_3/rearranged_h_0163.sdf

> <i_m_source_file_index>
4

> <r_mmod_Potential_Energy-OPLS-2005>
-73.6419219970703

> <r_mmod_Stretch_Energy-OPLS-2005>
125.962997436523

> <r_mmod_Bend_Energy-OPLS-2005>
169.425994873047

> <r_mmod_Torsional_Energy-OPLS-2005>
235.974349975586

> <r_mmod_Improper_Torsional_Energy-OPLS-2005>
6.68889141082764

> <r_mmod_Van_der_Waal_Energy-OPLS-2005>
158.278762817383

> <r_mmod_Electrostatic_Energy-OPLS-2005>
-381.307586669922

> <r_mmod_Solvation_Energy-OPLS-2005>
-471.887237548828

> <b_mmod_Minimization_Converged-OPLS-2005>
0

> <r_mmod_RMS_Derivative-OPLS-2005>
2.71864986419678

$$$$
4
                    3D
 Structure written by MMmdl.
164172  0  0  1  0            999 V2000
  -30.7253  -14.4182   20.5944 C   0  0  0  0  0  0
  -30.4182  -12.2788   19.4281 C   0  0  0  0  0  0
  -29.4915  -12.4830   18.2107 C   0  0  0  0  0  0
  -28.0099  -12.3626   18.6197 C   0  0  0  0  0  0
  -27.6622  -13.2031   19.8772 C   0  0  2  0  0  0
  -28.6984  -12.9729   20.9994 C   0  0  0  0  0  0
  -25.2598  -13.8165   20.5710 C   0  0  0  0  0  0
  -24.1852  -13.0424   20.9151 C   0  0  0  0  0  0
  -24.6376  -11.6870   20.8660 C   0  0  0  0  0  0
  -23.9035  -10.4243   21.0319 C   0  0  0  0  0  0
  -24.3591   -9.4188   21.9122 C   0  0  0  0  0  0
  -23.6281   -8.2223   22.0722 C   0  0  0  0  0  0
  -22.4276   -8.0233   21.3515 C   0  0  0  0  0  0
  -21.9885   -9.0184   20.4614 C   0  0  0  0  0  0
  -22.7196  -10.2067   20.3000 C   0  0  0  0  0  0
  -21.6825   -6.0722   22.5277 C   0  0  0  0  0  0
  -21.3987   -6.5650   23.8206 C   0  0  0  0  0  0
  -21.3649   -5.6799   24.9173 C   0  0  0  0  0  0
  -21.6053   -4.3054   24.7219 C   0  0  0  0  0  0
  -21.8816   -3.8149   23.4346 C   0  0  0  0  0  0
  -21.9181   -4.6955   22.3394 C   0  0  0  0  0  0
  -22.7867  -13.5184   21.1822 C   0  0  0  0  0  0
  -22.1631   -4.2153   21.0967 F   0  0  0  0  0  0
  -21.5661   -3.4531   25.7722 F   0  0  0  0  0  0
  -30.0341  -13.2613   20.4509 N   0  0  0  0  0  0
  -26.3023  -12.9322   20.3382 N   0  0  0  0  0  0
  -25.9316  -11.6474   20.5729 N   0  0  0  0  0  0
  -22.0530  -12.8144   22.0378 N   0  0  0  0  0  0
  -25.4362  -15.1904   20.4183 N   0  0  0  0  0  0
  -31.8472  -14.5875   20.1039 O   0  0  0  0  0  0
  -21.6640   -6.8843   21.4225 O   0  0  0  0  0  0
  -22.3523  -14.5485   20.6678 O   0  0  0  0  0  0
  -24.6138  -31.8704   23.2111 C   0  0  0  0  0  0
  -25.9035  -32.4831   23.8397 C   0  0  1  0  0  0
  -27.2237  -27.4389   20.0975 C   0  0  0  0  0  0
  -25.5899  -33.8624   24.2342 N   0  0  0  0  0  0
  -23.4000  -30.4946   21.5520 C   0  0  2  0  0  0
  -24.8435  -28.9610   20.1185 C   0  0  0  0  0  0
  -22.7416  -29.4667   22.4998 C   0  0  0  0  0  0
  -18.0288  -28.1376   22.8502 C   0  0  0  0  0  0
  -24.1488  -36.7314   23.2636 C   0  0  0  0  0  0
  -25.9290  -30.8394   21.3601 C   0  0  0  0  0  0
  -26.0051  -29.4737   20.7093 C   0  0  0  0  0  0
  -27.2008  -28.7219   20.6906 C   0  0  0  0  0  0
  -26.0389  -26.9378   19.5091 C   0  0  0  0  0  0
  -24.8541  -27.6925   19.5180 C   0  0  0  0  0  0
  -23.6073  -29.8274   20.1659 C   0  0  0  0  0  0
  -25.4108  -36.3122   24.0351 C   0  0  1  0  0  0
  -20.5885  -28.3659   23.1328 C   0  0  2  0  0  0
  -20.6765  -26.9394   22.5410 C   0  0  0  0  0  0
  -19.5728  -26.6385   21.5216 C   0  0  0  0  0  0
  -18.1922  -26.7928   22.1636 C   0  0  0  0  0  0
  -19.1534  -28.8833   23.2921 C   0  0  0  0  0  0
  -18.9455  -30.1451   23.8911 C   0  0  0  0  0  0
  -17.6447  -30.6573   24.0573 C   0  0  0  0  0  0
  -25.9029  -34.9484   23.5150 C   0  0  0  0  0  0
  -16.5344  -29.9076   23.6327 C   0  0  0  0  0  0
  -16.7277  -28.6503   23.0339 C   0  0  0  0  0  0
  -26.4452  -31.6604   25.0721 C   0  0  0  0  0  0
  -25.3713  -31.3729   26.1473 C   0  0  0  0  0  0
  -27.0268  -30.3049   24.6077 C   0  0  0  0  0  0
  -27.6050  -32.4302   25.7471 C   0  0  0  0  0  0
  -27.5589  -37.1817   24.8472 C   0  0  0  0  0  0
  -21.4148  -29.3032   22.3746 N   0  0  0  0  0  0
  -26.4293  -37.3796   23.9411 N   0  0  0  0  0  0
  -24.6666  -31.0822   22.0990 N   0  0  0  0  0  0
  -23.4214  -28.8215   23.3017 O   0  0  0  0  0  0
  -28.3967  -26.7144   20.0831 O   0  0  0  0  0  0
  -26.5577  -34.8941   22.4702 O   0  0  0  0  0  0
  -23.5335  -32.1427   23.7514 O   0  0  0  0  0  0
  -29.7751  -17.7570   20.4533 C   0  0  0  0  0  0
  -31.7408  -17.1235   21.7527 C   0  0  0  0  0  0
  -31.5968  -19.3673   20.7818 C   0  0  0  0  0  0
  -30.5116  -16.7753   21.1562 C   0  0  0  0  0  0
  -30.3183  -19.0462   20.2245 C   0  0  0  0  0  0
  -32.2767  -18.4076   21.5729 C   0  0  0  0  0  0
  -32.2792  -20.6823   20.6149 C   0  0  0  0  0  0
  -28.5624  -22.0345   20.1189 C   0  0  0  0  0  0
  -28.1240  -24.3817   19.2627 C   0  0  0  0  0  0
  -34.0600  -21.2998   18.8994 C   0  0  0  0  0  0
  -32.5547  -21.1503   19.1820 C   0  0  0  0  0  0
  -27.5182  -23.0014   19.5421 C   0  0  0  0  0  0
  -28.3733  -20.5293   19.8790 C   0  0  0  0  0  0
  -28.2937  -25.3300   20.4645 C   0  0  0  0  0  0
  -30.0667  -15.4270   21.1960 N   0  0  0  0  0  0
  -29.6064  -19.9165   19.3740 N   0  0  0  0  0  0
  -32.6939  -21.3636   21.5582 O   0  0  0  0  0  0
  -29.5492  -22.4287   20.7494 O   0  0  0  0  0  0
  -28.4306  -24.7235   18.1139 O   0  0  0  0  0  0
  -33.4919  -18.6761   22.1165 F   0  0  0  0  0  0
  -31.4660  -12.3645   19.1284 H   0  0  0  0  0  0
  -30.3133  -11.2695   19.8268 H   0  0  0  0  0  0
  -29.7209  -11.7434   17.4436 H   0  0  0  0  0  0
  -29.6794  -13.4600   17.7653 H   0  0  0  0  0  0
  -27.8076  -11.3068   18.8046 H   0  0  0  0  0  0
  -27.3629  -12.6491   17.7909 H   0  0  0  0  0  0
  -27.7057  -14.2526   19.5844 H   0  0  0  0  0  0
  -28.6680  -11.9356   21.3345 H   0  0  0  0  0  0
  -28.4616  -13.5654   21.8844 H   0  0  0  0  0  0
  -25.2707   -9.5702   22.4719 H   0  0  0  0  0  0
  -23.9980   -7.4634   22.7474 H   0  0  0  0  0  0
  -21.0796   -8.8694   19.8940 H   0  0  0  0  0  0
  -22.3610  -10.9604   19.6126 H   0  0  0  0  0  0
  -21.1977   -7.6147   23.9702 H   0  0  0  0  0  0
  -21.1485   -6.0529   25.9083 H   0  0  0  0  0  0
  -22.0620   -2.7608   23.2850 H   0  0  0  0  0  0
  -22.4133  -11.9768   22.4709 H   0  0  0  0  0  0
  -21.1160  -13.1161   22.2613 H   0  0  0  0  0  0
  -24.6825  -15.8542   20.5616 H   0  0  0  0  0  0
  -26.2996  -15.6246   20.1206 H   0  0  0  0  0  0
  -26.7112  -32.5547   23.1176 H   0  0  0  0  0  0
  -25.0096  -33.9779   25.0519 H   0  0  0  0  0  0
  -22.6867  -31.3109   21.4146 H   0  0  0  0  0  0
  -23.3742  -35.9654   23.3324 H   0  0  0  0  0  0
  -24.3587  -36.8875   22.2042 H   0  0  0  0  0  0
  -23.7242  -37.6539   23.6605 H   0  0  0  0  0  0
  -26.0381  -31.6046   20.5905 H   0  0  0  0  0  0
  -26.8180  -30.8927   21.9772 H   0  0  0  0  0  0
  -28.1010  -29.1153   21.1438 H   0  0  0  0  0  0
  -26.0100  -25.9722   19.0278 H   0  0  0  0  0  0
  -23.9617  -27.2920   19.0607 H   0  0  0  0  0  0
  -23.7169  -30.6007   19.4027 H   0  0  0  0  0  0
  -22.7290  -29.2470   19.8723 H   0  0  0  0  0  0
  -25.1279  -36.2001   25.0837 H   0  0  0  0  0  0
  -20.9992  -28.3200   24.1446 H   0  0  0  0  0  0
  -20.5679  -26.2252   23.3593 H   0  0  0  0  0  0
  -21.6633  -26.7432   22.1194 H   0  0  0  0  0  0
  -19.6876  -25.6306   21.1226 H   0  0  0  0  0  0
  -19.6668  -27.3214   20.6766 H   0  0  0  0  0  0
  -17.4195  -26.6710   21.4035 H   0  0  0  0  0  0
  -18.0311  -26.0069   22.9026 H   0  0  0  0  0  0
  -19.7924  -30.7287   24.2274 H   0  0  0  0  0  0
  -17.4989  -31.6253   24.5171 H   0  0  0  0  0  0
  -15.5339  -30.2961   23.7636 H   0  0  0  0  0  0
  -15.8692  -28.0822   22.7009 H   0  0  0  0  0  0
  -24.5879  -30.7083   25.7813 H   0  0  0  0  0  0
  -24.8913  -32.2891   26.4916 H   0  0  0  0  0  0
  -25.8053  -30.8898   27.0234 H   0  0  0  0  0  0
  -26.2810  -29.6848   24.1089 H   0  0  0  0  0  0
  -27.3998  -29.7254   25.4531 H   0  0  0  0  0  0
  -27.8664  -30.4386   23.9256 H   0  0  0  0  0  0
  -27.2697  -33.3599   26.2083 H   0  0  0  0  0  0
  -28.3834  -32.6849   25.0266 H   0  0  0  0  0  0
  -28.0739  -31.8389   26.5349 H   0  0  0  0  0  0
  -28.2629  -38.0094   24.7497 H   0  0  0  0  0  0
  -28.1063  -36.2627   24.6317 H   0  0  0  0  0  0
  -27.2314  -37.1499   25.8877 H   0  0  0  0  0  0
  -20.9305  -29.8775   21.6992 H   0  0  0  0  0  0
  -26.0207  -38.2889   24.1360 H   0  0  0  0  0  0
  -28.8310  -17.4880   19.9999 H   0  0  0  0  0  0
  -32.3127  -16.3952   22.3100 H   0  0  0  0  0  0
  -34.2274  -21.8556   17.9768 H   0  0  0  0  0  0
  -34.5389  -20.3258   18.7902 H   0  0  0  0  0  0
  -34.5699  -21.8321   19.7063 H   0  0  0  0  0  0
  -32.0567  -22.1104   19.0481 H   0  0  0  0  0  0
  -32.1024  -20.4641   18.4657 H   0  0  0  0  0  0
  -26.7040  -23.1120   20.2558 H   0  0  0  0  0  0
  -27.0891  -22.5996   18.6249 H   0  0  0  0  0  0
  -27.5674  -20.3723   19.1583 H   0  0  0  0  0  0
  -28.0559  -20.0722   20.8186 H   0  0  0  0  0  0
  -29.2154  -25.0512   20.9739 H   0  0  0  0  0  0
  -27.4872  -25.1718   21.1813 H   0  0  0  0  0  0
  -29.1161  -15.2474   21.4795 H   0  0  0  0  0  0
  -30.1694  -20.6040   18.8824 H   0  0  0  0  0  0
  1 25  1  0  0  0
  1 30  2  0  0  0
  1 85  1  0  0  0
  2  3  1  0  0  0
  2 25  1  0  0  0
  2 91  1  0  0  0
  2 92  1  0  0  0
  3  4  1  0  0  0
  3 93  1  0  0  0
  3 94  1  0  0  0
  4  5  1  0  0  0
  4 95  1  0  0  0
  4 96  1  0  0  0
  5  6  1  0  0  0
  5 26  1  0  0  0
  5 97  1  0  0  0
  6 25  1  0  0  0
  6 98  1  0  0  0
  6 99  1  0  0  0
  7  8  2  0  0  0
  7 26  1  0  0  0
  7 29  1  0  0  0
  8  9  1  0  0  0
  8 22  1  0  0  0
  9 10  1  0  0  0
  9 27  2  0  0  0
 10 11  2  0  0  0
 10 15  1  0  0  0
 11 12  1  0  0  0
 11100  1  0  0  0
 12 13  2  0  0  0
 12101  1  0  0  0
 13 14  1  0  0  0
 13 31  1  0  0  0
 14 15  2  0  0  0
 14102  1  0  0  0
 15103  1  0  0  0
 16 17  2  0  0  0
 16 21  1  0  0  0
 16 31  1  0  0  0
 17 18  1  0  0  0
 17104  1  0  0  0
 18 19  2  0  0  0
 18105  1  0  0  0
 19 20  1  0  0  0
 19 24  1  0  0  0
 20 21  2  0  0  0
 20106  1  0  0  0
 21 23  1  0  0  0
 22 28  1  0  0  0
 22 32  2  0  0  0
 26 27  1  0  0  0
 28107  1  0  0  0
 28108  1  0  0  0
 29109  1  0  0  0
 29110  1  0  0  0
 33 34  1  0  0  0
 33 66  1  0  0  0
 33 70  2  0  0  0
 34 36  1  0  0  0
 34 59  1  0  0  0
 34111  1  0  0  0
 35 44  2  0  0  0
 35 45  1  0  0  0
 35 68  1  0  0  0
 36 56  1  0  0  0
 36112  1  0  0  0
 37 39  1  0  0  0
 37 47  1  0  0  0
 37 66  1  0  0  0
 37113  1  0  0  0
 38 43  2  0  0  0
 38 46  1  0  0  0
 38 47  1  0  0  0
 39 64  1  0  0  0
 39 67  2  0  0  0
 40 52  1  0  0  0
 40 53  2  0  0  0
 40 58  1  0  0  0
 41114  1  0  0  0
 41115  1  0  0  0
 41116  1  0  0  0
 41 48  1  0  0  0
 42 43  1  0  0  0
 42 66  1  0  0  0
 42117  1  0  0  0
 42118  1  0  0  0
 43 44  1  0  0  0
 44119  1  0  0  0
 45 46  2  0  0  0
 45120  1  0  0  0
 46121  1  0  0  0
 47122  1  0  0  0
 47123  1  0  0  0
 48 56  1  0  0  0
 48 65  1  0  0  0
 48124  1  0  0  0
 49 50  1  0  0  0
 49 53  1  0  0  0
 49 64  1  0  0  0
 49125  1  0  0  0
 50 51  1  0  0  0
 50126  1  0  0  0
 50127  1  0  0  0
 51 52  1  0  0  0
 51128  1  0  0  0
 51129  1  0  0  0
 52130  1  0  0  0
 52131  1  0  0  0
 53 54  1  0  0  0
 54 55  2  0  0  0
 54132  1  0  0  0
 55 57  1  0  0  0
 55133  1  0  0  0
 56 69  2  0  0  0
 57 58  2  0  0  0
 57134  1  0  0  0
 58135  1  0  0  0
 59 60  1  0  0  0
 59 61  1  0  0  0
 59 62  1  0  0  0
 60136  1  0  0  0
 60137  1  0  0  0
 60138  1  0  0  0
 61139  1  0  0  0
 61140  1  0  0  0
 61141  1  0  0  0
 62142  1  0  0  0
 62143  1  0  0  0
 62144  1  0  0  0
 63 65  1  0  0  0
 63145  1  0  0  0
 63146  1  0  0  0
 63147  1  0  0  0
 64148  1  0  0  0
 65149  1  0  0  0
 68 84  1  0  0  0
 71 74  2  0  0  0
 71 75  1  0  0  0
 71150  1  0  0  0
 72 74  1  0  0  0
 72 76  2  0  0  0
 72151  1  0  0  0
 73 75  2  0  0  0
 73 76  1  0  0  0
 73 77  1  0  0  0
 74 85  1  0  0  0
 75 86  1  0  0  0
 76 90  1  0  0  0
 77 81  1  0  0  0
 77 87  2  0  0  0
 78 82  1  0  0  0
 78 83  1  0  0  0
 78 88  2  0  0  0
 79 82  1  0  0  0
 79 84  1  0  0  0
 79 89  2  0  0  0
 80 81  1  0  0  0
 80152  1  0  0  0
 80153  1  0  0  0
 80154  1  0  0  0
 81155  1  0  0  0
 81156  1  0  0  0
 82157  1  0  0  0
 82158  1  0  0  0
 83 86  1  0  0  0
 83159  1  0  0  0
 83160  1  0  0  0
 84161  1  0  0  0
 84162  1  0  0  0
 85163  1  0  0  0
 86164  1  0  0  0
M  ISO  4   1 100  68 101  84 101  85 100
M  END
> <chiral flag>
0

> <version>
0

> <s_m_source_file>
/data/baiqing/PycharmProjects/Reinvent-master-3.2/result/LINK_invent/BTK/process_docking_weight1_custom_product_contain_oxygen_bond_distance_aromatic_linkinvent_7_9_3/rearranged_h_0163.sdf

> <i_m_source_file_index>
5

> <r_mmod_Potential_Energy-OPLS-2005>
91.2641143798828

> <r_mmod_Stretch_Energy-OPLS-2005>
37.9400901794434

> <r_mmod_Bend_Energy-OPLS-2005>
96.4898147583008

> <r_mmod_Torsional_Energy-OPLS-2005>
307.732055664062

> <r_mmod_Improper_Torsional_Energy-OPLS-2005>
8.74598026275635

> <r_mmod_Van_der_Waal_Energy-OPLS-2005>
156.148666381836

> <r_mmod_Electrostatic_Energy-OPLS-2005>
-264.84814453125

> <r_mmod_Solvation_Energy-OPLS-2005>
-261.868988037109

> <b_mmod_Minimization_Converged-OPLS-2005>
0

> <r_mmod_RMS_Derivative-OPLS-2005>
4.37642192840576

$$$$
5
                    3D
 Structure written by MMmdl.
166174  0  0  1  0            999 V2000
  -30.7148  -14.4372   20.6510 C   0  0  0  0  0  0
  -30.4227  -12.3254   19.4048 C   0  0  0  0  0  0
  -29.4819  -12.4970   18.1976 C   0  0  0  0  0  0
  -28.0108  -12.3212   18.6228 C   0  0  0  0  0  0
  -27.6500  -13.1643   19.8724 C   0  0  2  0  0  0
  -28.6941  -12.9667   20.9920 C   0  0  0  0  0  0
  -25.2594  -13.8102   20.5613 C   0  0  0  0  0  0
  -24.1788  -13.0432   20.9115 C   0  0  0  0  0  0
  -24.6275  -11.6872   20.8708 C   0  0  0  0  0  0
  -23.8948  -10.4269   21.0422 C   0  0  0  0  0  0
  -24.3533   -9.4200   21.9197 C   0  0  0  0  0  0
  -23.6238   -8.2227   22.0760 C   0  0  0  0  0  0
  -22.4226   -8.0250   21.3554 C   0  0  0  0  0  0
  -21.9834   -9.0208   20.4652 C   0  0  0  0  0  0
  -22.7127  -10.2109   20.3061 C   0  0  0  0  0  0
  -21.6833   -6.0702   22.5274 C   0  0  0  0  0  0
  -21.4012   -6.5627   23.8204 C   0  0  0  0  0  0
  -21.3653   -5.6782   24.9170 C   0  0  0  0  0  0
  -21.6034   -4.3044   24.7224 C   0  0  0  0  0  0
  -21.8818   -3.8134   23.4348 C   0  0  0  0  0  0
  -21.9189   -4.6938   22.3408 C   0  0  0  0  0  0
  -22.7846  -13.5306   21.1842 C   0  0  0  0  0  0
  -22.1662   -4.2115   21.0983 F   0  0  0  0  0  0
  -21.5614   -3.4541   25.7750 F   0  0  0  0  0  0
  -30.0165  -13.2916   20.4344 N   0  0  0  0  0  0
  -26.2935  -12.9126   20.3360 N   0  0  0  0  0  0
  -25.9185  -11.6338   20.5772 N   0  0  0  0  0  0
  -22.0469  -12.8274   22.0382 N   0  0  0  0  0  0
  -25.4542  -15.1816   20.4088 N   0  0  0  0  0  0
  -31.8187  -14.6611   20.1432 O   0  0  0  0  0  0
  -21.6606   -6.8836   21.4232 O   0  0  0  0  0  0
  -22.3595  -14.5659   20.6750 O   0  0  0  0  0  0
  -24.6145  -31.8668   23.2076 C   0  0  0  0  0  0
  -25.9045  -32.4834   23.8393 C   0  0  1  0  0  0
  -27.2479  -27.4304   20.1413 C   0  0  0  0  0  0
  -25.5886  -33.8618   24.2339 N   0  0  0  0  0  0
  -23.4052  -30.4898   21.5429 C   0  0  2  0  0  0
  -24.8628  -28.9544   20.1141 C   0  0  0  0  0  0
  -22.7408  -29.4667   22.4945 C   0  0  0  0  0  0
  -18.0267  -28.1384   22.8491 C   0  0  0  0  0  0
  -24.1489  -36.7313   23.2643 C   0  0  0  0  0  0
  -25.9310  -30.8420   21.3584 C   0  0  0  0  0  0
  -26.0170  -29.4744   20.7130 C   0  0  0  0  0  0
  -27.2120  -28.7195   20.7192 C   0  0  0  0  0  0
  -26.0784  -26.9255   19.5291 C   0  0  0  0  0  0
  -24.8902  -27.6815   19.5178 C   0  0  0  0  0  0
  -23.6203  -29.8135   20.1609 C   0  0  0  0  0  0
  -25.4094  -36.3119   24.0371 C   0  0  1  0  0  0
  -20.5853  -28.3704   23.1313 C   0  0  2  0  0  0
  -20.6770  -26.9393   22.5571 C   0  0  0  0  0  0
  -19.5812  -26.6306   21.5328 C   0  0  0  0  0  0
  -18.1941  -26.7933   22.1619 C   0  0  0  0  0  0
  -19.1513  -28.8872   23.2900 C   0  0  0  0  0  0
  -18.9428  -30.1500   23.8849 C   0  0  0  0  0  0
  -17.6416  -30.6600   24.0536 C   0  0  0  0  0  0
  -25.9032  -34.9479   23.5160 C   0  0  0  0  0  0
  -16.5333  -29.9080   23.6296 C   0  0  0  0  0  0
  -16.7253  -28.6506   23.0299 C   0  0  0  0  0  0
  -26.4454  -31.6607   25.0715 C   0  0  0  0  0  0
  -25.3723  -31.3721   26.1482 C   0  0  0  0  0  0
  -27.0309  -30.3047   24.6132 C   0  0  0  0  0  0
  -27.6050  -32.4302   25.7461 C   0  0  0  0  0  0
  -27.5572  -37.1821   24.8464 C   0  0  0  0  0  0
  -21.4128  -29.3034   22.3664 N   0  0  0  0  0  0
  -26.4291  -37.3783   23.9419 N   0  0  0  0  0  0
  -24.6671  -31.0790   22.0962 N   0  0  0  0  0  0
  -23.4169  -28.8239   23.3040 O   0  0  0  0  0  0
  -28.4318  -26.7241   20.1986 O   0  0  0  0  0  0
  -26.5565  -34.8930   22.4703 O   0  0  0  0  0  0
  -23.5334  -32.1421   23.7455 O   0  0  0  0  0  0
  -28.7038  -16.5127   19.6505 C   0  0  0  0  0  0
  -28.9407  -17.5048   21.6771 C   0  0  0  0  0  0
  -29.2803  -16.4016   20.9468 C   0  0  0  0  0  0
  -28.0118  -17.6908   19.6169 C   0  0  0  0  0  0
  -27.2051  -18.3029   18.5928 C   0  0  0  0  0  0
  -28.6849  -20.8176   20.8103 C   0  0  0  0  0  0
  -29.5069  -23.2756   22.5326 C   0  0  0  0  0  0
  -28.0912  -22.2143   20.5929 C   0  0  0  0  0  0
  -27.7342  -19.6724   21.1910 C   0  0  0  0  0  0
  -27.6571  -24.6235   21.3653 C   0  0  0  0  0  0
  -28.4221  -25.2850   20.1872 C   0  0  0  0  0  0
  -28.1495  -23.2081   21.7917 C   0  0  2  0  0  0
  -28.2012  -18.3329   20.8405 N   0  0  0  0  0  0
  -27.6890  -19.3317   17.8920 N   0  0  0  0  0  0
  -30.1216  -15.3599   21.4295 N   0  0  0  0  0  0
  -25.9891  -17.8162   18.3314 N   0  3  0  0  0  0
  -29.8880  -20.6128   20.6187 O   0  0  0  0  0  0
  -27.2285  -22.7447   22.7629 O   0  0  0  0  0  0
  -31.4613  -12.4607   19.0962 H   0  0  0  0  0  0
  -30.3614  -11.3106   19.7999 H   0  0  0  0  0  0
  -29.7347  -11.7699   17.4266 H   0  0  0  0  0  0
  -29.6228  -13.4833   17.7527 H   0  0  0  0  0  0
  -27.8544  -11.2609   18.8362 H   0  0  0  0  0  0
  -27.3408  -12.5636   17.7966 H   0  0  0  0  0  0
  -27.6741  -14.1962   19.5562 H   0  0  0  0  0  0
  -28.6965  -11.9314   21.3348 H   0  0  0  0  0  0
  -28.4361  -13.5635   21.8667 H   0  0  0  0  0  0
  -25.2698   -9.5677   22.4745 H   0  0  0  0  0  0
  -23.9959   -7.4612   22.7482 H   0  0  0  0  0  0
  -21.0775   -8.8687   19.8965 H   0  0  0  0  0  0
  -22.3591  -10.9619   19.6153 H   0  0  0  0  0  0
  -21.2017   -7.6139   23.9685 H   0  0  0  0  0  0
  -21.1487   -6.0531   25.9063 H   0  0  0  0  0  0
  -22.0617   -2.7597   23.2856 H   0  0  0  0  0  0
  -22.4064  -11.9889   22.4706 H   0  0  0  0  0  0
  -21.1117  -13.1334   22.2668 H   0  0  0  0  0  0
  -24.7460  -15.7924   20.8006 H   0  0  0  0  0  0
  -26.3940  -15.5280   20.5600 H   0  0  0  0  0  0
  -26.7117  -32.5578   23.1169 H   0  0  0  0  0  0
  -25.0082  -33.9775   25.0524 H   0  0  0  0  0  0
  -22.6910  -31.3030   21.3908 H   0  0  0  0  0  0
  -23.3752  -35.9644   23.3310 H   0  0  0  0  0  0
  -24.3595  -36.8906   22.2052 H   0  0  0  0  0  0
  -23.7248  -37.6534   23.6627 H   0  0  0  0  0  0
  -26.0436  -31.6098   20.5915 H   0  0  0  0  0  0
  -26.8142  -30.8976   21.9808 H   0  0  0  0  0  0
  -28.1036  -29.1069   21.1947 H   0  0  0  0  0  0
  -26.0741  -25.9517   19.0639 H   0  0  0  0  0  0
  -24.0067  -27.2711   19.0534 H   0  0  0  0  0  0
  -23.7224  -30.5797   19.3894 H   0  0  0  0  0  0
  -22.7491  -29.2233   19.8681 H   0  0  0  0  0  0
  -25.1270  -36.1993   25.0867 H   0  0  0  0  0  0
  -20.9950  -28.3344   24.1426 H   0  0  0  0  0  0
  -20.5581  -26.2355   23.3816 H   0  0  0  0  0  0
  -21.6699  -26.7407   22.1488 H   0  0  0  0  0  0
  -19.6946  -25.6161   21.1475 H   0  0  0  0  0  0
  -19.6835  -27.3044   20.6806 H   0  0  0  0  0  0
  -17.4296  -26.6755   21.3932 H   0  0  0  0  0  0
  -18.0232  -26.0078   22.8980 H   0  0  0  0  0  0
  -19.7900  -30.7356   24.2158 H   0  0  0  0  0  0
  -17.4963  -31.6267   24.5162 H   0  0  0  0  0  0
  -15.5329  -30.2999   23.7595 H   0  0  0  0  0  0
  -15.8640  -28.0854   22.6945 H   0  0  0  0  0  0
  -24.5884  -30.7086   25.7806 H   0  0  0  0  0  0
  -24.8943  -32.2893   26.4925 H   0  0  0  0  0  0
  -25.8078  -30.8879   27.0247 H   0  0  0  0  0  0
  -26.2895  -29.6781   24.1172 H   0  0  0  0  0  0
  -27.4045  -29.7297   25.4624 H   0  0  0  0  0  0
  -27.8725  -30.4326   23.9324 H   0  0  0  0  0  0
  -27.2696  -33.3583   26.2084 H   0  0  0  0  0  0
  -28.3826  -32.6901   25.0266 H   0  0  0  0  0  0
  -28.0777  -31.8425   26.5344 H   0  0  0  0  0  0
  -28.2624  -38.0086   24.7504 H   0  0  0  0  0  0
  -28.1058  -36.2642   24.6303 H   0  0  0  0  0  0
  -27.2322  -37.1471   25.8877 H   0  0  0  0  0  0
  -20.9283  -29.8779   21.6881 H   0  0  0  0  0  0
  -26.0207  -38.2898   24.1329 H   0  0  0  0  0  0
  -28.7900  -15.8431   18.8071 H   0  0  0  0  0  0
  -29.1812  -17.8036   22.6913 H   0  0  0  0  0  0
  -30.3214  -23.6024   21.8866 H   0  0  0  0  0  0
  -29.7969  -22.3129   22.9558 H   0  0  0  0  0  0
  -29.4672  -23.9721   23.3714 H   0  0  0  0  0  0
  -27.0592  -22.0997   20.2621 H   0  0  0  0  0  0
  -28.6227  -22.6336   19.7411 H   0  0  0  0  0  0
  -26.7525  -19.8387   20.7460 H   0  0  0  0  0  0
  -27.5871  -19.7056   22.2677 H   0  0  0  0  0  0
  -26.6014  -24.5646   21.0902 H   0  0  0  0  0  0
  -27.6943  -25.2883   22.2281 H   0  0  0  0  0  0
  -29.4671  -24.9847   20.2424 H   0  0  0  0  0  0
  -28.0608  -24.9064   19.2312 H   0  0  0  0  0  0
  -27.2090  -19.7436   17.1078 H   0  0  0  0  0  0
  -28.6518  -19.6050   18.0254 H   0  0  0  0  0  0
  -30.7003  -15.6540   22.2049 H   0  0  0  0  0  0
  -25.6591  -17.0038   18.8373 H   0  0  0  0  0  0
  -25.3727  -18.2059   17.6364 H   0  0  0  0  0  0
  -27.2414  -23.3568   23.4912 H   0  0  0  0  0  0
  1 25  1  0  0  0
  1 30  2  0  0  0
  1 85  1  0  0  0
  2  3  1  0  0  0
  2 25  1  0  0  0
  2 89  1  0  0  0
  2 90  1  0  0  0
  3  4  1  0  0  0
  3 91  1  0  0  0
  3 92  1  0  0  0
  4  5  1  0  0  0
  4 93  1  0  0  0
  4 94  1  0  0  0
  5  6  1  0  0  0
  5 26  1  0  0  0
  5 95  1  0  0  0
  6 25  1  0  0  0
  6 96  1  0  0  0
  6 97  1  0  0  0
  7  8  2  0  0  0
  7 26  1  0  0  0
  7 29  1  0  0  0
  8  9  1  0  0  0
  8 22  1  0  0  0
  9 10  1  0  0  0
  9 27  2  0  0  0
 10 11  2  0  0  0
 10 15  1  0  0  0
 11 12  1  0  0  0
 11 98  1  0  0  0
 12 13  2  0  0  0
 12 99  1  0  0  0
 13 14  1  0  0  0
 13 31  1  0  0  0
 14 15  2  0  0  0
 14100  1  0  0  0
 15101  1  0  0  0
 16 17  2  0  0  0
 16 21  1  0  0  0
 16 31  1  0  0  0
 17 18  1  0  0  0
 17102  1  0  0  0
 18 19  2  0  0  0
 18103  1  0  0  0
 19 20  1  0  0  0
 19 24  1  0  0  0
 20 21  2  0  0  0
 20104  1  0  0  0
 21 23  1  0  0  0
 22 28  1  0  0  0
 22 32  2  0  0  0
 26 27  1  0  0  0
 28105  1  0  0  0
 28106  1  0  0  0
 29107  1  0  0  0
 29108  1  0  0  0
 33 34  1  0  0  0
 33 66  1  0  0  0
 33 70  2  0  0  0
 34 36  1  0  0  0
 34 59  1  0  0  0
 34109  1  0  0  0
 35 44  2  0  0  0
 35 45  1  0  0  0
 35 68  1  0  0  0
 36 56  1  0  0  0
 36110  1  0  0  0
 37 39  1  0  0  0
 37 47  1  0  0  0
 37 66  1  0  0  0
 37111  1  0  0  0
 38 43  2  0  0  0
 38 46  1  0  0  0
 38 47  1  0  0  0
 39 64  1  0  0  0
 39 67  2  0  0  0
 40 52  1  0  0  0
 40 53  2  0  0  0
 40 58  1  0  0  0
 41112  1  0  0  0
 41113  1  0  0  0
 41114  1  0  0  0
 41 48  1  0  0  0
 42 43  1  0  0  0
 42 66  1  0  0  0
 42115  1  0  0  0
 42116  1  0  0  0
 43 44  1  0  0  0
 44117  1  0  0  0
 45 46  2  0  0  0
 45118  1  0  0  0
 46119  1  0  0  0
 47120  1  0  0  0
 47121  1  0  0  0
 48 56  1  0  0  0
 48 65  1  0  0  0
 48122  1  0  0  0
 49 50  1  0  0  0
 49 53  1  0  0  0
 49 64  1  0  0  0
 49123  1  0  0  0
 50 51  1  0  0  0
 50124  1  0  0  0
 50125  1  0  0  0
 51 52  1  0  0  0
 51126  1  0  0  0
 51127  1  0  0  0
 52128  1  0  0  0
 52129  1  0  0  0
 53 54  1  0  0  0
 54 55  2  0  0  0
 54130  1  0  0  0
 55 57  1  0  0  0
 55131  1  0  0  0
 56 69  2  0  0  0
 57 58  2  0  0  0
 57132  1  0  0  0
 58133  1  0  0  0
 59 60  1  0  0  0
 59 61  1  0  0  0
 59 62  1  0  0  0
 60134  1  0  0  0
 60135  1  0  0  0
 60136  1  0  0  0
 61137  1  0  0  0
 61138  1  0  0  0
 61139  1  0  0  0
 62140  1  0  0  0
 62141  1  0  0  0
 62142  1  0  0  0
 63 65  1  0  0  0
 63143  1  0  0  0
 63144  1  0  0  0
 63145  1  0  0  0
 64146  1  0  0  0
 65147  1  0  0  0
 68 81  1  0  0  0
 71 73  1  0  0  0
 71 74  2  0  0  0
 71148  1  0  0  0
 72 73  2  0  0  0
 72 83  1  0  0  0
 72149  1  0  0  0
 73 85  1  0  0  0
 74 75  1  0  0  0
 74 83  1  0  0  0
 75 84  1  0  0  0
 75 86  2  0  0  0
 76 78  1  0  0  0
 76 79  1  0  0  0
 76 87  2  0  0  0
 77150  1  0  0  0
 77151  1  0  0  0
 77152  1  0  0  0
 77 82  1  0  0  0
 78 82  1  0  0  0
 78153  1  0  0  0
 78154  1  0  0  0
 79 83  1  0  0  0
 79155  1  0  0  0
 79156  1  0  0  0
 80 81  1  0  0  0
 80 82  1  0  0  0
 80157  1  0  0  0
 80158  1  0  0  0
 81159  1  0  0  0
 81160  1  0  0  0
 82 88  1  0  0  0
 84161  1  0  0  0
 84162  1  0  0  0
 85163  1  0  0  0
 86164  1  0  0  0
 86165  1  0  0  0
 88166  1  0  0  0
M  CHG  1  86   1
M  ISO  4   1 100  68 101  81 101  85 100
M  END
> <chiral flag>
0

> <version>
0

> <s_m_source_file>
/data/baiqing/PycharmProjects/Reinvent-master-3.2/result/LINK_invent/BTK/process_docking_weight1_custom_product_contain_oxygen_bond_distance_aromatic_linkinvent_7_9_3/rearranged_h_0163.sdf

> <i_m_source_file_index>
6

> <r_mmod_Potential_Energy-OPLS-2005>
-248.160766601562

> <r_mmod_Stretch_Energy-OPLS-2005>
35.6986465454102

> <r_mmod_Bend_Energy-OPLS-2005>
114.341659545898

> <r_mmod_Torsional_Energy-OPLS-2005>
287.835388183594

> <r_mmod_Improper_Torsional_Energy-OPLS-2005>
9.13257026672363

> <r_mmod_Van_der_Waal_Energy-OPLS-2005>
118.188087463379

> <r_mmod_Electrostatic_Energy-OPLS-2005>
-342.358642578125

> <r_mmod_Solvation_Energy-OPLS-2005>
-486.123870849609

> <b_mmod_Minimization_Converged-OPLS-2005>
0

> <r_mmod_RMS_Derivative-OPLS-2005>
5.03619956970215

$$$$
6
                    3D
 Structure written by MMmdl.
159167  0  0  1  0            999 V2000
  -30.7191  -14.4521   20.5791 C   0  0  0  0  0  0
  -30.4173  -12.2918   19.4309 C   0  0  0  0  0  0
  -29.4968  -12.5039   18.2117 C   0  0  0  0  0  0
  -28.0178  -12.3626   18.6194 C   0  0  0  0  0  0
  -27.6627  -13.2059   19.8735 C   0  0  2  0  0  0
  -28.7003  -12.9910   20.9999 C   0  0  0  0  0  0
  -25.2600  -13.8159   20.5669 C   0  0  0  0  0  0
  -24.1841  -13.0444   20.9163 C   0  0  0  0  0  0
  -24.6379  -11.6906   20.8715 C   0  0  0  0  0  0
  -23.9040  -10.4295   21.0393 C   0  0  0  0  0  0
  -24.3599   -9.4220   21.9176 C   0  0  0  0  0  0
  -23.6282   -8.2257   22.0757 C   0  0  0  0  0  0
  -22.4270   -8.0277   21.3545 C   0  0  0  0  0  0
  -21.9890   -9.0247   20.4651 C   0  0  0  0  0  0
  -22.7208  -10.2131   20.3050 C   0  0  0  0  0  0
  -21.6853   -6.0726   22.5276 C   0  0  0  0  0  0
  -21.4014   -6.5635   23.8206 C   0  0  0  0  0  0
  -21.3660   -5.6793   24.9173 C   0  0  0  0  0  0
  -21.6045   -4.3055   24.7227 C   0  0  0  0  0  0
  -21.8818   -3.8138   23.4349 C   0  0  0  0  0  0
  -21.9195   -4.6953   22.3402 C   0  0  0  0  0  0
  -22.7868  -13.5256   21.1824 C   0  0  0  0  0  0
  -22.1663   -4.2134   21.0981 F   0  0  0  0  0  0
  -21.5630   -3.4541   25.7742 F   0  0  0  0  0  0
  -30.0392  -13.2789   20.4553 N   0  0  0  0  0  0
  -26.3023  -12.9323   20.3339 N   0  0  0  0  0  0
  -25.9307  -11.6486   20.5738 N   0  0  0  0  0  0
  -22.0497  -12.8263   22.0382 N   0  0  0  0  0  0
  -25.4361  -15.1874   20.4085 N   0  0  0  0  0  0
  -31.8426  -14.6102   20.0894 O   0  0  0  0  0  0
  -21.6644   -6.8867   21.4238 O   0  0  0  0  0  0
  -22.3567  -14.5563   20.6668 O   0  0  0  0  0  0
  -24.6160  -31.8680   23.2110 C   0  0  0  0  0  0
  -25.9058  -32.4822   23.8393 C   0  0  1  0  0  0
  -27.2273  -27.4253   20.0894 C   0  0  0  0  0  0
  -25.5910  -33.8618   24.2319 N   0  0  0  0  0  0
  -23.4026  -30.4955   21.5512 C   0  0  2  0  0  0
  -24.8471  -28.9678   20.1117 C   0  0  0  0  0  0
  -22.7415  -29.4672   22.4980 C   0  0  0  0  0  0
  -18.0274  -28.1381   22.8498 C   0  0  0  0  0  0
  -24.1484  -36.7317   23.2633 C   0  0  0  0  0  0
  -25.9337  -30.8345   21.3634 C   0  0  0  0  0  0
  -26.0113  -29.4692   20.7076 C   0  0  0  0  0  0
  -27.2044  -28.7067   20.6931 C   0  0  0  0  0  0
  -26.0387  -26.9533   19.4772 C   0  0  0  0  0  0
  -24.8562  -27.7094   19.4941 C   0  0  0  0  0  0
  -23.6094  -29.8322   20.1644 C   0  0  0  0  0  0
  -25.4107  -36.3108   24.0327 C   0  0  1  0  0  0
  -20.5867  -28.3670   23.1314 C   0  0  2  0  0  0
  -20.6754  -26.9404   22.5411 C   0  0  0  0  0  0
  -19.5731  -26.6392   21.5206 C   0  0  0  0  0  0
  -18.1916  -26.7928   22.1627 C   0  0  0  0  0  0
  -19.1524  -28.8837   23.2910 C   0  0  0  0  0  0
  -18.9450  -30.1442   23.8920 C   0  0  0  0  0  0
  -17.6454  -30.6585   24.0567 C   0  0  0  0  0  0
  -25.9032  -34.9476   23.5119 C   0  0  0  0  0  0
  -16.5347  -29.9088   23.6329 C   0  0  0  0  0  0
  -16.7263  -28.6506   23.0349 C   0  0  0  0  0  0
  -26.4476  -31.6607   25.0723 C   0  0  0  0  0  0
  -25.3741  -31.3738   26.1473 C   0  0  0  0  0  0
  -27.0290  -30.3042   24.6106 C   0  0  0  0  0  0
  -27.6043  -32.4330   25.7496 C   0  0  0  0  0  0
  -27.5576  -37.1810   24.8464 C   0  0  0  0  0  0
  -21.4142  -29.3046   22.3721 N   0  0  0  0  0  0
  -26.4292  -37.3788   23.9405 N   0  0  0  0  0  0
  -24.6694  -31.0791   22.1007 N   0  0  0  0  0  0
  -23.4197  -28.8203   23.3006 O   0  0  0  0  0  0
  -28.3795  -26.6558   20.1234 O   0  0  0  0  0  0
  -26.5584  -34.8928   22.4675 O   0  0  0  0  0  0
  -23.5356  -32.1430   23.7514 O   0  0  0  0  0  0
  -31.1727  -18.8319   20.3334 C   0  0  0  0  0  0
  -30.1787  -19.3461   21.1655 C   0  0  0  0  0  0
  -30.2531  -16.8556   21.0850 C   0  0  0  0  0  0
  -28.9790  -22.9239   20.8808 C   0  0  0  0  0  0
  -29.3322  -24.3584   20.4537 C   0  0  0  0  0  0
  -33.1313  -20.5020   20.1531 C   0  0  0  0  0  0
  -31.6998  -19.9066   18.0828 C   0  0  0  0  0  0
  -30.1278  -21.9000   20.8951 C   0  0  0  0  0  0
  -28.1568  -25.2356   19.9833 C   0  0  0  0  0  0
  -32.2356  -19.4672   19.4564 C   0  0  0  0  0  0
  -31.1679  -17.4282   20.2993 N   0  0  0  0  0  0
  -27.8196  -22.5105   21.2130 N   0  0  0  0  0  0
  -29.7618  -20.6365   21.5502 N   0  0  0  0  0  0
  -30.0520  -15.4459   21.1961 N   0  0  0  0  0  0
  -30.4897  -24.7950   20.4418 O   0  0  0  0  0  0
  -29.2699  -18.0426   21.9198 S   0  0  0  0  0  0
  -31.4641  -12.3695   19.1330 H   0  0  0  0  0  0
  -30.3003  -11.2811   19.8257 H   0  0  0  0  0  0
  -29.7391  -11.7868   17.4259 H   0  0  0  0  0  0
  -29.6699  -13.4936   17.7857 H   0  0  0  0  0  0
  -27.8295  -11.3065   18.8182 H   0  0  0  0  0  0
  -27.3694  -12.6334   17.7853 H   0  0  0  0  0  0
  -27.7069  -14.2523   19.5703 H   0  0  0  0  0  0
  -28.6661  -11.9591   21.3533 H   0  0  0  0  0  0
  -28.4561  -13.6010   21.8703 H   0  0  0  0  0  0
  -25.2742   -9.5706   22.4747 H   0  0  0  0  0  0
  -23.9987   -7.4656   22.7487 H   0  0  0  0  0  0
  -21.0814   -8.8761   19.8965 H   0  0  0  0  0  0
  -22.3654  -10.9667   19.6161 H   0  0  0  0  0  0
  -21.2007   -7.6145   23.9699 H   0  0  0  0  0  0
  -21.1486   -6.0531   25.9073 H   0  0  0  0  0  0
  -22.0594   -2.7599   23.2859 H   0  0  0  0  0  0
  -22.4097  -11.9931   22.4791 H   0  0  0  0  0  0
  -21.1113  -13.1312   22.2558 H   0  0  0  0  0  0
  -24.6730  -15.8472   20.5116 H   0  0  0  0  0  0
  -26.2899  -15.6194   20.0779 H   0  0  0  0  0  0
  -26.7134  -32.5537   23.1161 H   0  0  0  0  0  0
  -25.0083  -33.9772   25.0479 H   0  0  0  0  0  0
  -22.6917  -31.3133   21.4136 H   0  0  0  0  0  0
  -23.3730  -35.9665   23.3310 H   0  0  0  0  0  0
  -24.3580  -36.8916   22.2045 H   0  0  0  0  0  0
  -23.7253  -37.6533   23.6640 H   0  0  0  0  0  0
  -26.0426  -31.6027   20.5965 H   0  0  0  0  0  0
  -26.8227  -30.8893   21.9795 H   0  0  0  0  0  0
  -28.1012  -29.0883   21.1617 H   0  0  0  0  0  0
  -25.9908  -25.9966   18.9789 H   0  0  0  0  0  0
  -23.9624  -27.3193   19.0272 H   0  0  0  0  0  0
  -23.7114  -30.6051   19.4014 H   0  0  0  0  0  0
  -22.7347  -29.2468   19.8735 H   0  0  0  0  0  0
  -25.1285  -36.1965   25.0816 H   0  0  0  0  0  0
  -20.9967  -28.3225   24.1432 H   0  0  0  0  0  0
  -20.5639  -26.2278   23.3597 H   0  0  0  0  0  0
  -21.6625  -26.7433   22.1213 H   0  0  0  0  0  0
  -19.6885  -25.6308   21.1217 H   0  0  0  0  0  0
  -19.6657  -27.3210   20.6741 H   0  0  0  0  0  0
  -17.4178  -26.6679   21.4036 H   0  0  0  0  0  0
  -18.0331  -26.0063   22.9017 H   0  0  0  0  0  0
  -19.7924  -30.7253   24.2301 H   0  0  0  0  0  0
  -17.5008  -31.6270   24.5158 H   0  0  0  0  0  0
  -15.5347  -30.2993   23.7637 H   0  0  0  0  0  0
  -15.8667  -28.0829   22.7051 H   0  0  0  0  0  0
  -24.5909  -30.7080   25.7828 H   0  0  0  0  0  0
  -24.8941  -32.2906   26.4912 H   0  0  0  0  0  0
  -25.8101  -30.8926   27.0237 H   0  0  0  0  0  0
  -26.2827  -29.6822   24.1145 H   0  0  0  0  0  0
  -27.4025  -29.7274   25.4579 H   0  0  0  0  0  0
  -27.8683  -30.4341   23.9268 H   0  0  0  0  0  0
  -27.2643  -33.3617   26.2102 H   0  0  0  0  0  0
  -28.3849  -32.6919   25.0325 H   0  0  0  0  0  0
  -28.0710  -31.8435   26.5400 H   0  0  0  0  0  0
  -28.2603  -38.0096   24.7500 H   0  0  0  0  0  0
  -28.1060  -36.2629   24.6303 H   0  0  0  0  0  0
  -27.2296  -37.1482   25.8868 H   0  0  0  0  0  0
  -20.9289  -29.8796   21.6972 H   0  0  0  0  0  0
  -26.0178  -38.2861   24.1416 H   0  0  0  0  0  0
  -33.5516  -20.0918   21.0721 H   0  0  0  0  0  0
  -32.6144  -21.4207   20.4031 H   0  0  0  0  0  0
  -33.9657  -20.7799   19.5088 H   0  0  0  0  0  0
  -31.2583  -19.0594   17.5570 H   0  0  0  0  0  0
  -32.5017  -20.2926   17.4531 H   0  0  0  0  0  0
  -30.9349  -20.6748   18.1487 H   0  0  0  0  0  0
  -30.9653  -22.3403   21.4372 H   0  0  0  0  0  0
  -30.4452  -21.7365   19.8706 H   0  0  0  0  0  0
  -27.2732  -24.9536   20.5561 H   0  0  0  0  0  0
  -27.9636  -25.0005   18.9361 H   0  0  0  0  0  0
  -32.9459  -18.6766   19.2069 H   0  0  0  0  0  0
  -27.1204  -23.2428   21.1847 H   0  0  0  0  0  0
  -28.8413  -20.7314   21.9797 H   0  0  0  0  0  0
  -29.2066  -15.1656   21.6684 H   0  0  0  0  0  0
  1 25  1  0  0  0
  1 30  2  0  0  0
  1 84  1  0  0  0
  2  3  1  0  0  0
  2 25  1  0  0  0
  2 87  1  0  0  0
  2 88  1  0  0  0
  3  4  1  0  0  0
  3 89  1  0  0  0
  3 90  1  0  0  0
  4  5  1  0  0  0
  4 91  1  0  0  0
  4 92  1  0  0  0
  5  6  1  0  0  0
  5 26  1  0  0  0
  5 93  1  0  0  0
  6 25  1  0  0  0
  6 94  1  0  0  0
  6 95  1  0  0  0
  7  8  2  0  0  0
  7 26  1  0  0  0
  7 29  1  0  0  0
  8  9  1  0  0  0
  8 22  1  0  0  0
  9 10  1  0  0  0
  9 27  2  0  0  0
 10 11  2  0  0  0
 10 15  1  0  0  0
 11 12  1  0  0  0
 11 96  1  0  0  0
 12 13  2  0  0  0
 12 97  1  0  0  0
 13 14  1  0  0  0
 13 31  1  0  0  0
 14 15  2  0  0  0
 14 98  1  0  0  0
 15 99  1  0  0  0
 16 17  2  0  0  0
 16 21  1  0  0  0
 16 31  1  0  0  0
 17 18  1  0  0  0
 17100  1  0  0  0
 18 19  2  0  0  0
 18101  1  0  0  0
 19 20  1  0  0  0
 19 24  1  0  0  0
 20 21  2  0  0  0
 20102  1  0  0  0
 21 23  1  0  0  0
 22 28  1  0  0  0
 22 32  2  0  0  0
 26 27  1  0  0  0
 28103  1  0  0  0
 28104  1  0  0  0
 29105  1  0  0  0
 29106  1  0  0  0
 33 34  1  0  0  0
 33 66  1  0  0  0
 33 70  2  0  0  0
 34 36  1  0  0  0
 34 59  1  0  0  0
 34107  1  0  0  0
 35 44  2  0  0  0
 35 45  1  0  0  0
 35 68  1  0  0  0
 36 56  1  0  0  0
 36108  1  0  0  0
 37 39  1  0  0  0
 37 47  1  0  0  0
 37 66  1  0  0  0
 37109  1  0  0  0
 38 43  2  0  0  0
 38 46  1  0  0  0
 38 47  1  0  0  0
 39 64  1  0  0  0
 39 67  2  0  0  0
 40 52  1  0  0  0
 40 53  2  0  0  0
 40 58  1  0  0  0
 41110  1  0  0  0
 41111  1  0  0  0
 41112  1  0  0  0
 41 48  1  0  0  0
 42 43  1  0  0  0
 42 66  1  0  0  0
 42113  1  0  0  0
 42114  1  0  0  0
 43 44  1  0  0  0
 44115  1  0  0  0
 45 46  2  0  0  0
 45116  1  0  0  0
 46117  1  0  0  0
 47118  1  0  0  0
 47119  1  0  0  0
 48 56  1  0  0  0
 48 65  1  0  0  0
 48120  1  0  0  0
 49 50  1  0  0  0
 49 53  1  0  0  0
 49 64  1  0  0  0
 49121  1  0  0  0
 50 51  1  0  0  0
 50122  1  0  0  0
 50123  1  0  0  0
 51 52  1  0  0  0
 51124  1  0  0  0
 51125  1  0  0  0
 52126  1  0  0  0
 52127  1  0  0  0
 53 54  1  0  0  0
 54 55  2  0  0  0
 54128  1  0  0  0
 55 57  1  0  0  0
 55129  1  0  0  0
 56 69  2  0  0  0
 57 58  2  0  0  0
 57130  1  0  0  0
 58131  1  0  0  0
 59 60  1  0  0  0
 59 61  1  0  0  0
 59 62  1  0  0  0
 60132  1  0  0  0
 60133  1  0  0  0
 60134  1  0  0  0
 61135  1  0  0  0
 61136  1  0  0  0
 61137  1  0  0  0
 62138  1  0  0  0
 62139  1  0  0  0
 62140  1  0  0  0
 63 65  1  0  0  0
 63141  1  0  0  0
 63142  1  0  0  0
 63143  1  0  0  0
 64144  1  0  0  0
 65145  1  0  0  0
 68 79  1  0  0  0
 71 72  2  0  0  0
 71 80  1  0  0  0
 71 81  1  0  0  0
 72 83  1  0  0  0
 72 86  1  0  0  0
 73 81  2  0  0  0
 73 84  1  0  0  0
 73 86  1  0  0  0
 74 75  1  0  0  0
 74 78  1  0  0  0
 74 82  2  0  0  0
 75 79  1  0  0  0
 75 85  2  0  0  0
 76146  1  0  0  0
 76147  1  0  0  0
 76148  1  0  0  0
 76 80  1  0  0  0
 77 80  1  0  0  0
 77149  1  0  0  0
 77150  1  0  0  0
 77151  1  0  0  0
 78 83  1  0  0  0
 78152  1  0  0  0
 78153  1  0  0  0
 79154  1  0  0  0
 79155  1  0  0  0
 80156  1  0  0  0
 82157  1  0  0  0
 83158  1  0  0  0
 84159  1  0  0  0
M  ISO  4   1 100  68 101  79 101  84 100
M  END
> <chiral flag>
0

> <version>
0

> <s_m_source_file>
/data/baiqing/PycharmProjects/Reinvent-master-3.2/result/LINK_invent/BTK/process_docking_weight1_custom_product_contain_oxygen_bond_distance_aromatic_linkinvent_7_9_3/rearranged_h_0163.sdf

> <i_m_source_file_index>
7

> <r_mmod_Potential_Energy-OPLS-2005>
30.8631534576416

> <r_mmod_Stretch_Energy-OPLS-2005>
42.4951171875

> <r_mmod_Bend_Energy-OPLS-2005>
129.403442382812

> <r_mmod_Torsional_Energy-OPLS-2005>
199.526336669922

> <r_mmod_Improper_Torsional_Energy-OPLS-2005>
5.21182775497437

> <r_mmod_Van_der_Waal_Energy-OPLS-2005>
146.490219116211

> <r_mmod_Electrostatic_Energy-OPLS-2005>
-252.367004394531

> <r_mmod_Solvation_Energy-OPLS-2005>
-253.522323608398

> <b_mmod_Minimization_Converged-OPLS-2005>
0

> <r_mmod_RMS_Derivative-OPLS-2005>
1.42590141296387

$$$$
7
                    3D
 Structure written by MMmdl.
149157  0  0  1  0            999 V2000
  -30.6072  -14.5971   20.5728 C   0  0  0  0  0  0
  -30.4493  -12.3874   19.4324 C   0  0  0  0  0  0
  -29.5116  -12.5449   18.2129 C   0  0  0  0  0  0
  -28.0306  -12.3792   18.6160 C   0  0  0  0  0  0
  -27.6631  -13.2093   19.8749 C   0  0  2  0  0  0
  -28.7045  -12.9842   20.9940 C   0  0  0  0  0  0
  -25.2575  -13.8139   20.5591 C   0  0  0  0  0  0
  -24.1847  -13.0421   20.9154 C   0  0  0  0  0  0
  -24.6408  -11.6896   20.8723 C   0  0  0  0  0  0
  -23.9062  -10.4292   21.0406 C   0  0  0  0  0  0
  -24.3620   -9.4211   21.9184 C   0  0  0  0  0  0
  -23.6300   -8.2240   22.0748 C   0  0  0  0  0  0
  -22.4273   -8.0283   21.3546 C   0  0  0  0  0  0
  -21.9911   -9.0252   20.4645 C   0  0  0  0  0  0
  -22.7233  -10.2131   20.3055 C   0  0  0  0  0  0
  -21.6853   -6.0743   22.5292 C   0  0  0  0  0  0
  -21.4007   -6.5645   23.8224 C   0  0  0  0  0  0
  -21.3661   -5.6790   24.9189 C   0  0  0  0  0  0
  -21.6054   -4.3052   24.7231 C   0  0  0  0  0  0
  -21.8822   -3.8148   23.4345 C   0  0  0  0  0  0
  -21.9193   -4.6972   22.3405 C   0  0  0  0  0  0
  -22.7873  -13.5213   21.1835 C   0  0  0  0  0  0
  -22.1666   -4.2163   21.0983 F   0  0  0  0  0  0
  -21.5637   -3.4535   25.7735 F   0  0  0  0  0  0
  -30.0288  -13.3591   20.4597 N   0  0  0  0  0  0
  -26.3035  -12.9320   20.3315 N   0  0  0  0  0  0
  -25.9338  -11.6479   20.5741 N   0  0  0  0  0  0
  -22.0512  -12.8202   22.0398 N   0  0  0  0  0  0
  -25.4216  -15.1846   20.3845 N   0  0  0  0  0  0
  -31.7050  -14.8556   20.0651 O   0  0  0  0  0  0
  -21.6637   -6.8884   21.4251 O   0  0  0  0  0  0
  -22.3558  -14.5522   20.6687 O   0  0  0  0  0  0
  -24.6224  -31.8620   23.2025 C   0  0  0  0  0  0
  -25.9085  -32.4790   23.8346 C   0  0  1  0  0  0
  -27.2293  -27.3430   20.1082 C   0  0  0  0  0  0
  -25.5917  -33.8592   24.2275 N   0  0  0  0  0  0
  -23.4144  -30.4826   21.5470 C   0  0  2  0  0  0
  -24.8591  -28.9344   20.1151 C   0  0  0  0  0  0
  -22.7453  -29.4618   22.4970 C   0  0  0  0  0  0
  -18.0278  -28.1364   22.8504 C   0  0  0  0  0  0
  -24.1493  -36.7293   23.2642 C   0  0  0  0  0  0
  -25.9520  -30.7976   21.3687 C   0  0  0  0  0  0
  -26.0261  -29.4257   20.7123 C   0  0  0  0  0  0
  -27.2129  -28.6419   20.6970 C   0  0  0  0  0  0
  -26.0360  -26.8854   19.5048 C   0  0  0  0  0  0
  -24.8644  -27.6693   19.5051 C   0  0  0  0  0  0
  -23.6257  -29.8134   20.1631 C   0  0  0  0  0  0
  -25.4123  -36.3094   24.0333 C   0  0  1  0  0  0
  -20.5874  -28.3657   23.1319 C   0  0  2  0  0  0
  -20.6765  -26.9382   22.5433 C   0  0  0  0  0  0
  -19.5747  -26.6368   21.5226 C   0  0  0  0  0  0
  -18.1923  -26.7914   22.1628 C   0  0  0  0  0  0
  -19.1529  -28.8829   23.2907 C   0  0  0  0  0  0
  -18.9450  -30.1436   23.8912 C   0  0  0  0  0  0
  -17.6450  -30.6578   24.0555 C   0  0  0  0  0  0
  -25.9059  -34.9459   23.5105 C   0  0  0  0  0  0
  -16.5341  -29.9072   23.6324 C   0  0  0  0  0  0
  -16.7265  -28.6484   23.0359 C   0  0  0  0  0  0
  -26.4471  -31.6599   25.0713 C   0  0  0  0  0  0
  -25.3698  -31.3740   26.1435 C   0  0  0  0  0  0
  -27.0309  -30.3031   24.6149 C   0  0  0  0  0  0
  -27.6041  -32.4327   25.7472 C   0  0  0  0  0  0
  -27.5586  -37.1804   24.8461 C   0  0  0  0  0  0
  -21.4167  -29.3018   22.3717 N   0  0  0  0  0  0
  -26.4301  -37.3786   23.9403 N   0  0  0  0  0  0
  -24.6818  -31.0639   22.0967 N   0  0  0  0  0  0
  -23.4197  -28.8169   23.3044 O   0  0  0  0  0  0
  -28.3859  -26.5609   20.1216 O   0  0  0  0  0  0
  -26.5628  -34.8924   22.4673 O   0  0  0  0  0  0
  -23.5396  -32.1406   23.7374 O   0  0  0  0  0  0
  -28.1395  -17.1395   21.4640 C   0  0  0  0  0  0
  -29.4243  -16.8571   21.0666 C   0  0  0  0  0  0
  -29.3268  -19.1537   20.6560 C   0  0  0  0  0  0
  -30.0753  -22.9081   20.0957 C   0  0  0  0  0  0
  -29.7304  -24.4431   20.0035 C   0  0  0  0  0  0
  -29.1296  -21.6897   20.2918 C   0  0  0  0  0  0
  -28.3037  -25.0860   20.0347 C   0  0  0  0  0  0
  -30.1058  -18.0279   20.6064 N   0  0  0  0  0  0
  -31.3200  -22.6327   20.0081 N   0  0  0  0  0  0
  -29.8686  -15.4930   21.2856 N   0  0  0  0  0  0
  -29.7945  -20.4856   20.3328 N   0  0  0  0  0  0
  -30.6791  -25.2353   19.8787 O   0  0  0  0  0  0
  -27.9048  -21.8211   20.3814 O   0  0  0  0  0  0
  -27.7018  -18.8128   21.2443 S   0  0  0  0  0  0
  -31.4890  -12.5356   19.1348 H   0  0  0  0  0  0
  -30.3990  -11.3714   19.8275 H   0  0  0  0  0  0
  -29.7745  -11.8235   17.4382 H   0  0  0  0  0  0
  -29.6562  -13.5330   17.7720 H   0  0  0  0  0  0
  -27.8549  -11.3191   18.8048 H   0  0  0  0  0  0
  -27.3807  -12.6518   17.7825 H   0  0  0  0  0  0
  -27.7041  -14.2608   19.5872 H   0  0  0  0  0  0
  -28.7115  -11.9343   21.2919 H   0  0  0  0  0  0
  -28.4327  -13.5302   21.8973 H   0  0  0  0  0  0
  -25.2765   -9.5694   22.4756 H   0  0  0  0  0  0
  -24.0030   -7.4624   22.7448 H   0  0  0  0  0  0
  -21.0849   -8.8756   19.8939 H   0  0  0  0  0  0
  -22.3688  -10.9672   19.6169 H   0  0  0  0  0  0
  -21.1989   -7.6148   23.9743 H   0  0  0  0  0  0
  -21.1485   -6.0510   25.9095 H   0  0  0  0  0  0
  -22.0594   -2.7614   23.2834 H   0  0  0  0  0  0
  -22.4113  -11.9868   22.4808 H   0  0  0  0  0  0
  -21.1127  -13.1229   22.2585 H   0  0  0  0  0  0
  -24.6182  -15.8038   20.4001 H   0  0  0  0  0  0
  -26.2299  -15.5990   19.9380 H   0  0  0  0  0  0
  -26.7150  -32.5456   23.1092 H   0  0  0  0  0  0
  -25.0055  -33.9748   25.0413 H   0  0  0  0  0  0
  -22.7069  -31.3022   21.4049 H   0  0  0  0  0  0
  -23.3763  -35.9616   23.3311 H   0  0  0  0  0  0
  -24.3577  -36.8905   22.2053 H   0  0  0  0  0  0
  -23.7235  -37.6495   23.6655 H   0  0  0  0  0  0
  -26.0815  -31.5620   20.6013 H   0  0  0  0  0  0
  -26.8329  -30.8447   21.9970 H   0  0  0  0  0  0
  -28.1130  -29.0198   21.1612 H   0  0  0  0  0  0
  -25.9888  -25.9190   19.0253 H   0  0  0  0  0  0
  -23.9664  -27.2889   19.0374 H   0  0  0  0  0  0
  -23.7400  -30.5880   19.4039 H   0  0  0  0  0  0
  -22.7453  -29.2405   19.8659 H   0  0  0  0  0  0
  -25.1306  -36.1951   25.0828 H   0  0  0  0  0  0
  -20.9969  -28.3209   24.1439 H   0  0  0  0  0  0
  -20.5660  -26.2257   23.3623 H   0  0  0  0  0  0
  -21.6634  -26.7409   22.1224 H   0  0  0  0  0  0
  -19.6906  -25.6282   21.1248 H   0  0  0  0  0  0
  -19.6699  -27.3185   20.6765 H   0  0  0  0  0  0
  -17.4204  -26.6686   21.4012 H   0  0  0  0  0  0
  -18.0298  -26.0041   22.9005 H   0  0  0  0  0  0
  -19.7923  -30.7245   24.2292 H   0  0  0  0  0  0
  -17.5000  -31.6265   24.5138 H   0  0  0  0  0  0
  -15.5337  -30.2972   23.7639 H   0  0  0  0  0  0
  -15.8667  -28.0795   22.7075 H   0  0  0  0  0  0
  -24.5884  -30.7081   25.7747 H   0  0  0  0  0  0
  -24.8873  -32.2911   26.4830 H   0  0  0  0  0  0
  -25.8014  -30.8931   27.0223 H   0  0  0  0  0  0
  -26.2880  -29.6796   24.1165 H   0  0  0  0  0  0
  -27.4004  -29.7271   25.4641 H   0  0  0  0  0  0
  -27.8743  -30.4319   23.9364 H   0  0  0  0  0  0
  -27.2665  -33.3628   26.2051 H   0  0  0  0  0  0
  -28.3844  -32.6888   25.0295 H   0  0  0  0  0  0
  -28.0714  -31.8453   26.5383 H   0  0  0  0  0  0
  -28.2607  -38.0097   24.7513 H   0  0  0  0  0  0
  -28.1082  -36.2634   24.6286 H   0  0  0  0  0  0
  -27.2308  -37.1445   25.8864 H   0  0  0  0  0  0
  -20.9335  -29.8738   21.6930 H   0  0  0  0  0  0
  -26.0190  -38.2864   24.1403 H   0  0  0  0  0  0
  -27.4021  -16.4677   21.8855 H   0  0  0  0  0  0
  -27.7426  -24.6927   20.8830 H   0  0  0  0  0  0
  -27.7879  -24.7836   19.1237 H   0  0  0  0  0  0
  -31.8112  -23.5161   19.9002 H   0  0  0  0  0  0
  -29.1885  -14.9723   21.8164 H   0  0  0  0  0  0
  -30.7887  -20.6007   20.1802 H   0  0  0  0  0  0
  1 25  1  0  0  0
  1 30  2  0  0  0
  1 80  1  0  0  0
  2  3  1  0  0  0
  2 25  1  0  0  0
  2 85  1  0  0  0
  2 86  1  0  0  0
  3  4  1  0  0  0
  3 87  1  0  0  0
  3 88  1  0  0  0
  4  5  1  0  0  0
  4 89  1  0  0  0
  4 90  1  0  0  0
  5  6  1  0  0  0
  5 26  1  0  0  0
  5 91  1  0  0  0
  6 25  1  0  0  0
  6 92  1  0  0  0
  6 93  1  0  0  0
  7  8  2  0  0  0
  7 26  1  0  0  0
  7 29  1  0  0  0
  8  9  1  0  0  0
  8 22  1  0  0  0
  9 10  1  0  0  0
  9 27  2  0  0  0
 10 11  2  0  0  0
 10 15  1  0  0  0
 11 12  1  0  0  0
 11 94  1  0  0  0
 12 13  2  0  0  0
 12 95  1  0  0  0
 13 14  1  0  0  0
 13 31  1  0  0  0
 14 15  2  0  0  0
 14 96  1  0  0  0
 15 97  1  0  0  0
 16 17  2  0  0  0
 16 21  1  0  0  0
 16 31  1  0  0  0
 17 18  1  0  0  0
 17 98  1  0  0  0
 18 19  2  0  0  0
 18 99  1  0  0  0
 19 20  1  0  0  0
 19 24  1  0  0  0
 20 21  2  0  0  0
 20100  1  0  0  0
 21 23  1  0  0  0
 22 28  1  0  0  0
 22 32  2  0  0  0
 26 27  1  0  0  0
 28101  1  0  0  0
 28102  1  0  0  0
 29103  1  0  0  0
 29104  1  0  0  0
 33 34  1  0  0  0
 33 66  1  0  0  0
 33 70  2  0  0  0
 34 36  1  0  0  0
 34 59  1  0  0  0
 34105  1  0  0  0
 35 44  2  0  0  0
 35 45  1  0  0  0
 35 68  1  0  0  0
 36 56  1  0  0  0
 36106  1  0  0  0
 37 39  1  0  0  0
 37 47  1  0  0  0
 37 66  1  0  0  0
 37107  1  0  0  0
 38 43  2  0  0  0
 38 46  1  0  0  0
 38 47  1  0  0  0
 39 64  1  0  0  0
 39 67  2  0  0  0
 40 52  1  0  0  0
 40 53  2  0  0  0
 40 58  1  0  0  0
 41108  1  0  0  0
 41109  1  0  0  0
 41110  1  0  0  0
 41 48  1  0  0  0
 42 43  1  0  0  0
 42 66  1  0  0  0
 42111  1  0  0  0
 42112  1  0  0  0
 43 44  1  0  0  0
 44113  1  0  0  0
 45 46  2  0  0  0
 45114  1  0  0  0
 46115  1  0  0  0
 47116  1  0  0  0
 47117  1  0  0  0
 48 56  1  0  0  0
 48 65  1  0  0  0
 48118  1  0  0  0
 49 50  1  0  0  0
 49 53  1  0  0  0
 49 64  1  0  0  0
 49119  1  0  0  0
 50 51  1  0  0  0
 50120  1  0  0  0
 50121  1  0  0  0
 51 52  1  0  0  0
 51122  1  0  0  0
 51123  1  0  0  0
 52124  1  0  0  0
 52125  1  0  0  0
 53 54  1  0  0  0
 54 55  2  0  0  0
 54126  1  0  0  0
 55 57  1  0  0  0
 55127  1  0  0  0
 56 69  2  0  0  0
 57 58  2  0  0  0
 57128  1  0  0  0
 58129  1  0  0  0
 59 60  1  0  0  0
 59 61  1  0  0  0
 59 62  1  0  0  0
 60130  1  0  0  0
 60131  1  0  0  0
 60132  1  0  0  0
 61133  1  0  0  0
 61134  1  0  0  0
 61135  1  0  0  0
 62136  1  0  0  0
 62137  1  0  0  0
 62138  1  0  0  0
 63 65  1  0  0  0
 63139  1  0  0  0
 63140  1  0  0  0
 63141  1  0  0  0
 64142  1  0  0  0
 65143  1  0  0  0
 68 77  1  0  0  0
 71 72  2  0  0  0
 71 84  1  0  0  0
 71144  1  0  0  0
 72 78  1  0  0  0
 72 80  1  0  0  0
 73 78  2  0  0  0
 73 81  1  0  0  0
 73 84  1  0  0  0
 74 75  1  0  0  0
 74 76  1  0  0  0
 74 79  2  0  0  0
 75 77  1  0  0  0
 75 82  2  0  0  0
 76 81  1  0  0  0
 76 83  2  0  0  0
 77145  1  0  0  0
 77146  1  0  0  0
 79147  1  0  0  0
 80148  1  0  0  0
 81149  1  0  0  0
M  ISO  4   1 100  68 101  77 101  80 100
M  END
> <chiral flag>
0

> <version>
0

> <s_m_source_file>
/data/baiqing/PycharmProjects/Reinvent-master-3.2/result/LINK_invent/BTK/process_docking_weight1_custom_product_contain_oxygen_bond_distance_aromatic_linkinvent_7_9_3/rearranged_h_0163.sdf

> <i_m_source_file_index>
8

> <r_mmod_Potential_Energy-OPLS-2005>
-9.89187431335449

> <r_mmod_Stretch_Energy-OPLS-2005>
75.4286117553711

> <r_mmod_Bend_Energy-OPLS-2005>
174.961151123047

> <r_mmod_Torsional_Energy-OPLS-2005>
215.666870117188

> <r_mmod_Improper_Torsional_Energy-OPLS-2005>
6.22081804275513

> <r_mmod_Van_der_Waal_Energy-OPLS-2005>
133.639312744141

> <r_mmod_Electrostatic_Energy-OPLS-2005>
-390.652984619141

> <r_mmod_Solvation_Energy-OPLS-2005>
-260.490264892578

> <b_mmod_Minimization_Converged-OPLS-2005>
0

> <r_mmod_RMS_Derivative-OPLS-2005>
1.67838990688324

$$$$
8
                    3D
 Structure written by MMmdl.
174182  0  0  1  0            999 V2000
  -30.6510  -14.4952   20.4990 C   0  0  0  0  0  0
  -30.4373  -12.2944   19.4448 C   0  0  0  0  0  0
  -29.5120  -12.4676   18.2210 C   0  0  0  0  0  0
  -28.0312  -12.3287   18.6251 C   0  0  0  0  0  0
  -27.6614  -13.1861   19.8666 C   0  0  2  0  0  0
  -28.6977  -12.9893   20.9958 C   0  0  0  0  0  0
  -25.2657  -13.7966   20.5889 C   0  0  0  0  0  0
  -24.1835  -13.0334   20.9240 C   0  0  0  0  0  0
  -24.6358  -11.6789   20.8753 C   0  0  0  0  0  0
  -23.9001  -10.4245   21.0443 C   0  0  0  0  0  0
  -24.3548   -9.4189   21.9233 C   0  0  0  0  0  0
  -23.6221   -8.2250   22.0809 C   0  0  0  0  0  0
  -22.4235   -8.0267   21.3568 C   0  0  0  0  0  0
  -21.9827   -9.0230   20.4702 C   0  0  0  0  0  0
  -22.7176  -10.2093   20.3100 C   0  0  0  0  0  0
  -21.6836   -6.0737   22.5299 C   0  0  0  0  0  0
  -21.4039   -6.5671   23.8239 C   0  0  0  0  0  0
  -21.3638   -5.6838   24.9214 C   0  0  0  0  0  0
  -21.6016   -4.3095   24.7259 C   0  0  0  0  0  0
  -21.8823   -3.8156   23.4403 C   0  0  0  0  0  0
  -21.9193   -4.6966   22.3449 C   0  0  0  0  0  0
  -22.7875  -13.5208   21.1868 C   0  0  0  0  0  0
  -22.1649   -4.2165   21.1030 F   0  0  0  0  0  0
  -21.5598   -3.4557   25.7748 F   0  0  0  0  0  0
  -30.0257  -13.2923   20.4401 N   0  0  0  0  0  0
  -26.3034  -12.9143   20.3325 N   0  0  0  0  0  0
  -25.9272  -11.6335   20.5684 N   0  0  0  0  0  0
  -22.0385  -12.8311   22.0413 N   0  0  0  0  0  0
  -25.4579  -15.1626   20.4758 N   0  0  0  0  0  0
  -31.8141  -14.6635   20.1228 O   0  0  0  0  0  0
  -21.6625   -6.8840   21.4240 O   0  0  0  0  0  0
  -22.3635  -14.5551   20.6730 O   0  0  0  0  0  0
  -24.6128  -31.8715   23.2127 C   0  0  0  0  0  0
  -25.9038  -32.4854   23.8417 C   0  0  1  0  0  0
  -27.2355  -27.4549   20.0641 C   0  0  0  0  0  0
  -25.5902  -33.8654   24.2358 N   0  0  0  0  0  0
  -23.3992  -30.4965   21.5540 C   0  0  2  0  0  0
  -24.8430  -28.9650   20.1133 C   0  0  0  0  0  0
  -22.7383  -29.4684   22.4995 C   0  0  0  0  0  0
  -18.0276  -28.1362   22.8508 C   0  0  0  0  0  0
  -24.1467  -36.7299   23.2623 C   0  0  0  0  0  0
  -25.9230  -30.8398   21.3604 C   0  0  0  0  0  0
  -25.9994  -29.4700   20.7153 C   0  0  0  0  0  0
  -27.1918  -28.7128   20.7034 C   0  0  0  0  0  0
  -26.0517  -26.9536   19.4679 C   0  0  0  0  0  0
  -24.8631  -27.7044   19.4905 C   0  0  0  0  0  0
  -23.6088  -29.8309   20.1663 C   0  0  0  0  0  0
  -25.4086  -36.3120   24.0327 C   0  0  1  0  0  0
  -20.5861  -28.3651   23.1322 C   0  0  2  0  0  0
  -20.6739  -26.9389   22.5417 C   0  0  0  0  0  0
  -19.5724  -26.6386   21.5191 C   0  0  0  0  0  0
  -18.1919  -26.7926   22.1618 C   0  0  0  0  0  0
  -19.1525  -28.8817   23.2931 C   0  0  0  0  0  0
  -18.9448  -30.1419   23.8944 C   0  0  0  0  0  0
  -17.6457  -30.6580   24.0577 C   0  0  0  0  0  0
  -25.9006  -34.9493   23.5145 C   0  0  0  0  0  0
  -16.5350  -29.9101   23.6328 C   0  0  0  0  0  0
  -16.7268  -28.6518   23.0352 C   0  0  0  0  0  0
  -26.4482  -31.6632   25.0744 C   0  0  0  0  0  0
  -25.3729  -31.3771   26.1484 C   0  0  0  0  0  0
  -27.0303  -30.3094   24.6080 C   0  0  0  0  0  0
  -27.6079  -32.4336   25.7511 C   0  0  0  0  0  0
  -27.5573  -37.1802   24.8465 C   0  0  0  0  0  0
  -21.4123  -29.3044   22.3760 N   0  0  0  0  0  0
  -26.4266  -37.3804   23.9439 N   0  0  0  0  0  0
  -24.6637  -31.0834   22.1018 N   0  0  0  0  0  0
  -23.4211  -28.8186   23.2965 O   0  0  0  0  0  0
  -28.4345  -26.7688   20.0676 O   0  0  0  0  0  0
  -26.5541  -34.8956   22.4701 O   0  0  0  0  0  0
  -23.5337  -32.1449   23.7546 O   0  0  0  0  0  0
  -29.2169  -19.5238   22.4988 C   0  0  0  0  0  0
  -28.1959  -18.7216   20.6227 C   0  0  0  0  0  0
  -28.1491  -19.6906   21.6725 C   0  0  0  0  0  0
  -29.3459  -18.0062   20.9033 C   0  0  0  0  0  0
  -27.9317  -23.6734   20.3842 C   0  0  0  0  0  0
  -29.0460  -24.4292   19.6994 C   0  0  0  0  0  0
  -26.9686  -21.8945   21.5278 C   0  0  0  0  0  0
  -25.6783  -22.5784   21.9108 C   0  0  0  0  0  0
  -24.7771  -19.7130   17.7414 C   0  0  0  0  0  0
  -23.3054  -18.3643   19.2462 C   0  0  0  0  0  0
  -24.9408  -17.2295   17.7315 C   0  0  0  0  0  0
  -27.2420  -18.5623   19.4421 C   0  0  0  0  0  0
  -30.1104  -16.9001   20.2238 C   0  0  0  0  0  0
  -28.6863  -25.7805   19.0594 C   0  0  0  0  0  0
  -25.7365  -18.5499   19.8065 C   0  0  0  0  0  0
  -24.7164  -18.4590   18.6334 C   0  0  0  0  0  0
  -27.9907  -22.4734   20.8345 N   0  0  0  0  0  0
  -29.8341  -15.5453   20.7198 N   0  0  0  0  0  0
  -27.1008  -20.6616   21.8998 N   0  3  0  0  0  0
  -30.2046  -23.9979   19.6398 O   0  0  0  0  0  0
  -29.9637  -18.4883   22.0309 O   0  0  0  0  0  0
  -31.4856  -12.3993   19.1542 H   0  0  0  0  0  0
  -30.3457  -11.2906   19.8613 H   0  0  0  0  0  0
  -29.7599  -11.7276   17.4583 H   0  0  0  0  0  0
  -29.6783  -13.4478   17.7723 H   0  0  0  0  0  0
  -27.8539  -11.2729   18.8366 H   0  0  0  0  0  0
  -27.3874  -12.5822   17.7832 H   0  0  0  0  0  0
  -27.6960  -14.2275   19.5446 H   0  0  0  0  0  0
  -28.6703  -11.9607   21.3549 H   0  0  0  0  0  0
  -28.4591  -13.6031   21.8647 H   0  0  0  0  0  0
  -25.2660   -9.5720   22.4862 H   0  0  0  0  0  0
  -23.9925   -7.4688   22.7584 H   0  0  0  0  0  0
  -21.0746   -8.8811   19.9008 H   0  0  0  0  0  0
  -22.3669  -10.9669   19.6262 H   0  0  0  0  0  0
  -21.2069   -7.6188   23.9717 H   0  0  0  0  0  0
  -21.1425   -6.0599   25.9114 H   0  0  0  0  0  0
  -22.0594   -2.7619   23.2953 H   0  0  0  0  0  0
  -22.3764  -11.9901   22.4882 H   0  0  0  0  0  0
  -21.1025  -13.1576   22.2452 H   0  0  0  0  0  0
  -24.6868  -15.8137   20.5632 H   0  0  0  0  0  0
  -26.3090  -15.5931   20.1440 H   0  0  0  0  0  0
  -26.7132  -32.5622   23.1196 H   0  0  0  0  0  0
  -25.0155  -33.9808   25.0584 H   0  0  0  0  0  0
  -22.6860  -31.3128   21.4196 H   0  0  0  0  0  0
  -23.3723  -35.9640   23.3280 H   0  0  0  0  0  0
  -24.3528  -36.8923   22.2035 H   0  0  0  0  0  0
  -23.7203  -37.6499   23.6639 H   0  0  0  0  0  0
  -26.0115  -31.5919   20.5776 H   0  0  0  0  0  0
  -26.8206  -30.9142   21.9636 H   0  0  0  0  0  0
  -28.0863  -29.0941   21.1749 H   0  0  0  0  0  0
  -26.0038  -25.9873   18.9899 H   0  0  0  0  0  0
  -23.9736  -27.3139   19.0173 H   0  0  0  0  0  0
  -23.7230  -30.6072   19.4093 H   0  0  0  0  0  0
  -22.7349  -29.2530   19.8679 H   0  0  0  0  0  0
  -25.1258  -36.1987   25.0805 H   0  0  0  0  0  0
  -20.9982  -28.3225   24.1420 H   0  0  0  0  0  0
  -20.5552  -26.2253   23.3588 H   0  0  0  0  0  0
  -21.6615  -26.7390   22.1233 H   0  0  0  0  0  0
  -19.6850  -25.6301   21.1214 H   0  0  0  0  0  0
  -19.6649  -27.3174   20.6712 H   0  0  0  0  0  0
  -17.4153  -26.6672   21.4063 H   0  0  0  0  0  0
  -18.0347  -26.0040   22.8996 H   0  0  0  0  0  0
  -19.7924  -30.7231   24.2349 H   0  0  0  0  0  0
  -17.5028  -31.6257   24.5157 H   0  0  0  0  0  0
  -15.5358  -30.3016   23.7597 H   0  0  0  0  0  0
  -15.8681  -28.0839   22.7013 H   0  0  0  0  0  0
  -24.5878  -30.7162   25.7793 H   0  0  0  0  0  0
  -24.8931  -32.2953   26.4924 H   0  0  0  0  0  0
  -25.8017  -30.8927   27.0269 H   0  0  0  0  0  0
  -26.2851  -29.6872   24.1103 H   0  0  0  0  0  0
  -27.4060  -29.7334   25.4547 H   0  0  0  0  0  0
  -27.8698  -30.4425   23.9233 H   0  0  0  0  0  0
  -27.2716  -33.3641   26.2125 H   0  0  0  0  0  0
  -28.3859  -32.6906   25.0294 H   0  0  0  0  0  0
  -28.0779  -31.8425   26.5395 H   0  0  0  0  0  0
  -28.2589  -38.0105   24.7535 H   0  0  0  0  0  0
  -28.1056  -36.2642   24.6240 H   0  0  0  0  0  0
  -27.2289  -37.1397   25.8862 H   0  0  0  0  0  0
  -20.9249  -29.8919   21.7137 H   0  0  0  0  0  0
  -26.0151  -38.2882   24.1488 H   0  0  0  0  0  0
  -29.5668  -20.0099   23.4003 H   0  0  0  0  0  0
  -27.0140  -24.2592   20.4849 H   0  0  0  0  0  0
  -25.8768  -23.5061   22.4497 H   0  0  0  0  0  0
  -25.0746  -21.9488   22.5626 H   0  0  0  0  0  0
  -25.0888  -22.8002   21.0228 H   0  0  0  0  0  0
  -24.0279  -19.6568   16.9491 H   0  0  0  0  0  0
  -25.7455  -19.8135   17.2506 H   0  0  0  0  0  0
  -24.5892  -20.6296   18.3058 H   0  0  0  0  0  0
  -22.5354  -18.2908   18.4760 H   0  0  0  0  0  0
  -23.0712  -19.2411   19.8553 H   0  0  0  0  0  0
  -23.2054  -17.4888   19.8908 H   0  0  0  0  0  0
  -24.9186  -16.2988   18.2875 H   0  0  0  0  0  0
  -25.8969  -17.2794   17.2109 H   0  0  0  0  0  0
  -24.1656  -17.1491   16.9671 H   0  0  0  0  0  0
  -27.5001  -17.6486   18.9080 H   0  0  0  0  0  0
  -27.4425  -19.3846   18.7549 H   0  0  0  0  0  0
  -31.1740  -17.1120   20.3270 H   0  0  0  0  0  0
  -29.9167  -16.9183   19.1498 H   0  0  0  0  0  0
  -27.8792  -25.6505   18.3415 H   0  0  0  0  0  0
  -29.5404  -26.1196   18.4709 H   0  0  0  0  0  0
  -25.4877  -19.4499   20.3619 H   0  0  0  0  0  0
  -25.5594  -17.7375   20.5053 H   0  0  0  0  0  0
  -28.8880  -15.3407   20.9986 H   0  0  0  0  0  0
  -26.3358  -20.3029   22.4665 H   0  0  0  0  0  0
  1 25  1  0  0  0
  1 30  2  0  0  0
  1 88  1  0  0  0
  2  3  1  0  0  0
  2 25  1  0  0  0
  2 92  1  0  0  0
  2 93  1  0  0  0
  3  4  1  0  0  0
  3 94  1  0  0  0
  3 95  1  0  0  0
  4  5  1  0  0  0
  4 96  1  0  0  0
  4 97  1  0  0  0
  5  6  1  0  0  0
  5 26  1  0  0  0
  5 98  1  0  0  0
  6 25  1  0  0  0
  6 99  1  0  0  0
  6100  1  0  0  0
  7  8  2  0  0  0
  7 26  1  0  0  0
  7 29  1  0  0  0
  8  9  1  0  0  0
  8 22  1  0  0  0
  9 10  1  0  0  0
  9 27  2  0  0  0
 10 11  2  0  0  0
 10 15  1  0  0  0
 11 12  1  0  0  0
 11101  1  0  0  0
 12 13  2  0  0  0
 12102  1  0  0  0
 13 14  1  0  0  0
 13 31  1  0  0  0
 14 15  2  0  0  0
 14103  1  0  0  0
 15104  1  0  0  0
 16 17  2  0  0  0
 16 21  1  0  0  0
 16 31  1  0  0  0
 17 18  1  0  0  0
 17105  1  0  0  0
 18 19  2  0  0  0
 18106  1  0  0  0
 19 20  1  0  0  0
 19 24  1  0  0  0
 20 21  2  0  0  0
 20107  1  0  0  0
 21 23  1  0  0  0
 22 28  1  0  0  0
 22 32  2  0  0  0
 26 27  1  0  0  0
 28108  1  0  0  0
 28109  1  0  0  0
 29110  1  0  0  0
 29111  1  0  0  0
 33 34  1  0  0  0
 33 66  1  0  0  0
 33 70  2  0  0  0
 34 36  1  0  0  0
 34 59  1  0  0  0
 34112  1  0  0  0
 35 44  2  0  0  0
 35 45  1  0  0  0
 35 68  1  0  0  0
 36 56  1  0  0  0
 36113  1  0  0  0
 37 39  1  0  0  0
 37 47  1  0  0  0
 37 66  1  0  0  0
 37114  1  0  0  0
 38 43  2  0  0  0
 38 46  1  0  0  0
 38 47  1  0  0  0
 39 64  1  0  0  0
 39 67  2  0  0  0
 40 52  1  0  0  0
 40 53  2  0  0  0
 40 58  1  0  0  0
 41115  1  0  0  0
 41116  1  0  0  0
 41117  1  0  0  0
 41 48  1  0  0  0
 42 43  1  0  0  0
 42 66  1  0  0  0
 42118  1  0  0  0
 42119  1  0  0  0
 43 44  1  0  0  0
 44120  1  0  0  0
 45 46  2  0  0  0
 45121  1  0  0  0
 46122  1  0  0  0
 47123  1  0  0  0
 47124  1  0  0  0
 48 56  1  0  0  0
 48 65  1  0  0  0
 48125  1  0  0  0
 49 50  1  0  0  0
 49 53  1  0  0  0
 49 64  1  0  0  0
 49126  1  0  0  0
 50 51  1  0  0  0
 50127  1  0  0  0
 50128  1  0  0  0
 51 52  1  0  0  0
 51129  1  0  0  0
 51130  1  0  0  0
 52131  1  0  0  0
 52132  1  0  0  0
 53 54  1  0  0  0
 54 55  2  0  0  0
 54133  1  0  0  0
 55 57  1  0  0  0
 55134  1  0  0  0
 56 69  2  0  0  0
 57 58  2  0  0  0
 57135  1  0  0  0
 58136  1  0  0  0
 59 60  1  0  0  0
 59 61  1  0  0  0
 59 62  1  0  0  0
 60137  1  0  0  0
 60138  1  0  0  0
 60139  1  0  0  0
 61140  1  0  0  0
 61141  1  0  0  0
 61142  1  0  0  0
 62143  1  0  0  0
 62144  1  0  0  0
 62145  1  0  0  0
 63 65  1  0  0  0
 63146  1  0  0  0
 63147  1  0  0  0
 63148  1  0  0  0
 64149  1  0  0  0
 65150  1  0  0  0
 68 84  1  0  0  0
 71 73  2  0  0  0
 71 91  1  0  0  0
 71151  1  0  0  0
 72 73  1  0  0  0
 72 74  2  0  0  0
 72 82  1  0  0  0
 73 89  1  0  0  0
 74 83  1  0  0  0
 74 91  1  0  0  0
 75 76  1  0  0  0
 75 87  2  0  0  0
 75152  1  0  0  0
 76 84  1  0  0  0
 76 90  2  0  0  0
 77 78  1  0  0  0
 77 87  1  0  0  0
 77 89  2  0  0  0
 78153  1  0  0  0
 78154  1  0  0  0
 78155  1  0  0  0
 79156  1  0  0  0
 79157  1  0  0  0
 79158  1  0  0  0
 79 86  1  0  0  0
 80 86  1  0  0  0
 80159  1  0  0  0
 80160  1  0  0  0
 80161  1  0  0  0
 81 86  1  0  0  0
 81162  1  0  0  0
 81163  1  0  0  0
 81164  1  0  0  0
 82 85  1  0  0  0
 82165  1  0  0  0
 82166  1  0  0  0
 83 88  1  0  0  0
 83167  1  0  0  0
 83168  1  0  0  0
 84169  1  0  0  0
 84170  1  0  0  0
 85 86  1  0  0  0
 85171  1  0  0  0
 85172  1  0  0  0
 88173  1  0  0  0
 89174  1  0  0  0
M  CHG  1  89   1
M  ISO  4   1 100  68 101  84 101  88 100
M  END
> <chiral flag>
0

> <version>
0

> <s_m_source_file>
/data/baiqing/PycharmProjects/Reinvent-master-3.2/result/LINK_invent/BTK/process_docking_weight1_custom_product_contain_oxygen_bond_distance_aromatic_linkinvent_7_9_3/rearranged_h_0163.sdf

> <i_m_source_file_index>
9

> <r_mmod_Potential_Energy-OPLS-2005>
-140.794357299805

> <r_mmod_Stretch_Energy-OPLS-2005>
38.2708015441895

> <r_mmod_Bend_Energy-OPLS-2005>
131.427047729492

> <r_mmod_Torsional_Energy-OPLS-2005>
255.437438964844

> <r_mmod_Improper_Torsional_Energy-OPLS-2005>
8.32911968231201

> <r_mmod_Van_der_Waal_Energy-OPLS-2005>
125.682510375977

> <r_mmod_Electrostatic_Energy-OPLS-2005>
-246.397491455078

> <r_mmod_Solvation_Energy-OPLS-2005>
-471.439331054688

> <b_mmod_Minimization_Converged-OPLS-2005>
0

> <r_mmod_RMS_Derivative-OPLS-2005>
5.23565578460693

$$$$
9
                    3D
 Structure written by MMmdl.
153161  0  0  1  0            999 V2000
  -30.7118  -14.5667   20.5373 C   0  0  0  0  0  0
  -30.4219  -12.3556   19.4572 C   0  0  0  0  0  0
  -29.5091  -12.5035   18.2251 C   0  0  0  0  0  0
  -28.0312  -12.3564   18.6314 C   0  0  0  0  0  0
  -27.6578  -13.2244   19.8675 C   0  0  2  0  0  0
  -28.7005  -13.0806   20.9956 C   0  0  0  0  0  0
  -25.2575  -13.8195   20.5710 C   0  0  0  0  0  0
  -24.1829  -13.0425   20.9218 C   0  0  0  0  0  0
  -24.6433  -11.6929   20.8747 C   0  0  0  0  0  0
  -23.9094  -10.4297   21.0426 C   0  0  0  0  0  0
  -24.3643   -9.4203   21.9191 C   0  0  0  0  0  0
  -23.6297   -8.2253   22.0763 C   0  0  0  0  0  0
  -22.4267   -8.0298   21.3572 C   0  0  0  0  0  0
  -21.9938   -9.0271   20.4673 C   0  0  0  0  0  0
  -22.7285  -10.2134   20.3073 C   0  0  0  0  0  0
  -21.6837   -6.0749   22.5293 C   0  0  0  0  0  0
  -21.4019   -6.5657   23.8219 C   0  0  0  0  0  0
  -21.3655   -5.6818   24.9176 C   0  0  0  0  0  0
  -21.6058   -4.3068   24.7235 C   0  0  0  0  0  0
  -21.8803   -3.8156   23.4344 C   0  0  0  0  0  0
  -21.9191   -4.6986   22.3405 C   0  0  0  0  0  0
  -22.7852  -13.5259   21.1799 C   0  0  0  0  0  0
  -22.1657   -4.2173   21.0973 F   0  0  0  0  0  0
  -21.5621   -3.4536   25.7732 F   0  0  0  0  0  0
  -30.0200  -13.3901   20.4317 N   0  0  0  0  0  0
  -26.3019  -12.9401   20.3315 N   0  0  0  0  0  0
  -25.9363  -11.6547   20.5792 N   0  0  0  0  0  0
  -22.0447  -12.8294   22.0371 N   0  0  0  0  0  0
  -25.4215  -15.1897   20.4120 N   0  0  0  0  0  0
  -31.8779  -14.6454   20.1358 O   0  0  0  0  0  0
  -21.6640   -6.8867   21.4254 O   0  0  0  0  0  0
  -22.3577  -14.5545   20.6602 O   0  0  0  0  0  0
  -24.6191  -31.8662   23.2092 C   0  0  0  0  0  0
  -25.9103  -32.4818   23.8351 C   0  0  1  0  0  0
  -27.2124  -27.3568   20.1114 C   0  0  0  0  0  0
  -25.5943  -33.8614   24.2231 N   0  0  0  0  0  0
  -23.4039  -30.4887   21.5572 C   0  0  2  0  0  0
  -24.8377  -28.9445   20.1255 C   0  0  0  0  0  0
  -22.7436  -29.4623   22.5044 C   0  0  0  0  0  0
  -18.0228  -28.1359   22.8526 C   0  0  0  0  0  0
  -24.1445  -36.7246   23.2639 C   0  0  0  0  0  0
  -25.9406  -30.8105   21.3662 C   0  0  0  0  0  0
  -26.0123  -29.4421   20.7055 C   0  0  0  0  0  0
  -27.1958  -28.6602   20.6898 C   0  0  0  0  0  0
  -26.0003  -26.8786   19.5523 C   0  0  0  0  0  0
  -24.8282  -27.6644   19.5544 C   0  0  0  0  0  0
  -23.6149  -29.8320   20.1687 C   0  0  0  0  0  0
  -25.4093  -36.3080   24.0307 C   0  0  1  0  0  0
  -20.5822  -28.3606   23.1365 C   0  0  2  0  0  0
  -20.6672  -26.9338   22.5459 C   0  0  0  0  0  0
  -19.5650  -26.6346   21.5246 C   0  0  0  0  0  0
  -18.1838  -26.7889   22.1662 C   0  0  0  0  0  0
  -19.1484  -28.8813   23.2912 C   0  0  0  0  0  0
  -18.9436  -30.1415   23.8921 C   0  0  0  0  0  0
  -17.6448  -30.6587   24.0573 C   0  0  0  0  0  0
  -25.9078  -34.9483   23.5067 C   0  0  0  0  0  0
  -16.5333  -29.9093   23.6324 C   0  0  0  0  0  0
  -16.7229  -28.6486   23.0390 C   0  0  0  0  0  0
  -26.4476  -31.6659   25.0756 C   0  0  0  0  0  0
  -25.3677  -31.3889   26.1472 C   0  0  0  0  0  0
  -27.0316  -30.3077   24.6200 C   0  0  0  0  0  0
  -27.5978  -32.4436   25.7565 C   0  0  0  0  0  0
  -27.5536  -37.1756   24.8471 C   0  0  0  0  0  0
  -21.4139  -29.3007   22.3870 N   0  0  0  0  0  0
  -26.4237  -37.3797   23.9447 N   0  0  0  0  0  0
  -24.6748  -31.0687   22.1041 N   0  0  0  0  0  0
  -23.4228  -28.8097   23.3028 O   0  0  0  0  0  0
  -28.3866  -26.6025   20.1751 O   0  0  0  0  0  0
  -26.5642  -34.8973   22.4627 O   0  0  0  0  0  0
  -23.5390  -32.1462   23.7466 O   0  0  0  0  0  0
  -29.7106  -18.2786   21.0981 C   0  0  0  0  0  0
  -31.7410  -17.5029   20.5625 C   0  0  0  0  0  0
  -30.4772  -17.0756   20.8689 C   0  0  0  0  0  0
  -30.5356  -19.3579   20.8137 C   0  0  0  0  0  0
  -30.4117  -20.8711   20.7698 C   0  0  0  0  0  0
  -28.8341  -24.0758   20.4010 C   0  0  0  0  0  0
  -27.6984  -22.3610   18.9028 C   0  0  0  0  0  0
  -28.5084  -25.3210   19.4900 C   0  0  0  0  0  0
  -29.0003  -22.6760   19.6648 C   0  0  2  0  0  0
  -30.0263  -15.6856   20.9303 N   0  0  0  0  0  0
  -29.2234  -21.4509   20.4951 N   0  0  0  0  0  0
  -31.4381  -21.5499   20.8339 O   0  0  0  0  0  0
  -28.9813  -24.2175   21.6224 O   0  0  0  0  0  0
  -31.7830  -18.8626   20.5300 O   0  0  0  0  0  0
  -31.4707  -12.4396   19.1659 H   0  0  0  0  0  0
  -30.3176  -11.3630   19.9005 H   0  0  0  0  0  0
  -29.7702  -11.7568   17.4755 H   0  0  0  0  0  0
  -29.6715  -13.4758   17.7598 H   0  0  0  0  0  0
  -27.8564  -11.3013   18.8543 H   0  0  0  0  0  0
  -27.3822  -12.6020   17.7872 H   0  0  0  0  0  0
  -27.6765  -14.2605   19.5321 H   0  0  0  0  0  0
  -28.6942  -12.0647   21.3916 H   0  0  0  0  0  0
  -28.4563  -13.7274   21.8360 H   0  0  0  0  0  0
  -25.2761   -9.5668   22.4804 H   0  0  0  0  0  0
  -23.9988   -7.4639   22.7493 H   0  0  0  0  0  0
  -21.0854   -8.8823   19.8964 H   0  0  0  0  0  0
  -22.3753  -10.9696   19.6202 H   0  0  0  0  0  0
  -21.2021   -7.6156   23.9738 H   0  0  0  0  0  0
  -21.1493   -6.0534   25.9098 H   0  0  0  0  0  0
  -22.0583   -2.7627   23.2843 H   0  0  0  0  0  0
  -22.4032  -12.0001   22.4879 H   0  0  0  0  0  0
  -21.1066  -13.1364   22.2439 H   0  0  0  0  0  0
  -24.6365  -15.8262   20.5073 H   0  0  0  0  0  0
  -26.2615  -15.6450   20.0887 H   0  0  0  0  0  0
  -26.7194  -32.5444   23.1119 H   0  0  0  0  0  0
  -25.0126  -33.9758   25.0405 H   0  0  0  0  0  0
  -22.6943  -31.3081   21.4249 H   0  0  0  0  0  0
  -23.3740  -35.9551   23.3354 H   0  0  0  0  0  0
  -24.3507  -36.8826   22.2045 H   0  0  0  0  0  0
  -23.7169  -37.6438   23.6661 H   0  0  0  0  0  0
  -26.0688  -31.5743   20.5997 H   0  0  0  0  0  0
  -26.8272  -30.8527   21.9883 H   0  0  0  0  0  0
  -28.0993  -29.0463   21.1429 H   0  0  0  0  0  0
  -25.8822  -25.8855   19.1468 H   0  0  0  0  0  0
  -23.9099  -27.2542   19.1587 H   0  0  0  0  0  0
  -23.7654  -30.6198   19.4276 H   0  0  0  0  0  0
  -22.7226  -29.2898   19.8457 H   0  0  0  0  0  0
  -25.1280  -36.1885   25.0791 H   0  0  0  0  0  0
  -20.9874  -28.3102   24.1491 H   0  0  0  0  0  0
  -20.5449  -26.2236   23.3654 H   0  0  0  0  0  0
  -21.6541  -26.7281   22.1320 H   0  0  0  0  0  0
  -19.6772  -25.6250   21.1260 H   0  0  0  0  0  0
  -19.6553  -27.3171   20.6794 H   0  0  0  0  0  0
  -17.4082  -26.6678   21.4074 H   0  0  0  0  0  0
  -18.0193  -26.0023   22.9039 H   0  0  0  0  0  0
  -19.7933  -30.7205   24.2301 H   0  0  0  0  0  0
  -17.5033  -31.6268   24.5140 H   0  0  0  0  0  0
  -15.5342  -30.3030   23.7626 H   0  0  0  0  0  0
  -15.8619  -28.0826   22.7129 H   0  0  0  0  0  0
  -24.5782  -30.7315   25.7824 H   0  0  0  0  0  0
  -24.8971  -32.3146   26.4832 H   0  0  0  0  0  0
  -25.7950  -30.9100   27.0288 H   0  0  0  0  0  0
  -26.2917  -29.6879   24.1131 H   0  0  0  0  0  0
  -27.3953  -29.7296   25.4700 H   0  0  0  0  0  0
  -27.8819  -30.4411   23.9495 H   0  0  0  0  0  0
  -27.2504  -33.3723   26.2128 H   0  0  0  0  0  0
  -28.3832  -32.7032   25.0455 H   0  0  0  0  0  0
  -28.0628  -31.8602   26.5522 H   0  0  0  0  0  0
  -28.2571  -38.0034   24.7545 H   0  0  0  0  0  0
  -28.0994  -36.2571   24.6265 H   0  0  0  0  0  0
  -27.2269  -37.1392   25.8873 H   0  0  0  0  0  0
  -20.9296  -29.8952   21.7286 H   0  0  0  0  0  0
  -26.0094  -38.2840   24.1525 H   0  0  0  0  0  0
  -28.6763  -18.3553   21.4015 H   0  0  0  0  0  0
  -32.6824  -17.0181   20.3310 H   0  0  0  0  0  0
  -26.8633  -22.2080   19.5851 H   0  0  0  0  0  0
  -27.8194  -21.4548   18.3085 H   0  0  0  0  0  0
  -27.4012  -23.1374   18.2026 H   0  0  0  0  0  0
  -27.6494  -25.1037   18.8694 H   0  0  0  0  0  0
  -29.3282  -25.4206   18.7785 H   0  0  0  0  0  0
  -29.8218  -22.7731   18.9474 H   0  0  0  0  0  0
  -29.0523  -15.5410   21.1550 H   0  0  0  0  0  0
  -28.4411  -20.8116   20.5231 H   0  0  0  0  0  0
  1 25  1  0  0  0
  1 30  2  0  0  0
  1 80  1  0  0  0
  2  3  1  0  0  0
  2 25  1  0  0  0
  2 85  1  0  0  0
  2 86  1  0  0  0
  3  4  1  0  0  0
  3 87  1  0  0  0
  3 88  1  0  0  0
  4  5  1  0  0  0
  4 89  1  0  0  0
  4 90  1  0  0  0
  5  6  1  0  0  0
  5 26  1  0  0  0
  5 91  1  0  0  0
  6 25  1  0  0  0
  6 92  1  0  0  0
  6 93  1  0  0  0
  7  8  2  0  0  0
  7 26  1  0  0  0
  7 29  1  0  0  0
  8  9  1  0  0  0
  8 22  1  0  0  0
  9 10  1  0  0  0
  9 27  2  0  0  0
 10 11  2  0  0  0
 10 15  1  0  0  0
 11 12  1  0  0  0
 11 94  1  0  0  0
 12 13  2  0  0  0
 12 95  1  0  0  0
 13 14  1  0  0  0
 13 31  1  0  0  0
 14 15  2  0  0  0
 14 96  1  0  0  0
 15 97  1  0  0  0
 16 17  2  0  0  0
 16 21  1  0  0  0
 16 31  1  0  0  0
 17 18  1  0  0  0
 17 98  1  0  0  0
 18 19  2  0  0  0
 18 99  1  0  0  0
 19 20  1  0  0  0
 19 24  1  0  0  0
 20 21  2  0  0  0
 20100  1  0  0  0
 21 23  1  0  0  0
 22 28  1  0  0  0
 22 32  2  0  0  0
 26 27  1  0  0  0
 28101  1  0  0  0
 28102  1  0  0  0
 29103  1  0  0  0
 29104  1  0  0  0
 33 34  1  0  0  0
 33 66  1  0  0  0
 33 70  2  0  0  0
 34 36  1  0  0  0
 34 59  1  0  0  0
 34105  1  0  0  0
 35 44  2  0  0  0
 35 45  1  0  0  0
 35 68  1  0  0  0
 36 56  1  0  0  0
 36106  1  0  0  0
 37 39  1  0  0  0
 37 47  1  0  0  0
 37 66  1  0  0  0
 37107  1  0  0  0
 38 43  2  0  0  0
 38 46  1  0  0  0
 38 47  1  0  0  0
 39 64  1  0  0  0
 39 67  2  0  0  0
 40 52  1  0  0  0
 40 53  2  0  0  0
 40 58  1  0  0  0
 41108  1  0  0  0
 41109  1  0  0  0
 41110  1  0  0  0
 41 48  1  0  0  0
 42 43  1  0  0  0
 42 66  1  0  0  0
 42111  1  0  0  0
 42112  1  0  0  0
 43 44  1  0  0  0
 44113  1  0  0  0
 45 46  2  0  0  0
 45114  1  0  0  0
 46115  1  0  0  0
 47116  1  0  0  0
 47117  1  0  0  0
 48 56  1  0  0  0
 48 65  1  0  0  0
 48118  1  0  0  0
 49 50  1  0  0  0
 49 53  1  0  0  0
 49 64  1  0  0  0
 49119  1  0  0  0
 50 51  1  0  0  0
 50120  1  0  0  0
 50121  1  0  0  0
 51 52  1  0  0  0
 51122  1  0  0  0
 51123  1  0  0  0
 52124  1  0  0  0
 52125  1  0  0  0
 53 54  1  0  0  0
 54 55  2  0  0  0
 54126  1  0  0  0
 55 57  1  0  0  0
 55127  1  0  0  0
 56 69  2  0  0  0
 57 58  2  0  0  0
 57128  1  0  0  0
 58129  1  0  0  0
 59 60  1  0  0  0
 59 61  1  0  0  0
 59 62  1  0  0  0
 60130  1  0  0  0
 60131  1  0  0  0
 60132  1  0  0  0
 61133  1  0  0  0
 61134  1  0  0  0
 61135  1  0  0  0
 62136  1  0  0  0
 62137  1  0  0  0
 62138  1  0  0  0
 63 65  1  0  0  0
 63139  1  0  0  0
 63140  1  0  0  0
 63141  1  0  0  0
 64142  1  0  0  0
 65143  1  0  0  0
 68 78  1  0  0  0
 71 73  1  0  0  0
 71 74  2  0  0  0
 71144  1  0  0  0
 72 73  2  0  0  0
 72 84  1  0  0  0
 72145  1  0  0  0
 73 80  1  0  0  0
 74 75  1  0  0  0
 74 84  1  0  0  0
 75 81  1  0  0  0
 75 82  2  0  0  0
 76 78  1  0  0  0
 76 79  1  0  0  0
 76 83  2  0  0  0
 77146  1  0  0  0
 77147  1  0  0  0
 77148  1  0  0  0
 77 79  1  0  0  0
 78149  1  0  0  0
 78150  1  0  0  0
 79 81  1  0  0  0
 79151  1  0  0  0
 80152  1  0  0  0
 81153  1  0  0  0
M  ISO  4   1 100  68 101  78 101  80 100
M  END
> <chiral flag>
0

> <version>
0

> <s_m_source_file>
/data/baiqing/PycharmProjects/Reinvent-master-3.2/result/LINK_invent/BTK/process_docking_weight1_custom_product_contain_oxygen_bond_distance_aromatic_linkinvent_7_9_3/rearranged_h_0163.sdf

> <i_m_source_file_index>
10

> <r_mmod_Potential_Energy-OPLS-2005>
-20.815185546875

> <r_mmod_Stretch_Energy-OPLS-2005>
64.5510025024414

> <r_mmod_Bend_Energy-OPLS-2005>
146.636947631836

> <r_mmod_Torsional_Energy-OPLS-2005>
230.776016235352

> <r_mmod_Improper_Torsional_Energy-OPLS-2005>
7.8399920463562

> <r_mmod_Van_der_Waal_Energy-OPLS-2005>
132.848007202148

> <r_mmod_Electrostatic_Energy-OPLS-2005>
-362.184936523438

> <r_mmod_Solvation_Energy-OPLS-2005>
-274.014221191406

> <b_mmod_Minimization_Converged-OPLS-2005>
0

> <r_mmod_RMS_Derivative-OPLS-2005>
7.73584747314453

$$$$
10
                    3D
 Structure written by MMmdl.
153161  0  0  1  0            999 V2000
  -30.7010  -14.5234   20.5299 C   0  0  0  0  0  0
  -30.4147  -12.3216   19.4466 C   0  0  0  0  0  0
  -29.4984  -12.4896   18.2179 C   0  0  0  0  0  0
  -28.0184  -12.3527   18.6255 C   0  0  0  0  0  0
  -27.6534  -13.2155   19.8640 C   0  0  2  0  0  0
  -28.6949  -13.0542   20.9940 C   0  0  0  0  0  0
  -25.2550  -13.8171   20.5653 C   0  0  0  0  0  0
  -24.1830  -13.0446   20.9211 C   0  0  0  0  0  0
  -24.6400  -11.6915   20.8755 C   0  0  0  0  0  0
  -23.9076  -10.4292   21.0412 C   0  0  0  0  0  0
  -24.3626   -9.4203   21.9188 C   0  0  0  0  0  0
  -23.6294   -8.2242   22.0760 C   0  0  0  0  0  0
  -22.4275   -8.0292   21.3549 C   0  0  0  0  0  0
  -21.9912   -9.0268   20.4652 C   0  0  0  0  0  0
  -22.7247  -10.2142   20.3062 C   0  0  0  0  0  0
  -21.6853   -6.0744   22.5280 C   0  0  0  0  0  0
  -21.4007   -6.5647   23.8215 C   0  0  0  0  0  0
  -21.3652   -5.6800   24.9178 C   0  0  0  0  0  0
  -21.6045   -4.3066   24.7225 C   0  0  0  0  0  0
  -21.8819   -3.8156   23.4345 C   0  0  0  0  0  0
  -21.9191   -4.6971   22.3400 C   0  0  0  0  0  0
  -22.7847  -13.5234   21.1866 C   0  0  0  0  0  0
  -22.1662   -4.2160   21.0977 F   0  0  0  0  0  0
  -21.5628   -3.4547   25.7731 F   0  0  0  0  0  0
  -30.0190  -13.3461   20.4273 N   0  0  0  0  0  0
  -26.2980  -12.9361   20.3310 N   0  0  0  0  0  0
  -25.9327  -11.6518   20.5770 N   0  0  0  0  0  0
  -22.0487  -12.8214   22.0410 N   0  0  0  0  0  0
  -25.4226  -15.1875   20.3950 N   0  0  0  0  0  0
  -31.8713  -14.6108   20.1459 O   0  0  0  0  0  0
  -21.6641   -6.8888   21.4241 O   0  0  0  0  0  0
  -22.3522  -14.5534   20.6714 O   0  0  0  0  0  0
  -24.6187  -31.8649   23.2071 C   0  0  0  0  0  0
  -25.9073  -32.4796   23.8370 C   0  0  1  0  0  0
  -27.2280  -27.3921   20.0962 C   0  0  0  0  0  0
  -25.5912  -33.8595   24.2305 N   0  0  0  0  0  0
  -23.4066  -30.4890   21.5499 C   0  0  2  0  0  0
  -24.8497  -28.9494   20.1152 C   0  0  0  0  0  0
  -22.7418  -29.4655   22.4987 C   0  0  0  0  0  0
  -18.0272  -28.1369   22.8495 C   0  0  0  0  0  0
  -24.1486  -36.7292   23.2641 C   0  0  0  0  0  0
  -25.9401  -30.8178   21.3657 C   0  0  0  0  0  0
  -26.0132  -29.4497   20.7106 C   0  0  0  0  0  0
  -27.2023  -28.6787   20.6961 C   0  0  0  0  0  0
  -26.0351  -26.9117   19.5058 C   0  0  0  0  0  0
  -24.8581  -27.6822   19.5106 C   0  0  0  0  0  0
  -23.6144  -29.8210   20.1648 C   0  0  0  0  0  0
  -25.4112  -36.3096   24.0336 C   0  0  1  0  0  0
  -20.5866  -28.3661   23.1309 C   0  0  2  0  0  0
  -20.6766  -26.9399   22.5406 C   0  0  0  0  0  0
  -19.5740  -26.6371   21.5212 C   0  0  0  0  0  0
  -18.1924  -26.7909   22.1643 C   0  0  0  0  0  0
  -19.1524  -28.8831   23.2897 C   0  0  0  0  0  0
  -18.9454  -30.1442   23.8903 C   0  0  0  0  0  0
  -17.6458  -30.6582   24.0563 C   0  0  0  0  0  0
  -25.9043  -34.9458   23.5119 C   0  0  0  0  0  0
  -16.5346  -29.9080   23.6330 C   0  0  0  0  0  0
  -16.7261  -28.6496   23.0351 C   0  0  0  0  0  0
  -26.4490  -31.6585   25.0712 C   0  0  0  0  0  0
  -25.3746  -31.3661   26.1444 C   0  0  0  0  0  0
  -27.0336  -30.3032   24.6105 C   0  0  0  0  0  0
  -27.6062  -32.4307   25.7474 C   0  0  0  0  0  0
  -27.5579  -37.1806   24.8474 C   0  0  0  0  0  0
  -21.4140  -29.3043   22.3723 N   0  0  0  0  0  0
  -26.4299  -37.3783   23.9408 N   0  0  0  0  0  0
  -24.6740  -31.0724   22.0988 N   0  0  0  0  0  0
  -23.4173  -28.8197   23.3043 O   0  0  0  0  0  0
  -28.4100  -26.6638   20.1195 O   0  0  0  0  0  0
  -26.5608  -34.8921   22.4681 O   0  0  0  0  0  0
  -23.5371  -32.1413   23.7446 O   0  0  0  0  0  0
  -26.9992  -18.7285   21.3470 C   0  0  0  0  0  0
  -27.9539  -17.6941   21.2670 C   0  0  0  0  0  0
  -27.3875  -20.0796   21.2371 C   0  0  0  0  0  0
  -29.6928  -19.3674   20.9451 C   0  0  0  0  0  0
  -29.3204  -17.9943   21.0553 C   0  0  0  0  0  0
  -28.7427  -20.4186   21.0424 C   0  0  0  0  0  0
  -30.3762  -16.9013   20.9750 C   0  0  0  0  0  0
  -28.5211  -24.1907   20.5917 C   0  0  0  0  0  0
  -28.5209  -22.7174   20.0933 C   0  0  0  0  0  0
  -28.4955  -25.3325   19.5389 C   0  0  0  0  0  0
  -29.1602  -21.7671   21.0292 N   0  0  0  0  0  0
  -29.9601  -15.6106   20.8684 N   0  0  0  0  0  0
  -31.5646  -17.2430   20.9896 O   0  0  0  0  0  0
  -28.5650  -24.4302   21.8046 O   0  0  0  0  0  0
  -31.4629  -12.3974   19.1518 H   0  0  0  0  0  0
  -30.3024  -11.3252   19.8779 H   0  0  0  0  0  0
  -29.7464  -11.7455   17.4596 H   0  0  0  0  0  0
  -29.6694  -13.4647   17.7594 H   0  0  0  0  0  0
  -27.8344  -11.2988   18.8413 H   0  0  0  0  0  0
  -27.3707  -12.6076   17.7855 H   0  0  0  0  0  0
  -27.6796  -14.2539   19.5331 H   0  0  0  0  0  0
  -28.6771  -12.0376   21.3905 H   0  0  0  0  0  0
  -28.4587  -13.7052   21.8372 H   0  0  0  0  0  0
  -25.2774   -9.5671   22.4769 H   0  0  0  0  0  0
  -24.0008   -7.4627   22.7475 H   0  0  0  0  0  0
  -21.0850   -8.8792   19.8954 H   0  0  0  0  0  0
  -22.3714  -10.9690   19.6182 H   0  0  0  0  0  0
  -21.2001   -7.6156   23.9719 H   0  0  0  0  0  0
  -21.1470   -6.0529   25.9081 H   0  0  0  0  0  0
  -22.0601   -2.7620   23.2839 H   0  0  0  0  0  0
  -22.4114  -11.9868   22.4764 H   0  0  0  0  0  0
  -21.1117  -13.1255   22.2649 H   0  0  0  0  0  0
  -24.6348  -15.8222   20.4679 H   0  0  0  0  0  0
  -26.2263  -15.6085   19.9479 H   0  0  0  0  0  0
  -26.7135  -32.5498   23.1119 H   0  0  0  0  0  0
  -25.0079  -33.9735   25.0464 H   0  0  0  0  0  0
  -22.6980  -31.3076   21.4099 H   0  0  0  0  0  0
  -23.3747  -35.9629   23.3329 H   0  0  0  0  0  0
  -24.3576  -36.8878   22.2051 H   0  0  0  0  0  0
  -23.7233  -37.6501   23.6639 H   0  0  0  0  0  0
  -26.0612  -31.5836   20.5977 H   0  0  0  0  0  0
  -26.8249  -30.8665   21.9887 H   0  0  0  0  0  0
  -28.1026  -29.0642   21.1548 H   0  0  0  0  0  0
  -25.9687  -25.9397   19.0437 H   0  0  0  0  0  0
  -23.9598  -27.2886   19.0548 H   0  0  0  0  0  0
  -23.7210  -30.5942   19.4029 H   0  0  0  0  0  0
  -22.7369  -29.2415   19.8726 H   0  0  0  0  0  0
  -25.1290  -36.1957   25.0828 H   0  0  0  0  0  0
  -20.9947  -28.3224   24.1435 H   0  0  0  0  0  0
  -20.5676  -26.2267   23.3595 H   0  0  0  0  0  0
  -21.6632  -26.7444   22.1189 H   0  0  0  0  0  0
  -19.6904  -25.6284   21.1247 H   0  0  0  0  0  0
  -19.6672  -27.3175   20.6744 H   0  0  0  0  0  0
  -17.4182  -26.6642   21.4055 H   0  0  0  0  0  0
  -18.0339  -26.0062   22.9046 H   0  0  0  0  0  0
  -19.7928  -30.7259   24.2274 H   0  0  0  0  0  0
  -17.5006  -31.6266   24.5151 H   0  0  0  0  0  0
  -15.5344  -30.2980   23.7650 H   0  0  0  0  0  0
  -15.8658  -28.0814   22.7061 H   0  0  0  0  0  0
  -24.5945  -30.6984   25.7761 H   0  0  0  0  0  0
  -24.8905  -32.2803   26.4893 H   0  0  0  0  0  0
  -25.8099  -30.8831   27.0201 H   0  0  0  0  0  0
  -26.2894  -29.6777   24.1164 H   0  0  0  0  0  0
  -27.4110  -29.7277   25.4565 H   0  0  0  0  0  0
  -27.8723  -30.4348   23.9265 H   0  0  0  0  0  0
  -27.2690  -33.3600   26.2071 H   0  0  0  0  0  0
  -28.3866  -32.6870   25.0298 H   0  0  0  0  0  0
  -28.0747  -31.8417   26.5369 H   0  0  0  0  0  0
  -28.2621  -38.0081   24.7505 H   0  0  0  0  0  0
  -28.1048  -36.2611   24.6330 H   0  0  0  0  0  0
  -27.2293  -37.1494   25.8878 H   0  0  0  0  0  0
  -20.9305  -29.8743   21.6924 H   0  0  0  0  0  0
  -26.0184  -38.2862   24.1400 H   0  0  0  0  0  0
  -25.9590  -18.4855   21.5136 H   0  0  0  0  0  0
  -27.6174  -16.6738   21.3788 H   0  0  0  0  0  0
  -26.6361  -20.8494   21.3376 H   0  0  0  0  0  0
  -30.7341  -19.6197   20.8015 H   0  0  0  0  0  0
  -29.0448  -22.6769   19.1374 H   0  0  0  0  0  0
  -27.4896  -22.4293   19.8913 H   0  0  0  0  0  0
  -29.4492  -25.2858   19.0138 H   0  0  0  0  0  0
  -27.7506  -25.1256   18.7760 H   0  0  0  0  0  0
  -29.1487  -22.1857   21.9590 H   0  0  0  0  0  0
  -28.9764  -15.4538   20.9917 H   0  0  0  0  0  0
  1 25  1  0  0  0
  1 30  2  0  0  0
  1 82  1  0  0  0
  2  3  1  0  0  0
  2 25  1  0  0  0
  2 85  1  0  0  0
  2 86  1  0  0  0
  3  4  1  0  0  0
  3 87  1  0  0  0
  3 88  1  0  0  0
  4  5  1  0  0  0
  4 89  1  0  0  0
  4 90  1  0  0  0
  5  6  1  0  0  0
  5 26  1  0  0  0
  5 91  1  0  0  0
  6 25  1  0  0  0
  6 92  1  0  0  0
  6 93  1  0  0  0
  7  8  2  0  0  0
  7 26  1  0  0  0
  7 29  1  0  0  0
  8  9  1  0  0  0
  8 22  1  0  0  0
  9 10  1  0  0  0
  9 27  2  0  0  0
 10 11  2  0  0  0
 10 15  1  0  0  0
 11 12  1  0  0  0
 11 94  1  0  0  0
 12 13  2  0  0  0
 12 95  1  0  0  0
 13 14  1  0  0  0
 13 31  1  0  0  0
 14 15  2  0  0  0
 14 96  1  0  0  0
 15 97  1  0  0  0
 16 17  2  0  0  0
 16 21  1  0  0  0
 16 31  1  0  0  0
 17 18  1  0  0  0
 17 98  1  0  0  0
 18 19  2  0  0  0
 18 99  1  0  0  0
 19 20  1  0  0  0
 19 24  1  0  0  0
 20 21  2  0  0  0
 20100  1  0  0  0
 21 23  1  0  0  0
 22 28  1  0  0  0
 22 32  2  0  0  0
 26 27  1  0  0  0
 28101  1  0  0  0
 28102  1  0  0  0
 29103  1  0  0  0
 29104  1  0  0  0
 33 34  1  0  0  0
 33 66  1  0  0  0
 33 70  2  0  0  0
 34 36  1  0  0  0
 34 59  1  0  0  0
 34105  1  0  0  0
 35 44  2  0  0  0
 35 45  1  0  0  0
 35 68  1  0  0  0
 36 56  1  0  0  0
 36106  1  0  0  0
 37 39  1  0  0  0
 37 47  1  0  0  0
 37 66  1  0  0  0
 37107  1  0  0  0
 38 43  2  0  0  0
 38 46  1  0  0  0
 38 47  1  0  0  0
 39 64  1  0  0  0
 39 67  2  0  0  0
 40 52  1  0  0  0
 40 53  2  0  0  0
 40 58  1  0  0  0
 41108  1  0  0  0
 41109  1  0  0  0
 41110  1  0  0  0
 41 48  1  0  0  0
 42 43  1  0  0  0
 42 66  1  0  0  0
 42111  1  0  0  0
 42112  1  0  0  0
 43 44  1  0  0  0
 44113  1  0  0  0
 45 46  2  0  0  0
 45114  1  0  0  0
 46115  1  0  0  0
 47116  1  0  0  0
 47117  1  0  0  0
 48 56  1  0  0  0
 48 65  1  0  0  0
 48118  1  0  0  0
 49 50  1  0  0  0
 49 53  1  0  0  0
 49 64  1  0  0  0
 49119  1  0  0  0
 50 51  1  0  0  0
 50120  1  0  0  0
 50121  1  0  0  0
 51 52  1  0  0  0
 51122  1  0  0  0
 51123  1  0  0  0
 52124  1  0  0  0
 52125  1  0  0  0
 53 54  1  0  0  0
 54 55  2  0  0  0
 54126  1  0  0  0
 55 57  1  0  0  0
 55127  1  0  0  0
 56 69  2  0  0  0
 57 58  2  0  0  0
 57128  1  0  0  0
 58129  1  0  0  0
 59 60  1  0  0  0
 59 61  1  0  0  0
 59 62  1  0  0  0
 60130  1  0  0  0
 60131  1  0  0  0
 60132  1  0  0  0
 61133  1  0  0  0
 61134  1  0  0  0
 61135  1  0  0  0
 62136  1  0  0  0
 62137  1  0  0  0
 62138  1  0  0  0
 63 65  1  0  0  0
 63139  1  0  0  0
 63140  1  0  0  0
 63141  1  0  0  0
 64142  1  0  0  0
 65143  1  0  0  0
 68 80  1  0  0  0
 71 72  2  0  0  0
 71 73  1  0  0  0
 71144  1  0  0  0
 72 75  1  0  0  0
 72145  1  0  0  0
 73 76  2  0  0  0
 73146  1  0  0  0
 74 75  2  0  0  0
 74 76  1  0  0  0
 74147  1  0  0  0
 75 77  1  0  0  0
 76 81  1  0  0  0
 77 82  1  0  0  0
 77 83  2  0  0  0
 78 79  1  0  0  0
 78 80  1  0  0  0
 78 84  2  0  0  0
 79 81  1  0  0  0
 79148  1  0  0  0
 79149  1  0  0  0
 80150  1  0  0  0
 80151  1  0  0  0
 81152  1  0  0  0
 82153  1  0  0  0
M  ISO  4   1 100  68 101  80 101  82 100
M  END
> <chiral flag>
0

> <version>
0

> <s_m_source_file>
/data/baiqing/PycharmProjects/Reinvent-master-3.2/result/LINK_invent/BTK/process_docking_weight1_custom_product_contain_oxygen_bond_distance_aromatic_linkinvent_7_9_3/rearranged_h_0163.sdf

> <i_m_source_file_index>
11

> <r_mmod_Potential_Energy-OPLS-2005>
-103.149147033691

> <r_mmod_Stretch_Energy-OPLS-2005>
47.3679885864258

> <r_mmod_Bend_Energy-OPLS-2005>
111.737617492676

> <r_mmod_Torsional_Energy-OPLS-2005>
225.707550048828

> <r_mmod_Improper_Torsional_Energy-OPLS-2005>
10.8232698440552

> <r_mmod_Van_der_Waal_Energy-OPLS-2005>
157.454513549805

> <r_mmod_Electrostatic_Energy-OPLS-2005>
-421.75537109375

> <r_mmod_Solvation_Energy-OPLS-2005>
-256.862670898438

> <b_mmod_Minimization_Converged-OPLS-2005>
0

> <r_mmod_RMS_Derivative-OPLS-2005>
1.52131187915802

$$$$
11
                    3D
 Structure written by MMmdl.
153161  0  0  1  0            999 V2000
  -30.5653  -14.8015   20.4419 C   0  0  0  0  0  0
  -30.4310  -12.4841   19.4911 C   0  0  0  0  0  0
  -29.5191  -12.5356   18.2433 C   0  0  0  0  0  0
  -28.0396  -12.3586   18.6438 C   0  0  0  0  0  0
  -27.6407  -13.2440   19.8559 C   0  0  2  0  0  0
  -28.6822  -13.1713   20.9953 C   0  0  0  0  0  0
  -25.2491  -13.8211   20.5719 C   0  0  0  0  0  0
  -24.1791  -13.0434   20.9217 C   0  0  0  0  0  0
  -24.6396  -11.6924   20.8732 C   0  0  0  0  0  0
  -23.9076  -10.4292   21.0387 C   0  0  0  0  0  0
  -24.3626   -9.4210   21.9165 C   0  0  0  0  0  0
  -23.6310   -8.2244   22.0733 C   0  0  0  0  0  0
  -22.4291   -8.0279   21.3533 C   0  0  0  0  0  0
  -21.9920   -9.0260   20.4641 C   0  0  0  0  0  0
  -22.7247  -10.2140   20.3045 C   0  0  0  0  0  0
  -21.6851   -6.0745   22.5284 C   0  0  0  0  0  0
  -21.4014   -6.5643   23.8222 C   0  0  0  0  0  0
  -21.3661   -5.6790   24.9181 C   0  0  0  0  0  0
  -21.6047   -4.3053   24.7223 C   0  0  0  0  0  0
  -21.8815   -3.8146   23.4338 C   0  0  0  0  0  0
  -21.9191   -4.6970   22.3400 C   0  0  0  0  0  0
  -22.7811  -13.5207   21.1894 C   0  0  0  0  0  0
  -22.1655   -4.2158   21.0982 F   0  0  0  0  0  0
  -21.5640   -3.4540   25.7730 F   0  0  0  0  0  0
  -29.9799  -13.5472   20.4261 N   0  0  0  0  0  0
  -26.2926  -12.9447   20.3290 N   0  0  0  0  0  0
  -25.9334  -11.6577   20.5725 N   0  0  0  0  0  0
  -22.0452  -12.8207   22.0454 N   0  0  0  0  0  0
  -25.4175  -15.1948   20.4149 N   0  0  0  0  0  0
  -31.7355  -14.9104   20.0588 O   0  0  0  0  0  0
  -21.6641   -6.8890   21.4249 O   0  0  0  0  0  0
  -22.3490  -14.5507   20.6737 O   0  0  0  0  0  0
  -24.6341  -31.8510   23.1914 C   0  0  0  0  0  0
  -25.9144  -32.4726   23.8307 C   0  0  1  0  0  0
  -27.2201  -27.2206   20.1440 C   0  0  0  0  0  0
  -25.5906  -33.8528   24.2206 N   0  0  0  0  0  0
  -23.4333  -30.4719   21.5327 C   0  0  2  0  0  0
  -24.8793  -28.9031   20.1099 C   0  0  0  0  0  0
  -22.7521  -29.4601   22.4863 C   0  0  0  0  0  0
  -18.0297  -28.1413   22.8487 C   0  0  0  0  0  0
  -24.1482  -36.7287   23.2639 C   0  0  0  0  0  0
  -25.9802  -30.7540   21.3733 C   0  0  0  0  0  0
  -26.0509  -29.3717   20.7143 C   0  0  0  0  0  0
  -27.2196  -28.5449   20.7114 C   0  0  0  0  0  0
  -26.0198  -26.8098   19.5302 C   0  0  0  0  0  0
  -24.8704  -27.6326   19.5057 C   0  0  0  0  0  0
  -23.6544  -29.7981   20.1516 C   0  0  0  0  0  0
  -25.4109  -36.3058   24.0318 C   0  0  1  0  0  0
  -20.5905  -28.3736   23.1250 C   0  0  2  0  0  0
  -20.6783  -26.9442   22.5414 C   0  0  0  0  0  0
  -19.5757  -26.6392   21.5221 C   0  0  0  0  0  0
  -18.1935  -26.7957   22.1633 C   0  0  0  0  0  0
  -19.1555  -28.8887   23.2870 C   0  0  0  0  0  0
  -18.9473  -30.1479   23.8904 C   0  0  0  0  0  0
  -17.6474  -30.6607   24.0572 C   0  0  0  0  0  0
  -25.9059  -34.9423   23.5079 C   0  0  0  0  0  0
  -16.5364  -29.9118   23.6322 C   0  0  0  0  0  0
  -16.7284  -28.6533   23.0351 C   0  0  0  0  0  0
  -26.4477  -31.6579   25.0732 C   0  0  0  0  0  0
  -25.3670  -31.3774   26.1436 C   0  0  0  0  0  0
  -27.0319  -30.2978   24.6275 C   0  0  0  0  0  0
  -27.6016  -32.4344   25.7510 C   0  0  0  0  0  0
  -27.5582  -37.1791   24.8453 C   0  0  0  0  0  0
  -21.4224  -29.3069   22.3612 N   0  0  0  0  0  0
  -26.4282  -37.3767   23.9418 N   0  0  0  0  0  0
  -24.7019  -31.0470   22.0879 N   0  0  0  0  0  0
  -23.4204  -28.8147   23.2985 O   0  0  0  0  0  0
  -28.3431  -26.3606   20.2597 O   0  0  0  0  0  0
  -26.5661  -34.8911   22.4672 O   0  0  0  0  0  0
  -23.5485  -32.1337   23.7185 O   0  0  0  0  0  0
  -29.3535  -19.6114   19.6282 C   0  0  0  0  0  0
  -29.4491  -19.0384   18.3568 C   0  0  0  0  0  0
  -29.7239  -17.2484   20.0877 C   0  0  0  0  0  0
  -29.3101  -21.1789   19.7328 C   0  0  0  0  0  0
  -28.4958  -24.8930   18.2668 C   0  0  0  0  0  0
  -28.5509  -22.1072   20.7853 C   0  0  0  0  0  0
  -27.8582  -23.5870   20.4544 C   0  0  0  0  0  0
  -28.5381  -24.9216   19.8025 C   0  0  2  0  0  0
  -29.4652  -18.5178   20.6055 N   0  0  0  0  0  0
  -29.3670  -19.6298   17.0946 N   0  0  0  0  0  0
  -29.8086  -15.9287   20.7819 N   0  0  0  0  0  0
  -29.9403  -21.8606   18.9181 O   0  0  0  0  0  0
  -29.7543  -17.3080   18.3415 S   0  0  0  0  0  0
  -31.4761  -12.6038   19.2023 H   0  0  0  0  0  0
  -30.3680  -11.5030   19.9660 H   0  0  0  0  0  0
  -29.8131  -11.7673   17.5258 H   0  0  0  0  0  0
  -29.6488  -13.4929   17.7334 H   0  0  0  0  0  0
  -27.8859  -11.3073   18.8873 H   0  0  0  0  0  0
  -27.3893  -12.5697   17.7936 H   0  0  0  0  0  0
  -27.6354  -14.2698   19.4856 H   0  0  0  0  0  0
  -28.7235  -12.1648   21.4148 H   0  0  0  0  0  0
  -28.4106  -13.8324   21.8187 H   0  0  0  0  0  0
  -25.2772   -9.5710   22.4736 H   0  0  0  0  0  0
  -24.0035   -7.4636   22.7435 H   0  0  0  0  0  0
  -21.0856   -8.8767   19.8951 H   0  0  0  0  0  0
  -22.3683  -10.9679   19.6150 H   0  0  0  0  0  0
  -21.1998   -7.6143   23.9737 H   0  0  0  0  0  0
  -21.1494   -6.0508   25.9092 H   0  0  0  0  0  0
  -22.0592   -2.7611   23.2828 H   0  0  0  0  0  0
  -22.4059  -11.9878   22.4880 H   0  0  0  0  0  0
  -21.1058  -13.1224   22.2627 H   0  0  0  0  0  0
  -24.6492  -15.8462   20.5315 H   0  0  0  0  0  0
  -26.2662  -15.6382   20.0888 H   0  0  0  0  0  0
  -26.7213  -32.5354   23.1052 H   0  0  0  0  0  0
  -24.9963  -33.9655   25.0285 H   0  0  0  0  0  0
  -22.7314  -31.2943   21.3802 H   0  0  0  0  0  0
  -23.3748  -35.9619   23.3274 H   0  0  0  0  0  0
  -24.3577  -36.8957   22.2065 H   0  0  0  0  0  0
  -23.7229  -37.6467   23.6699 H   0  0  0  0  0  0
  -26.1253  -31.5124   20.6030 H   0  0  0  0  0  0
  -26.8550  -30.8031   22.0104 H   0  0  0  0  0  0
  -28.1188  -28.8999   21.1955 H   0  0  0  0  0  0
  -25.9362  -25.8193   19.1109 H   0  0  0  0  0  0
  -23.9656  -27.2624   19.0437 H   0  0  0  0  0  0
  -23.7897  -30.5706   19.3943 H   0  0  0  0  0  0
  -22.7707  -29.2392   19.8418 H   0  0  0  0  0  0
  -25.1288  -36.1897   25.0810 H   0  0  0  0  0  0
  -21.0013  -28.3347   24.1368 H   0  0  0  0  0  0
  -20.5679  -26.2361   23.3638 H   0  0  0  0  0  0
  -21.6650  -26.7456   22.1210 H   0  0  0  0  0  0
  -19.6919  -25.6293   21.1277 H   0  0  0  0  0  0
  -19.6694  -27.3181   20.6733 H   0  0  0  0  0  0
  -17.4202  -26.6699   21.4037 H   0  0  0  0  0  0
  -18.0337  -26.0106   22.9036 H   0  0  0  0  0  0
  -19.7945  -30.7286   24.2288 H   0  0  0  0  0  0
  -17.5029  -31.6288   24.5189 H   0  0  0  0  0  0
  -15.5365  -30.3032   23.7634 H   0  0  0  0  0  0
  -15.8683  -28.0853   22.7070 H   0  0  0  0  0  0
  -24.5822  -30.7155   25.7755 H   0  0  0  0  0  0
  -24.8875  -32.2960   26.4833 H   0  0  0  0  0  0
  -25.7939  -30.8952   27.0236 H   0  0  0  0  0  0
  -26.2924  -29.6741   24.1239 H   0  0  0  0  0  0
  -27.3883  -29.7244   25.4840 H   0  0  0  0  0  0
  -27.8850  -30.4210   23.9601 H   0  0  0  0  0  0
  -27.2599  -33.3637   26.2080 H   0  0  0  0  0  0
  -28.3823  -32.6931   25.0346 H   0  0  0  0  0  0
  -28.0692  -31.8490   26.5436 H   0  0  0  0  0  0
  -28.2560  -38.0121   24.7522 H   0  0  0  0  0  0
  -28.1108  -36.2650   24.6228 H   0  0  0  0  0  0
  -27.2312  -37.1380   25.8856 H   0  0  0  0  0  0
  -20.9417  -29.8774   21.6788 H   0  0  0  0  0  0
  -26.0151  -38.2836   24.1438 H   0  0  0  0  0  0
  -28.8922  -23.9573   17.8778 H   0  0  0  0  0  0
  -29.0966  -25.6993   17.8472 H   0  0  0  0  0  0
  -27.4871  -24.9935   17.8729 H   0  0  0  0  0  0
  -29.2744  -22.2685   21.5857 H   0  0  0  0  0  0
  -27.7827  -21.4748   21.2313 H   0  0  0  0  0  0
  -27.4928  -23.9240   21.4258 H   0  0  0  0  0  0
  -26.9413  -23.3916   19.8978 H   0  0  0  0  0  0
  -29.5899  -24.7841   20.0536 H   0  0  0  0  0  0
  -29.5452  -20.6273   17.0023 H   0  0  0  0  0  0
  -29.6253  -19.1201   16.2535 H   0  0  0  0  0  0
  -29.0000  -15.7256   21.3479 H   0  0  0  0  0  0
  1 25  1  0  0  0
  1 30  2  0  0  0
  1 81  1  0  0  0
  2  3  1  0  0  0
  2 25  1  0  0  0
  2 84  1  0  0  0
  2 85  1  0  0  0
  3  4  1  0  0  0
  3 86  1  0  0  0
  3 87  1  0  0  0
  4  5  1  0  0  0
  4 88  1  0  0  0
  4 89  1  0  0  0
  5  6  1  0  0  0
  5 26  1  0  0  0
  5 90  1  0  0  0
  6 25  1  0  0  0
  6 91  1  0  0  0
  6 92  1  0  0  0
  7  8  2  0  0  0
  7 26  1  0  0  0
  7 29  1  0  0  0
  8  9  1  0  0  0
  8 22  1  0  0  0
  9 10  1  0  0  0
  9 27  2  0  0  0
 10 11  2  0  0  0
 10 15  1  0  0  0
 11 12  1  0  0  0
 11 93  1  0  0  0
 12 13  2  0  0  0
 12 94  1  0  0  0
 13 14  1  0  0  0
 13 31  1  0  0  0
 14 15  2  0  0  0
 14 95  1  0  0  0
 15 96  1  0  0  0
 16 17  2  0  0  0
 16 21  1  0  0  0
 16 31  1  0  0  0
 17 18  1  0  0  0
 17 97  1  0  0  0
 18 19  2  0  0  0
 18 98  1  0  0  0
 19 20  1  0  0  0
 19 24  1  0  0  0
 20 21  2  0  0  0
 20 99  1  0  0  0
 21 23  1  0  0  0
 22 28  1  0  0  0
 22 32  2  0  0  0
 26 27  1  0  0  0
 28100  1  0  0  0
 28101  1  0  0  0
 29102  1  0  0  0
 29103  1  0  0  0
 33 34  1  0  0  0
 33 66  1  0  0  0
 33 70  2  0  0  0
 34 36  1  0  0  0
 34 59  1  0  0  0
 34104  1  0  0  0
 35 44  2  0  0  0
 35 45  1  0  0  0
 35 68  1  0  0  0
 36 56  1  0  0  0
 36105  1  0  0  0
 37 39  1  0  0  0
 37 47  1  0  0  0
 37 66  1  0  0  0
 37106  1  0  0  0
 38 43  2  0  0  0
 38 46  1  0  0  0
 38 47  1  0  0  0
 39 64  1  0  0  0
 39 67  2  0  0  0
 40 52  1  0  0  0
 40 53  2  0  0  0
 40 58  1  0  0  0
 41107  1  0  0  0
 41108  1  0  0  0
 41109  1  0  0  0
 41 48  1  0  0  0
 42 43  1  0  0  0
 42 66  1  0  0  0
 42110  1  0  0  0
 42111  1  0  0  0
 43 44  1  0  0  0
 44112  1  0  0  0
 45 46  2  0  0  0
 45113  1  0  0  0
 46114  1  0  0  0
 47115  1  0  0  0
 47116  1  0  0  0
 48 56  1  0  0  0
 48 65  1  0  0  0
 48117  1  0  0  0
 49 50  1  0  0  0
 49 53  1  0  0  0
 49 64  1  0  0  0
 49118  1  0  0  0
 50 51  1  0  0  0
 50119  1  0  0  0
 50120  1  0  0  0
 51 52  1  0  0  0
 51121  1  0  0  0
 51122  1  0  0  0
 52123  1  0  0  0
 52124  1  0  0  0
 53 54  1  0  0  0
 54 55  2  0  0  0
 54125  1  0  0  0
 55 57  1  0  0  0
 55126  1  0  0  0
 56 69  2  0  0  0
 57 58  2  0  0  0
 57127  1  0  0  0
 58128  1  0  0  0
 59 60  1  0  0  0
 59 61  1  0  0  0
 59 62  1  0  0  0
 60129  1  0  0  0
 60130  1  0  0  0
 60131  1  0  0  0
 61132  1  0  0  0
 61133  1  0  0  0
 61134  1  0  0  0
 62135  1  0  0  0
 62136  1  0  0  0
 62137  1  0  0  0
 63 65  1  0  0  0
 63138  1  0  0  0
 63139  1  0  0  0
 63140  1  0  0  0
 64141  1  0  0  0
 65142  1  0  0  0
 68 78  1  0  0  0
 71 72  2  0  0  0
 71 74  1  0  0  0
 71 79  1  0  0  0
 72 80  1  0  0  0
 72 83  1  0  0  0
 73 79  2  0  0  0
 73 81  1  0  0  0
 73 83  1  0  0  0
 74 76  1  0  0  0
 74 82  2  0  0  0
 75143  1  0  0  0
 75144  1  0  0  0
 75145  1  0  0  0
 75 78  1  0  0  0
 76 77  1  0  0  0
 76146  1  0  0  0
 76147  1  0  0  0
 77 78  1  0  0  0
 77148  1  0  0  0
 77149  1  0  0  0
 78150  1  0  0  0
 80151  1  0  0  0
 80152  1  0  0  0
 81153  1  0  0  0
M  ISO  4   1 100  68 101  78 101  81 100
M  END
> <chiral flag>
0

> <version>
0

> <s_m_source_file>
/data/baiqing/PycharmProjects/Reinvent-master-3.2/result/LINK_invent/BTK/process_docking_weight1_custom_product_contain_oxygen_bond_distance_aromatic_linkinvent_7_9_3/rearranged_h_0163.sdf

> <i_m_source_file_index>
12

> <r_mmod_Potential_Energy-OPLS-2005>
395.218139648438

> <r_mmod_Stretch_Energy-OPLS-2005>
168.553802490234

> <r_mmod_Bend_Energy-OPLS-2005>
280.069549560547

> <r_mmod_Torsional_Energy-OPLS-2005>
236.145706176758

> <r_mmod_Improper_Torsional_Energy-OPLS-2005>
7.72899055480957

> <r_mmod_Van_der_Waal_Energy-OPLS-2005>
109.247917175293

> <r_mmod_Electrostatic_Energy-OPLS-2005>
-286.479034423828

> <r_mmod_Solvation_Energy-OPLS-2005>
-228.510726928711

> <b_mmod_Minimization_Converged-OPLS-2005>
0

> <r_mmod_RMS_Derivative-OPLS-2005>
2.57150983810425

$$$$
12
                    3D
 Structure written by MMmdl.
165173  0  0  1  0            999 V2000
  -30.7747  -14.3987   20.6860 C   0  0  0  0  0  0
  -30.4173  -12.2876   19.4348 C   0  0  0  0  0  0
  -29.5017  -12.4811   18.2133 C   0  0  0  0  0  0
  -28.0208  -12.3582   18.6193 C   0  0  0  0  0  0
  -27.6611  -13.2130   19.8619 C   0  0  2  0  0  0
  -28.6889  -13.0157   20.9945 C   0  0  0  0  0  0
  -25.2594  -13.8206   20.5688 C   0  0  0  0  0  0
  -24.1840  -13.0462   20.9213 C   0  0  0  0  0  0
  -24.6407  -11.6947   20.8771 C   0  0  0  0  0  0
  -23.9076  -10.4316   21.0435 C   0  0  0  0  0  0
  -24.3632   -9.4234   21.9197 C   0  0  0  0  0  0
  -23.6313   -8.2258   22.0755 C   0  0  0  0  0  0
  -22.4296   -8.0301   21.3546 C   0  0  0  0  0  0
  -21.9905   -9.0296   20.4694 C   0  0  0  0  0  0
  -22.7239  -10.2168   20.3113 C   0  0  0  0  0  0
  -21.6859   -6.0757   22.5285 C   0  0  0  0  0  0
  -21.4029   -6.5658   23.8221 C   0  0  0  0  0  0
  -21.3668   -5.6807   24.9178 C   0  0  0  0  0  0
  -21.6045   -4.3069   24.7214 C   0  0  0  0  0  0
  -21.8809   -3.8161   23.4331 C   0  0  0  0  0  0
  -21.9195   -4.6987   22.3398 C   0  0  0  0  0  0
  -22.7865  -13.5292   21.1831 C   0  0  0  0  0  0
  -22.1662   -4.2185   21.0968 F   0  0  0  0  0  0
  -21.5625   -3.4540   25.7715 F   0  0  0  0  0  0
  -30.0395  -13.2728   20.4611 N   0  0  0  0  0  0
  -26.3012  -12.9385   20.3280 N   0  0  0  0  0  0
  -25.9317  -11.6550   20.5744 N   0  0  0  0  0  0
  -22.0459  -12.8348   22.0419 N   0  0  0  0  0  0
  -25.4283  -15.1911   20.4153 N   0  0  0  0  0  0
  -31.7773  -14.6868   20.0241 O   0  0  0  0  0  0
  -21.6662   -6.8894   21.4243 O   0  0  0  0  0  0
  -22.3572  -14.5570   20.6640 O   0  0  0  0  0  0
  -24.6137  -31.8696   23.2040 C   0  0  0  0  0  0
  -25.9046  -32.4823   23.8360 C   0  0  1  0  0  0
  -27.2521  -27.4493   20.1063 C   0  0  0  0  0  0
  -25.5910  -33.8625   24.2321 N   0  0  0  0  0  0
  -23.3985  -30.4876   21.5460 C   0  0  2  0  0  0
  -24.8514  -28.9487   20.1160 C   0  0  0  0  0  0
  -22.7387  -29.4691   22.5045 C   0  0  0  0  0  0
  -18.0264  -28.1389   22.8500 C   0  0  0  0  0  0
  -24.1471  -36.7296   23.2634 C   0  0  0  0  0  0
  -25.9202  -30.8453   21.3445 C   0  0  0  0  0  0
  -26.0067  -29.4732   20.7072 C   0  0  0  0  0  0
  -27.2081  -28.7304   20.7003 C   0  0  0  0  0  0
  -26.0822  -26.9388   19.4963 C   0  0  0  0  0  0
  -24.8872  -27.6819   19.5044 C   0  0  0  0  0  0
  -23.6018  -29.8018   20.1679 C   0  0  0  0  0  0
  -25.4092  -36.3127   24.0352 C   0  0  1  0  0  0
  -20.5851  -28.3684   23.1338 C   0  0  2  0  0  0
  -20.6751  -26.9428   22.5428 C   0  0  0  0  0  0
  -19.5735  -26.6403   21.5220 C   0  0  0  0  0  0
  -18.1913  -26.7937   22.1627 C   0  0  0  0  0  0
  -19.1509  -28.8848   23.2912 C   0  0  0  0  0  0
  -18.9443  -30.1466   23.8921 C   0  0  0  0  0  0
  -17.6439  -30.6586   24.0580 C   0  0  0  0  0  0
  -25.9041  -34.9501   23.5128 C   0  0  0  0  0  0
  -16.5334  -29.9102   23.6325 C   0  0  0  0  0  0
  -16.7263  -28.6526   23.0341 C   0  0  0  0  0  0
  -26.4468  -31.6578   25.0672 C   0  0  0  0  0  0
  -25.3706  -31.3713   26.1396 C   0  0  0  0  0  0
  -27.0250  -30.3021   24.5989 C   0  0  0  0  0  0
  -27.6061  -32.4267   25.7423 C   0  0  0  0  0  0
  -27.5568  -37.1796   24.8484 C   0  0  0  0  0  0
  -21.4123  -29.3048   22.3750 N   0  0  0  0  0  0
  -26.4288  -37.3809   23.9425 N   0  0  0  0  0  0
  -24.6629  -31.0813   22.0915 N   0  0  0  0  0  0
  -23.4168  -28.8257   23.3102 O   0  0  0  0  0  0
  -28.4374  -26.7449   20.1070 O   0  0  0  0  0  0
  -26.5598  -34.8948   22.4688 O   0  0  0  0  0  0
  -23.5336  -32.1433   23.7479 O   0  0  0  0  0  0
  -29.4397  -18.5938   22.3701 C   0  0  0  0  0  0
  -30.0169  -17.3077   20.6245 C   0  0  0  0  0  0
  -29.6373  -17.3245   22.8625 C   0  0  0  0  0  0
  -30.0404  -16.5115   21.7465 C   0  0  0  0  0  0
  -29.3654  -17.0403   24.2944 C   0  0  0  0  0  0
  -28.5352  -20.8540   20.2689 C   0  0  0  0  0  0
  -28.8428  -24.4764   19.2263 C   0  0  0  0  0  0
  -29.9544  -17.9896   25.3323 C   0  0  0  0  0  0
  -31.0718  -20.3085   19.8917 C   0  0  0  0  0  0
  -30.8493  -14.4989   23.0582 C   0  0  0  0  0  0
  -28.8708  -22.3307   20.5701 C   0  0  0  0  0  0
  -28.3807  -25.3387   20.4203 C   0  0  0  0  0  0
  -29.6410  -19.7720   20.0959 C   0  0  1  0  0  0
  -29.6675  -18.6034   20.9992 N   0  0  0  0  0  0
  -28.9086  -23.1370   19.3402 N   0  0  0  0  0  0
  -30.4406  -15.1154   21.7864 N   0  0  0  0  0  0
  -28.7106  -16.0619   24.6614 O   0  0  0  0  0  0
  -27.3484  -20.5428   20.1271 O   0  0  0  0  0  0
  -29.1372  -25.0135   18.1568 O   0  0  0  0  0  0
  -31.4677  -12.3642   19.1489 H   0  0  0  0  0  0
  -30.3000  -11.2824   19.8473 H   0  0  0  0  0  0
  -29.7380  -11.7353   17.4531 H   0  0  0  0  0  0
  -29.6942  -13.4534   17.7604 H   0  0  0  0  0  0
  -27.8206  -11.3070   18.8260 H   0  0  0  0  0  0
  -27.3802  -12.6283   17.7807 H   0  0  0  0  0  0
  -27.7014  -14.2575   19.5468 H   0  0  0  0  0  0
  -28.6390  -12.0044   21.3986 H   0  0  0  0  0  0
  -28.4205  -13.6735   21.8206 H   0  0  0  0  0  0
  -25.2761   -9.5740   22.4782 H   0  0  0  0  0  0
  -24.0055   -7.4654   22.7449 H   0  0  0  0  0  0
  -21.0815   -8.8852   19.9009 H   0  0  0  0  0  0
  -22.3681  -10.9747   19.6271 H   0  0  0  0  0  0
  -21.2033   -7.6168   23.9753 H   0  0  0  0  0  0
  -21.1499   -6.0515   25.9093 H   0  0  0  0  0  0
  -22.0571   -2.7622   23.2807 H   0  0  0  0  0  0
  -22.3987  -12.0051   22.4953 H   0  0  0  0  0  0
  -21.1102  -13.1473   22.2560 H   0  0  0  0  0  0
  -24.6635  -15.8431   20.5559 H   0  0  0  0  0  0
  -26.2891  -15.6435   20.1300 H   0  0  0  0  0  0
  -26.7135  -32.5552   23.1148 H   0  0  0  0  0  0
  -25.0066  -33.9785   25.0473 H   0  0  0  0  0  0
  -22.6880  -31.3048   21.4041 H   0  0  0  0  0  0
  -23.3755  -35.9612   23.3333 H   0  0  0  0  0  0
  -24.3559  -36.8843   22.2041 H   0  0  0  0  0  0
  -23.7197  -37.6508   23.6596 H   0  0  0  0  0  0
  -26.0016  -31.6019   20.5614 H   0  0  0  0  0  0
  -26.8198  -30.9303   21.9411 H   0  0  0  0  0  0
  -28.0939  -29.1417   21.1631 H   0  0  0  0  0  0
  -26.0873  -25.9774   19.0010 H   0  0  0  0  0  0
  -24.0067  -27.2738   19.0310 H   0  0  0  0  0  0
  -23.6766  -30.5636   19.3923 H   0  0  0  0  0  0
  -22.7314  -29.2006   19.9013 H   0  0  0  0  0  0
  -25.1253  -36.1990   25.0846 H   0  0  0  0  0  0
  -20.9942  -28.3248   24.1460 H   0  0  0  0  0  0
  -20.5660  -26.2286   23.3615 H   0  0  0  0  0  0
  -21.6617  -26.7470   22.1208 H   0  0  0  0  0  0
  -19.6891  -25.6326   21.1228 H   0  0  0  0  0  0
  -19.6659  -27.3226   20.6772 H   0  0  0  0  0  0
  -17.4169  -26.6719   21.4030 H   0  0  0  0  0  0
  -18.0312  -26.0070   22.9024 H   0  0  0  0  0  0
  -19.7921  -30.7296   24.2264 H   0  0  0  0  0  0
  -17.4994  -31.6264   24.5198 H   0  0  0  0  0  0
  -15.5336  -30.3004   23.7631 H   0  0  0  0  0  0
  -15.8670  -28.0861   22.7008 H   0  0  0  0  0  0
  -24.5932  -30.6989   25.7749 H   0  0  0  0  0  0
  -24.8818  -32.2871   26.4747 H   0  0  0  0  0  0
  -25.8029  -30.8974   27.0216 H   0  0  0  0  0  0
  -26.2782  -29.6846   24.0975 H   0  0  0  0  0  0
  -27.3977  -29.7186   25.4420 H   0  0  0  0  0  0
  -27.8638  -30.4361   23.9144 H   0  0  0  0  0  0
  -27.2738  -33.3617   26.1962 H   0  0  0  0  0  0
  -28.3888  -32.6731   25.0227 H   0  0  0  0  0  0
  -28.0701  -31.8382   26.5346 H   0  0  0  0  0  0
  -28.2625  -38.0056   24.7494 H   0  0  0  0  0  0
  -28.1003  -36.2578   24.6337 H   0  0  0  0  0  0
  -27.2276  -37.1496   25.8888 H   0  0  0  0  0  0
  -20.9300  -29.8728   21.6928 H   0  0  0  0  0  0
  -26.0178  -38.2892   24.1406 H   0  0  0  0  0  0
  -29.1387  -19.5006   22.8794 H   0  0  0  0  0  0
  -30.2546  -17.0900   19.5906 H   0  0  0  0  0  0
  -29.3274  -18.8718   25.4464 H   0  0  0  0  0  0
  -30.9574  -18.3052   25.0418 H   0  0  0  0  0  0
  -30.0267  -17.4805   26.2952 H   0  0  0  0  0  0
  -31.6705  -19.5506   19.3810 H   0  0  0  0  0  0
  -31.5670  -20.5155   20.8436 H   0  0  0  0  0  0
  -31.1045  -21.2022   19.2654 H   0  0  0  0  0  0
  -29.9780  -14.1554   23.6149 H   0  0  0  0  0  0
  -31.4139  -15.1991   23.6750 H   0  0  0  0  0  0
  -31.4885  -13.6220   22.9276 H   0  0  0  0  0  0
  -29.8200  -22.4198   21.0942 H   0  0  0  0  0  0
  -28.1075  -22.7067   21.2523 H   0  0  0  0  0  0
  -27.3899  -25.0132   20.7321 H   0  0  0  0  0  0
  -29.0421  -25.1529   21.2684 H   0  0  0  0  0  0
  -29.3640  -19.3653   19.1266 H   0  0  0  0  0  0
  -29.1239  -22.6329   18.4907 H   0  0  0  0  0  0
  1 25  1  0  0  0
  1 30  2  0  0  0
  1 86  1  0  0  0
  2  3  1  0  0  0
  2 25  1  0  0  0
  2 90  1  0  0  0
  2 91  1  0  0  0
  3  4  1  0  0  0
  3 92  1  0  0  0
  3 93  1  0  0  0
  4  5  1  0  0  0
  4 94  1  0  0  0
  4 95  1  0  0  0
  5  6  1  0  0  0
  5 26  1  0  0  0
  5 96  1  0  0  0
  6 25  1  0  0  0
  6 97  1  0  0  0
  6 98  1  0  0  0
  7  8  2  0  0  0
  7 26  1  0  0  0
  7 29  1  0  0  0
  8  9  1  0  0  0
  8 22  1  0  0  0
  9 10  1  0  0  0
  9 27  2  0  0  0
 10 11  2  0  0  0
 10 15  1  0  0  0
 11 12  1  0  0  0
 11 99  1  0  0  0
 12 13  2  0  0  0
 12100  1  0  0  0
 13 14  1  0  0  0
 13 31  1  0  0  0
 14 15  2  0  0  0
 14101  1  0  0  0
 15102  1  0  0  0
 16 17  2  0  0  0
 16 21  1  0  0  0
 16 31  1  0  0  0
 17 18  1  0  0  0
 17103  1  0  0  0
 18 19  2  0  0  0
 18104  1  0  0  0
 19 20  1  0  0  0
 19 24  1  0  0  0
 20 21  2  0  0  0
 20105  1  0  0  0
 21 23  1  0  0  0
 22 28  1  0  0  0
 22 32  2  0  0  0
 26 27  1  0  0  0
 28106  1  0  0  0
 28107  1  0  0  0
 29108  1  0  0  0
 29109  1  0  0  0
 33 34  1  0  0  0
 33 66  1  0  0  0
 33 70  2  0  0  0
 34 36  1  0  0  0
 34 59  1  0  0  0
 34110  1  0  0  0
 35 44  2  0  0  0
 35 45  1  0  0  0
 35 68  1  0  0  0
 36 56  1  0  0  0
 36111  1  0  0  0
 37 39  1  0  0  0
 37 47  1  0  0  0
 37 66  1  0  0  0
 37112  1  0  0  0
 38 43  2  0  0  0
 38 46  1  0  0  0
 38 47  1  0  0  0
 39 64  1  0  0  0
 39 67  2  0  0  0
 40 52  1  0  0  0
 40 53  2  0  0  0
 40 58  1  0  0  0
 41113  1  0  0  0
 41114  1  0  0  0
 41115  1  0  0  0
 41 48  1  0  0  0
 42 43  1  0  0  0
 42 66  1  0  0  0
 42116  1  0  0  0
 42117  1  0  0  0
 43 44  1  0  0  0
 44118  1  0  0  0
 45 46  2  0  0  0
 45119  1  0  0  0
 46120  1  0  0  0
 47121  1  0  0  0
 47122  1  0  0  0
 48 56  1  0  0  0
 48 65  1  0  0  0
 48123  1  0  0  0
 49 50  1  0  0  0
 49 53  1  0  0  0
 49 64  1  0  0  0
 49124  1  0  0  0
 50 51  1  0  0  0
 50125  1  0  0  0
 50126  1  0  0  0
 51 52  1  0  0  0
 51127  1  0  0  0
 51128  1  0  0  0
 52129  1  0  0  0
 52130  1  0  0  0
 53 54  1  0  0  0
 54 55  2  0  0  0
 54131  1  0  0  0
 55 57  1  0  0  0
 55132  1  0  0  0
 56 69  2  0  0  0
 57 58  2  0  0  0
 57133  1  0  0  0
 58134  1  0  0  0
 59 60  1  0  0  0
 59 61  1  0  0  0
 59 62  1  0  0  0
 60135  1  0  0  0
 60136  1  0  0  0
 60137  1  0  0  0
 61138  1  0  0  0
 61139  1  0  0  0
 61140  1  0  0  0
 62141  1  0  0  0
 62142  1  0  0  0
 62143  1  0  0  0
 63 65  1  0  0  0
 63144  1  0  0  0
 63145  1  0  0  0
 63146  1  0  0  0
 64147  1  0  0  0
 65148  1  0  0  0
 68 82  1  0  0  0
 71 73  2  0  0  0
 71 84  1  0  0  0
 71149  1  0  0  0
 72 74  2  0  0  0
 72 84  1  0  0  0
 72150  1  0  0  0
 73 74  1  0  0  0
 73 75  1  0  0  0
 74 86  1  0  0  0
 75 78  1  0  0  0
 75 87  2  0  0  0
 76 81  1  0  0  0
 76 83  1  0  0  0
 76 88  2  0  0  0
 77 82  1  0  0  0
 77 85  1  0  0  0
 77 89  2  0  0  0
 78151  1  0  0  0
 78152  1  0  0  0
 78153  1  0  0  0
 79154  1  0  0  0
 79155  1  0  0  0
 79156  1  0  0  0
 79 83  1  0  0  0
 80 86  1  0  0  0
 80157  1  0  0  0
 80158  1  0  0  0
 80159  1  0  0  0
 81 85  1  0  0  0
 81160  1  0  0  0
 81161  1  0  0  0
 82162  1  0  0  0
 82163  1  0  0  0
 83 84  1  0  0  0
 83164  1  0  0  0
 85165  1  0  0  0
M  ISO  4   1 100  68 101  82 101  86 100
M  END
> <chiral flag>
0

> <version>
0

> <s_m_source_file>
/data/baiqing/PycharmProjects/Reinvent-master-3.2/result/LINK_invent/BTK/process_docking_weight1_custom_product_contain_oxygen_bond_distance_aromatic_linkinvent_7_9_3/rearranged_h_0163.sdf

> <i_m_source_file_index>
13

> <r_mmod_Potential_Energy-OPLS-2005>
159.995361328125

> <r_mmod_Stretch_Energy-OPLS-2005>
43.9531478881836

> <r_mmod_Bend_Energy-OPLS-2005>
121.591918945312

> <r_mmod_Torsional_Energy-OPLS-2005>
375.355346679688

> <r_mmod_Improper_Torsional_Energy-OPLS-2005>
4.3791036605835

> <r_mmod_Van_der_Waal_Energy-OPLS-2005>
127.517913818359

> <r_mmod_Electrostatic_Energy-OPLS-2005>
-262.426208496094

> <r_mmod_Solvation_Energy-OPLS-2005>
-259.741241455078

> <b_mmod_Minimization_Converged-OPLS-2005>
0

> <r_mmod_RMS_Derivative-OPLS-2005>
5.37452507019043

$$$$
13
                    3D
 Structure written by MMmdl.
158167  0  0  1  0            999 V2000
  -30.6893  -14.5910   20.3587 C   0  0  0  0  0  0
  -30.4130  -12.3351   19.4215 C   0  0  0  0  0  0
  -29.4655  -12.3854   18.2046 C   0  0  0  0  0  0
  -27.9978  -12.2775   18.6495 C   0  0  0  0  0  0
  -27.6377  -13.2146   19.8346 C   0  0  2  0  0  0
  -28.7003  -13.1550   20.9534 C   0  0  0  0  0  0
  -25.2542  -13.8206   20.5763 C   0  0  0  0  0  0
  -24.1803  -13.0470   20.9247 C   0  0  0  0  0  0
  -24.6367  -11.6943   20.8810 C   0  0  0  0  0  0
  -23.9046  -10.4315   21.0449 C   0  0  0  0  0  0
  -24.3614   -9.4219   21.9208 C   0  0  0  0  0  0
  -23.6309   -8.2233   22.0747 C   0  0  0  0  0  0
  -22.4293   -8.0271   21.3531 C   0  0  0  0  0  0
  -21.9923   -9.0253   20.4637 C   0  0  0  0  0  0
  -22.7234  -10.2150   20.3078 C   0  0  0  0  0  0
  -21.6849   -6.0728   22.5284 C   0  0  0  0  0  0
  -21.4004   -6.5639   23.8218 C   0  0  0  0  0  0
  -21.3668   -5.6794   24.9182 C   0  0  0  0  0  0
  -21.6059   -4.3062   24.7230 C   0  0  0  0  0  0
  -21.8815   -3.8142   23.4351 C   0  0  0  0  0  0
  -21.9190   -4.6957   22.3405 C   0  0  0  0  0  0
  -22.7823  -13.5257   21.1877 C   0  0  0  0  0  0
  -22.1661   -4.2153   21.0981 F   0  0  0  0  0  0
  -21.5644   -3.4540   25.7732 F   0  0  0  0  0  0
  -30.0043  -13.4135   20.3344 N   0  0  0  0  0  0
  -26.2942  -12.9383   20.3346 N   0  0  0  0  0  0
  -25.9287  -11.6545   20.5862 N   0  0  0  0  0  0
  -22.0448  -12.8274   22.0438 N   0  0  0  0  0  0
  -25.4314  -15.1918   20.4203 N   0  0  0  0  0  0
  -31.9217  -14.6171   20.3279 O   0  0  0  0  0  0
  -21.6640   -6.8870   21.4240 O   0  0  0  0  0  0
  -22.3519  -14.5552   20.6704 O   0  0  0  0  0  0
  -24.6211  -31.8665   23.2063 C   0  0  0  0  0  0
  -25.9079  -32.4831   23.8377 C   0  0  1  0  0  0
  -27.2226  -27.3815   20.0740 C   0  0  0  0  0  0
  -25.5935  -33.8637   24.2325 N   0  0  0  0  0  0
  -23.4089  -30.4936   21.5508 C   0  0  2  0  0  0
  -24.8481  -28.9560   20.1149 C   0  0  0  0  0  0
  -22.7435  -29.4679   22.4985 C   0  0  0  0  0  0
  -18.0272  -28.1378   22.8495 C   0  0  0  0  0  0
  -24.1475  -36.7311   23.2623 C   0  0  0  0  0  0
  -25.9444  -30.8164   21.3637 C   0  0  0  0  0  0
  -26.0165  -29.4461   20.7103 C   0  0  0  0  0  0
  -27.2029  -28.6632   20.6921 C   0  0  0  0  0  0
  -26.0188  -26.9243   19.4831 C   0  0  0  0  0  0
  -24.8469  -27.6968   19.5028 C   0  0  0  0  0  0
  -23.6164  -29.8308   20.1653 C   0  0  0  0  0  0
  -25.4103  -36.3127   24.0313 C   0  0  1  0  0  0
  -20.5866  -28.3684   23.1308 C   0  0  2  0  0  0
  -20.6775  -26.9414   22.5418 C   0  0  0  0  0  0
  -19.5745  -26.6378   21.5225 C   0  0  0  0  0  0
  -18.1921  -26.7922   22.1624 C   0  0  0  0  0  0
  -19.1524  -28.8841   23.2890 C   0  0  0  0  0  0
  -18.9457  -30.1459   23.8902 C   0  0  0  0  0  0
  -17.6454  -30.6585   24.0580 C   0  0  0  0  0  0
  -25.9044  -34.9491   23.5109 C   0  0  0  0  0  0
  -16.5350  -29.9092   23.6331 C   0  0  0  0  0  0
  -16.7263  -28.6512   23.0349 C   0  0  0  0  0  0
  -26.4475  -31.6615   25.0728 C   0  0  0  0  0  0
  -25.3728  -31.3813   26.1477 C   0  0  0  0  0  0
  -27.0276  -30.3036   24.6131 C   0  0  0  0  0  0
  -27.6043  -32.4337   25.7498 C   0  0  0  0  0  0
  -27.5566  -37.1811   24.8460 C   0  0  0  0  0  0
  -21.4154  -29.3063   22.3727 N   0  0  0  0  0  0
  -26.4279  -37.3820   23.9407 N   0  0  0  0  0  0
  -24.6779  -31.0742   22.0989 N   0  0  0  0  0  0
  -23.4193  -28.8213   23.3026 O   0  0  0  0  0  0
  -28.3882  -26.6157   20.0929 O   0  0  0  0  0  0
  -26.5582  -34.8937   22.4666 O   0  0  0  0  0  0
  -23.5391  -32.1412   23.7445 O   0  0  0  0  0  0
  -28.8243  -20.6309   19.6897 C   0  0  0  0  0  0
  -27.8578  -20.8040   21.6667 C   0  0  0  0  0  0
  -28.2592  -21.5803   20.6100 C   0  0  0  0  0  0
  -28.6553  -19.3603   20.2135 C   0  0  0  0  0  0
  -27.9778  -23.0679   20.6114 C   0  0  0  0  0  0
  -29.0025  -24.1537   20.1271 C   0  0  0  0  0  0
  -29.4326  -16.6152   17.5697 C   0  0  0  0  0  0
  -29.1599  -17.9927   18.1697 C   0  0  0  0  0  0
  -30.5140  -15.9229   18.3984 C   0  0  0  0  0  0
  -29.8212  -16.9642   20.4475 C   0  0  0  0  0  0
  -28.8338  -17.9344   19.6751 C   0  0  1  0  0  0
  -28.4834  -25.3773   19.3200 C   0  0  0  0  0  0
  -30.0343  -15.6438   19.7694 N   0  0  0  0  0  0
  -26.9047  -23.4730   21.0769 O   0  0  0  0  0  0
  -30.2091  -24.0414   20.3886 O   0  0  0  0  0  0
  -28.0994  -19.4740   21.4515 O   0  0  0  0  0  0
  -31.4491  -12.4370   19.0932 H   0  0  0  0  0  0
  -30.3460  -11.3690   19.9238 H   0  0  0  0  0  0
  -29.6972  -11.5641   17.5250 H   0  0  0  0  0  0
  -29.6008  -13.2938   17.6243 H   0  0  0  0  0  0
  -27.8394  -11.2392   18.9430 H   0  0  0  0  0  0
  -27.3278  -12.4518   17.8077 H   0  0  0  0  0  0
  -27.6309  -14.2279   19.4312 H   0  0  0  0  0  0
  -28.7000  -12.1857   21.4522 H   0  0  0  0  0  0
  -28.4875  -13.9034   21.7181 H   0  0  0  0  0  0
  -25.2752   -9.5705   22.4798 H   0  0  0  0  0  0
  -24.0028   -7.4620   22.7464 H   0  0  0  0  0  0
  -21.0859   -8.8773   19.8941 H   0  0  0  0  0  0
  -22.3690  -10.9698   19.6200 H   0  0  0  0  0  0
  -21.1982   -7.6144   23.9734 H   0  0  0  0  0  0
  -21.1509   -6.0512   25.9095 H   0  0  0  0  0  0
  -22.0591   -2.7608   23.2841 H   0  0  0  0  0  0
  -22.4064  -11.9942   22.4845 H   0  0  0  0  0  0
  -21.1054  -13.1305   22.2602 H   0  0  0  0  0  0
  -24.6826  -15.8596   20.5673 H   0  0  0  0  0  0
  -26.3044  -15.6276   20.1531 H   0  0  0  0  0  0
  -26.7188  -32.5532   23.1164 H   0  0  0  0  0  0
  -25.0205  -33.9826   25.0547 H   0  0  0  0  0  0
  -22.6982  -31.3108   21.4132 H   0  0  0  0  0  0
  -23.3748  -35.9640   23.3307 H   0  0  0  0  0  0
  -24.3592  -36.8907   22.2042 H   0  0  0  0  0  0
  -23.7193  -37.6502   23.6632 H   0  0  0  0  0  0
  -26.0519  -31.5798   20.5916 H   0  0  0  0  0  0
  -26.8339  -30.8757   21.9798 H   0  0  0  0  0  0
  -28.1026  -29.0402   21.1606 H   0  0  0  0  0  0
  -25.9125  -25.9650   19.0089 H   0  0  0  0  0  0
  -23.9442  -27.3121   19.0452 H   0  0  0  0  0  0
  -23.7331  -30.6041   19.4057 H   0  0  0  0  0  0
  -22.7360  -29.2573   19.8671 H   0  0  0  0  0  0
  -25.1286  -36.1987   25.0801 H   0  0  0  0  0  0
  -20.9955  -28.3249   24.1428 H   0  0  0  0  0  0
  -20.5694  -26.2299   23.3614 H   0  0  0  0  0  0
  -21.6653  -26.7473   22.1216 H   0  0  0  0  0  0
  -19.6918  -25.6291   21.1247 H   0  0  0  0  0  0
  -19.6679  -27.3205   20.6768 H   0  0  0  0  0  0
  -17.4209  -26.6684   21.4007 H   0  0  0  0  0  0
  -18.0309  -26.0051   22.9003 H   0  0  0  0  0  0
  -19.7935  -30.7272   24.2247 H   0  0  0  0  0  0
  -17.5019  -31.6257   24.5194 H   0  0  0  0  0  0
  -15.5349  -30.3011   23.7640 H   0  0  0  0  0  0
  -15.8655  -28.0842   22.7044 H   0  0  0  0  0  0
  -24.5853  -30.7202   25.7856 H   0  0  0  0  0  0
  -24.8988  -32.3034   26.4856 H   0  0  0  0  0  0
  -25.8046  -30.9027   27.0272 H   0  0  0  0  0  0
  -26.2845  -29.6849   24.1092 H   0  0  0  0  0  0
  -27.3923  -29.7226   25.4610 H   0  0  0  0  0  0
  -27.8742  -30.4332   23.9385 H   0  0  0  0  0  0
  -27.2633  -33.3620   26.2086 H   0  0  0  0  0  0
  -28.3844  -32.6903   25.0330 H   0  0  0  0  0  0
  -28.0706  -31.8452   26.5400 H   0  0  0  0  0  0
  -28.2606  -38.0083   24.7525 H   0  0  0  0  0  0
  -28.1024  -36.2622   24.6278 H   0  0  0  0  0  0
  -27.2300  -37.1476   25.8864 H   0  0  0  0  0  0
  -20.9289  -29.8813   21.6995 H   0  0  0  0  0  0
  -26.0156  -38.2895   24.1438 H   0  0  0  0  0  0
  -29.2219  -20.8496   18.7070 H   0  0  0  0  0  0
  -27.3666  -21.0321   22.6030 H   0  0  0  0  0  0
  -29.7680  -16.7254   16.5383 H   0  0  0  0  0  0
  -28.5213  -16.0148   17.5389 H   0  0  0  0  0  0
  -28.3429  -18.4749   17.6292 H   0  0  0  0  0  0
  -30.0402  -18.6168   18.0180 H   0  0  0  0  0  0
  -31.4062  -16.5519   18.4434 H   0  0  0  0  0  0
  -30.8409  -15.0221   17.8787 H   0  0  0  0  0  0
  -29.4521  -16.7989   21.4601 H   0  0  0  0  0  0
  -30.7912  -17.4509   20.5551 H   0  0  0  0  0  0
  -27.8544  -17.4589   19.7433 H   0  0  0  0  0  0
  -27.5797  -25.0708   18.8065 H   0  0  0  0  0  0
  -29.2018  -25.5676   18.5226 H   0  0  0  0  0  0
  1 25  1  0  0  0
  1 30  2  0  0  0
  1 83  1  0  0  0
  2  3  1  0  0  0
  2 25  1  0  0  0
  2 87  1  0  0  0
  2 88  1  0  0  0
  3  4  1  0  0  0
  3 89  1  0  0  0
  3 90  1  0  0  0
  4  5  1  0  0  0
  4 91  1  0  0  0
  4 92  1  0  0  0
  5  6  1  0  0  0
  5 26  1  0  0  0
  5 93  1  0  0  0
  6 25  1  0  0  0
  6 94  1  0  0  0
  6 95  1  0  0  0
  7  8  2  0  0  0
  7 26  1  0  0  0
  7 29  1  0  0  0
  8  9  1  0  0  0
  8 22  1  0  0  0
  9 10  1  0  0  0
  9 27  2  0  0  0
 10 11  2  0  0  0
 10 15  1  0  0  0
 11 12  1  0  0  0
 11 96  1  0  0  0
 12 13  2  0  0  0
 12 97  1  0  0  0
 13 14  1  0  0  0
 13 31  1  0  0  0
 14 15  2  0  0  0
 14 98  1  0  0  0
 15 99  1  0  0  0
 16 17  2  0  0  0
 16 21  1  0  0  0
 16 31  1  0  0  0
 17 18  1  0  0  0
 17100  1  0  0  0
 18 19  2  0  0  0
 18101  1  0  0  0
 19 20  1  0  0  0
 19 24  1  0  0  0
 20 21  2  0  0  0
 20102  1  0  0  0
 21 23  1  0  0  0
 22 28  1  0  0  0
 22 32  2  0  0  0
 26 27  1  0  0  0
 28103  1  0  0  0
 28104  1  0  0  0
 29105  1  0  0  0
 29106  1  0  0  0
 33 34  1  0  0  0
 33 66  1  0  0  0
 33 70  2  0  0  0
 34 36  1  0  0  0
 34 59  1  0  0  0
 34107  1  0  0  0
 35 44  2  0  0  0
 35 45  1  0  0  0
 35 68  1  0  0  0
 36 56  1  0  0  0
 36108  1  0  0  0
 37 39  1  0  0  0
 37 47  1  0  0  0
 37 66  1  0  0  0
 37109  1  0  0  0
 38 43  2  0  0  0
 38 46  1  0  0  0
 38 47  1  0  0  0
 39 64  1  0  0  0
 39 67  2  0  0  0
 40 52  1  0  0  0
 40 53  2  0  0  0
 40 58  1  0  0  0
 41110  1  0  0  0
 41111  1  0  0  0
 41112  1  0  0  0
 41 48  1  0  0  0
 42 43  1  0  0  0
 42 66  1  0  0  0
 42113  1  0  0  0
 42114  1  0  0  0
 43 44  1  0  0  0
 44115  1  0  0  0
 45 46  2  0  0  0
 45116  1  0  0  0
 46117  1  0  0  0
 47118  1  0  0  0
 47119  1  0  0  0
 48 56  1  0  0  0
 48 65  1  0  0  0
 48120  1  0  0  0
 49 50  1  0  0  0
 49 53  1  0  0  0
 49 64  1  0  0  0
 49121  1  0  0  0
 50 51  1  0  0  0
 50122  1  0  0  0
 50123  1  0  0  0
 51 52  1  0  0  0
 51124  1  0  0  0
 51125  1  0  0  0
 52126  1  0  0  0
 52127  1  0  0  0
 53 54  1  0  0  0
 54 55  2  0  0  0
 54128  1  0  0  0
 55 57  1  0  0  0
 55129  1  0  0  0
 56 69  2  0  0  0
 57 58  2  0  0  0
 57130  1  0  0  0
 58131  1  0  0  0
 59 60  1  0  0  0
 59 61  1  0  0  0
 59 62  1  0  0  0
 60132  1  0  0  0
 60133  1  0  0  0
 60134  1  0  0  0
 61135  1  0  0  0
 61136  1  0  0  0
 61137  1  0  0  0
 62138  1  0  0  0
 62139  1  0  0  0
 62140  1  0  0  0
 63 65  1  0  0  0
 63141  1  0  0  0
 63142  1  0  0  0
 63143  1  0  0  0
 64144  1  0  0  0
 65145  1  0  0  0
 68 82  1  0  0  0
 71 73  1  0  0  0
 71 74  2  0  0  0
 71146  1  0  0  0
 72 73  2  0  0  0
 72 86  1  0  0  0
 72147  1  0  0  0
 73 75  1  0  0  0
 74 86  1  0  0  0
 74 81  1  0  0  0
 75 76  1  0  0  0
 75 84  2  0  0  0
 76 82  1  0  0  0
 76 85  2  0  0  0
 77 78  1  0  0  0
 77 79  1  0  0  0
 77148  1  0  0  0
 77149  1  0  0  0
 78 81  1  0  0  0
 78150  1  0  0  0
 78151  1  0  0  0
 79 83  1  0  0  0
 79152  1  0  0  0
 79153  1  0  0  0
 80 81  1  0  0  0
 80 83  1  0  0  0
 80154  1  0  0  0
 80155  1  0  0  0
 81156  1  0  0  0
 82157  1  0  0  0
 82158  1  0  0  0
M  ISO  4   1 100  68 101  82 101  83 100
M  END
> <chiral flag>
0

> <version>
0

> <s_m_source_file>
/data/baiqing/PycharmProjects/Reinvent-master-3.2/result/LINK_invent/BTK/process_docking_weight1_custom_product_contain_oxygen_bond_distance_aromatic_linkinvent_7_9_3/rearranged_h_0163.sdf

> <i_m_source_file_index>
14

> <r_mmod_Potential_Energy-OPLS-2005>
350.218444824219

> <r_mmod_Stretch_Energy-OPLS-2005>
58.6888008117676

> <r_mmod_Bend_Energy-OPLS-2005>
132.960403442383

> <r_mmod_Torsional_Energy-OPLS-2005>
355.371887207031

> <r_mmod_Improper_Torsional_Energy-OPLS-2005>
28.6312084197998

> <r_mmod_Van_der_Waal_Energy-OPLS-2005>
125.383964538574

> <r_mmod_Electrostatic_Energy-OPLS-2005>
-185.034042358398

> <r_mmod_Solvation_Energy-OPLS-2005>
-218.971237182617

> <b_mmod_Minimization_Converged-OPLS-2005>
0

> <r_mmod_RMS_Derivative-OPLS-2005>
3.15058255195618

$$$$
14
                    3D
 Structure written by MMmdl.
165173  0  0  1  0            999 V2000
  -30.7416  -14.4596   20.6053 C   0  0  0  0  0  0
  -30.4144  -12.3087   19.4288 C   0  0  0  0  0  0
  -29.4906  -12.4740   18.2078 C   0  0  0  0  0  0
  -28.0114  -12.3439   18.6197 C   0  0  0  0  0  0
  -27.6543  -13.1942   19.8665 C   0  0  2  0  0  0
  -28.6981  -13.0012   20.9922 C   0  0  0  0  0  0
  -25.2573  -13.8128   20.5657 C   0  0  0  0  0  0
  -24.1827  -13.0423   20.9189 C   0  0  0  0  0  0
  -24.6369  -11.6888   20.8754 C   0  0  0  0  0  0
  -23.9037  -10.4283   21.0420 C   0  0  0  0  0  0
  -24.3599   -9.4199   21.9192 C   0  0  0  0  0  0
  -23.6280   -8.2233   22.0755 C   0  0  0  0  0  0
  -22.4263   -8.0272   21.3544 C   0  0  0  0  0  0
  -21.9895   -9.0245   20.4646 C   0  0  0  0  0  0
  -22.7217  -10.2126   20.3060 C   0  0  0  0  0  0
  -21.6848   -6.0732   22.5282 C   0  0  0  0  0  0
  -21.4010   -6.5640   23.8214 C   0  0  0  0  0  0
  -21.3657   -5.6794   24.9176 C   0  0  0  0  0  0
  -21.6044   -4.3056   24.7228 C   0  0  0  0  0  0
  -21.8821   -3.8146   23.4351 C   0  0  0  0  0  0
  -21.9192   -4.6960   22.3407 C   0  0  0  0  0  0
  -22.7856  -13.5235   21.1851 C   0  0  0  0  0  0
  -22.1660   -4.2145   21.0984 F   0  0  0  0  0  0
  -21.5630   -3.4541   25.7742 F   0  0  0  0  0  0
  -30.0260  -13.3091   20.4394 N   0  0  0  0  0  0
  -26.2983  -12.9267   20.3331 N   0  0  0  0  0  0
  -25.9284  -11.6449   20.5779 N   0  0  0  0  0  0
  -22.0492  -12.8230   22.0406 N   0  0  0  0  0  0
  -25.4272  -15.1845   20.4011 N   0  0  0  0  0  0
  -31.8478  -14.6161   20.0773 O   0  0  0  0  0  0
  -21.6631   -6.8868   21.4241 O   0  0  0  0  0  0
  -22.3551  -14.5545   20.6698 O   0  0  0  0  0  0
  -24.6127  -31.8686   23.2102 C   0  0  0  0  0  0
  -25.9027  -32.4827   23.8393 C   0  0  1  0  0  0
  -27.2409  -27.4448   20.0860 C   0  0  0  0  0  0
  -25.5890  -33.8626   24.2328 N   0  0  0  0  0  0
  -23.3996  -30.4912   21.5503 C   0  0  2  0  0  0
  -24.8454  -28.9546   20.1157 C   0  0  0  0  0  0
  -22.7395  -29.4660   22.4995 C   0  0  0  0  0  0
  -18.0267  -28.1376   22.8494 C   0  0  0  0  0  0
  -24.1486  -36.7317   23.2637 C   0  0  0  0  0  0
  -25.9265  -30.8345   21.3624 C   0  0  0  0  0  0
  -26.0023  -29.4678   20.7131 C   0  0  0  0  0  0
  -27.1966  -28.7157   20.7023 C   0  0  0  0  0  0
  -26.0594  -26.9347   19.4988 C   0  0  0  0  0  0
  -24.8673  -27.6853   19.5109 C   0  0  0  0  0  0
  -23.6071  -29.8208   20.1653 C   0  0  0  0  0  0
  -25.4106  -36.3117   24.0339 C   0  0  1  0  0  0
  -20.5856  -28.3660   23.1330 C   0  0  2  0  0  0
  -20.6757  -26.9397   22.5427 C   0  0  0  0  0  0
  -19.5742  -26.6387   21.5216 C   0  0  0  0  0  0
  -18.1916  -26.7926   22.1619 C   0  0  0  0  0  0
  -19.1516  -28.8832   23.2911 C   0  0  0  0  0  0
  -18.9445  -30.1439   23.8920 C   0  0  0  0  0  0
  -17.6449  -30.6585   24.0568 C   0  0  0  0  0  0
  -25.9035  -34.9481   23.5133 C   0  0  0  0  0  0
  -16.5340  -29.9091   23.6322 C   0  0  0  0  0  0
  -16.7257  -28.6506   23.0345 C   0  0  0  0  0  0
  -26.4462  -31.6601   25.0716 C   0  0  0  0  0  0
  -25.3733  -31.3701   26.1467 C   0  0  0  0  0  0
  -27.0290  -30.3047   24.6083 C   0  0  0  0  0  0
  -27.6049  -32.4312   25.7473 C   0  0  0  0  0  0
  -27.5587  -37.1806   24.8458 C   0  0  0  0  0  0
  -21.4124  -29.3028   22.3735 N   0  0  0  0  0  0
  -26.4293  -37.3803   23.9415 N   0  0  0  0  0  0
  -24.6644  -31.0793   22.0997 N   0  0  0  0  0  0
  -23.4174  -28.8208   23.3036 O   0  0  0  0  0  0
  -28.4414  -26.7643   20.0997 O   0  0  0  0  0  0
  -26.5602  -34.8932   22.4698 O   0  0  0  0  0  0
  -23.5324  -32.1437   23.7506 O   0  0  0  0  0  0
  -29.2352  -16.5332   18.5994 C   0  0  0  0  0  0
  -29.3293  -18.6997   17.5114 C   0  0  0  0  0  0
  -29.2161  -18.5651   19.9481 C   0  0  0  0  0  0
  -29.3022  -17.2929   17.4133 C   0  0  0  0  0  0
  -29.2052  -17.1481   19.8701 C   0  0  0  0  0  0
  -29.2693  -19.3449   18.7631 C   0  0  0  0  0  0
  -29.3293  -16.5977   16.0928 C   0  0  0  0  0  0
  -28.8351  -21.7031   19.5538 C   0  0  0  0  0  0
  -29.4296  -17.4520   14.8342 C   0  0  0  0  0  0
  -31.2056  -16.0747   22.3453 C   0  0  0  0  0  0
  -29.0990  -16.2832   21.1341 C   0  0  0  0  0  0
  -28.9328  -23.1343   18.9998 C   0  0  0  0  0  0
  -28.4453  -24.2828   19.9126 C   0  0  0  0  0  0
  -28.6577  -25.6522   19.2287 C   0  0  0  0  0  0
  -29.3047  -20.7666   18.7128 N   0  0  0  0  0  0
  -30.2553  -15.4086   21.4475 N   0  0  0  0  0  0
  -29.2720  -15.3715   15.9711 O   0  0  0  0  0  0
  -28.3645  -21.4743   20.6703 O   0  0  0  0  0  0
  -31.4586  -12.3951   19.1235 H   0  0  0  0  0  0
  -30.3165  -11.3051   19.8458 H   0  0  0  0  0  0
  -29.7306  -11.7230   17.4538 H   0  0  0  0  0  0
  -29.6695  -13.4375   17.7348 H   0  0  0  0  0  0
  -27.8203  -11.2901   18.8266 H   0  0  0  0  0  0
  -27.3635  -12.6102   17.7838 H   0  0  0  0  0  0
  -27.6777  -14.2284   19.5368 H   0  0  0  0  0  0
  -28.6825  -11.9696   21.3464 H   0  0  0  0  0  0
  -28.4554  -13.6038   21.8674 H   0  0  0  0  0  0
  -25.2744   -9.5680   22.4766 H   0  0  0  0  0  0
  -23.9992   -7.4625   22.7475 H   0  0  0  0  0  0
  -21.0829   -8.8764   19.8951 H   0  0  0  0  0  0
  -22.3678  -10.9669   19.6172 H   0  0  0  0  0  0
  -21.2001   -7.6147   23.9714 H   0  0  0  0  0  0
  -21.1477   -6.0524   25.9078 H   0  0  0  0  0  0
  -22.0601   -2.7609   23.2853 H   0  0  0  0  0  0
  -22.4100  -11.9882   22.4784 H   0  0  0  0  0  0
  -21.1112  -13.1263   22.2613 H   0  0  0  0  0  0
  -24.6538  -15.8328   20.5007 H   0  0  0  0  0  0
  -26.2643  -15.6230   20.0401 H   0  0  0  0  0  0
  -26.7097  -32.5542   23.1156 H   0  0  0  0  0  0
  -25.0035  -33.9790   25.0467 H   0  0  0  0  0  0
  -22.6878  -31.3074   21.4112 H   0  0  0  0  0  0
  -23.3759  -35.9636   23.3284 H   0  0  0  0  0  0
  -24.3581  -36.8952   22.2054 H   0  0  0  0  0  0
  -23.7225  -37.6509   23.6663 H   0  0  0  0  0  0
  -26.0360  -31.5987   20.5917 H   0  0  0  0  0  0
  -26.8159  -30.8904   21.9784 H   0  0  0  0  0  0
  -28.0920  -29.1116   21.1614 H   0  0  0  0  0  0
  -26.0366  -25.9583   19.0381 H   0  0  0  0  0  0
  -23.9742  -27.2801   19.0555 H   0  0  0  0  0  0
  -23.7142  -30.5945   19.4043 H   0  0  0  0  0  0
  -22.7315  -29.2392   19.8715 H   0  0  0  0  0  0
  -25.1281  -36.1980   25.0831 H   0  0  0  0  0  0
  -20.9948  -28.3228   24.1449 H   0  0  0  0  0  0
  -20.5655  -26.2265   23.3611 H   0  0  0  0  0  0
  -21.6632  -26.7440   22.1227 H   0  0  0  0  0  0
  -19.6906  -25.6304   21.1227 H   0  0  0  0  0  0
  -19.6691  -27.3209   20.6756 H   0  0  0  0  0  0
  -17.4196  -26.6688   21.4010 H   0  0  0  0  0  0
  -18.0303  -26.0056   22.9001 H   0  0  0  0  0  0
  -19.7924  -30.7240   24.2305 H   0  0  0  0  0  0
  -17.5011  -31.6266   24.5169 H   0  0  0  0  0  0
  -15.5342  -30.3002   23.7635 H   0  0  0  0  0  0
  -15.8657  -28.0833   22.7047 H   0  0  0  0  0  0
  -24.5914  -30.7036   25.7805 H   0  0  0  0  0  0
  -24.8908  -32.2851   26.4915 H   0  0  0  0  0  0
  -25.8091  -30.8875   27.0224 H   0  0  0  0  0  0
  -26.2826  -29.6809   24.1149 H   0  0  0  0  0  0
  -27.4080  -29.7282   25.4532 H   0  0  0  0  0  0
  -27.8653  -30.4370   23.9213 H   0  0  0  0  0  0
  -27.2682  -33.3610   26.2072 H   0  0  0  0  0  0
  -28.3844  -32.6871   25.0284 H   0  0  0  0  0  0
  -28.0729  -31.8417   26.5367 H   0  0  0  0  0  0
  -28.2593  -38.0115   24.7538 H   0  0  0  0  0  0
  -28.1098  -36.2653   24.6244 H   0  0  0  0  0  0
  -27.2312  -37.1407   25.8862 H   0  0  0  0  0  0
  -20.9278  -29.8748   21.6960 H   0  0  0  0  0  0
  -26.0185  -38.2878   24.1437 H   0  0  0  0  0  0
  -29.2027  -15.4591   18.5218 H   0  0  0  0  0  0
  -29.3788  -19.3036   16.6166 H   0  0  0  0  0  0
  -29.1850  -19.0462   20.9158 H   0  0  0  0  0  0
  -28.5640  -18.1084   14.7516 H   0  0  0  0  0  0
  -29.4644  -16.8194   13.9481 H   0  0  0  0  0  0
  -30.3345  -18.0581   14.8575 H   0  0  0  0  0  0
  -30.7116  -16.4340   23.2485 H   0  0  0  0  0  0
  -31.6690  -16.9270   21.8459 H   0  0  0  0  0  0
  -32.0022  -15.4010   22.6678 H   0  0  0  0  0  0
  -28.1891  -15.6949   21.0704 H   0  0  0  0  0  0
  -28.9068  -16.9446   21.9803 H   0  0  0  0  0  0
  -28.3717  -23.1671   18.0646 H   0  0  0  0  0  0
  -29.9763  -23.3113   18.7357 H   0  0  0  0  0  0
  -28.9980  -24.2577   20.8525 H   0  0  0  0  0  0
  -27.3933  -24.1462   20.1651 H   0  0  0  0  0  0
  -28.0909  -25.7303   18.3003 H   0  0  0  0  0  0
  -29.7018  -25.7217   18.9214 H   0  0  0  0  0  0
  -29.6304  -21.1469   17.8350 H   0  0  0  0  0  0
  1 25  1  0  0  0
  1 30  2  0  0  0
  1 86  1  0  0  0
  2  3  1  0  0  0
  2 25  1  0  0  0
  2 89  1  0  0  0
  2 90  1  0  0  0
  3  4  1  0  0  0
  3 91  1  0  0  0
  3 92  1  0  0  0
  4  5  1  0  0  0
  4 93  1  0  0  0
  4 94  1  0  0  0
  5  6  1  0  0  0
  5 26  1  0  0  0
  5 95  1  0  0  0
  6 25  1  0  0  0
  6 96  1  0  0  0
  6 97  1  0  0  0
  7  8  2  0  0  0
  7 26  1  0  0  0
  7 29  1  0  0  0
  8  9  1  0  0  0
  8 22  1  0  0  0
  9 10  1  0  0  0
  9 27  2  0  0  0
 10 11  2  0  0  0
 10 15  1  0  0  0
 11 12  1  0  0  0
 11 98  1  0  0  0
 12 13  2  0  0  0
 12 99  1  0  0  0
 13 14  1  0  0  0
 13 31  1  0  0  0
 14 15  2  0  0  0
 14100  1  0  0  0
 15101  1  0  0  0
 16 17  2  0  0  0
 16 21  1  0  0  0
 16 31  1  0  0  0
 17 18  1  0  0  0
 17102  1  0  0  0
 18 19  2  0  0  0
 18103  1  0  0  0
 19 20  1  0  0  0
 19 24  1  0  0  0
 20 21  2  0  0  0
 20104  1  0  0  0
 21 23  1  0  0  0
 22 28  1  0  0  0
 22 32  2  0  0  0
 26 27  1  0  0  0
 28105  1  0  0  0
 28106  1  0  0  0
 29107  1  0  0  0
 29108  1  0  0  0
 33 34  1  0  0  0
 33 66  1  0  0  0
 33 70  2  0  0  0
 34 36  1  0  0  0
 34 59  1  0  0  0
 34109  1  0  0  0
 35 44  2  0  0  0
 35 45  1  0  0  0
 35 68  1  0  0  0
 36 56  1  0  0  0
 36110  1  0  0  0
 37 39  1  0  0  0
 37 47  1  0  0  0
 37 66  1  0  0  0
 37111  1  0  0  0
 38 43  2  0  0  0
 38 46  1  0  0  0
 38 47  1  0  0  0
 39 64  1  0  0  0
 39 67  2  0  0  0
 40 52  1  0  0  0
 40 53  2  0  0  0
 40 58  1  0  0  0
 41112  1  0  0  0
 41113  1  0  0  0
 41114  1  0  0  0
 41 48  1  0  0  0
 42 43  1  0  0  0
 42 66  1  0  0  0
 42115  1  0  0  0
 42116  1  0  0  0
 43 44  1  0  0  0
 44117  1  0  0  0
 45 46  2  0  0  0
 45118  1  0  0  0
 46119  1  0  0  0
 47120  1  0  0  0
 47121  1  0  0  0
 48 56  1  0  0  0
 48 65  1  0  0  0
 48122  1  0  0  0
 49 50  1  0  0  0
 49 53  1  0  0  0
 49 64  1  0  0  0
 49123  1  0  0  0
 50 51  1  0  0  0
 50124  1  0  0  0
 50125  1  0  0  0
 51 52  1  0  0  0
 51126  1  0  0  0
 51127  1  0  0  0
 52128  1  0  0  0
 52129  1  0  0  0
 53 54  1  0  0  0
 54 55  2  0  0  0
 54130  1  0  0  0
 55 57  1  0  0  0
 55131  1  0  0  0
 56 69  2  0  0  0
 57 58  2  0  0  0
 57132  1  0  0  0
 58133  1  0  0  0
 59 60  1  0  0  0
 59 61  1  0  0  0
 59 62  1  0  0  0
 60134  1  0  0  0
 60135  1  0  0  0
 60136  1  0  0  0
 61137  1  0  0  0
 61138  1  0  0  0
 61139  1  0  0  0
 62140  1  0  0  0
 62141  1  0  0  0
 62142  1  0  0  0
 63 65  1  0  0  0
 63143  1  0  0  0
 63144  1  0  0  0
 63145  1  0  0  0
 64146  1  0  0  0
 65147  1  0  0  0
 68 84  1  0  0  0
 71 74  2  0  0  0
 71 75  1  0  0  0
 71148  1  0  0  0
 72 74  1  0  0  0
 72 76  2  0  0  0
 72149  1  0  0  0
 73 75  2  0  0  0
 73 76  1  0  0  0
 73150  1  0  0  0
 74 77  1  0  0  0
 75 81  1  0  0  0
 76 85  1  0  0  0
 77 79  1  0  0  0
 77 87  2  0  0  0
 78 82  1  0  0  0
 78 85  1  0  0  0
 78 88  2  0  0  0
 79151  1  0  0  0
 79152  1  0  0  0
 79153  1  0  0  0
 80 86  1  0  0  0
 80154  1  0  0  0
 80155  1  0  0  0
 80156  1  0  0  0
 81 86  1  0  0  0
 81157  1  0  0  0
 81158  1  0  0  0
 82 83  1  0  0  0
 82159  1  0  0  0
 82160  1  0  0  0
 83 84  1  0  0  0
 83161  1  0  0  0
 83162  1  0  0  0
 84163  1  0  0  0
 84164  1  0  0  0
 85165  1  0  0  0
M  ISO  4   1 100  68 101  84 101  86 100
M  END
> <chiral flag>
0

> <version>
0

> <s_m_source_file>
/data/baiqing/PycharmProjects/Reinvent-master-3.2/result/LINK_invent/BTK/process_docking_weight1_custom_product_contain_oxygen_bond_distance_aromatic_linkinvent_7_9_3/rearranged_h_0163.sdf

> <i_m_source_file_index>
15

> <r_mmod_Potential_Energy-OPLS-2005>
-8.64839839935303

> <r_mmod_Stretch_Energy-OPLS-2005>
39.2595596313477

> <r_mmod_Bend_Energy-OPLS-2005>
126.903831481934

> <r_mmod_Torsional_Energy-OPLS-2005>
284.174011230469

> <r_mmod_Improper_Torsional_Energy-OPLS-2005>
4.87766408920288

> <r_mmod_Van_der_Waal_Energy-OPLS-2005>
153.209411621094

> <r_mmod_Electrostatic_Energy-OPLS-2005>
-393.147094726562

> <r_mmod_Solvation_Energy-OPLS-2005>
-236.479736328125

> <b_mmod_Minimization_Converged-OPLS-2005>
0

> <r_mmod_RMS_Derivative-OPLS-2005>
0.391599625349045

$$$$
15
                    3D
 Structure written by MMmdl.
157165  0  0  1  0            999 V2000
  -30.7220  -14.4695   20.5801 C   0  0  0  0  0  0
  -30.4146  -12.3078   19.4255 C   0  0  0  0  0  0
  -29.4902  -12.5088   18.2084 C   0  0  0  0  0  0
  -28.0122  -12.3711   18.6204 C   0  0  0  0  0  0
  -27.6599  -13.2123   19.8770 C   0  0  2  0  0  0
  -28.7027  -13.0043   20.9991 C   0  0  0  0  0  0
  -25.2565  -13.8181   20.5683 C   0  0  0  0  0  0
  -24.1822  -13.0445   20.9176 C   0  0  0  0  0  0
  -24.6386  -11.6916   20.8742 C   0  0  0  0  0  0
  -23.9057  -10.4294   21.0403 C   0  0  0  0  0  0
  -24.3613   -9.4206   21.9174 C   0  0  0  0  0  0
  -23.6289   -8.2241   22.0751 C   0  0  0  0  0  0
  -22.4269   -8.0277   21.3548 C   0  0  0  0  0  0
  -21.9902   -9.0247   20.4651 C   0  0  0  0  0  0
  -22.7231  -10.2126   20.3054 C   0  0  0  0  0  0
  -21.6849   -6.0729   22.5277 C   0  0  0  0  0  0
  -21.4017   -6.5636   23.8209 C   0  0  0  0  0  0
  -21.3660   -5.6792   24.9172 C   0  0  0  0  0  0
  -21.6042   -4.3054   24.7226 C   0  0  0  0  0  0
  -21.8819   -3.8143   23.4349 C   0  0  0  0  0  0
  -21.9191   -4.6958   22.3403 C   0  0  0  0  0  0
  -22.7840  -13.5228   21.1843 C   0  0  0  0  0  0
  -22.1656   -4.2143   21.0980 F   0  0  0  0  0  0
  -21.5626   -3.4539   25.7736 F   0  0  0  0  0  0
  -30.0336  -13.3014   20.4451 N   0  0  0  0  0  0
  -26.3009  -12.9363   20.3380 N   0  0  0  0  0  0
  -25.9317  -11.6518   20.5784 N   0  0  0  0  0  0
  -22.0491  -12.8218   22.0411 N   0  0  0  0  0  0
  -25.4291  -15.1902   20.4070 N   0  0  0  0  0  0
  -31.8368  -14.6236   20.0747 O   0  0  0  0  0  0
  -21.6639   -6.8872   21.4238 O   0  0  0  0  0  0
  -22.3518  -14.5533   20.6694 O   0  0  0  0  0  0
  -24.6145  -31.8668   23.2094 C   0  0  0  0  0  0
  -25.9037  -32.4826   23.8391 C   0  0  1  0  0  0
  -27.2324  -27.4367   20.1025 C   0  0  0  0  0  0
  -25.5887  -33.8623   24.2323 N   0  0  0  0  0  0
  -23.4037  -30.4904   21.5503 C   0  0  2  0  0  0
  -24.8525  -28.9581   20.1114 C   0  0  0  0  0  0
  -22.7415  -29.4649   22.4987 C   0  0  0  0  0  0
  -18.0271  -28.1392   22.8495 C   0  0  0  0  0  0
  -24.1485  -36.7313   23.2642 C   0  0  0  0  0  0
  -25.9321  -30.8359   21.3606 C   0  0  0  0  0  0
  -26.0122  -29.4710   20.7070 C   0  0  0  0  0  0
  -27.2089  -28.7177   20.6991 C   0  0  0  0  0  0
  -26.0624  -26.9395   19.4932 C   0  0  0  0  0  0
  -24.8722  -27.6920   19.5000 C   0  0  0  0  0  0
  -23.6126  -29.8227   20.1646 C   0  0  0  0  0  0
  -25.4107  -36.3118   24.0343 C   0  0  1  0  0  0
  -20.5863  -28.3662   23.1338 C   0  0  2  0  0  0
  -20.6767  -26.9396   22.5441 C   0  0  0  0  0  0
  -19.5753  -26.6393   21.5231 C   0  0  0  0  0  0
  -18.1925  -26.7944   22.1624 C   0  0  0  0  0  0
  -19.1522  -28.8847   23.2912 C   0  0  0  0  0  0
  -18.9445  -30.1454   23.8914 C   0  0  0  0  0  0
  -17.6445  -30.6592   24.0578 C   0  0  0  0  0  0
  -25.9028  -34.9482   23.5133 C   0  0  0  0  0  0
  -16.5337  -29.9098   23.6329 C   0  0  0  0  0  0
  -16.7258  -28.6522   23.0339 C   0  0  0  0  0  0
  -26.4463  -31.6599   25.0716 C   0  0  0  0  0  0
  -25.3730  -31.3704   26.1467 C   0  0  0  0  0  0
  -27.0264  -30.3043   24.6064 C   0  0  0  0  0  0
  -27.6052  -32.4309   25.7458 C   0  0  0  0  0  0
  -27.5579  -37.1810   24.8461 C   0  0  0  0  0  0
  -21.4144  -29.3023   22.3735 N   0  0  0  0  0  0
  -26.4291  -37.3803   23.9412 N   0  0  0  0  0  0
  -24.6685  -31.0771   22.0992 N   0  0  0  0  0  0
  -23.4188  -28.8186   23.3029 O   0  0  0  0  0  0
  -28.3591  -26.6463   20.1443 O   0  0  0  0  0  0
  -26.5591  -34.8935   22.4692 O   0  0  0  0  0  0
  -23.5339  -32.1412   23.7495 O   0  0  0  0  0  0
  -31.2002  -19.6017   21.5783 C   0  0  0  0  0  0
  -29.4758  -17.8819   21.4037 C   0  0  0  0  0  0
  -31.8275  -17.2537   21.3742 C   0  0  0  0  0  0
  -29.8321  -19.2549   21.5451 C   0  0  0  0  0  0
  -32.1923  -18.6086   21.4985 C   0  0  0  0  0  0
  -30.4647  -16.8656   21.3056 C   0  0  0  0  0  0
  -28.7989  -20.3381   21.7337 C   0  0  0  0  0  0
  -28.2435  -25.5659   21.0942 C   0  0  0  0  0  0
  -28.6799  -24.1778   20.5671 C   0  0  0  0  0  0
  -29.0414  -21.5359   21.2774 N   0  0  0  0  0  0
  -33.5388  -18.9667   21.5592 N   0  0  0  0  0  0
  -27.7145  -19.9208   22.4841 N   0  0  0  0  0  0
  -30.0620  -15.4874   21.1832 N   0  0  0  0  0  0
  -26.6501  -22.5540   21.2649 O   0  0  0  0  0  0
  -28.2928  -23.2437   23.0602 O   0  0  0  0  0  0
  -28.0399  -22.8345   21.6684 S   0  0  0  0  0  0
  -31.4598  -12.3914   19.1218 H   0  0  0  0  0  0
  -30.3068  -11.2983   19.8264 H   0  0  0  0  0  0
  -29.7300  -11.7859   17.4275 H   0  0  0  0  0  0
  -29.6603  -13.4960   17.7752 H   0  0  0  0  0  0
  -27.8190  -11.3149   18.8141 H   0  0  0  0  0  0
  -27.3626  -12.6493   17.7896 H   0  0  0  0  0  0
  -27.7019  -14.2593   19.5760 H   0  0  0  0  0  0
  -28.6775  -11.9727   21.3532 H   0  0  0  0  0  0
  -28.4657  -13.6159   21.8703 H   0  0  0  0  0  0
  -25.2759   -9.5674   22.4745 H   0  0  0  0  0  0
  -24.0000   -7.4627   22.7465 H   0  0  0  0  0  0
  -21.0832   -8.8756   19.8960 H   0  0  0  0  0  0
  -22.3682  -10.9656   19.6160 H   0  0  0  0  0  0
  -21.2016   -7.6145   23.9710 H   0  0  0  0  0  0
  -21.1482   -6.0524   25.9073 H   0  0  0  0  0  0
  -22.0603   -2.7607   23.2848 H   0  0  0  0  0  0
  -22.4106  -11.9868   22.4783 H   0  0  0  0  0  0
  -21.1110  -13.1238   22.2632 H   0  0  0  0  0  0
  -24.6642  -15.8488   20.5090 H   0  0  0  0  0  0
  -26.2818  -15.6249   20.0767 H   0  0  0  0  0  0
  -26.7111  -32.5543   23.1159 H   0  0  0  0  0  0
  -25.0032  -33.9777   25.0467 H   0  0  0  0  0  0
  -22.6931  -31.3075   21.4122 H   0  0  0  0  0  0
  -23.3751  -35.9641   23.3313 H   0  0  0  0  0  0
  -24.3580  -36.8909   22.2052 H   0  0  0  0  0  0
  -23.7225  -37.6524   23.6636 H   0  0  0  0  0  0
  -26.0403  -31.6008   20.5910 H   0  0  0  0  0  0
  -26.8226  -30.8926   21.9758 H   0  0  0  0  0  0
  -28.1014  -29.1013   21.1731 H   0  0  0  0  0  0
  -26.0696  -25.9626   19.0304 H   0  0  0  0  0  0
  -23.9811  -27.2903   19.0382 H   0  0  0  0  0  0
  -23.7180  -30.5983   19.4053 H   0  0  0  0  0  0
  -22.7387  -29.2396   19.8667 H   0  0  0  0  0  0
  -25.1283  -36.1994   25.0834 H   0  0  0  0  0  0
  -20.9945  -28.3228   24.1463 H   0  0  0  0  0  0
  -20.5682  -26.2254   23.3621 H   0  0  0  0  0  0
  -21.6639  -26.7455   22.1228 H   0  0  0  0  0  0
  -19.6905  -25.6310   21.1241 H   0  0  0  0  0  0
  -19.6715  -27.3227   20.6784 H   0  0  0  0  0  0
  -17.4206  -26.6712   21.4008 H   0  0  0  0  0  0
  -18.0297  -26.0086   22.9005 H   0  0  0  0  0  0
  -19.7916  -30.7275   24.2291 H   0  0  0  0  0  0
  -17.4995  -31.6272   24.5176 H   0  0  0  0  0  0
  -15.5338  -30.3004   23.7647 H   0  0  0  0  0  0
  -15.8656  -28.0853   22.7029 H   0  0  0  0  0  0
  -24.5969  -30.6956   25.7834 H   0  0  0  0  0  0
  -24.8836  -32.2843   26.4845 H   0  0  0  0  0  0
  -25.8103  -30.8967   27.0267 H   0  0  0  0  0  0
  -26.2786  -29.6852   24.1095 H   0  0  0  0  0  0
  -27.4012  -29.7234   25.4502 H   0  0  0  0  0  0
  -27.8636  -30.4370   23.9209 H   0  0  0  0  0  0
  -27.2696  -33.3620   26.2038 H   0  0  0  0  0  0
  -28.3849  -32.6845   25.0260 H   0  0  0  0  0  0
  -28.0737  -31.8427   26.5363 H   0  0  0  0  0  0
  -28.2617  -38.0092   24.7507 H   0  0  0  0  0  0
  -28.1047  -36.2619   24.6280 H   0  0  0  0  0  0
  -27.2291  -37.1465   25.8865 H   0  0  0  0  0  0
  -20.9301  -29.8726   21.6942 H   0  0  0  0  0  0
  -26.0182  -38.2880   24.1425 H   0  0  0  0  0  0
  -31.4866  -20.6379   21.6948 H   0  0  0  0  0  0
  -28.4305  -17.6074   21.3716 H   0  0  0  0  0  0
  -32.6134  -16.5135   21.3422 H   0  0  0  0  0  0
  -28.8454  -25.8234   21.9669 H   0  0  0  0  0  0
  -27.2231  -25.4768   21.4727 H   0  0  0  0  0  0
  -29.7634  -24.1016   20.5377 H   0  0  0  0  0  0
  -28.3028  -23.9807   19.5679 H   0  0  0  0  0  0
  -33.7844  -19.8763   21.9404 H   0  0  0  0  0  0
  -34.2253  -18.2500   21.7784 H   0  0  0  0  0  0
  -27.6302  -18.9929   22.8807 H   0  0  0  0  0  0
  -26.9024  -20.4777   22.7208 H   0  0  0  0  0  0
  -29.1237  -15.2627   21.4778 H   0  0  0  0  0  0
  1 25  1  0  0  0
  1 30  2  0  0  0
  1 83  1  0  0  0
  2  3  1  0  0  0
  2 25  1  0  0  0
  2 87  1  0  0  0
  2 88  1  0  0  0
  3  4  1  0  0  0
  3 89  1  0  0  0
  3 90  1  0  0  0
  4  5  1  0  0  0
  4 91  1  0  0  0
  4 92  1  0  0  0
  5  6  1  0  0  0
  5 26  1  0  0  0
  5 93  1  0  0  0
  6 25  1  0  0  0
  6 94  1  0  0  0
  6 95  1  0  0  0
  7  8  2  0  0  0
  7 26  1  0  0  0
  7 29  1  0  0  0
  8  9  1  0  0  0
  8 22  1  0  0  0
  9 10  1  0  0  0
  9 27  2  0  0  0
 10 11  2  0  0  0
 10 15  1  0  0  0
 11 12  1  0  0  0
 11 96  1  0  0  0
 12 13  2  0  0  0
 12 97  1  0  0  0
 13 14  1  0  0  0
 13 31  1  0  0  0
 14 15  2  0  0  0
 14 98  1  0  0  0
 15 99  1  0  0  0
 16 17  2  0  0  0
 16 21  1  0  0  0
 16 31  1  0  0  0
 17 18  1  0  0  0
 17100  1  0  0  0
 18 19  2  0  0  0
 18101  1  0  0  0
 19 20  1  0  0  0
 19 24  1  0  0  0
 20 21  2  0  0  0
 20102  1  0  0  0
 21 23  1  0  0  0
 22 28  1  0  0  0
 22 32  2  0  0  0
 26 27  1  0  0  0
 28103  1  0  0  0
 28104  1  0  0  0
 29105  1  0  0  0
 29106  1  0  0  0
 33 34  1  0  0  0
 33 66  1  0  0  0
 33 70  2  0  0  0
 34 36  1  0  0  0
 34 59  1  0  0  0
 34107  1  0  0  0
 35 44  2  0  0  0
 35 45  1  0  0  0
 35 68  1  0  0  0
 36 56  1  0  0  0
 36108  1  0  0  0
 37 39  1  0  0  0
 37 47  1  0  0  0
 37 66  1  0  0  0
 37109  1  0  0  0
 38 43  2  0  0  0
 38 46  1  0  0  0
 38 47  1  0  0  0
 39 64  1  0  0  0
 39 67  2  0  0  0
 40 52  1  0  0  0
 40 53  2  0  0  0
 40 58  1  0  0  0
 41110  1  0  0  0
 41111  1  0  0  0
 41112  1  0  0  0
 41 48  1  0  0  0
 42 43  1  0  0  0
 42 66  1  0  0  0
 42113  1  0  0  0
 42114  1  0  0  0
 43 44  1  0  0  0
 44115  1  0  0  0
 45 46  2  0  0  0
 45116  1  0  0  0
 46117  1  0  0  0
 47118  1  0  0  0
 47119  1  0  0  0
 48 56  1  0  0  0
 48 65  1  0  0  0
 48120  1  0  0  0
 49 50  1  0  0  0
 49 53  1  0  0  0
 49 64  1  0  0  0
 49121  1  0  0  0
 50 51  1  0  0  0
 50122  1  0  0  0
 50123  1  0  0  0
 51 52  1  0  0  0
 51124  1  0  0  0
 51125  1  0  0  0
 52126  1  0  0  0
 52127  1  0  0  0
 53 54  1  0  0  0
 54 55  2  0  0  0
 54128  1  0  0  0
 55 57  1  0  0  0
 55129  1  0  0  0
 56 69  2  0  0  0
 57 58  2  0  0  0
 57130  1  0  0  0
 58131  1  0  0  0
 59 60  1  0  0  0
 59 61  1  0  0  0
 59 62  1  0  0  0
 60132  1  0  0  0
 60133  1  0  0  0
 60134  1  0  0  0
 61135  1  0  0  0
 61136  1  0  0  0
 61137  1  0  0  0
 62138  1  0  0  0
 62139  1  0  0  0
 62140  1  0  0  0
 63 65  1  0  0  0
 63141  1  0  0  0
 63142  1  0  0  0
 63143  1  0  0  0
 64144  1  0  0  0
 65145  1  0  0  0
 68 78  1  0  0  0
 71 74  2  0  0  0
 71 75  1  0  0  0
 71146  1  0  0  0
 72 74  1  0  0  0
 72 76  2  0  0  0
 72147  1  0  0  0
 73 75  2  0  0  0
 73 76  1  0  0  0
 73148  1  0  0  0
 74 77  1  0  0  0
 75 81  1  0  0  0
 76 83  1  0  0  0
 77 80  2  0  0  0
 77 82  1  0  0  0
 78 79  1  0  0  0
 78149  1  0  0  0
 78150  1  0  0  0
 79151  1  0  0  0
 79152  1  0  0  0
 79 86  1  0  0  0
 80 86  1  0  0  0
 81153  1  0  0  0
 81154  1  0  0  0
 82155  1  0  0  0
 82156  1  0  0  0
 83157  1  0  0  0
 84 86  2  0  0  0
 85 86  2  0  0  0
M  ISO  4   1 100  68 101  78 101  83 100
M  END
> <chiral flag>
0

> <version>
0

> <s_m_source_file>
/data/baiqing/PycharmProjects/Reinvent-master-3.2/result/LINK_invent/BTK/process_docking_weight1_custom_product_contain_oxygen_bond_distance_aromatic_linkinvent_7_9_3/rearranged_h_0163.sdf

> <i_m_source_file_index>
16

> <r_mmod_Potential_Energy-OPLS-2005>
-197.739440917969

> <r_mmod_Stretch_Energy-OPLS-2005>
41.5196952819824

> <r_mmod_Bend_Energy-OPLS-2005>
104.115020751953

> <r_mmod_Torsional_Energy-OPLS-2005>
247.648391723633

> <r_mmod_Improper_Torsional_Energy-OPLS-2005>
6.79025650024414

> <r_mmod_Van_der_Waal_Energy-OPLS-2005>
156.313171386719

> <r_mmod_Electrostatic_Energy-OPLS-2005>
-496.737091064453

> <r_mmod_Solvation_Energy-OPLS-2005>
-271.461181640625

> <b_mmod_Minimization_Converged-OPLS-2005>
0

> <r_mmod_RMS_Derivative-OPLS-2005>
1.55022525787354

$$$$
16
                    3D
 Structure written by MMmdl.
160168  0  0  1  0            999 V2000
  -30.7233  -14.4903   20.5528 C   0  0  0  0  0  0
  -30.4146  -12.3134   19.4329 C   0  0  0  0  0  0
  -29.4928  -12.4958   18.2106 C   0  0  0  0  0  0
  -28.0153  -12.3577   18.6242 C   0  0  0  0  0  0
  -27.6573  -13.2136   19.8693 C   0  0  2  0  0  0
  -28.7013  -13.0331   20.9960 C   0  0  0  0  0  0
  -25.2572  -13.8175   20.5682 C   0  0  0  0  0  0
  -24.1835  -13.0443   20.9187 C   0  0  0  0  0  0
  -24.6401  -11.6915   20.8751 C   0  0  0  0  0  0
  -23.9068  -10.4297   21.0414 C   0  0  0  0  0  0
  -24.3618   -9.4207   21.9186 C   0  0  0  0  0  0
  -23.6293   -8.2244   22.0758 C   0  0  0  0  0  0
  -22.4277   -8.0284   21.3547 C   0  0  0  0  0  0
  -21.9910   -9.0257   20.4652 C   0  0  0  0  0  0
  -22.7242  -10.2135   20.3061 C   0  0  0  0  0  0
  -21.6850   -6.0739   22.5281 C   0  0  0  0  0  0
  -21.4013   -6.5643   23.8215 C   0  0  0  0  0  0
  -21.3657   -5.6795   24.9176 C   0  0  0  0  0  0
  -21.6042   -4.3058   24.7224 C   0  0  0  0  0  0
  -21.8819   -3.8149   23.4346 C   0  0  0  0  0  0
  -21.9195   -4.6967   22.3403 C   0  0  0  0  0  0
  -22.7856  -13.5237   21.1840 C   0  0  0  0  0  0
  -22.1661   -4.2154   21.0978 F   0  0  0  0  0  0
  -21.5626   -3.4539   25.7736 F   0  0  0  0  0  0
  -30.0299  -13.3235   20.4342 N   0  0  0  0  0  0
  -26.3007  -12.9360   20.3352 N   0  0  0  0  0  0
  -25.9327  -11.6518   20.5775 N   0  0  0  0  0  0
  -22.0493  -12.8237   22.0398 N   0  0  0  0  0  0
  -25.4285  -15.1894   20.4072 N   0  0  0  0  0  0
  -31.8547  -14.6182   20.0798 O   0  0  0  0  0  0
  -21.6643   -6.8884   21.4244 O   0  0  0  0  0  0
  -22.3546  -14.5546   20.6689 O   0  0  0  0  0  0
  -24.6153  -31.8662   23.2081 C   0  0  0  0  0  0
  -25.9037  -32.4821   23.8380 C   0  0  1  0  0  0
  -27.2339  -27.4286   20.1026 C   0  0  0  0  0  0
  -25.5887  -33.8617   24.2318 N   0  0  0  0  0  0
  -23.4047  -30.4895   21.5476 C   0  0  2  0  0  0
  -24.8539  -28.9558   20.1109 C   0  0  0  0  0  0
  -22.7419  -29.4651   22.4968 C   0  0  0  0  0  0
  -18.0275  -28.1367   22.8490 C   0  0  0  0  0  0
  -24.1491  -36.7310   23.2639 C   0  0  0  0  0  0
  -25.9344  -30.8328   21.3610 C   0  0  0  0  0  0
  -26.0149  -29.4665   20.7081 C   0  0  0  0  0  0
  -27.2116  -28.7108   20.6993 C   0  0  0  0  0  0
  -26.0617  -26.9351   19.4940 C   0  0  0  0  0  0
  -24.8733  -27.6901   19.4980 C   0  0  0  0  0  0
  -23.6146  -29.8216   20.1621 C   0  0  0  0  0  0
  -25.4112  -36.3109   24.0337 C   0  0  1  0  0  0
  -20.5868  -28.3651   23.1317 C   0  0  2  0  0  0
  -20.6767  -26.9387   22.5418 C   0  0  0  0  0  0
  -19.5750  -26.6375   21.5208 C   0  0  0  0  0  0
  -18.1923  -26.7915   22.1610 C   0  0  0  0  0  0
  -19.1524  -28.8824   23.2900 C   0  0  0  0  0  0
  -18.9454  -30.1436   23.8909 C   0  0  0  0  0  0
  -17.6457  -30.6579   24.0561 C   0  0  0  0  0  0
  -25.9030  -34.9476   23.5125 C   0  0  0  0  0  0
  -16.5349  -29.9083   23.6321 C   0  0  0  0  0  0
  -16.7261  -28.6492   23.0349 C   0  0  0  0  0  0
  -26.4462  -31.6599   25.0707 C   0  0  0  0  0  0
  -25.3737  -31.3714   26.1466 C   0  0  0  0  0  0
  -27.0284  -30.3041   24.6072 C   0  0  0  0  0  0
  -27.6035  -32.4314   25.7478 C   0  0  0  0  0  0
  -27.5585  -37.1808   24.8464 C   0  0  0  0  0  0
  -21.4143  -29.3024   22.3720 N   0  0  0  0  0  0
  -26.4290  -37.3798   23.9419 N   0  0  0  0  0  0
  -24.6694  -31.0768   22.0979 N   0  0  0  0  0  0
  -23.4194  -28.8190   23.3002 O   0  0  0  0  0  0
  -28.3593  -26.6331   20.1258 O   0  0  0  0  0  0
  -26.5599  -34.8927   22.4691 O   0  0  0  0  0  0
  -23.5341  -32.1397   23.7480 O   0  0  0  0  0  0
  -31.8691  -17.2451   21.3200 C   0  0  0  0  0  0
  -32.2847  -18.5844   21.4137 C   0  0  0  0  0  0
  -29.5544  -17.9833   21.1599 C   0  0  0  0  0  0
  -29.9622  -19.3464   21.2865 C   0  0  0  0  0  0
  -30.4984  -16.9173   21.1671 C   0  0  0  0  0  0
  -31.3450  -19.6288   21.3944 C   0  0  0  0  0  0
  -28.9702  -20.4494   21.3859 C   0  0  0  0  0  0
  -28.7659  -23.2109   23.0024 C   0  0  0  0  0  0
  -28.8594  -24.2193   20.6462 C   0  0  0  0  0  0
  -27.6629  -22.8477   23.9857 C   0  0  0  0  0  0
  -28.2552  -25.5754   21.1022 C   0  0  0  0  0  0
  -28.5009  -22.9648   21.5027 C   0  0  1  0  0  0
  -30.0497  -15.5496   21.0646 N   0  0  0  0  0  0
  -29.2611  -21.7413   21.0983 N   0  0  0  0  0  0
  -27.7383  -20.1831   21.8319 N   0  3  0  0  0  0
  -29.8401  -23.6318   23.4360 O   0  0  0  0  0  0
  -29.5728  -24.1502   19.6382 O   0  0  0  0  0  0
  -31.7891  -20.9073   21.4921 F   0  0  0  0  0  0
  -31.4604  -12.3913   19.1313 H   0  0  0  0  0  0
  -30.3038  -11.3114   19.8503 H   0  0  0  0  0  0
  -29.7361  -11.7595   17.4427 H   0  0  0  0  0  0
  -29.6616  -13.4752   17.7599 H   0  0  0  0  0  0
  -27.8308  -11.3035   18.8341 H   0  0  0  0  0  0
  -27.3645  -12.6173   17.7886 H   0  0  0  0  0  0
  -27.6910  -14.2557   19.5512 H   0  0  0  0  0  0
  -28.6792  -12.0105   21.3753 H   0  0  0  0  0  0
  -28.4657  -13.6693   21.8509 H   0  0  0  0  0  0
  -25.2766   -9.5680   22.4760 H   0  0  0  0  0  0
  -24.0004   -7.4633   22.7476 H   0  0  0  0  0  0
  -21.0842   -8.8777   19.8955 H   0  0  0  0  0  0
  -22.3704  -10.9675   19.6168 H   0  0  0  0  0  0
  -21.2007   -7.6152   23.9719 H   0  0  0  0  0  0
  -21.1475   -6.0524   25.9076 H   0  0  0  0  0  0
  -22.0602   -2.7613   23.2843 H   0  0  0  0  0  0
  -22.4101  -11.9894   22.4787 H   0  0  0  0  0  0
  -21.1107  -13.1266   22.2596 H   0  0  0  0  0  0
  -24.6552  -15.8398   20.4984 H   0  0  0  0  0  0
  -26.2689  -15.6224   20.0450 H   0  0  0  0  0  0
  -26.7114  -32.5540   23.1150 H   0  0  0  0  0  0
  -25.0064  -33.9781   25.0485 H   0  0  0  0  0  0
  -22.6937  -31.3059   21.4082 H   0  0  0  0  0  0
  -23.3746  -35.9646   23.3304 H   0  0  0  0  0  0
  -24.3586  -36.8916   22.2051 H   0  0  0  0  0  0
  -23.7243  -37.6522   23.6643 H   0  0  0  0  0  0
  -26.0495  -31.6002   20.5939 H   0  0  0  0  0  0
  -26.8216  -30.8872   21.9799 H   0  0  0  0  0  0
  -28.1067  -29.0985   21.1660 H   0  0  0  0  0  0
  -26.0681  -25.9600   19.0275 H   0  0  0  0  0  0
  -23.9825  -27.2917   19.0327 H   0  0  0  0  0  0
  -23.7224  -30.5970   19.4027 H   0  0  0  0  0  0
  -22.7388  -29.2414   19.8647 H   0  0  0  0  0  0
  -25.1294  -36.1964   25.0829 H   0  0  0  0  0  0
  -20.9961  -28.3201   24.1434 H   0  0  0  0  0  0
  -20.5658  -26.2258   23.3599 H   0  0  0  0  0  0
  -21.6639  -26.7426   22.1219 H   0  0  0  0  0  0
  -19.6910  -25.6287   21.1223 H   0  0  0  0  0  0
  -19.6691  -27.3204   20.6753 H   0  0  0  0  0  0
  -17.4200  -26.6664   21.4006 H   0  0  0  0  0  0
  -18.0319  -26.0065   22.9010 H   0  0  0  0  0  0
  -19.7939  -30.7245   24.2282 H   0  0  0  0  0  0
  -17.5020  -31.6267   24.5154 H   0  0  0  0  0  0
  -15.5347  -30.2993   23.7651 H   0  0  0  0  0  0
  -15.8654  -28.0819   22.7060 H   0  0  0  0  0  0
  -24.5908  -30.7053   25.7822 H   0  0  0  0  0  0
  -24.8935  -32.2881   26.4903 H   0  0  0  0  0  0
  -25.8104  -30.8902   27.0227 H   0  0  0  0  0  0
  -26.2824  -29.6815   24.1121 H   0  0  0  0  0  0
  -27.4065  -29.7254   25.4510 H   0  0  0  0  0  0
  -27.8652  -30.4371   23.9212 H   0  0  0  0  0  0
  -27.2649  -33.3606   26.2076 H   0  0  0  0  0  0
  -28.3842  -32.6883   25.0306 H   0  0  0  0  0  0
  -28.0703  -31.8424   26.5385 H   0  0  0  0  0  0
  -28.2604  -38.0109   24.7526 H   0  0  0  0  0  0
  -28.1081  -36.2638   24.6269 H   0  0  0  0  0  0
  -27.2304  -37.1443   25.8868 H   0  0  0  0  0  0
  -20.9282  -29.8764   21.6970 H   0  0  0  0  0  0
  -26.0171  -38.2871   24.1422 H   0  0  0  0  0  0
  -32.6321  -16.4842   21.3766 H   0  0  0  0  0  0
  -33.3352  -18.8127   21.5152 H   0  0  0  0  0  0
  -28.5037  -17.7497   21.0665 H   0  0  0  0  0  0
  -27.2929  -23.7445   24.4811 H   0  0  0  0  0  0
  -28.0518  -22.1681   24.7439 H   0  0  0  0  0  0
  -26.8269  -22.3604   23.4860 H   0  0  0  0  0  0
  -28.7761  -25.9037   22.0014 H   0  0  0  0  0  0
  -27.2174  -25.4025   21.3907 H   0  0  0  0  0  0
  -27.4380  -22.7735   21.3586 H   0  0  0  0  0  0
  -29.0886  -15.3667   21.3080 H   0  0  0  0  0  0
  -30.2126  -21.9157   20.7886 H   0  0  0  0  0  0
  -27.5185  -19.2555   22.1588 H   0  0  0  0  0  0
  -26.9810  -20.8297   21.6973 H   0  0  0  0  0  0
  1 25  1  0  0  0
  1 30  2  0  0  0
  1 83  1  0  0  0
  2  3  1  0  0  0
  2 25  1  0  0  0
  2 89  1  0  0  0
  2 90  1  0  0  0
  3  4  1  0  0  0
  3 91  1  0  0  0
  3 92  1  0  0  0
  4  5  1  0  0  0
  4 93  1  0  0  0
  4 94  1  0  0  0
  5  6  1  0  0  0
  5 26  1  0  0  0
  5 95  1  0  0  0
  6 25  1  0  0  0
  6 96  1  0  0  0
  6 97  1  0  0  0
  7  8  2  0  0  0
  7 26  1  0  0  0
  7 29  1  0  0  0
  8  9  1  0  0  0
  8 22  1  0  0  0
  9 10  1  0  0  0
  9 27  2  0  0  0
 10 11  2  0  0  0
 10 15  1  0  0  0
 11 12  1  0  0  0
 11 98  1  0  0  0
 12 13  2  0  0  0
 12 99  1  0  0  0
 13 14  1  0  0  0
 13 31  1  0  0  0
 14 15  2  0  0  0
 14100  1  0  0  0
 15101  1  0  0  0
 16 17  2  0  0  0
 16 21  1  0  0  0
 16 31  1  0  0  0
 17 18  1  0  0  0
 17102  1  0  0  0
 18 19  2  0  0  0
 18103  1  0  0  0
 19 20  1  0  0  0
 19 24  1  0  0  0
 20 21  2  0  0  0
 20104  1  0  0  0
 21 23  1  0  0  0
 22 28  1  0  0  0
 22 32  2  0  0  0
 26 27  1  0  0  0
 28105  1  0  0  0
 28106  1  0  0  0
 29107  1  0  0  0
 29108  1  0  0  0
 33 34  1  0  0  0
 33 66  1  0  0  0
 33 70  2  0  0  0
 34 36  1  0  0  0
 34 59  1  0  0  0
 34109  1  0  0  0
 35 44  2  0  0  0
 35 45  1  0  0  0
 35 68  1  0  0  0
 36 56  1  0  0  0
 36110  1  0  0  0
 37 39  1  0  0  0
 37 47  1  0  0  0
 37 66  1  0  0  0
 37111  1  0  0  0
 38 43  2  0  0  0
 38 46  1  0  0  0
 38 47  1  0  0  0
 39 64  1  0  0  0
 39 67  2  0  0  0
 40 52  1  0  0  0
 40 53  2  0  0  0
 40 58  1  0  0  0
 41112  1  0  0  0
 41113  1  0  0  0
 41114  1  0  0  0
 41 48  1  0  0  0
 42 43  1  0  0  0
 42 66  1  0  0  0
 42115  1  0  0  0
 42116  1  0  0  0
 43 44  1  0  0  0
 44117  1  0  0  0
 45 46  2  0  0  0
 45118  1  0  0  0
 46119  1  0  0  0
 47120  1  0  0  0
 47121  1  0  0  0
 48 56  1  0  0  0
 48 65  1  0  0  0
 48122  1  0  0  0
 49 50  1  0  0  0
 49 53  1  0  0  0
 49 64  1  0  0  0
 49123  1  0  0  0
 50 51  1  0  0  0
 50124  1  0  0  0
 50125  1  0  0  0
 51 52  1  0  0  0
 51126  1  0  0  0
 51127  1  0  0  0
 52128  1  0  0  0
 52129  1  0  0  0
 53 54  1  0  0  0
 54 55  2  0  0  0
 54130  1  0  0  0
 55 57  1  0  0  0
 55131  1  0  0  0
 56 69  2  0  0  0
 57 58  2  0  0  0
 57132  1  0  0  0
 58133  1  0  0  0
 59 60  1  0  0  0
 59 61  1  0  0  0
 59 62  1  0  0  0
 60134  1  0  0  0
 60135  1  0  0  0
 60136  1  0  0  0
 61137  1  0  0  0
 61138  1  0  0  0
 61139  1  0  0  0
 62140  1  0  0  0
 62141  1  0  0  0
 62142  1  0  0  0
 63 65  1  0  0  0
 63143  1  0  0  0
 63144  1  0  0  0
 63145  1  0  0  0
 64146  1  0  0  0
 65147  1  0  0  0
 68 81  1  0  0  0
 71 72  2  0  0  0
 71 75  1  0  0  0
 71148  1  0  0  0
 72 76  1  0  0  0
 72149  1  0  0  0
 73 74  1  0  0  0
 73 75  2  0  0  0
 73150  1  0  0  0
 74 76  2  0  0  0
 74 77  1  0  0  0
 75 83  1  0  0  0
 76 88  1  0  0  0
 77 84  1  0  0  0
 77 85  2  0  0  0
 78 80  1  0  0  0
 78 82  1  0  0  0
 78 86  2  0  0  0
 79 81  1  0  0  0
 79 82  1  0  0  0
 79 87  2  0  0  0
 80151  1  0  0  0
 80152  1  0  0  0
 80153  1  0  0  0
 81154  1  0  0  0
 81155  1  0  0  0
 82 84  1  0  0  0
 82156  1  0  0  0
 83157  1  0  0  0
 84158  1  0  0  0
 85159  1  0  0  0
 85160  1  0  0  0
M  CHG  1  85   1
M  ISO  4   1 100  68 101  81 101  83 100
M  END
> <chiral flag>
0

> <version>
0

> <s_m_source_file>
/data/baiqing/PycharmProjects/Reinvent-master-3.2/result/LINK_invent/BTK/process_docking_weight1_custom_product_contain_oxygen_bond_distance_aromatic_linkinvent_7_9_3/rearranged_h_0163.sdf

> <i_m_source_file_index>
17

> <r_mmod_Potential_Energy-OPLS-2005>
-405.564422607422

> <r_mmod_Stretch_Energy-OPLS-2005>
45.856086730957

> <r_mmod_Bend_Energy-OPLS-2005>
96.6951751708984

> <r_mmod_Torsional_Energy-OPLS-2005>
253.435485839844

> <r_mmod_Improper_Torsional_Energy-OPLS-2005>
5.52794885635376

> <r_mmod_Van_der_Waal_Energy-OPLS-2005>
162.802276611328

> <r_mmod_Electrostatic_Energy-OPLS-2005>
-509.040374755859

> <r_mmod_Solvation_Energy-OPLS-2005>
-477.539947509766

> <b_mmod_Minimization_Converged-OPLS-2005>
0

> <r_mmod_RMS_Derivative-OPLS-2005>
1.2794976234436

$$$$
17
                    3D
 Structure written by MMmdl.
159167  0  0  1  0            999 V2000
  -30.7492  -14.4764   20.5418 C   0  0  0  0  0  0
  -30.3978  -12.2995   19.4413 C   0  0  0  0  0  0
  -29.4885  -12.4964   18.2137 C   0  0  0  0  0  0
  -28.0099  -12.3622   18.6213 C   0  0  0  0  0  0
  -27.6523  -13.2195   19.8658 C   0  0  2  0  0  0
  -28.6950  -13.0568   20.9962 C   0  0  0  0  0  0
  -25.2528  -13.8174   20.5670 C   0  0  0  0  0  0
  -24.1816  -13.0440   20.9213 C   0  0  0  0  0  0
  -24.6391  -11.6912   20.8755 C   0  0  0  0  0  0
  -23.9059  -10.4299   21.0418 C   0  0  0  0  0  0
  -24.3619   -9.4209   21.9193 C   0  0  0  0  0  0
  -23.6299   -8.2242   22.0753 C   0  0  0  0  0  0
  -22.4280   -8.0283   21.3546 C   0  0  0  0  0  0
  -21.9915   -9.0254   20.4646 C   0  0  0  0  0  0
  -22.7235  -10.2139   20.3063 C   0  0  0  0  0  0
  -21.6850   -6.0746   22.5280 C   0  0  0  0  0  0
  -21.4013   -6.5650   23.8215 C   0  0  0  0  0  0
  -21.3657   -5.6797   24.9173 C   0  0  0  0  0  0
  -21.6044   -4.3058   24.7222 C   0  0  0  0  0  0
  -21.8816   -3.8154   23.4341 C   0  0  0  0  0  0
  -21.9194   -4.6976   22.3400 C   0  0  0  0  0  0
  -22.7838  -13.5241   21.1870 C   0  0  0  0  0  0
  -22.1663   -4.2164   21.0976 F   0  0  0  0  0  0
  -21.5625   -3.4536   25.7732 F   0  0  0  0  0  0
  -30.0252  -13.3261   20.4314 N   0  0  0  0  0  0
  -26.2978  -12.9379   20.3333 N   0  0  0  0  0  0
  -25.9320  -11.6528   20.5766 N   0  0  0  0  0  0
  -22.0488  -12.8224   22.0426 N   0  0  0  0  0  0
  -25.4186  -15.1885   20.3987 N   0  0  0  0  0  0
  -31.9069  -14.5252   20.1188 O   0  0  0  0  0  0
  -21.6641   -6.8887   21.4241 O   0  0  0  0  0  0
  -22.3523  -14.5551   20.6721 O   0  0  0  0  0  0
  -24.6181  -31.8682   23.2120 C   0  0  0  0  0  0
  -25.9075  -32.4817   23.8404 C   0  0  1  0  0  0
  -27.2172  -27.4052   20.0915 C   0  0  0  0  0  0
  -25.5930  -33.8614   24.2333 N   0  0  0  0  0  0
  -23.4034  -30.4978   21.5537 C   0  0  2  0  0  0
  -24.8436  -28.9682   20.1109 C   0  0  0  0  0  0
  -22.7416  -29.4685   22.4989 C   0  0  0  0  0  0
  -18.0276  -28.1380   22.8496 C   0  0  0  0  0  0
  -24.1484  -36.7311   23.2638 C   0  0  0  0  0  0
  -25.9375  -30.8235   21.3708 C   0  0  0  0  0  0
  -26.0087  -29.4582   20.7137 C   0  0  0  0  0  0
  -27.1965  -28.6842   20.7036 C   0  0  0  0  0  0
  -26.0329  -26.9580   19.4528 C   0  0  0  0  0  0
  -24.8528  -27.7181   19.4776 C   0  0  0  0  0  0
  -23.6090  -29.8393   20.1653 C   0  0  0  0  0  0
  -25.4102  -36.3105   24.0342 C   0  0  1  0  0  0
  -20.5866  -28.3676   23.1303 C   0  0  2  0  0  0
  -20.6755  -26.9404   22.5417 C   0  0  0  0  0  0
  -19.5735  -26.6383   21.5214 C   0  0  0  0  0  0
  -18.1917  -26.7928   22.1624 C   0  0  0  0  0  0
  -19.1527  -28.8838   23.2892 C   0  0  0  0  0  0
  -18.9458  -30.1445   23.8906 C   0  0  0  0  0  0
  -17.6454  -30.6582   24.0569 C   0  0  0  0  0  0
  -25.9042  -34.9474   23.5130 C   0  0  0  0  0  0
  -16.5347  -29.9085   23.6326 C   0  0  0  0  0  0
  -16.7265  -28.6501   23.0359 C   0  0  0  0  0  0
  -26.4489  -31.6596   25.0741 C   0  0  0  0  0  0
  -25.3754  -31.3715   26.1490 C   0  0  0  0  0  0
  -27.0314  -30.3028   24.6144 C   0  0  0  0  0  0
  -27.6065  -32.4319   25.7486 C   0  0  0  0  0  0
  -27.5581  -37.1800   24.8460 C   0  0  0  0  0  0
  -21.4143  -29.3055   22.3714 N   0  0  0  0  0  0
  -26.4282  -37.3798   23.9422 N   0  0  0  0  0  0
  -24.6716  -31.0776   22.1031 N   0  0  0  0  0  0
  -23.4180  -28.8217   23.3032 O   0  0  0  0  0  0
  -28.3631  -26.6218   20.1448 O   0  0  0  0  0  0
  -26.5597  -34.8930   22.4689 O   0  0  0  0  0  0
  -23.5373  -32.1439   23.7512 O   0  0  0  0  0  0
  -27.3151  -18.7857   20.3846 C   0  0  0  0  0  0
  -28.2582  -17.7563   20.5224 C   0  0  0  0  0  0
  -27.6811  -20.1144   20.6376 C   0  0  0  0  0  0
  -29.5795  -18.0166   20.9628 C   0  0  0  0  0  0
  -29.9345  -19.3843   21.2722 C   0  0  0  0  0  0
  -28.9892  -20.4368   21.0561 C   0  0  0  0  0  0
  -30.5748  -16.8560   20.9599 C   0  0  0  0  0  0
  -29.1321  -24.2502   20.5424 C   0  0  0  0  0  0
  -32.3051  -20.2043   20.7363 C   0  0  0  0  0  0
  -31.3121  -19.7738   21.8293 C   0  0  0  0  0  0
  -28.9557  -22.7517   20.1948 C   0  0  0  0  0  0
  -28.2053  -25.2256   19.7861 C   0  0  0  0  0  0
  -29.3331  -21.7942   21.2529 N   0  0  0  0  0  0
  -30.0799  -15.5879   20.9385 N   0  0  0  0  0  0
  -31.7850  -17.0984   20.9398 O   0  0  0  0  0  0
  -29.9573  -24.6266   21.3834 O   0  0  0  0  0  0
  -31.4455  -12.3485   19.1406 H   0  0  0  0  0  0
  -30.2615  -11.3013   19.8619 H   0  0  0  0  0  0
  -29.7317  -11.7651   17.4413 H   0  0  0  0  0  0
  -29.6620  -13.4793   17.7730 H   0  0  0  0  0  0
  -27.8181  -11.3085   18.8257 H   0  0  0  0  0  0
  -27.3650  -12.6317   17.7839 H   0  0  0  0  0  0
  -27.6813  -14.2596   19.5408 H   0  0  0  0  0  0
  -28.6652  -12.0434   21.3994 H   0  0  0  0  0  0
  -28.4643  -13.7178   21.8327 H   0  0  0  0  0  0
  -25.2767   -9.5678   22.4766 H   0  0  0  0  0  0
  -24.0008   -7.4625   22.7464 H   0  0  0  0  0  0
  -21.0853   -8.8765   19.8945 H   0  0  0  0  0  0
  -22.3694  -10.9680   19.6169 H   0  0  0  0  0  0
  -21.2001   -7.6157   23.9727 H   0  0  0  0  0  0
  -21.1483   -6.0525   25.9080 H   0  0  0  0  0  0
  -22.0599   -2.7617   23.2834 H   0  0  0  0  0  0
  -22.4102  -11.9868   22.4782 H   0  0  0  0  0  0
  -21.1104  -13.1240   22.2649 H   0  0  0  0  0  0
  -24.6358  -15.8285   20.4744 H   0  0  0  0  0  0
  -26.2363  -15.6108   19.9827 H   0  0  0  0  0  0
  -26.7147  -32.5507   23.1163 H   0  0  0  0  0  0
  -25.0100  -33.9774   25.0487 H   0  0  0  0  0  0
  -22.6944  -31.3171   21.4206 H   0  0  0  0  0  0
  -23.3756  -35.9631   23.3281 H   0  0  0  0  0  0
  -24.3581  -36.8948   22.2059 H   0  0  0  0  0  0
  -23.7221  -37.6504   23.6657 H   0  0  0  0  0  0
  -26.0607  -31.5910   20.6050 H   0  0  0  0  0  0
  -26.8228  -30.8672   21.9935 H   0  0  0  0  0  0
  -28.0923  -29.0568   21.1812 H   0  0  0  0  0  0
  -25.9786  -26.0211   18.9198 H   0  0  0  0  0  0
  -23.9615  -27.3423   18.9945 H   0  0  0  0  0  0
  -23.7197  -30.6188   19.4110 H   0  0  0  0  0  0
  -22.7288  -29.2661   19.8656 H   0  0  0  0  0  0
  -25.1273  -36.1966   25.0834 H   0  0  0  0  0  0
  -20.9961  -28.3246   24.1418 H   0  0  0  0  0  0
  -20.5647  -26.2295   23.3622 H   0  0  0  0  0  0
  -21.6625  -26.7440   22.1210 H   0  0  0  0  0  0
  -19.6892  -25.6298   21.1232 H   0  0  0  0  0  0
  -19.6664  -27.3195   20.6752 H   0  0  0  0  0  0
  -17.4190  -26.6710   21.4023 H   0  0  0  0  0  0
  -18.0299  -26.0047   22.8999 H   0  0  0  0  0  0
  -19.7930  -30.7261   24.2277 H   0  0  0  0  0  0
  -17.5012  -31.6262   24.5174 H   0  0  0  0  0  0
  -15.5348  -30.2998   23.7634 H   0  0  0  0  0  0
  -15.8666  -28.0816   22.7082 H   0  0  0  0  0  0
  -24.5936  -30.7042   25.7849 H   0  0  0  0  0  0
  -24.8939  -32.2871   26.4930 H   0  0  0  0  0  0
  -25.8118  -30.8907   27.0253 H   0  0  0  0  0  0
  -26.2862  -29.6788   24.1202 H   0  0  0  0  0  0
  -27.4069  -29.7278   25.4619 H   0  0  0  0  0  0
  -27.8703  -30.4335   23.9303 H   0  0  0  0  0  0
  -27.2685  -33.3618   26.2068 H   0  0  0  0  0  0
  -28.3851  -32.6885   25.0287 H   0  0  0  0  0  0
  -28.0745  -31.8441   26.5392 H   0  0  0  0  0  0
  -28.2585  -38.0116   24.7540 H   0  0  0  0  0  0
  -28.1099  -36.2656   24.6227 H   0  0  0  0  0  0
  -27.2317  -37.1369   25.8870 H   0  0  0  0  0  0
  -20.9302  -29.8804   21.6955 H   0  0  0  0  0  0
  -26.0174  -38.2871   24.1457 H   0  0  0  0  0  0
  -26.3105  -18.5583   20.0555 H   0  0  0  0  0  0
  -27.9458  -16.7574   20.2567 H   0  0  0  0  0  0
  -26.9291  -20.8791   20.5104 H   0  0  0  0  0  0
  -33.2750  -20.4515   21.1682 H   0  0  0  0  0  0
  -31.9492  -21.0828   20.1986 H   0  0  0  0  0  0
  -32.4651  -19.4161   20.0015 H   0  0  0  0  0  0
  -31.7296  -18.9759   22.4419 H   0  0  0  0  0  0
  -31.2008  -20.5869   22.5465 H   0  0  0  0  0  0
  -29.5630  -22.5455   19.3127 H   0  0  0  0  0  0
  -27.9206  -22.6114   19.8894 H   0  0  0  0  0  0
  -27.2087  -24.8644   20.0360 H   0  0  0  0  0  0
  -28.3442  -25.1014   18.7119 H   0  0  0  0  0  0
  -30.2691  -21.9599   21.6100 H   0  0  0  0  0  0
  -29.0965  -15.4840   21.1147 H   0  0  0  0  0  0
  1 25  1  0  0  0
  1 30  2  0  0  0
  1 84  1  0  0  0
  2  3  1  0  0  0
  2 25  1  0  0  0
  2 87  1  0  0  0
  2 88  1  0  0  0
  3  4  1  0  0  0
  3 89  1  0  0  0
  3 90  1  0  0  0
  4  5  1  0  0  0
  4 91  1  0  0  0
  4 92  1  0  0  0
  5  6  1  0  0  0
  5 26  1  0  0  0
  5 93  1  0  0  0
  6 25  1  0  0  0
  6 94  1  0  0  0
  6 95  1  0  0  0
  7  8  2  0  0  0
  7 26  1  0  0  0
  7 29  1  0  0  0
  8  9  1  0  0  0
  8 22  1  0  0  0
  9 10  1  0  0  0
  9 27  2  0  0  0
 10 11  2  0  0  0
 10 15  1  0  0  0
 11 12  1  0  0  0
 11 96  1  0  0  0
 12 13  2  0  0  0
 12 97  1  0  0  0
 13 14  1  0  0  0
 13 31  1  0  0  0
 14 15  2  0  0  0
 14 98  1  0  0  0
 15 99  1  0  0  0
 16 17  2  0  0  0
 16 21  1  0  0  0
 16 31  1  0  0  0
 17 18  1  0  0  0
 17100  1  0  0  0
 18 19  2  0  0  0
 18101  1  0  0  0
 19 20  1  0  0  0
 19 24  1  0  0  0
 20 21  2  0  0  0
 20102  1  0  0  0
 21 23  1  0  0  0
 22 28  1  0  0  0
 22 32  2  0  0  0
 26 27  1  0  0  0
 28103  1  0  0  0
 28104  1  0  0  0
 29105  1  0  0  0
 29106  1  0  0  0
 33 34  1  0  0  0
 33 66  1  0  0  0
 33 70  2  0  0  0
 34 36  1  0  0  0
 34 59  1  0  0  0
 34107  1  0  0  0
 35 44  2  0  0  0
 35 45  1  0  0  0
 35 68  1  0  0  0
 36 56  1  0  0  0
 36108  1  0  0  0
 37 39  1  0  0  0
 37 47  1  0  0  0
 37 66  1  0  0  0
 37109  1  0  0  0
 38 43  2  0  0  0
 38 46  1  0  0  0
 38 47  1  0  0  0
 39 64  1  0  0  0
 39 67  2  0  0  0
 40 52  1  0  0  0
 40 53  2  0  0  0
 40 58  1  0  0  0
 41110  1  0  0  0
 41111  1  0  0  0
 41112  1  0  0  0
 41 48  1  0  0  0
 42 43  1  0  0  0
 42 66  1  0  0  0
 42113  1  0  0  0
 42114  1  0  0  0
 43 44  1  0  0  0
 44115  1  0  0  0
 45 46  2  0  0  0
 45116  1  0  0  0
 46117  1  0  0  0
 47118  1  0  0  0
 47119  1  0  0  0
 48 56  1  0  0  0
 48 65  1  0  0  0
 48120  1  0  0  0
 49 50  1  0  0  0
 49 53  1  0  0  0
 49 64  1  0  0  0
 49121  1  0  0  0
 50 51  1  0  0  0
 50122  1  0  0  0
 50123  1  0  0  0
 51 52  1  0  0  0
 51124  1  0  0  0
 51125  1  0  0  0
 52126  1  0  0  0
 52127  1  0  0  0
 53 54  1  0  0  0
 54 55  2  0  0  0
 54128  1  0  0  0
 55 57  1  0  0  0
 55129  1  0  0  0
 56 69  2  0  0  0
 57 58  2  0  0  0
 57130  1  0  0  0
 58131  1  0  0  0
 59 60  1  0  0  0
 59 61  1  0  0  0
 59 62  1  0  0  0
 60132  1  0  0  0
 60133  1  0  0  0
 60134  1  0  0  0
 61135  1  0  0  0
 61136  1  0  0  0
 61137  1  0  0  0
 62138  1  0  0  0
 62139  1  0  0  0
 62140  1  0  0  0
 63 65  1  0  0  0
 63141  1  0  0  0
 63142  1  0  0  0
 63143  1  0  0  0
 64144  1  0  0  0
 65145  1  0  0  0
 68 82  1  0  0  0
 71 72  2  0  0  0
 71 73  1  0  0  0
 71146  1  0  0  0
 72 74  1  0  0  0
 72147  1  0  0  0
 73 76  2  0  0  0
 73148  1  0  0  0
 74 75  2  0  0  0
 74 77  1  0  0  0
 75 76  1  0  0  0
 75 80  1  0  0  0
 76 83  1  0  0  0
 77 84  1  0  0  0
 77 85  2  0  0  0
 78 81  1  0  0  0
 78 82  1  0  0  0
 78 86  2  0  0  0
 79 80  1  0  0  0
 79149  1  0  0  0
 79150  1  0  0  0
 79151  1  0  0  0
 80152  1  0  0  0
 80153  1  0  0  0
 81 83  1  0  0  0
 81154  1  0  0  0
 81155  1  0  0  0
 82156  1  0  0  0
 82157  1  0  0  0
 83158  1  0  0  0
 84159  1  0  0  0
M  ISO  4   1 100  68 101  82 101  84 100
M  END
> <chiral flag>
0

> <version>
0

> <s_m_source_file>
/data/baiqing/PycharmProjects/Reinvent-master-3.2/result/LINK_invent/BTK/process_docking_weight1_custom_product_contain_oxygen_bond_distance_aromatic_linkinvent_7_9_3/rearranged_h_0163.sdf

> <i_m_source_file_index>
18

> <r_mmod_Potential_Energy-OPLS-2005>
-70.2158508300781

> <r_mmod_Stretch_Energy-OPLS-2005>
50.2142601013184

> <r_mmod_Bend_Energy-OPLS-2005>
107.16788482666

> <r_mmod_Torsional_Energy-OPLS-2005>
215.568984985352

> <r_mmod_Improper_Torsional_Energy-OPLS-2005>
9.49242973327637

> <r_mmod_Van_der_Waal_Energy-OPLS-2005>
181.361312866211

> <r_mmod_Electrostatic_Energy-OPLS-2005>
-405.681762695312

> <r_mmod_Solvation_Energy-OPLS-2005>
-251.294403076172

> <b_mmod_Minimization_Converged-OPLS-2005>
0

> <r_mmod_RMS_Derivative-OPLS-2005>
1.6014986038208

$$$$
18
                    3D
 Structure written by MMmdl.
152160  0  0  1  0            999 V2000
  -30.6606  -14.5155   20.5584 C   0  0  0  0  0  0
  -30.4355  -12.3277   19.4288 C   0  0  0  0  0  0
  -29.5019  -12.5117   18.2122 C   0  0  0  0  0  0
  -28.0223  -12.3654   18.6221 C   0  0  0  0  0  0
  -27.6643  -13.2042   19.8777 C   0  0  2  0  0  0
  -28.7059  -12.9803   20.9981 C   0  0  0  0  0  0
  -25.2607  -13.8151   20.5682 C   0  0  0  0  0  0
  -24.1848  -13.0436   20.9170 C   0  0  0  0  0  0
  -24.6395  -11.6900   20.8727 C   0  0  0  0  0  0
  -23.9057  -10.4291   21.0400 C   0  0  0  0  0  0
  -24.3611   -9.4208   21.9180 C   0  0  0  0  0  0
  -23.6288   -8.2243   22.0753 C   0  0  0  0  0  0
  -22.4271   -8.0280   21.3543 C   0  0  0  0  0  0
  -21.9902   -9.0253   20.4647 C   0  0  0  0  0  0
  -22.7227  -10.2133   20.3053 C   0  0  0  0  0  0
  -21.6853   -6.0733   22.5278 C   0  0  0  0  0  0
  -21.4015   -6.5638   23.8210 C   0  0  0  0  0  0
  -21.3659   -5.6791   24.9173 C   0  0  0  0  0  0
  -21.6044   -4.3053   24.7225 C   0  0  0  0  0  0
  -21.8820   -3.8144   23.4346 C   0  0  0  0  0  0
  -21.9194   -4.6960   22.3402 C   0  0  0  0  0  0
  -22.7873  -13.5242   21.1837 C   0  0  0  0  0  0
  -22.1663   -4.2146   21.0980 F   0  0  0  0  0  0
  -21.5628   -3.4538   25.7739 F   0  0  0  0  0  0
  -30.0372  -13.3067   20.4541 N   0  0  0  0  0  0
  -26.3039  -12.9313   20.3369 N   0  0  0  0  0  0
  -25.9322  -11.6476   20.5759 N   0  0  0  0  0  0
  -22.0510  -12.8238   22.0394 N   0  0  0  0  0  0
  -25.4350  -15.1870   20.4104 N   0  0  0  0  0  0
  -31.7786  -14.7330   20.0792 O   0  0  0  0  0  0
  -21.6637   -6.8875   21.4240 O   0  0  0  0  0  0
  -22.3562  -14.5553   20.6690 O   0  0  0  0  0  0
  -24.6173  -31.8659   23.2077 C   0  0  0  0  0  0
  -25.9052  -32.4814   23.8387 C   0  0  1  0  0  0
  -27.2346  -27.4101   20.1049 C   0  0  0  0  0  0
  -25.5897  -33.8613   24.2318 N   0  0  0  0  0  0
  -23.4079  -30.4882   21.5484 C   0  0  2  0  0  0
  -24.8574  -28.9526   20.1122 C   0  0  0  0  0  0
  -22.7432  -29.4644   22.4973 C   0  0  0  0  0  0
  -18.0276  -28.1376   22.8492 C   0  0  0  0  0  0
  -24.1488  -36.7314   23.2638 C   0  0  0  0  0  0
  -25.9395  -30.8252   21.3645 C   0  0  0  0  0  0
  -26.0197  -29.4583   20.7098 C   0  0  0  0  0  0
  -27.2153  -28.6964   20.6994 C   0  0  0  0  0  0
  -26.0581  -26.9289   19.4925 C   0  0  0  0  0  0
  -24.8731  -27.6889   19.4973 C   0  0  0  0  0  0
  -23.6189  -29.8207   20.1633 C   0  0  0  0  0  0
  -25.4108  -36.3108   24.0337 C   0  0  1  0  0  0
  -20.5870  -28.3668   23.1311 C   0  0  2  0  0  0
  -20.6765  -26.9400   22.5416 C   0  0  0  0  0  0
  -19.5744  -26.6383   21.5213 C   0  0  0  0  0  0
  -18.1924  -26.7922   22.1625 C   0  0  0  0  0  0
  -19.1526  -28.8838   23.2898 C   0  0  0  0  0  0
  -18.9452  -30.1443   23.8909 C   0  0  0  0  0  0
  -17.6454  -30.6581   24.0565 C   0  0  0  0  0  0
  -25.9035  -34.9473   23.5127 C   0  0  0  0  0  0
  -16.5346  -29.9083   23.6324 C   0  0  0  0  0  0
  -16.7265  -28.6499   23.0347 C   0  0  0  0  0  0
  -26.4471  -31.6597   25.0721 C   0  0  0  0  0  0
  -25.3734  -31.3710   26.1469 C   0  0  0  0  0  0
  -27.0298  -30.3036   24.6105 C   0  0  0  0  0  0
  -27.6050  -32.4313   25.7480 C   0  0  0  0  0  0
  -27.5581  -37.1812   24.8465 C   0  0  0  0  0  0
  -21.4154  -29.3033   22.3717 N   0  0  0  0  0  0
  -26.4296  -37.3792   23.9407 N   0  0  0  0  0  0
  -24.6733  -31.0740   22.0987 N   0  0  0  0  0  0
  -23.4192  -28.8183   23.3023 O   0  0  0  0  0  0
  -28.3585  -26.6051   20.1293 O   0  0  0  0  0  0
  -26.5602  -34.8926   22.4691 O   0  0  0  0  0  0
  -23.5357  -32.1416   23.7456 O   0  0  0  0  0  0
  -28.8882  -17.7793   21.3824 C   0  0  0  0  0  0
  -30.6963  -17.6551   20.0680 C   0  0  0  0  0  0
  -29.8830  -16.8974   20.8682 C   0  0  0  0  0  0
  -29.1157  -19.0170   20.8245 C   0  0  0  0  0  0
  -28.3745  -20.2808   20.8754 C   0  0  0  0  0  0
  -28.8088  -24.1168   20.3744 C   0  0  0  0  0  0
  -28.1382  -22.7929   20.8109 C   0  0  0  0  0  0
  -28.1788  -25.4179   20.9449 C   0  0  0  0  0  0
  -27.0692  -20.1809   21.1694 N   0  0  0  0  0  0
  -29.9194  -15.4861   21.1406 N   0  0  0  0  0  0
  -28.9023  -21.5162   20.6557 N   0  3  0  0  0  0
  -29.7945  -24.1285   19.6275 O   0  0  0  0  0  0
  -30.2338  -18.9539   20.0297 O   0  0  0  0  0  0
  -31.4782  -12.4440   19.1274 H   0  0  0  0  0  0
  -30.3531  -11.3149   19.8262 H   0  0  0  0  0  0
  -29.7474  -11.7857   17.4360 H   0  0  0  0  0  0
  -29.6631  -13.4964   17.7704 H   0  0  0  0  0  0
  -27.8364  -11.3089   18.8188 H   0  0  0  0  0  0
  -27.3720  -12.6374   17.7899 H   0  0  0  0  0  0
  -27.7085  -14.2526   19.5820 H   0  0  0  0  0  0
  -28.6903  -11.9393   21.3245 H   0  0  0  0  0  0
  -28.4568  -13.5615   21.8868 H   0  0  0  0  0  0
  -25.2760   -9.5684   22.4749 H   0  0  0  0  0  0
  -24.0001   -7.4636   22.7473 H   0  0  0  0  0  0
  -21.0831   -8.8771   19.8956 H   0  0  0  0  0  0
  -22.3686  -10.9672   19.6162 H   0  0  0  0  0  0
  -21.2007   -7.6146   23.9713 H   0  0  0  0  0  0
  -21.1481   -6.0521   25.9076 H   0  0  0  0  0  0
  -22.0599   -2.7606   23.2849 H   0  0  0  0  0  0
  -22.4118  -11.9893   22.4776 H   0  0  0  0  0  0
  -21.1132  -13.1273   22.2604 H   0  0  0  0  0  0
  -24.6676  -15.8425   20.5087 H   0  0  0  0  0  0
  -26.2876  -15.6198   20.0784 H   0  0  0  0  0  0
  -26.7126  -32.5522   23.1154 H   0  0  0  0  0  0
  -25.0046  -33.9774   25.0463 H   0  0  0  0  0  0
  -22.6975  -31.3055   21.4078 H   0  0  0  0  0  0
  -23.3744  -35.9653   23.3312 H   0  0  0  0  0  0
  -24.3583  -36.8918   22.2051 H   0  0  0  0  0  0
  -23.7246  -37.6524   23.6646 H   0  0  0  0  0  0
  -26.0548  -31.5913   20.5964 H   0  0  0  0  0  0
  -26.8257  -30.8788   21.9850 H   0  0  0  0  0  0
  -28.1107  -29.0792   21.1692 H   0  0  0  0  0  0
  -26.0540  -25.9571   19.0194 H   0  0  0  0  0  0
  -23.9812  -27.2953   19.0294 H   0  0  0  0  0  0
  -23.7276  -30.5959   19.4039 H   0  0  0  0  0  0
  -22.7428  -29.2412   19.8667 H   0  0  0  0  0  0
  -25.1286  -36.1976   25.0831 H   0  0  0  0  0  0
  -20.9963  -28.3233   24.1432 H   0  0  0  0  0  0
  -20.5664  -26.2275   23.3606 H   0  0  0  0  0  0
  -21.6637  -26.7437   22.1213 H   0  0  0  0  0  0
  -19.6907  -25.6298   21.1232 H   0  0  0  0  0  0
  -19.6684  -27.3202   20.6750 H   0  0  0  0  0  0
  -17.4194  -26.6670   21.4027 H   0  0  0  0  0  0
  -18.0326  -26.0060   22.9017 H   0  0  0  0  0  0
  -19.7928  -30.7256   24.2285 H   0  0  0  0  0  0
  -17.5008  -31.6263   24.5163 H   0  0  0  0  0  0
  -15.5347  -30.2989   23.7637 H   0  0  0  0  0  0
  -15.8666  -28.0822   22.7055 H   0  0  0  0  0  0
  -24.5900  -30.7065   25.7805 H   0  0  0  0  0  0
  -24.8932  -32.2868   26.4926 H   0  0  0  0  0  0
  -25.8083  -30.8869   27.0222 H   0  0  0  0  0  0
  -26.2844  -29.6803   24.1150 H   0  0  0  0  0  0
  -27.4055  -29.7268   25.4566 H   0  0  0  0  0  0
  -27.8687  -30.4353   23.9266 H   0  0  0  0  0  0
  -27.2675  -33.3603   26.2088 H   0  0  0  0  0  0
  -28.3841  -32.6888   25.0293 H   0  0  0  0  0  0
  -28.0738  -31.8417   26.5369 H   0  0  0  0  0  0
  -28.2609  -38.0099   24.7503 H   0  0  0  0  0  0
  -28.1068  -36.2632   24.6300 H   0  0  0  0  0  0
  -27.2300  -37.1474   25.8869 H   0  0  0  0  0  0
  -20.9316  -29.8762   21.6944 H   0  0  0  0  0  0
  -26.0187  -38.2874   24.1398 H   0  0  0  0  0  0
  -28.0684  -17.5359   22.0429 H   0  0  0  0  0  0
  -31.5700  -17.4494   19.4635 H   0  0  0  0  0  0
  -27.2122  -22.7114   20.2426 H   0  0  0  0  0  0
  -27.8533  -22.8926   21.8582 H   0  0  0  0  0  0
  -28.6290  -25.6081   21.9192 H   0  0  0  0  0  0
  -27.1228  -25.2234   21.1355 H   0  0  0  0  0  0
  -26.6658  -19.2668   21.3054 H   0  0  0  0  0  0
  -26.4479  -20.9682   21.2377 H   0  0  0  0  0  0
  -29.1148  -15.1259   21.6313 H   0  0  0  0  0  0
  -29.8750  -21.5932   20.3896 H   0  0  0  0  0  0
  1 25  1  0  0  0
  1 30  2  0  0  0
  1 80  1  0  0  0
  2  3  1  0  0  0
  2 25  1  0  0  0
  2 84  1  0  0  0
  2 85  1  0  0  0
  3  4  1  0  0  0
  3 86  1  0  0  0
  3 87  1  0  0  0
  4  5  1  0  0  0
  4 88  1  0  0  0
  4 89  1  0  0  0
  5  6  1  0  0  0
  5 26  1  0  0  0
  5 90  1  0  0  0
  6 25  1  0  0  0
  6 91  1  0  0  0
  6 92  1  0  0  0
  7  8  2  0  0  0
  7 26  1  0  0  0
  7 29  1  0  0  0
  8  9  1  0  0  0
  8 22  1  0  0  0
  9 10  1  0  0  0
  9 27  2  0  0  0
 10 11  2  0  0  0
 10 15  1  0  0  0
 11 12  1  0  0  0
 11 93  1  0  0  0
 12 13  2  0  0  0
 12 94  1  0  0  0
 13 14  1  0  0  0
 13 31  1  0  0  0
 14 15  2  0  0  0
 14 95  1  0  0  0
 15 96  1  0  0  0
 16 17  2  0  0  0
 16 21  1  0  0  0
 16 31  1  0  0  0
 17 18  1  0  0  0
 17 97  1  0  0  0
 18 19  2  0  0  0
 18 98  1  0  0  0
 19 20  1  0  0  0
 19 24  1  0  0  0
 20 21  2  0  0  0
 20 99  1  0  0  0
 21 23  1  0  0  0
 22 28  1  0  0  0
 22 32  2  0  0  0
 26 27  1  0  0  0
 28100  1  0  0  0
 28101  1  0  0  0
 29102  1  0  0  0
 29103  1  0  0  0
 33 34  1  0  0  0
 33 66  1  0  0  0
 33 70  2  0  0  0
 34 36  1  0  0  0
 34 59  1  0  0  0
 34104  1  0  0  0
 35 44  2  0  0  0
 35 45  1  0  0  0
 35 68  1  0  0  0
 36 56  1  0  0  0
 36105  1  0  0  0
 37 39  1  0  0  0
 37 47  1  0  0  0
 37 66  1  0  0  0
 37106  1  0  0  0
 38 43  2  0  0  0
 38 46  1  0  0  0
 38 47  1  0  0  0
 39 64  1  0  0  0
 39 67  2  0  0  0
 40 52  1  0  0  0
 40 53  2  0  0  0
 40 58  1  0  0  0
 41107  1  0  0  0
 41108  1  0  0  0
 41109  1  0  0  0
 41 48  1  0  0  0
 42 43  1  0  0  0
 42 66  1  0  0  0
 42110  1  0  0  0
 42111  1  0  0  0
 43 44  1  0  0  0
 44112  1  0  0  0
 45 46  2  0  0  0
 45113  1  0  0  0
 46114  1  0  0  0
 47115  1  0  0  0
 47116  1  0  0  0
 48 56  1  0  0  0
 48 65  1  0  0  0
 48117  1  0  0  0
 49 50  1  0  0  0
 49 53  1  0  0  0
 49 64  1  0  0  0
 49118  1  0  0  0
 50 51  1  0  0  0
 50119  1  0  0  0
 50120  1  0  0  0
 51 52  1  0  0  0
 51121  1  0  0  0
 51122  1  0  0  0
 52123  1  0  0  0
 52124  1  0  0  0
 53 54  1  0  0  0
 54 55  2  0  0  0
 54125  1  0  0  0
 55 57  1  0  0  0
 55126  1  0  0  0
 56 69  2  0  0  0
 57 58  2  0  0  0
 57127  1  0  0  0
 58128  1  0  0  0
 59 60  1  0  0  0
 59 61  1  0  0  0
 59 62  1  0  0  0
 60129  1  0  0  0
 60130  1  0  0  0
 60131  1  0  0  0
 61132  1  0  0  0
 61133  1  0  0  0
 61134  1  0  0  0
 62135  1  0  0  0
 62136  1  0  0  0
 62137  1  0  0  0
 63 65  1  0  0  0
 63138  1  0  0  0
 63139  1  0  0  0
 63140  1  0  0  0
 64141  1  0  0  0
 65142  1  0  0  0
 68 78  1  0  0  0
 71 73  1  0  0  0
 71 74  2  0  0  0
 71143  1  0  0  0
 72 73  2  0  0  0
 72 83  1  0  0  0
 72144  1  0  0  0
 73 80  1  0  0  0
 74 75  1  0  0  0
 74 83  1  0  0  0
 75 79  1  0  0  0
 75 81  2  0  0  0
 76 77  1  0  0  0
 76 78  1  0  0  0
 76 82  2  0  0  0
 77 81  1  0  0  0
 77145  1  0  0  0
 77146  1  0  0  0
 78147  1  0  0  0
 78148  1  0  0  0
 79149  1  0  0  0
 79150  1  0  0  0
 80151  1  0  0  0
 81152  1  0  0  0
M  CHG  1  81   1
M  ISO  4   1 100  68 101  78 101  80 100
M  END
> <chiral flag>
0

> <version>
0

> <s_m_source_file>
/data/baiqing/PycharmProjects/Reinvent-master-3.2/result/LINK_invent/BTK/process_docking_weight1_custom_product_contain_oxygen_bond_distance_aromatic_linkinvent_7_9_3/rearranged_h_0163.sdf

> <i_m_source_file_index>
19

> <r_mmod_Potential_Energy-OPLS-2005>
-278.932098388672

> <r_mmod_Stretch_Energy-OPLS-2005>
43.2454719543457

> <r_mmod_Bend_Energy-OPLS-2005>
116.12181854248

> <r_mmod_Torsional_Energy-OPLS-2005>
234.411880493164

> <r_mmod_Improper_Torsional_Energy-OPLS-2005>
3.94715809822083

> <r_mmod_Van_der_Waal_Energy-OPLS-2005>
127.949363708496

> <r_mmod_Electrostatic_Energy-OPLS-2005>
-319.247833251953

> <r_mmod_Solvation_Energy-OPLS-2005>
-503.920135498047

> <b_mmod_Minimization_Converged-OPLS-2005>
0

> <r_mmod_RMS_Derivative-OPLS-2005>
0.23425655066967

$$$$
19
                    3D
 Structure written by MMmdl.
159167  0  0  1  0            999 V2000
  -30.6128  -14.6125   20.4382 C   0  0  0  0  0  0
  -30.4292  -12.3553   19.4381 C   0  0  0  0  0  0
  -29.4974  -12.4843   18.2141 C   0  0  0  0  0  0
  -28.0240  -12.3130   18.6317 C   0  0  0  0  0  0
  -27.6484  -13.2010   19.8477 C   0  0  2  0  0  0
  -28.6906  -13.0533   20.9790 C   0  0  0  0  0  0
  -25.2564  -13.8143   20.5563 C   0  0  0  0  0  0
  -24.1824  -13.0391   20.9129 C   0  0  0  0  0  0
  -24.6380  -11.6868   20.8670 C   0  0  0  0  0  0
  -23.9025  -10.4264   21.0405 C   0  0  0  0  0  0
  -24.3589   -9.4189   21.9179 C   0  0  0  0  0  0
  -23.6283   -8.2218   22.0755 C   0  0  0  0  0  0
  -22.4264   -8.0257   21.3549 C   0  0  0  0  0  0
  -21.9893   -9.0218   20.4629 C   0  0  0  0  0  0
  -22.7200  -10.2121   20.3042 C   0  0  0  0  0  0
  -21.6838   -6.0716   22.5281 C   0  0  0  0  0  0
  -21.4004   -6.5632   23.8210 C   0  0  0  0  0  0
  -21.3660   -5.6799   24.9177 C   0  0  0  0  0  0
  -21.6048   -4.3061   24.7228 C   0  0  0  0  0  0
  -21.8819   -3.8140   23.4344 C   0  0  0  0  0  0
  -21.9186   -4.6951   22.3400 C   0  0  0  0  0  0
  -22.7857  -13.5212   21.1829 C   0  0  0  0  0  0
  -22.1651   -4.2142   21.0981 F   0  0  0  0  0  0
  -21.5640   -3.4555   25.7743 F   0  0  0  0  0  0
  -30.0147  -13.3782   20.4229 N   0  0  0  0  0  0
  -26.2934  -12.9263   20.3158 N   0  0  0  0  0  0
  -25.9283  -11.6431   20.5644 N   0  0  0  0  0  0
  -22.0506  -12.8192   22.0395 N   0  0  0  0  0  0
  -25.4343  -15.1840   20.4055 N   0  0  0  0  0  0
  -31.7606  -14.7734   20.0056 O   0  0  0  0  0  0
  -21.6626   -6.8855   21.4238 O   0  0  0  0  0  0
  -22.3494  -14.5454   20.6614 O   0  0  0  0  0  0
  -24.6270  -31.8572   23.2025 C   0  0  0  0  0  0
  -25.9109  -32.4754   23.8316 C   0  0  1  0  0  0
  -27.2082  -27.2958   20.1337 C   0  0  0  0  0  0
  -25.5918  -33.8551   24.2248 N   0  0  0  0  0  0
  -23.4175  -30.4832   21.5501 C   0  0  2  0  0  0
  -24.8604  -28.9262   20.1282 C   0  0  0  0  0  0
  -22.7382  -29.4656   22.4971 C   0  0  0  0  0  0
  -18.0305  -28.1313   22.8517 C   0  0  0  0  0  0
  -24.1489  -36.7301   23.2643 C   0  0  0  0  0  0
  -25.9625  -30.7745   21.3805 C   0  0  0  0  0  0
  -26.0327  -29.4003   20.7306 C   0  0  0  0  0  0
  -27.2139  -28.5968   20.7240 C   0  0  0  0  0  0
  -26.0214  -26.8778   19.5006 C   0  0  0  0  0  0
  -24.8552  -27.6683   19.5041 C   0  0  0  0  0  0
  -23.6339  -29.8179   20.1668 C   0  0  0  0  0  0
  -25.4114  -36.3085   24.0338 C   0  0  1  0  0  0
  -20.5891  -28.3646   23.1354 C   0  0  2  0  0  0
  -20.6821  -26.9387   22.5440 C   0  0  0  0  0  0
  -19.5794  -26.6311   21.5276 C   0  0  0  0  0  0
  -18.2047  -26.7771   22.1833 C   0  0  0  0  0  0
  -19.1531  -28.8809   23.2932 C   0  0  0  0  0  0
  -18.9437  -30.1376   23.8971 C   0  0  0  0  0  0
  -17.6407  -30.6467   24.0615 C   0  0  0  0  0  0
  -25.9038  -34.9442   23.5086 C   0  0  0  0  0  0
  -16.5310  -29.8977   23.6299 C   0  0  0  0  0  0
  -16.7273  -28.6394   23.0323 C   0  0  0  0  0  0
  -26.4487  -31.6592   25.0684 C   0  0  0  0  0  0
  -25.3725  -31.3763   26.1419 C   0  0  0  0  0  0
  -27.0339  -30.3019   24.6167 C   0  0  0  0  0  0
  -27.6041  -32.4352   25.7445 C   0  0  0  0  0  0
  -27.5598  -37.1799   24.8474 C   0  0  0  0  0  0
  -21.4124  -29.3041   22.3718 N   0  0  0  0  0  0
  -26.4299  -37.3770   23.9411 N   0  0  0  0  0  0
  -24.6891  -31.0544   22.1026 N   0  0  0  0  0  0
  -23.4108  -28.8190   23.3047 O   0  0  0  0  0  0
  -28.2932  -26.4083   20.1564 O   0  0  0  0  0  0
  -26.5610  -34.8914   22.4655 O   0  0  0  0  0  0
  -23.5443  -32.1391   23.7339 O   0  0  0  0  0  0
  -29.7822  -17.2697   18.9589 C   0  0  0  0  0  0
  -29.4606  -18.6693   18.8359 C   0  0  0  0  0  0
  -29.7827  -16.9546   20.2980 C   0  0  0  0  0  0
  -29.3192  -19.1273   20.1248 C   0  0  0  0  0  0
  -28.4654  -23.7488   20.3407 C   0  0  0  0  0  0
  -27.8059  -21.0232   20.2185 C   0  0  0  0  0  0
  -29.2721  -19.4814   17.5641 C   0  0  0  0  0  0
  -26.4766  -22.8360   19.1702 C   0  0  0  0  0  0
  -26.5754  -22.6490   21.6971 C   0  0  0  0  0  0
  -28.0946  -25.1768   20.9626 C   0  0  0  0  0  0
  -27.3996  -22.5667   20.3872 C   0  0  0  0  0  0
  -29.0165  -20.4418   20.4463 N   0  0  0  0  0  0
  -29.8427  -15.6738   20.8306 N   0  0  0  0  0  0
  -29.5729  -23.5664   19.8262 O   0  0  0  0  0  0
  -26.8791  -20.2605   19.9110 O   0  0  0  0  0  0
  -29.4899  -18.0949   21.0396 O   0  0  0  0  0  0
  -31.4686  -12.4705   19.1228 H   0  0  0  0  0  0
  -30.3632  -11.3516   19.8650 H   0  0  0  0  0  0
  -29.7669  -11.7547   17.4491 H   0  0  0  0  0  0
  -29.6329  -13.4611   17.7489 H   0  0  0  0  0  0
  -27.8888  -11.2607   18.8898 H   0  0  0  0  0  0
  -27.3624  -12.5080   17.7867 H   0  0  0  0  0  0
  -27.6670  -14.2323   19.4944 H   0  0  0  0  0  0
  -28.6772  -12.0314   21.3633 H   0  0  0  0  0  0
  -28.4335  -13.6950   21.8227 H   0  0  0  0  0  0
  -25.2739   -9.5697   22.4741 H   0  0  0  0  0  0
  -24.0006   -7.4629   22.7487 H   0  0  0  0  0  0
  -21.0807   -8.8674   19.8967 H   0  0  0  0  0  0
  -22.3591  -10.9634   19.6149 H   0  0  0  0  0  0
  -21.1973   -7.6153   23.9696 H   0  0  0  0  0  0
  -21.1492   -6.0541   25.9088 H   0  0  0  0  0  0
  -22.0603   -2.7602   23.2834 H   0  0  0  0  0  0
  -22.4134  -11.9839   22.4722 H   0  0  0  0  0  0
  -21.1151  -13.1244   22.2680 H   0  0  0  0  0  0
  -24.6703  -15.8431   20.5189 H   0  0  0  0  0  0
  -26.2801  -15.6256   20.0657 H   0  0  0  0  0  0
  -26.7157  -32.5381   23.1035 H   0  0  0  0  0  0
  -25.0039  -33.9690   25.0385 H   0  0  0  0  0  0
  -22.7156  -31.3101   21.4120 H   0  0  0  0  0  0
  -23.3737  -35.9648   23.3300 H   0  0  0  0  0  0
  -24.3625  -36.8881   22.2061 H   0  0  0  0  0  0
  -23.7238  -37.6497   23.6650 H   0  0  0  0  0  0
  -26.0973  -31.5260   20.6021 H   0  0  0  0  0  0
  -26.8478  -30.8284   22.0051 H   0  0  0  0  0  0
  -28.1165  -28.9492   21.2048 H   0  0  0  0  0  0
  -25.9815  -25.9237   19.0048 H   0  0  0  0  0  0
  -23.9566  -27.3029   19.0275 H   0  0  0  0  0  0
  -23.7690  -30.5986   19.4204 H   0  0  0  0  0  0
  -22.7430  -29.2729   19.8551 H   0  0  0  0  0  0
  -25.1299  -36.1935   25.0835 H   0  0  0  0  0  0
  -21.0065  -28.3172   24.1462 H   0  0  0  0  0  0
  -20.5722  -26.2213   23.3605 H   0  0  0  0  0  0
  -21.6727  -26.7381   22.1327 H   0  0  0  0  0  0
  -19.6955  -25.6177   21.1449 H   0  0  0  0  0  0
  -19.6644  -27.3020   20.6722 H   0  0  0  0  0  0
  -18.0835  -26.0099   22.9463 H   0  0  0  0  0  0
  -17.4241  -26.6129   21.4432 H   0  0  0  0  0  0
  -19.7896  -30.7105   24.2492 H   0  0  0  0  0  0
  -17.4878  -31.6106   24.5309 H   0  0  0  0  0  0
  -15.5275  -30.2797   23.7606 H   0  0  0  0  0  0
  -15.8681  -28.0692   22.7044 H   0  0  0  0  0  0
  -24.5873  -30.7134   25.7758 H   0  0  0  0  0  0
  -24.8949  -32.2935   26.4853 H   0  0  0  0  0  0
  -25.8045  -30.8917   27.0178 H   0  0  0  0  0  0
  -26.2919  -29.6774   24.1157 H   0  0  0  0  0  0
  -27.3981  -29.7284   25.4693 H   0  0  0  0  0  0
  -27.8816  -30.4300   23.9445 H   0  0  0  0  0  0
  -27.2620  -33.3639   26.2038 H   0  0  0  0  0  0
  -28.3823  -32.6923   25.0252 H   0  0  0  0  0  0
  -28.0741  -31.8459   26.5324 H   0  0  0  0  0  0
  -28.2603  -38.0099   24.7501 H   0  0  0  0  0  0
  -28.1092  -36.2618   24.6317 H   0  0  0  0  0  0
  -27.2326  -37.1475   25.8878 H   0  0  0  0  0  0
  -20.9236  -29.8707   21.6902 H   0  0  0  0  0  0
  -26.0180  -38.2846   24.1380 H   0  0  0  0  0  0
  -29.9320  -16.5641   18.1531 H   0  0  0  0  0  0
  -29.5352  -18.9211   16.6675 H   0  0  0  0  0  0
  -29.8755  -20.3903   17.5814 H   0  0  0  0  0  0
  -28.2303  -19.8003   17.4620 H   0  0  0  0  0  0
  -26.9909  -22.5839   18.2389 H   0  0  0  0  0  0
  -26.1498  -23.8665   19.0869 H   0  0  0  0  0  0
  -25.5690  -22.2333   19.2080 H   0  0  0  0  0  0
  -25.9509  -21.7699   21.8668 H   0  0  0  0  0  0
  -25.8845  -23.4900   21.6860 H   0  0  0  0  0  0
  -27.2345  -22.7399   22.5636 H   0  0  0  0  0  0
  -28.7535  -25.2896   21.8249 H   0  0  0  0  0  0
  -27.0916  -25.1624   21.3863 H   0  0  0  0  0  0
  -29.7421  -20.9893   20.8874 H   0  0  0  0  0  0
  -29.0462  -15.4249   21.3926 H   0  0  0  0  0  0
  1 25  1  0  0  0
  1 30  2  0  0  0
  1 83  1  0  0  0
  2  3  1  0  0  0
  2 25  1  0  0  0
  2 87  1  0  0  0
  2 88  1  0  0  0
  3  4  1  0  0  0
  3 89  1  0  0  0
  3 90  1  0  0  0
  4  5  1  0  0  0
  4 91  1  0  0  0
  4 92  1  0  0  0
  5  6  1  0  0  0
  5 26  1  0  0  0
  5 93  1  0  0  0
  6 25  1  0  0  0
  6 94  1  0  0  0
  6 95  1  0  0  0
  7  8  2  0  0  0
  7 26  1  0  0  0
  7 29  1  0  0  0
  8  9  1  0  0  0
  8 22  1  0  0  0
  9 10  1  0  0  0
  9 27  2  0  0  0
 10 11  2  0  0  0
 10 15  1  0  0  0
 11 12  1  0  0  0
 11 96  1  0  0  0
 12 13  2  0  0  0
 12 97  1  0  0  0
 13 14  1  0  0  0
 13 31  1  0  0  0
 14 15  2  0  0  0
 14 98  1  0  0  0
 15 99  1  0  0  0
 16 17  2  0  0  0
 16 21  1  0  0  0
 16 31  1  0  0  0
 17 18  1  0  0  0
 17100  1  0  0  0
 18 19  2  0  0  0
 18101  1  0  0  0
 19 20  1  0  0  0
 19 24  1  0  0  0
 20 21  2  0  0  0
 20102  1  0  0  0
 21 23  1  0  0  0
 22 28  1  0  0  0
 22 32  2  0  0  0
 26 27  1  0  0  0
 28103  1  0  0  0
 28104  1  0  0  0
 29105  1  0  0  0
 29106  1  0  0  0
 33 34  1  0  0  0
 33 66  1  0  0  0
 33 70  2  0  0  0
 34 36  1  0  0  0
 34 59  1  0  0  0
 34107  1  0  0  0
 35 44  2  0  0  0
 35 45  1  0  0  0
 35 68  1  0  0  0
 36 56  1  0  0  0
 36108  1  0  0  0
 37 39  1  0  0  0
 37 47  1  0  0  0
 37 66  1  0  0  0
 37109  1  0  0  0
 38 43  2  0  0  0
 38 46  1  0  0  0
 38 47  1  0  0  0
 39 64  1  0  0  0
 39 67  2  0  0  0
 40 52  1  0  0  0
 40 53  2  0  0  0
 40 58  1  0  0  0
 41110  1  0  0  0
 41111  1  0  0  0
 41112  1  0  0  0
 41 48  1  0  0  0
 42 43  1  0  0  0
 42 66  1  0  0  0
 42113  1  0  0  0
 42114  1  0  0  0
 43 44  1  0  0  0
 44115  1  0  0  0
 45 46  2  0  0  0
 45116  1  0  0  0
 46117  1  0  0  0
 47118  1  0  0  0
 47119  1  0  0  0
 48 56  1  0  0  0
 48 65  1  0  0  0
 48120  1  0  0  0
 49 50  1  0  0  0
 49 53  1  0  0  0
 49 64  1  0  0  0
 49121  1  0  0  0
 50 51  1  0  0  0
 50122  1  0  0  0
 50123  1  0  0  0
 51 52  1  0  0  0
 51124  1  0  0  0
 51125  1  0  0  0
 52126  1  0  0  0
 52127  1  0  0  0
 53 54  1  0  0  0
 54 55  2  0  0  0
 54128  1  0  0  0
 55 57  1  0  0  0
 55129  1  0  0  0
 56 69  2  0  0  0
 57 58  2  0  0  0
 57130  1  0  0  0
 58131  1  0  0  0
 59 60  1  0  0  0
 59 61  1  0  0  0
 59 62  1  0  0  0
 60132  1  0  0  0
 60133  1  0  0  0
 60134  1  0  0  0
 61135  1  0  0  0
 61136  1  0  0  0
 61137  1  0  0  0
 62138  1  0  0  0
 62139  1  0  0  0
 62140  1  0  0  0
 63 65  1  0  0  0
 63141  1  0  0  0
 63142  1  0  0  0
 63143  1  0  0  0
 64144  1  0  0  0
 65145  1  0  0  0
 68 80  1  0  0  0
 71 72  1  0  0  0
 71 73  2  0  0  0
 71146  1  0  0  0
 72 74  2  0  0  0
 72 77  1  0  0  0
 73 83  1  0  0  0
 73 86  1  0  0  0
 74 82  1  0  0  0
 74 86  1  0  0  0
 75 80  1  0  0  0
 75 81  1  0  0  0
 75 84  2  0  0  0
 76 81  1  0  0  0
 76 82  1  0  0  0
 76 85  2  0  0  0
 77147  1  0  0  0
 77148  1  0  0  0
 77149  1  0  0  0
 78150  1  0  0  0
 78151  1  0  0  0
 78152  1  0  0  0
 78 81  1  0  0  0
 79 81  1  0  0  0
 79153  1  0  0  0
 79154  1  0  0  0
 79155  1  0  0  0
 80156  1  0  0  0
 80157  1  0  0  0
 82158  1  0  0  0
 83159  1  0  0  0
M  ISO  4   1 100  68 101  80 101  83 100
M  END
> <chiral flag>
0

> <version>
0

> <s_m_source_file>
/data/baiqing/PycharmProjects/Reinvent-master-3.2/result/LINK_invent/BTK/process_docking_weight1_custom_product_contain_oxygen_bond_distance_aromatic_linkinvent_7_9_3/rearranged_h_0163.sdf

> <i_m_source_file_index>
20

> <r_mmod_Potential_Energy-OPLS-2005>
138.843566894531

> <r_mmod_Stretch_Energy-OPLS-2005>
84.9792251586914

> <r_mmod_Bend_Energy-OPLS-2005>
178.895309448242

> <r_mmod_Torsional_Energy-OPLS-2005>
317.198822021484

> <r_mmod_Improper_Torsional_Energy-OPLS-2005>
5.74118947982788

> <r_mmod_Van_der_Waal_Energy-OPLS-2005>
132.807952880859

> <r_mmod_Electrostatic_Energy-OPLS-2005>
-402.232604980469

> <r_mmod_Solvation_Energy-OPLS-2005>
-232.968765258789

> <b_mmod_Minimization_Converged-OPLS-2005>
0

> <r_mmod_RMS_Derivative-OPLS-2005>
7.16279649734497

$$$$
20
                    3D
 Structure written by MMmdl.
173182  0  0  1  0            999 V2000
  -30.7364  -14.4646   20.5617 C   0  0  0  0  0  0
  -30.4142  -12.2968   19.4282 C   0  0  0  0  0  0
  -29.4864  -12.4740   18.2078 C   0  0  0  0  0  0
  -28.0118  -12.3348   18.6281 C   0  0  0  0  0  0
  -27.6543  -13.2022   19.8638 C   0  0  2  0  0  0
  -28.6979  -13.0193   20.9922 C   0  0  0  0  0  0
  -25.2565  -13.8150   20.5661 C   0  0  0  0  0  0
  -24.1831  -13.0428   20.9202 C   0  0  0  0  0  0
  -24.6376  -11.6898   20.8761 C   0  0  0  0  0  0
  -23.9054  -10.4286   21.0427 C   0  0  0  0  0  0
  -24.3616   -9.4198   21.9194 C   0  0  0  0  0  0
  -23.6288   -8.2234   22.0762 C   0  0  0  0  0  0
  -22.4271   -8.0275   21.3546 C   0  0  0  0  0  0
  -21.9907   -9.0252   20.4648 C   0  0  0  0  0  0
  -22.7235  -10.2132   20.3064 C   0  0  0  0  0  0
  -21.6848   -6.0736   22.5280 C   0  0  0  0  0  0
  -21.4011   -6.5643   23.8211 C   0  0  0  0  0  0
  -21.3654   -5.6800   24.9174 C   0  0  0  0  0  0
  -21.6041   -4.3059   24.7227 C   0  0  0  0  0  0
  -21.8820   -3.8152   23.4342 C   0  0  0  0  0  0
  -21.9192   -4.6968   22.3401 C   0  0  0  0  0  0
  -22.7858  -13.5234   21.1860 C   0  0  0  0  0  0
  -22.1661   -4.2150   21.0979 F   0  0  0  0  0  0
  -21.5630   -3.4541   25.7738 F   0  0  0  0  0  0
  -30.0313  -13.3034   20.4350 N   0  0  0  0  0  0
  -26.2981  -12.9304   20.3315 N   0  0  0  0  0  0
  -25.9298  -11.6483   20.5781 N   0  0  0  0  0  0
  -22.0490  -12.8222   22.0402 N   0  0  0  0  0  0
  -25.4311  -15.1866   20.4040 N   0  0  0  0  0  0
  -31.8866  -14.5756   20.1133 O   0  0  0  0  0  0
  -21.6636   -6.8873   21.4235 O   0  0  0  0  0  0
  -22.3542  -14.5548   20.6711 O   0  0  0  0  0  0
  -24.6151  -31.8683   23.2075 C   0  0  0  0  0  0
  -25.9035  -32.4828   23.8365 C   0  0  1  0  0  0
  -27.2332  -27.4326   20.1060 C   0  0  0  0  0  0
  -25.5899  -33.8618   24.2311 N   0  0  0  0  0  0
  -23.4049  -30.4865   21.5514 C   0  0  2  0  0  0
  -24.8531  -28.9531   20.1153 C   0  0  0  0  0  0
  -22.7416  -29.4640   22.5017 C   0  0  0  0  0  0
  -18.0252  -28.1369   22.8479 C   0  0  0  0  0  0
  -24.1506  -36.7326   23.2633 C   0  0  0  0  0  0
  -25.9321  -30.8360   21.3593 C   0  0  0  0  0  0
  -26.0142  -29.4693   20.7076 C   0  0  0  0  0  0
  -27.2121  -28.7157   20.6992 C   0  0  0  0  0  0
  -26.0621  -26.9357   19.4983 C   0  0  0  0  0  0
  -24.8718  -27.6860   19.5047 C   0  0  0  0  0  0
  -23.6132  -29.8161   20.1671 C   0  0  0  0  0  0
  -25.4126  -36.3112   24.0332 C   0  0  1  0  0  0
  -20.5842  -28.3651   23.1331 C   0  0  2  0  0  0
  -20.6767  -26.9395   22.5420 C   0  0  0  0  0  0
  -19.5742  -26.6375   21.5221 C   0  0  0  0  0  0
  -18.1906  -26.7907   22.1612 C   0  0  0  0  0  0
  -19.1502  -28.8830   23.2877 C   0  0  0  0  0  0
  -18.9439  -30.1438   23.8878 C   0  0  0  0  0  0
  -17.6449  -30.6580   24.0564 C   0  0  0  0  0  0
  -25.9048  -34.9482   23.5127 C   0  0  0  0  0  0
  -16.5339  -29.9079   23.6343 C   0  0  0  0  0  0
  -16.7243  -28.6502   23.0348 C   0  0  0  0  0  0
  -26.4463  -31.6599   25.0685 C   0  0  0  0  0  0
  -25.3723  -31.3693   26.1430 C   0  0  0  0  0  0
  -27.0287  -30.3044   24.6026 C   0  0  0  0  0  0
  -27.6041  -32.4314   25.7448 C   0  0  0  0  0  0
  -27.5596  -37.1802   24.8452 C   0  0  0  0  0  0
  -21.4138  -29.3014   22.3763 N   0  0  0  0  0  0
  -26.4307  -37.3812   23.9405 N   0  0  0  0  0  0
  -24.6694  -31.0770   22.0988 N   0  0  0  0  0  0
  -23.4178  -28.8201   23.3081 O   0  0  0  0  0  0
  -28.3699  -26.6529   20.1260 O   0  0  0  0  0  0
  -26.5626  -34.8945   22.4695 O   0  0  0  0  0  0
  -23.5343  -32.1431   23.7465 O   0  0  0  0  0  0
  -31.2576  -19.6034   20.9284 C   0  0  0  0  0  0
  -29.4840  -17.9573   21.0870 C   0  0  0  0  0  0
  -29.8794  -19.3201   21.0120 C   0  0  0  0  0  0
  -32.1870  -18.5580   20.8253 C   0  0  0  0  0  0
  -30.4495  -16.9128   21.0015 C   0  0  0  0  0  0
  -28.4234  -22.8399   20.7781 C   0  0  0  0  0  0
  -36.5372  -18.0974   20.4480 C   0  0  0  0  0  0
  -35.7454  -18.5883   19.2243 C   0  0  0  0  0  0
  -35.9665  -18.6750   21.7541 C   0  0  0  0  0  0
  -34.2465  -18.2668   19.3641 C   0  0  0  0  0  0
  -34.4718  -18.3457   21.9014 C   0  0  0  0  0  0
  -33.6749  -18.8322   20.6790 C   0  0  0  0  0  0
  -28.9868  -25.7206   22.2386 C   0  0  0  0  0  0
  -28.7890  -24.2095   20.1635 C   0  0  0  0  0  0
  -29.2005  -21.6107   20.2747 C   0  0  0  0  0  0
  -28.2467  -25.4533   20.9176 C   0  0  2  0  0  0
  -31.7512  -17.2822   20.8602 N   0  3  0  0  0  0
  -28.9288  -20.3642   21.0222 N   0  0  0  0  0  0
  -30.0574  -15.5270   21.0535 N   0  0  0  0  0  0
  -27.5343  -22.7153   21.6284 O   0  0  0  0  0  0
  -31.4585  -12.3767   19.1195 H   0  0  0  0  0  0
  -30.3089  -11.2942   19.8453 H   0  0  0  0  0  0
  -29.7246  -11.7289   17.4474 H   0  0  0  0  0  0
  -29.6525  -13.4476   17.7452 H   0  0  0  0  0  0
  -27.8377  -11.2821   18.8570 H   0  0  0  0  0  0
  -27.3539  -12.5741   17.7920 H   0  0  0  0  0  0
  -27.6875  -14.2405   19.5335 H   0  0  0  0  0  0
  -28.6703  -11.9955   21.3686 H   0  0  0  0  0  0
  -28.4555  -13.6499   21.8495 H   0  0  0  0  0  0
  -25.2756   -9.5668   22.4766 H   0  0  0  0  0  0
  -23.9996   -7.4621   22.7478 H   0  0  0  0  0  0
  -21.0841   -8.8763   19.8949 H   0  0  0  0  0  0
  -22.3690  -10.9674   19.6176 H   0  0  0  0  0  0
  -21.2002   -7.6151   23.9710 H   0  0  0  0  0  0
  -21.1476   -6.0531   25.9074 H   0  0  0  0  0  0
  -22.0605   -2.7611   23.2846 H   0  0  0  0  0  0
  -22.4102  -11.9867   22.4776 H   0  0  0  0  0  0
  -21.1107  -13.1250   22.2621 H   0  0  0  0  0  0
  -24.6548  -15.8341   20.4910 H   0  0  0  0  0  0
  -26.2537  -15.6145   20.0005 H   0  0  0  0  0  0
  -26.7126  -32.5570   23.1141 H   0  0  0  0  0  0
  -25.0011  -33.9766   25.0433 H   0  0  0  0  0  0
  -22.6923  -31.3018   21.4092 H   0  0  0  0  0  0
  -23.3768  -35.9662   23.3294 H   0  0  0  0  0  0
  -24.3600  -36.8943   22.2048 H   0  0  0  0  0  0
  -23.7253  -37.6526   23.6661 H   0  0  0  0  0  0
  -26.0356  -31.6010   20.5883 H   0  0  0  0  0  0
  -26.8239  -30.8957   21.9725 H   0  0  0  0  0  0
  -28.1095  -29.1007   21.1651 H   0  0  0  0  0  0
  -26.0703  -25.9611   19.0322 H   0  0  0  0  0  0
  -23.9812  -27.2821   19.0429 H   0  0  0  0  0  0
  -23.7128  -30.5874   19.4015 H   0  0  0  0  0  0
  -22.7401  -29.2285   19.8802 H   0  0  0  0  0  0
  -25.1292  -36.1985   25.0823 H   0  0  0  0  0  0
  -20.9890  -28.3227   24.1470 H   0  0  0  0  0  0
  -20.5727  -26.2251   23.3598 H   0  0  0  0  0  0
  -21.6636  -26.7494   22.1183 H   0  0  0  0  0  0
  -19.6938  -25.6288   21.1245 H   0  0  0  0  0  0
  -19.6706  -27.3199   20.6767 H   0  0  0  0  0  0
  -17.4195  -26.6651   21.3998 H   0  0  0  0  0  0
  -18.0285  -26.0059   22.9001 H   0  0  0  0  0  0
  -19.7935  -30.7225   24.2262 H   0  0  0  0  0  0
  -17.5031  -31.6278   24.5134 H   0  0  0  0  0  0
  -15.5343  -30.2982   23.7702 H   0  0  0  0  0  0
  -15.8631  -28.0837   22.7072 H   0  0  0  0  0  0
  -24.5891  -30.7048   25.7753 H   0  0  0  0  0  0
  -24.8912  -32.2850   26.4882 H   0  0  0  0  0  0
  -25.8056  -30.8844   27.0187 H   0  0  0  0  0  0
  -26.2806  -29.6789   24.1129 H   0  0  0  0  0  0
  -27.4124  -29.7263   25.4441 H   0  0  0  0  0  0
  -27.8621  -30.4350   23.9114 H   0  0  0  0  0  0
  -27.2649  -33.3609   26.2026 H   0  0  0  0  0  0
  -28.3837  -32.6869   25.0265 H   0  0  0  0  0  0
  -28.0724  -31.8436   26.5348 H   0  0  0  0  0  0
  -28.2579  -38.0139   24.7547 H   0  0  0  0  0  0
  -28.1111  -36.2649   24.6217 H   0  0  0  0  0  0
  -27.2295  -37.1381   25.8851 H   0  0  0  0  0  0
  -20.9328  -29.8717   21.6958 H   0  0  0  0  0  0
  -26.0190  -38.2885   24.1444 H   0  0  0  0  0  0
  -31.6304  -20.6143   20.9440 H   0  0  0  0  0  0
  -28.4380  -17.7112   21.1858 H   0  0  0  0  0  0
  -37.5873  -18.3742   20.3460 H   0  0  0  0  0  0
  -36.5078  -17.0070   20.4873 H   0  0  0  0  0  0
  -36.1395  -18.1267   18.3179 H   0  0  0  0  0  0
  -35.8810  -19.6646   19.1042 H   0  0  0  0  0  0
  -36.1056  -19.7570   21.7681 H   0  0  0  0  0  0
  -36.5183  -18.2805   22.6077 H   0  0  0  0  0  0
  -34.1017  -17.1863   19.3239 H   0  0  0  0  0  0
  -33.7003  -18.6816   18.5152 H   0  0  0  0  0  0
  -34.0797  -18.8139   22.8054 H   0  0  0  0  0  0
  -34.3441  -17.2705   22.0287 H   0  0  0  0  0  0
  -33.7939  -19.9162   20.6330 H   0  0  0  0  0  0
  -28.9050  -24.8785   22.9244 H   0  0  0  0  0  0
  -28.5702  -26.5899   22.7492 H   0  0  0  0  0  0
  -30.0457  -25.9133   22.0685 H   0  0  0  0  0  0
  -28.4089  -24.2123   19.1431 H   0  0  0  0  0  0
  -29.8724  -24.2731   20.0789 H   0  0  0  0  0  0
  -30.2504  -21.8922   20.2842 H   0  0  0  0  0  0
  -28.9489  -21.4607   19.2240 H   0  0  0  0  0  0
  -27.1999  -25.2629   21.1665 H   0  0  0  0  0  0
  -32.4515  -16.5357   20.7602 H   0  0  0  0  0  0
  -27.9489  -20.1089   21.0814 H   0  0  0  0  0  0
  -29.1233  -15.3254   21.3611 H   0  0  0  0  0  0
  1 25  1  0  0  0
  1 30  2  0  0  0
  1 89  1  0  0  0
  2  3  1  0  0  0
  2 25  1  0  0  0
  2 91  1  0  0  0
  2 92  1  0  0  0
  3  4  1  0  0  0
  3 93  1  0  0  0
  3 94  1  0  0  0
  4  5  1  0  0  0
  4 95  1  0  0  0
  4 96  1  0  0  0
  5  6  1  0  0  0
  5 26  1  0  0  0
  5 97  1  0  0  0
  6 25  1  0  0  0
  6 98  1  0  0  0
  6 99  1  0  0  0
  7  8  2  0  0  0
  7 26  1  0  0  0
  7 29  1  0  0  0
  8  9  1  0  0  0
  8 22  1  0  0  0
  9 10  1  0  0  0
  9 27  2  0  0  0
 10 11  2  0  0  0
 10 15  1  0  0  0
 11 12  1  0  0  0
 11100  1  0  0  0
 12 13  2  0  0  0
 12101  1  0  0  0
 13 14  1  0  0  0
 13 31  1  0  0  0
 14 15  2  0  0  0
 14102  1  0  0  0
 15103  1  0  0  0
 16 17  2  0  0  0
 16 21  1  0  0  0
 16 31  1  0  0  0
 17 18  1  0  0  0
 17104  1  0  0  0
 18 19  2  0  0  0
 18105  1  0  0  0
 19 20  1  0  0  0
 19 24  1  0  0  0
 20 21  2  0  0  0
 20106  1  0  0  0
 21 23  1  0  0  0
 22 28  1  0  0  0
 22 32  2  0  0  0
 26 27  1  0  0  0
 28107  1  0  0  0
 28108  1  0  0  0
 29109  1  0  0  0
 29110  1  0  0  0
 33 34  1  0  0  0
 33 66  1  0  0  0
 33 70  2  0  0  0
 34 36  1  0  0  0
 34 59  1  0  0  0
 34111  1  0  0  0
 35 44  2  0  0  0
 35 45  1  0  0  0
 35 68  1  0  0  0
 36 56  1  0  0  0
 36112  1  0  0  0
 37 39  1  0  0  0
 37 47  1  0  0  0
 37 66  1  0  0  0
 37113  1  0  0  0
 38 43  2  0  0  0
 38 46  1  0  0  0
 38 47  1  0  0  0
 39 64  1  0  0  0
 39 67  2  0  0  0
 40 52  1  0  0  0
 40 53  2  0  0  0
 40 58  1  0  0  0
 41114  1  0  0  0
 41115  1  0  0  0
 41116  1  0  0  0
 41 48  1  0  0  0
 42 43  1  0  0  0
 42 66  1  0  0  0
 42117  1  0  0  0
 42118  1  0  0  0
 43 44  1  0  0  0
 44119  1  0  0  0
 45 46  2  0  0  0
 45120  1  0  0  0
 46121  1  0  0  0
 47122  1  0  0  0
 47123  1  0  0  0
 48 56  1  0  0  0
 48 65  1  0  0  0
 48124  1  0  0  0
 49 50  1  0  0  0
 49 53  1  0  0  0
 49 64  1  0  0  0
 49125  1  0  0  0
 50 51  1  0  0  0
 50126  1  0  0  0
 50127  1  0  0  0
 51 52  1  0  0  0
 51128  1  0  0  0
 51129  1  0  0  0
 52130  1  0  0  0
 52131  1  0  0  0
 53 54  1  0  0  0
 54 55  2  0  0  0
 54132  1  0  0  0
 55 57  1  0  0  0
 55133  1  0  0  0
 56 69  2  0  0  0
 57 58  2  0  0  0
 57134  1  0  0  0
 58135  1  0  0  0
 59 60  1  0  0  0
 59 61  1  0  0  0
 59 62  1  0  0  0
 60136  1  0  0  0
 60137  1  0  0  0
 60138  1  0  0  0
 61139  1  0  0  0
 61140  1  0  0  0
 61141  1  0  0  0
 62142  1  0  0  0
 62143  1  0  0  0
 62144  1  0  0  0
 63 65  1  0  0  0
 63145  1  0  0  0
 63146  1  0  0  0
 63147  1  0  0  0
 64148  1  0  0  0
 65149  1  0  0  0
 68 86  1  0  0  0
 71 73  2  0  0  0
 71 74  1  0  0  0
 71150  1  0  0  0
 72 73  1  0  0  0
 72 75  2  0  0  0
 72151  1  0  0  0
 73 88  1  0  0  0
 74 87  2  0  0  0
 74 82  1  0  0  0
 75 87  1  0  0  0
 75 89  1  0  0  0
 76 84  1  0  0  0
 76 85  1  0  0  0
 76 90  2  0  0  0
 77 78  1  0  0  0
 77 79  1  0  0  0
 77152  1  0  0  0
 77153  1  0  0  0
 78 80  1  0  0  0
 78154  1  0  0  0
 78155  1  0  0  0
 79 81  1  0  0  0
 79156  1  0  0  0
 79157  1  0  0  0
 80 82  1  0  0  0
 80158  1  0  0  0
 80159  1  0  0  0
 81 82  1  0  0  0
 81160  1  0  0  0
 81161  1  0  0  0
 82162  1  0  0  0
 83163  1  0  0  0
 83164  1  0  0  0
 83165  1  0  0  0
 83 86  1  0  0  0
 84 86  1  0  0  0
 84166  1  0  0  0
 84167  1  0  0  0
 85 88  1  0  0  0
 85168  1  0  0  0
 85169  1  0  0  0
 86170  1  0  0  0
 87171  1  0  0  0
 88172  1  0  0  0
 89173  1  0  0  0
M  CHG  1  87   1
M  ISO  4   1 100  68 101  86 101  89 100
M  END
> <chiral flag>
0

> <version>
0

> <s_m_source_file>
/data/baiqing/PycharmProjects/Reinvent-master-3.2/result/LINK_invent/BTK/process_docking_weight1_custom_product_contain_oxygen_bond_distance_aromatic_linkinvent_7_9_3/rearranged_h_0163.sdf

> <i_m_source_file_index>
21

> <r_mmod_Potential_Energy-OPLS-2005>
-88.3909149169922

> <r_mmod_Stretch_Energy-OPLS-2005>
42.5184555053711

> <r_mmod_Bend_Energy-OPLS-2005>
103.579658508301

> <r_mmod_Torsional_Energy-OPLS-2005>
220.40234375

> <r_mmod_Improper_Torsional_Energy-OPLS-2005>
6.43122673034668

> <r_mmod_Van_der_Waal_Energy-OPLS-2005>
162.005218505859

> <r_mmod_Electrostatic_Energy-OPLS-2005>
-198.853042602539

> <r_mmod_Solvation_Energy-OPLS-2005>
-440.619964599609

> <b_mmod_Minimization_Converged-OPLS-2005>
0

> <r_mmod_RMS_Derivative-OPLS-2005>
2.85040259361267

$$$$
21
                    3D
 Structure written by MMmdl.
159167  0  0  1  0            999 V2000
  -30.6088  -14.8028   20.4431 C   0  0  0  0  0  0
  -30.4365  -12.4931   19.4921 C   0  0  0  0  0  0
  -29.5209  -12.5193   18.2480 C   0  0  0  0  0  0
  -28.0491  -12.3300   18.6598 C   0  0  0  0  0  0
  -27.6419  -13.2406   19.8486 C   0  0  2  0  0  0
  -28.6823  -13.2176   20.9908 C   0  0  0  0  0  0
  -25.2502  -13.8221   20.5676 C   0  0  0  0  0  0
  -24.1805  -13.0455   20.9196 C   0  0  0  0  0  0
  -24.6404  -11.6929   20.8736 C   0  0  0  0  0  0
  -23.9095  -10.4310   21.0398 C   0  0  0  0  0  0
  -24.3638   -9.4225   21.9178 C   0  0  0  0  0  0
  -23.6303   -8.2265   22.0762 C   0  0  0  0  0  0
  -22.4280   -8.0297   21.3564 C   0  0  0  0  0  0
  -21.9920   -9.0283   20.4659 C   0  0  0  0  0  0
  -22.7260  -10.2148   20.3048 C   0  0  0  0  0  0
  -21.6860   -6.0738   22.5271 C   0  0  0  0  0  0
  -21.4033   -6.5640   23.8210 C   0  0  0  0  0  0
  -21.3657   -5.6792   24.9167 C   0  0  0  0  0  0
  -21.6036   -4.3047   24.7218 C   0  0  0  0  0  0
  -21.8817   -3.8148   23.4348 C   0  0  0  0  0  0
  -21.9196   -4.6973   22.3390 C   0  0  0  0  0  0
  -22.7813  -13.5236   21.1838 C   0  0  0  0  0  0
  -22.1661   -4.2152   21.0977 F   0  0  0  0  0  0
  -21.5624   -3.4524   25.7742 F   0  0  0  0  0  0
  -29.9834  -13.5709   20.4105 N   0  0  0  0  0  0
  -26.2943  -12.9434   20.3250 N   0  0  0  0  0  0
  -25.9336  -11.6573   20.5721 N   0  0  0  0  0  0
  -22.0445  -12.8233   22.0391 N   0  0  0  0  0  0
  -25.4195  -15.1950   20.4108 N   0  0  0  0  0  0
  -31.7919  -14.8810   20.0973 O   0  0  0  0  0  0
  -21.6654   -6.8884   21.4238 O   0  0  0  0  0  0
  -22.3483  -14.5523   20.6681 O   0  0  0  0  0  0
  -24.6328  -31.8539   23.1966 C   0  0  0  0  0  0
  -25.9133  -32.4745   23.8333 C   0  0  1  0  0  0
  -27.2028  -27.2204   20.1381 C   0  0  0  0  0  0
  -25.5905  -33.8559   24.2238 N   0  0  0  0  0  0
  -23.4311  -30.4782   21.5400 C   0  0  2  0  0  0
  -24.8811  -28.9317   20.0972 C   0  0  0  0  0  0
  -22.7505  -29.4599   22.4873 C   0  0  0  0  0  0
  -18.0289  -28.1381   22.8480 C   0  0  0  0  0  0
  -24.1490  -36.7305   23.2634 C   0  0  0  0  0  0
  -25.9812  -30.7514   21.3888 C   0  0  0  0  0  0
  -26.0516  -29.3731   20.7277 C   0  0  0  0  0  0
  -27.2141  -28.5284   20.7446 C   0  0  0  0  0  0
  -26.0315  -26.8949   19.4171 C   0  0  0  0  0  0
  -24.8802  -27.7036   19.4243 C   0  0  0  0  0  0
  -23.6509  -29.8185   20.1537 C   0  0  0  0  0  0
  -25.4108  -36.3077   24.0319 C   0  0  1  0  0  0
  -20.5894  -28.3707   23.1238 C   0  0  2  0  0  0
  -20.6769  -26.9411   22.5396 C   0  0  0  0  0  0
  -19.5746  -26.6375   21.5196 C   0  0  0  0  0  0
  -18.1932  -26.7920   22.1622 C   0  0  0  0  0  0
  -19.1546  -28.8856   23.2863 C   0  0  0  0  0  0
  -18.9471  -30.1448   23.8903 C   0  0  0  0  0  0
  -17.6474  -30.6585   24.0551 C   0  0  0  0  0  0
  -25.9053  -34.9438   23.5097 C   0  0  0  0  0  0
  -16.5362  -29.9084   23.6322 C   0  0  0  0  0  0
  -16.7276  -28.6490   23.0360 C   0  0  0  0  0  0
  -26.4475  -31.6586   25.0741 C   0  0  0  0  0  0
  -25.3683  -31.3761   26.1452 C   0  0  0  0  0  0
  -27.0295  -30.2981   24.6268 C   0  0  0  0  0  0
  -27.6030  -32.4328   25.7513 C   0  0  0  0  0  0
  -27.5582  -37.1796   24.8445 C   0  0  0  0  0  0
  -21.4210  -29.3056   22.3626 N   0  0  0  0  0  0
  -26.4283  -37.3773   23.9408 N   0  0  0  0  0  0
  -24.6999  -31.0464   22.0978 N   0  0  0  0  0  0
  -23.4192  -28.8133   23.2978 O   0  0  0  0  0  0
  -28.2303  -26.2376   20.2698 O   0  0  0  0  0  0
  -26.5651  -34.8919   22.4683 O   0  0  0  0  0  0
  -23.5470  -32.1388   23.7232 O   0  0  0  0  0  0
  -29.3812  -20.7008   21.9686 C   0  0  0  0  0  0
  -29.6999  -19.2905   22.0354 C   0  0  0  0  0  0
  -29.7197  -18.7666   20.7537 C   0  0  0  0  0  0
  -29.2103  -21.0438   20.6549 C   0  0  0  0  0  0
  -29.9868  -18.4875   23.2477 C   0  0  0  0  0  0
  -28.9236  -23.6040   20.6205 C   0  0  0  0  0  0
  -31.0343  -18.4591   25.5845 C   0  0  0  0  0  0
  -26.6695  -24.5098   21.2349 C   0  0  0  0  0  0
  -30.1643  -17.3815   20.0883 C   0  0  0  0  0  0
  -30.2626  -19.2733   24.5323 C   0  0  0  0  0  0
  -27.8458  -24.7512   20.2470 C   0  0  1  0  0  0
  -28.7499  -22.2899   20.1754 N   0  0  0  0  0  0
  -29.8555  -15.9651   20.6186 N   0  0  0  0  0  0
  -30.0050  -17.2536   23.2523 O   0  0  0  0  0  0
  -29.8832  -23.9105   21.3346 O   0  0  0  0  0  0
  -29.3884  -19.8613   19.9038 O   0  0  0  0  0  0
  -31.4776  -12.6159   19.1877 H   0  0  0  0  0  0
  -30.3892  -11.5239   19.9903 H   0  0  0  0  0  0
  -29.8199  -11.7413   17.5455 H   0  0  0  0  0  0
  -29.6387  -13.4668   17.7194 H   0  0  0  0  0  0
  -27.9168  -11.2823   18.9358 H   0  0  0  0  0  0
  -27.3923  -12.5064   17.8067 H   0  0  0  0  0  0
  -27.6268  -14.2546   19.4481 H   0  0  0  0  0  0
  -28.7224  -12.2403   21.4733 H   0  0  0  0  0  0
  -28.4058  -13.9306   21.7682 H   0  0  0  0  0  0
  -25.2791   -9.5702   22.4745 H   0  0  0  0  0  0
  -24.0016   -7.4653   22.7473 H   0  0  0  0  0  0
  -21.0846   -8.8802   19.8947 H   0  0  0  0  0  0
  -22.3735  -10.9688   19.6146 H   0  0  0  0  0  0
  -21.2045   -7.6158   23.9708 H   0  0  0  0  0  0
  -21.1466   -6.0525   25.9067 H   0  0  0  0  0  0
  -22.0601   -2.7610   23.2834 H   0  0  0  0  0  0
  -22.4069  -11.9953   22.4873 H   0  0  0  0  0  0
  -21.1048  -13.1242   22.2541 H   0  0  0  0  0  0
  -24.6544  -15.8499   20.5299 H   0  0  0  0  0  0
  -26.2624  -15.6352   20.0670 H   0  0  0  0  0  0
  -26.7196  -32.5382   23.1072 H   0  0  0  0  0  0
  -24.9966  -33.9695   25.0322 H   0  0  0  0  0  0
  -22.7293  -31.3018   21.3944 H   0  0  0  0  0  0
  -23.3754  -35.9637   23.3269 H   0  0  0  0  0  0
  -24.3594  -36.8968   22.2060 H   0  0  0  0  0  0
  -23.7250  -37.6495   23.6693 H   0  0  0  0  0  0
  -26.1260  -31.5100   20.6182 H   0  0  0  0  0  0
  -26.8576  -30.8010   22.0237 H   0  0  0  0  0  0
  -28.0952  -28.8449   21.2849 H   0  0  0  0  0  0
  -25.9624  -25.9664   18.8718 H   0  0  0  0  0  0
  -23.9952  -27.3719   18.8987 H   0  0  0  0  0  0
  -23.7696  -30.5976   19.3998 H   0  0  0  0  0  0
  -22.7709  -29.2496   19.8494 H   0  0  0  0  0  0
  -25.1290  -36.1917   25.0809 H   0  0  0  0  0  0
  -20.9999  -28.3296   24.1354 H   0  0  0  0  0  0
  -20.5638  -26.2323   23.3612 H   0  0  0  0  0  0
  -21.6640  -26.7410   22.1212 H   0  0  0  0  0  0
  -19.6906  -25.6278   21.1243 H   0  0  0  0  0  0
  -19.6676  -27.3165   20.6707 H   0  0  0  0  0  0
  -17.4185  -26.6657   21.4034 H   0  0  0  0  0  0
  -18.0349  -26.0059   22.9026 H   0  0  0  0  0  0
  -19.7953  -30.7246   24.2294 H   0  0  0  0  0  0
  -17.5035  -31.6273   24.5143 H   0  0  0  0  0  0
  -15.5364  -30.2997   23.7634 H   0  0  0  0  0  0
  -15.8674  -28.0799   22.7103 H   0  0  0  0  0  0
  -24.5829  -30.7146   25.7773 H   0  0  0  0  0  0
  -24.8898  -32.2937   26.4885 H   0  0  0  0  0  0
  -25.7968  -30.8913   27.0233 H   0  0  0  0  0  0
  -26.2873  -29.6750   24.1259 H   0  0  0  0  0  0
  -27.3886  -29.7233   25.4816 H   0  0  0  0  0  0
  -27.8807  -30.4205   23.9568 H   0  0  0  0  0  0
  -27.2630  -33.3625   26.2090 H   0  0  0  0  0  0
  -28.3834  -32.6899   25.0339 H   0  0  0  0  0  0
  -28.0704  -31.8457   26.5428 H   0  0  0  0  0  0
  -28.2560  -38.0130   24.7535 H   0  0  0  0  0  0
  -28.1118  -36.2666   24.6205 H   0  0  0  0  0  0
  -27.2316  -37.1363   25.8849 H   0  0  0  0  0  0
  -20.9381  -29.8805   21.6857 H   0  0  0  0  0  0
  -26.0161  -38.2845   24.1432 H   0  0  0  0  0  0
  -29.2674  -21.3779   22.8054 H   0  0  0  0  0  0
  -31.2470  -19.0614   26.4673 H   0  0  0  0  0  0
  -31.9841  -18.1051   25.1808 H   0  0  0  0  0  0
  -30.4670  -17.5847   25.9084 H   0  0  0  0  0  0
  -26.5849  -23.4669   21.5462 H   0  0  0  0  0  0
  -25.6999  -24.7534   20.8062 H   0  0  0  0  0  0
  -26.7935  -25.1001   22.1416 H   0  0  0  0  0  0
  -31.2472  -17.4385   19.9696 H   0  0  0  0  0  0
  -29.7939  -17.3882   19.0624 H   0  0  0  0  0  0
  -29.3119  -19.6100   24.9454 H   0  0  0  0  0  0
  -30.8294  -20.1698   24.2794 H   0  0  0  0  0  0
  -27.5275  -24.5042   19.2339 H   0  0  0  0  0  0
  -28.0796  -22.2141   19.4229 H   0  0  0  0  0  0
  -28.9142  -15.8267   20.9508 H   0  0  0  0  0  0
  1 25  1  0  0  0
  1 30  2  0  0  0
  1 83  1  0  0  0
  2  3  1  0  0  0
  2 25  1  0  0  0
  2 87  1  0  0  0
  2 88  1  0  0  0
  3  4  1  0  0  0
  3 89  1  0  0  0
  3 90  1  0  0  0
  4  5  1  0  0  0
  4 91  1  0  0  0
  4 92  1  0  0  0
  5  6  1  0  0  0
  5 26  1  0  0  0
  5 93  1  0  0  0
  6 25  1  0  0  0
  6 94  1  0  0  0
  6 95  1  0  0  0
  7  8  2  0  0  0
  7 26  1  0  0  0
  7 29  1  0  0  0
  8  9  1  0  0  0
  8 22  1  0  0  0
  9 10  1  0  0  0
  9 27  2  0  0  0
 10 11  2  0  0  0
 10 15  1  0  0  0
 11 12  1  0  0  0
 11 96  1  0  0  0
 12 13  2  0  0  0
 12 97  1  0  0  0
 13 14  1  0  0  0
 13 31  1  0  0  0
 14 15  2  0  0  0
 14 98  1  0  0  0
 15 99  1  0  0  0
 16 17  2  0  0  0
 16 21  1  0  0  0
 16 31  1  0  0  0
 17 18  1  0  0  0
 17100  1  0  0  0
 18 19  2  0  0  0
 18101  1  0  0  0
 19 20  1  0  0  0
 19 24  1  0  0  0
 20 21  2  0  0  0
 20102  1  0  0  0
 21 23  1  0  0  0
 22 28  1  0  0  0
 22 32  2  0  0  0
 26 27  1  0  0  0
 28103  1  0  0  0
 28104  1  0  0  0
 29105  1  0  0  0
 29106  1  0  0  0
 33 34  1  0  0  0
 33 66  1  0  0  0
 33 70  2  0  0  0
 34 36  1  0  0  0
 34 59  1  0  0  0
 34107  1  0  0  0
 35 44  2  0  0  0
 35 45  1  0  0  0
 35 68  1  0  0  0
 36 56  1  0  0  0
 36108  1  0  0  0
 37 39  1  0  0  0
 37 47  1  0  0  0
 37 66  1  0  0  0
 37109  1  0  0  0
 38 43  2  0  0  0
 38 46  1  0  0  0
 38 47  1  0  0  0
 39 64  1  0  0  0
 39 67  2  0  0  0
 40 52  1  0  0  0
 40 53  2  0  0  0
 40 58  1  0  0  0
 41110  1  0  0  0
 41111  1  0  0  0
 41112  1  0  0  0
 41 48  1  0  0  0
 42 43  1  0  0  0
 42 66  1  0  0  0
 42113  1  0  0  0
 42114  1  0  0  0
 43 44  1  0  0  0
 44115  1  0  0  0
 45 46  2  0  0  0
 45116  1  0  0  0
 46117  1  0  0  0
 47118  1  0  0  0
 47119  1  0  0  0
 48 56  1  0  0  0
 48 65  1  0  0  0
 48120  1  0  0  0
 49 50  1  0  0  0
 49 53  1  0  0  0
 49 64  1  0  0  0
 49121  1  0  0  0
 50 51  1  0  0  0
 50122  1  0  0  0
 50123  1  0  0  0
 51 52  1  0  0  0
 51124  1  0  0  0
 51125  1  0  0  0
 52126  1  0  0  0
 52127  1  0  0  0
 53 54  1  0  0  0
 54 55  2  0  0  0
 54128  1  0  0  0
 55 57  1  0  0  0
 55129  1  0  0  0
 56 69  2  0  0  0
 57 58  2  0  0  0
 57130  1  0  0  0
 58131  1  0  0  0
 59 60  1  0  0  0
 59 61  1  0  0  0
 59 62  1  0  0  0
 60132  1  0  0  0
 60133  1  0  0  0
 60134  1  0  0  0
 61135  1  0  0  0
 61136  1  0  0  0
 61137  1  0  0  0
 62138  1  0  0  0
 62139  1  0  0  0
 62140  1  0  0  0
 63 65  1  0  0  0
 63141  1  0  0  0
 63142  1  0  0  0
 63143  1  0  0  0
 64144  1  0  0  0
 65145  1  0  0  0
 68 81  1  0  0  0
 71 72  1  0  0  0
 71 74  2  0  0  0
 71146  1  0  0  0
 72 73  2  0  0  0
 72 75  1  0  0  0
 73 79  1  0  0  0
 73 86  1  0  0  0
 74 82  1  0  0  0
 74 86  1  0  0  0
 75 80  1  0  0  0
 75 84  2  0  0  0
 76 81  1  0  0  0
 76 82  1  0  0  0
 76 85  2  0  0  0
 77 80  1  0  0  0
 77147  1  0  0  0
 77148  1  0  0  0
 77149  1  0  0  0
 78150  1  0  0  0
 78151  1  0  0  0
 78152  1  0  0  0
 78 81  1  0  0  0
 79 83  1  0  0  0
 79153  1  0  0  0
 79154  1  0  0  0
 80155  1  0  0  0
 80156  1  0  0  0
 81157  1  0  0  0
 82158  1  0  0  0
 83159  1  0  0  0
M  ISO  4   1 100  68 101  81 101  83 100
M  END
> <chiral flag>
0

> <version>
0

> <s_m_source_file>
/data/baiqing/PycharmProjects/Reinvent-master-3.2/result/LINK_invent/BTK/process_docking_weight1_custom_product_contain_oxygen_bond_distance_aromatic_linkinvent_7_9_3/rearranged_h_0163.sdf

> <i_m_source_file_index>
22

> <r_mmod_Potential_Energy-OPLS-2005>
140.935302734375

> <r_mmod_Stretch_Energy-OPLS-2005>
147.616363525391

> <r_mmod_Bend_Energy-OPLS-2005>
190.525588989258

> <r_mmod_Torsional_Energy-OPLS-2005>
270.095886230469

> <r_mmod_Improper_Torsional_Energy-OPLS-2005>
7.76829624176025

> <r_mmod_Van_der_Waal_Energy-OPLS-2005>
126.512176513672

> <r_mmod_Electrostatic_Energy-OPLS-2005>
-480.183929443359

> <r_mmod_Solvation_Energy-OPLS-2005>
-245.435028076172

> <b_mmod_Minimization_Converged-OPLS-2005>
0

> <r_mmod_RMS_Derivative-OPLS-2005>
3.16903853416443

$$$$
22
                    3D
 Structure written by MMmdl.
164172  0  0  1  0            999 V2000
  -28.6666  -18.1014   20.6951 C   0  0  0  0  0  0
  -29.7661  -15.0582   19.7203 C   0  0  0  0  0  0
  -29.4518  -13.7528   18.6979 C   0  0  0  0  0  0
  -28.3638  -12.7856   19.1550 C   0  0  0  0  0  0
  -27.4760  -13.7206   19.9603 C   0  0  2  0  0  0
  -28.1202  -14.8394   20.9894 C   0  0  0  0  0  0
  -25.1195  -13.8970   20.6084 C   0  0  0  0  0  0
  -24.1162  -13.0497   20.9368 C   0  0  0  0  0  0
  -24.6548  -11.7249   20.8726 C   0  0  0  0  0  0
  -23.9432  -10.4371   21.0251 C   0  0  0  0  0  0
  -24.3867   -9.4278   21.9094 C   0  0  0  0  0  0
  -23.6451   -8.2338   22.0734 C   0  0  0  0  0  0
  -22.4419   -8.0359   21.3537 C   0  0  0  0  0  0
  -22.0130   -9.0331   20.4603 C   0  0  0  0  0  0
  -22.7556  -10.2158   20.2949 C   0  0  0  0  0  0
  -21.6913   -6.0783   22.5274 C   0  0  0  0  0  0
  -21.4065   -6.5670   23.8213 C   0  0  0  0  0  0
  -21.3676   -5.6811   24.9169 C   0  0  0  0  0  0
  -21.6044   -4.3072   24.7213 C   0  0  0  0  0  0
  -21.8810   -3.8170   23.4332 C   0  0  0  0  0  0
  -21.9211   -4.6997   22.3394 C   0  0  0  0  0  0
  -22.7114  -13.4837   21.1953 C   0  0  0  0  0  0
  -22.1658   -4.2184   21.0967 F   0  0  0  0  0  0
  -21.5619   -3.4548   25.7716 F   0  0  0  0  0  0
  -28.6800  -16.2701   20.4025 N   0  0  0  0  0  0
  -26.2292  -13.1225   20.4134 N   0  0  0  0  0  0
  -25.9680  -11.7827   20.5830 N   0  0  0  0  0  0
  -22.0013  -12.7743   22.0607 N   0  0  0  0  0  0
  -25.1807  -15.2757   20.4228 N   0  0  0  0  0  0
  -29.9599  -17.7732   20.5921 O   0  0  0  0  0  0
  -21.6728   -6.8972   21.4253 O   0  0  0  0  0  0
  -22.2644  -14.5103   20.6845 O   0  0  0  0  0  0
  -24.8421  -31.0431   23.1359 C   0  0  0  0  0  0
  -25.9352  -32.1147   23.7153 C   0  0  1  0  0  0
  -28.3710  -28.1374   18.9100 C   0  0  0  0  0  0
  -25.4653  -33.5610   23.9618 N   0  0  0  0  0  0
  -23.3975  -28.7281   21.9799 C   0  0  2  0  0  0
  -25.3996  -26.0668   19.5363 C   0  0  0  0  0  0
  -22.5203  -28.9322   23.0253 C   0  0  0  0  0  0
  -17.9042  -28.1378   22.8407 C   0  0  0  0  0  0
  -24.1349  -36.6003   23.2732 C   0  0  0  0  0  0
  -26.8722  -28.8338   22.4083 C   0  0  0  0  0  0
  -27.4747  -26.9016   21.3198 C   0  0  0  0  0  0
  -28.5567  -27.8431   20.5249 C   0  0  0  0  0  0
  -27.0939  -27.7001   17.7994 C   0  0  0  0  0  0
  -25.6995  -26.7722   18.0618 C   0  0  0  0  0  0
  -23.1875  -26.6272   20.5302 C   0  0  0  0  0  0
  -25.4027  -36.1243   24.0058 C   0  0  1  0  0  0
  -20.3732  -28.2334   23.3516 C   0  0  2  0  0  0
  -20.4673  -26.8257   22.7198 C   0  0  0  0  0  0
  -19.4971  -26.6280   21.5628 C   0  0  0  0  0  0
  -18.0773  -26.8095   22.1124 C   0  0  0  0  0  0
  -19.0095  -28.8424   23.3602 C   0  0  0  0  0  0
  -18.8491  -30.1166   23.9420 C   0  0  0  0  0  0
  -17.5687  -30.6744   24.0568 C   0  0  0  0  0  0
  -25.8916  -34.7445   23.4273 C   0  0  0  0  0  0
  -16.4544  -29.9479   23.6019 C   0  0  0  0  0  0
  -16.6203  -28.6871   22.9974 C   0  0  0  0  0  0
  -26.4875  -31.6333   25.1143 C   0  0  0  0  0  0
  -25.3691  -31.4508   26.1699 C   0  0  0  0  0  0
  -27.1864  -30.2940   24.9926 C   0  0  0  0  0  0
  -27.5614  -32.5787   25.6936 C   0  0  0  0  0  0
  -27.5255  -37.1011   24.8439 C   0  0  0  0  0  0
  -21.2616  -29.1245   22.7017 N   0  0  0  0  0  0
  -26.3976  -37.2322   23.9285 N   0  0  0  0  0  0
  -25.0486  -29.6635   22.5577 N   0  0  0  0  0  0
  -23.0247  -28.7437   24.1079 O   0  0  0  0  0  0
  -29.6148  -27.7332   18.6980 O   0  0  0  0  0  0
  -26.6613  -34.7687   22.4671 O   0  0  0  0  0  0
  -23.7129  -31.5525   23.3293 O   0  0  0  0  0  0
  -25.3011  -25.9936   22.3305 C   0  0  0  0  0  0
  -25.8656  -24.8427   21.5490 C   0  0  0  0  0  0
  -25.1317  -26.8902   21.5061 C   0  0  0  0  0  0
  -25.2897  -27.4084   21.5539 C   0  0  0  0  0  0
  -26.7065  -22.0843   21.2009 C   0  0  0  0  0  0
  -24.0761  -28.5869   19.6619 C   0  0  0  0  0  0
  -29.0889  -25.5471   18.9541 C   0  0  0  0  0  0
  -22.9438  -31.2039   19.9375 C   0  0  0  0  0  0
  -25.3478  -31.1340   19.2843 C   0  0  0  0  0  0
  -23.6033  -30.4840   17.7541 C   0  0  0  0  0  0
  -27.6138  -25.9554   19.2956 C   0  0  0  0  0  0
  -29.7987  -26.5069   18.0566 C   0  0  0  0  0  0
  -24.0111  -30.2986   19.2640 C   0  0  0  0  0  0
  -26.3087  -28.0326   19.9785 N   0  0  0  0  0  0
  -27.5917  -20.0417   20.9412 N   0  0  0  0  0  0
  -25.5468  -21.6583   21.2271 O   0  0  0  0  0  0
  -23.4170  -28.1681   18.6568 O   0  0  0  0  0  0
  -29.5966  -24.4909   19.3376 O   0  0  0  0  0  0
  -25.4909  -28.4547   20.2665 S   0  0  0  0  0  0
  -30.4272  -15.6715   19.1070 H   0  0  0  0  0  0
  -30.4596  -14.7172   20.4973 H   0  0  0  0  0  0
  -30.3717  -13.1999   18.5043 H   0  0  0  0  0  0
  -29.1482  -14.1549   17.7268 H   0  0  0  0  0  0
  -28.7697  -12.0096   19.7999 H   0  0  0  0  0  0
  -27.8396  -12.3100   18.3264 H   0  0  0  0  0  0
  -27.1230  -14.3611   19.1492 H   0  0  0  0  0  0
  -28.7892  -14.3575   21.7085 H   0  0  0  0  0  0
  -27.3462  -15.1502   21.6866 H   0  0  0  0  0  0
  -25.2966   -9.5753   22.4753 H   0  0  0  0  0  0
  -24.0103   -7.4757   22.7532 H   0  0  0  0  0  0
  -21.1042   -8.8899   19.8926 H   0  0  0  0  0  0
  -22.3993  -10.9690   19.6063 H   0  0  0  0  0  0
  -21.2078   -7.6183   23.9732 H   0  0  0  0  0  0
  -21.1499   -6.0533   25.9073 H   0  0  0  0  0  0
  -22.0567   -2.7634   23.2820 H   0  0  0  0  0  0
  -22.3851  -11.9485   22.4990 H   0  0  0  0  0  0
  -21.0567  -13.0573   22.2852 H   0  0  0  0  0  0
  -24.3667  -15.8741   20.4915 H   0  0  0  0  0  0
  -26.0163  -15.7591   20.1221 H   0  0  0  0  0  0
  -26.7545  -32.1493   22.9929 H   0  0  0  0  0  0
  -24.7666  -33.6411   24.6860 H   0  0  0  0  0  0
  -22.9552  -29.5424   21.4645 H   0  0  0  0  0  0
  -23.3520  -35.8411   23.3167 H   0  0  0  0  0  0
  -24.3313  -36.8057   22.2194 H   0  0  0  0  0  0
  -23.7295  -37.5054   23.7242 H   0  0  0  0  0  0
  -27.5712  -29.6263   22.1461 H   0  0  0  0  0  0
  -27.1409  -28.4574   23.3821 H   0  0  0  0  0  0
  -29.4450  -28.1752   21.0451 H   0  0  0  0  0  0
  -27.2422  -27.9959   16.7717 H   0  0  0  0  0  0
  -24.9531  -26.6894   17.2876 H   0  0  0  0  0  0
  -22.3232  -26.5613   19.8636 H   0  0  0  0  0  0
  -22.9483  -25.7764   21.1775 H   0  0  0  0  0  0
  -25.1409  -35.9681   25.0548 H   0  0  0  0  0  0
  -20.6205  -28.1297   24.4148 H   0  0  0  0  0  0
  -20.1741  -26.1093   23.4906 H   0  0  0  0  0  0
  -21.4766  -26.5254   22.4768 H   0  0  0  0  0  0
  -19.6116  -25.6339   21.1300 H   0  0  0  0  0  0
  -19.7018  -27.3466   20.7682 H   0  0  0  0  0  0
  -17.3575  -26.7454   21.2949 H   0  0  0  0  0  0
  -17.8329  -26.0015   22.8026 H   0  0  0  0  0  0
  -19.7042  -30.6548   24.3295 H   0  0  0  0  0  0
  -17.4356  -31.6450   24.5167 H   0  0  0  0  0  0
  -15.4641  -30.3684   23.7039 H   0  0  0  0  0  0
  -15.7498  -28.1556   22.6363 H   0  0  0  0  0  0
  -24.6288  -30.7042   25.8837 H   0  0  0  0  0  0
  -24.8304  -32.3814   26.3445 H   0  0  0  0  0  0
  -25.7775  -31.1350   27.1317 H   0  0  0  0  0  0
  -26.4483  -29.4998   24.9095 H   0  0  0  0  0  0
  -27.7442  -30.0471   25.9000 H   0  0  0  0  0  0
  -27.9257  -30.3020   24.1966 H   0  0  0  0  0  0
  -27.1506  -33.5527   25.9499 H   0  0  0  0  0  0
  -28.3657  -32.7450   24.9796 H   0  0  0  0  0  0
  -28.0094  -32.1899   26.6066 H   0  0  0  0  0  0
  -28.2137  -37.9364   24.7144 H   0  0  0  0  0  0
  -28.0855  -36.1814   24.6708 H   0  0  0  0  0  0
  -27.1879  -37.1042   25.8807 H   0  0  0  0  0  0
  -21.0264  -29.3817   21.7535 H   0  0  0  0  0  0
  -25.9519  -38.1280   24.1031 H   0  0  0  0  0  0
  -24.9433  -25.7953   23.3522 H   0  0  0  0  0  0
  -23.2490  -31.5077   20.9297 H   0  0  0  0  0  0
  -21.9596  -30.7325   19.9747 H   0  0  0  0  0  0
  -22.8157  -32.1579   19.4232 H   0  0  0  0  0  0
  -26.0966  -30.6720   18.6338 H   0  0  0  0  0  0
  -25.7772  -31.2184   20.2841 H   0  0  0  0  0  0
  -25.2158  -32.1554   18.9190 H   0  0  0  0  0  0
  -22.5615  -30.2066   17.5729 H   0  0  0  0  0  0
  -24.2358  -29.9001   17.0821 H   0  0  0  0  0  0
  -23.6878  -31.5164   17.4131 H   0  0  0  0  0  0
  -27.4798  -25.1156   19.9677 H   0  0  0  0  0  0
  -27.3183  -25.4125   18.3906 H   0  0  0  0  0  0
  -29.3836  -26.4828   17.0513 H   0  0  0  0  0  0
  -30.8562  -26.2595   17.9914 H   0  0  0  0  0  0
  -26.0839  -28.6167   19.1820 H   0  0  0  0  0  0
  -26.6824  -19.6034   20.9221 H   0  0  0  0  0  0
  1 25  1  0  0  0
  1 30  2  0  0  0
  1 85  1  0  0  0
  2  3  1  0  0  0
  2 25  1  0  0  0
  2 90  1  0  0  0
  2 91  1  0  0  0
  3  4  1  0  0  0
  3 92  1  0  0  0
  3 93  1  0  0  0
  4  5  1  0  0  0
  4 94  1  0  0  0
  4 95  1  0  0  0
  5  6  1  0  0  0
  5 26  1  0  0  0
  5 96  1  0  0  0
  6 25  1  0  0  0
  6 97  1  0  0  0
  6 98  1  0  0  0
  7  8  2  0  0  0
  7 26  1  0  0  0
  7 29  1  0  0  0
  8  9  1  0  0  0
  8 22  1  0  0  0
  9 10  1  0  0  0
  9 27  2  0  0  0
 10 11  2  0  0  0
 10 15  1  0  0  0
 11 12  1  0  0  0
 11 99  1  0  0  0
 12 13  2  0  0  0
 12100  1  0  0  0
 13 14  1  0  0  0
 13 31  1  0  0  0
 14 15  2  0  0  0
 14101  1  0  0  0
 15102  1  0  0  0
 16 17  2  0  0  0
 16 21  1  0  0  0
 16 31  1  0  0  0
 17 18  1  0  0  0
 17103  1  0  0  0
 18 19  2  0  0  0
 18104  1  0  0  0
 19 20  1  0  0  0
 19 24  1  0  0  0
 20 21  2  0  0  0
 20105  1  0  0  0
 21 23  1  0  0  0
 22 28  1  0  0  0
 22 32  2  0  0  0
 26 27  1  0  0  0
 28106  1  0  0  0
 28107  1  0  0  0
 29108  1  0  0  0
 29109  1  0  0  0
 33 34  1  0  0  0
 33 66  1  0  0  0
 33 70  2  0  0  0
 34 36  1  0  0  0
 34 59  1  0  0  0
 34110  1  0  0  0
 35 44  2  0  0  0
 35 45  1  0  0  0
 35 68  1  0  0  0
 36 56  1  0  0  0
 36111  1  0  0  0
 37 39  1  0  0  0
 37 47  1  0  0  0
 37 66  1  0  0  0
 37112  1  0  0  0
 38 43  2  0  0  0
 38 46  1  0  0  0
 38 47  1  0  0  0
 39 64  1  0  0  0
 39 67  2  0  0  0
 40 52  1  0  0  0
 40 53  2  0  0  0
 40 58  1  0  0  0
 41113  1  0  0  0
 41114  1  0  0  0
 41115  1  0  0  0
 41 48  1  0  0  0
 42 43  1  0  0  0
 42 66  1  0  0  0
 42116  1  0  0  0
 42117  1  0  0  0
 43 44  1  0  0  0
 44118  1  0  0  0
 45 46  2  0  0  0
 45119  1  0  0  0
 46120  1  0  0  0
 47121  1  0  0  0
 47122  1  0  0  0
 48 56  1  0  0  0
 48 65  1  0  0  0
 48123  1  0  0  0
 49 50  1  0  0  0
 49 53  1  0  0  0
 49 64  1  0  0  0
 49124  1  0  0  0
 50 51  1  0  0  0
 50125  1  0  0  0
 50126  1  0  0  0
 51 52  1  0  0  0
 51127  1  0  0  0
 51128  1  0  0  0
 52129  1  0  0  0
 52130  1  0  0  0
 53 54  1  0  0  0
 54 55  2  0  0  0
 54131  1  0  0  0
 55 57  1  0  0  0
 55132  1  0  0  0
 56 69  2  0  0  0
 57 58  2  0  0  0
 57133  1  0  0  0
 58134  1  0  0  0
 59 60  1  0  0  0
 59 61  1  0  0  0
 59 62  1  0  0  0
 60135  1  0  0  0
 60136  1  0  0  0
 60137  1  0  0  0
 61138  1  0  0  0
 61139  1  0  0  0
 61140  1  0  0  0
 62141  1  0  0  0
 62142  1  0  0  0
 62143  1  0  0  0
 63 65  1  0  0  0
 63144  1  0  0  0
 63145  1  0  0  0
 63146  1  0  0  0
 64147  1  0  0  0
 65148  1  0  0  0
 68 82  1  0  0  0
 71 72  1  0  0  0
 71 74  2  0  0  0
 71149  1  0  0  0
 72 73  2  0  0  0
 72 75  1  0  0  0
 73 76  1  0  0  0
 73 89  1  0  0  0
 74 84  1  0  0  0
 74 89  1  0  0  0
 75 85  1  0  0  0
 75 86  2  0  0  0
 76 83  1  0  0  0
 76 87  2  0  0  0
 77 81  1  0  0  0
 77 82  1  0  0  0
 77 88  2  0  0  0
 78150  1  0  0  0
 78151  1  0  0  0
 78152  1  0  0  0
 78 83  1  0  0  0
 79 83  1  0  0  0
 79153  1  0  0  0
 79154  1  0  0  0
 79155  1  0  0  0
 80 83  1  0  0  0
 80156  1  0  0  0
 80157  1  0  0  0
 80158  1  0  0  0
 81 84  1  0  0  0
 81159  1  0  0  0
 81160  1  0  0  0
 82161  1  0  0  0
 82162  1  0  0  0
 84163  1  0  0  0
 85164  1  0  0  0
M  ISO  4   1 100  68 101  82 101  85 100
M  END
> <chiral flag>
0

> <version>
0

> <s_m_source_file>
/data/baiqing/PycharmProjects/Reinvent-master-3.2/result/LINK_invent/BTK/process_docking_weight1_custom_product_contain_oxygen_bond_distance_aromatic_linkinvent_7_9_3/rearranged_h_0163.sdf

> <i_m_source_file_index>
23

> <r_mmod_Potential_Energy-OPLS-2005>
47006.7734375

> <r_mmod_Stretch_Energy-OPLS-2005>
22578.98046875

> <r_mmod_Bend_Energy-OPLS-2005>
5664.77685546875

> <r_mmod_Torsional_Energy-OPLS-2005>
700.972717285156

> <r_mmod_Improper_Torsional_Energy-OPLS-2005>
130.455444335938

> <r_mmod_Van_der_Waal_Energy-OPLS-2005>
6517.1953125

> <r_mmod_Electrostatic_Energy-OPLS-2005>
-438.37939453125

> <r_mmod_Solvation_Energy-OPLS-2005>
-218.830703735352

> <b_mmod_Minimization_Converged-OPLS-2005>
0

> <r_mmod_RMS_Derivative-OPLS-2005>
13.2268400192261

$$$$
23
                    3D
 Structure written by MMmdl.
158166  0  0  1  0            999 V2000
  -30.6340  -14.6511   20.4872 C   0  0  0  0  0  0
  -30.4208  -12.3926   19.4793 C   0  0  0  0  0  0
  -29.5082  -12.5095   18.2389 C   0  0  0  0  0  0
  -28.0303  -12.3432   18.6402 C   0  0  0  0  0  0
  -27.6462  -13.2234   19.8605 C   0  0  2  0  0  0
  -28.6837  -13.1145   21.0022 C   0  0  0  0  0  0
  -25.2522  -13.8177   20.5698 C   0  0  0  0  0  0
  -24.1798  -13.0429   20.9193 C   0  0  0  0  0  0
  -24.6379  -11.6906   20.8730 C   0  0  0  0  0  0
  -23.9052  -10.4281   21.0386 C   0  0  0  0  0  0
  -24.3615   -9.4193   21.9165 C   0  0  0  0  0  0
  -23.6288   -8.2233   22.0739 C   0  0  0  0  0  0
  -22.4266   -8.0269   21.3537 C   0  0  0  0  0  0
  -21.9901   -9.0238   20.4635 C   0  0  0  0  0  0
  -22.7226  -10.2115   20.3038 C   0  0  0  0  0  0
  -21.6859   -6.0733   22.5283 C   0  0  0  0  0  0
  -21.4026   -6.5642   23.8217 C   0  0  0  0  0  0
  -21.3649   -5.6799   24.9175 C   0  0  0  0  0  0
  -21.6028   -4.3059   24.7235 C   0  0  0  0  0  0
  -21.8825   -3.8155   23.4352 C   0  0  0  0  0  0
  -21.9189   -4.6964   22.3411 C   0  0  0  0  0  0
  -22.7813  -13.5211   21.1868 C   0  0  0  0  0  0
  -22.1664   -4.2148   21.0991 F   0  0  0  0  0  0
  -21.5601   -3.4552   25.7746 F   0  0  0  0  0  0
  -30.0042  -13.4341   20.4441 N   0  0  0  0  0  0
  -26.2942  -12.9376   20.3307 N   0  0  0  0  0  0
  -25.9308  -11.6519   20.5744 N   0  0  0  0  0  0
  -22.0474  -12.8190   22.0422 N   0  0  0  0  0  0
  -25.4224  -15.1915   20.4170 N   0  0  0  0  0  0
  -31.7946  -14.7742   20.0847 O   0  0  0  0  0  0
  -21.6627   -6.8878   21.4244 O   0  0  0  0  0  0
  -22.3490  -14.5518   20.6725 O   0  0  0  0  0  0
  -24.6238  -31.8614   23.2017 C   0  0  0  0  0  0
  -25.9115  -32.4776   23.8326 C   0  0  1  0  0  0
  -27.2240  -27.3300   20.1280 C   0  0  0  0  0  0
  -25.5963  -33.8570   24.2294 N   0  0  0  0  0  0
  -23.4163  -30.4836   21.5412 C   0  0  2  0  0  0
  -24.8691  -28.9394   20.1071 C   0  0  0  0  0  0
  -22.7463  -29.4624   22.4895 C   0  0  0  0  0  0
  -18.0298  -28.1377   22.8473 C   0  0  0  0  0  0
  -24.1492  -36.7279   23.2622 C   0  0  0  0  0  0
  -25.9544  -30.7934   21.3745 C   0  0  0  0  0  0
  -26.0317  -29.4189   20.7259 C   0  0  0  0  0  0
  -27.2134  -28.6202   20.7405 C   0  0  0  0  0  0
  -26.0515  -26.9041   19.4756 C   0  0  0  0  0  0
  -24.8787  -27.6859   19.4739 C   0  0  0  0  0  0
  -23.6358  -29.8200   20.1544 C   0  0  0  0  0  0
  -25.4106  -36.3075   24.0336 C   0  0  1  0  0  0
  -20.5897  -28.3680   23.1271 C   0  0  2  0  0  0
  -20.6785  -26.9399   22.5410 C   0  0  0  0  0  0
  -19.5771  -26.6391   21.5201 C   0  0  0  0  0  0
  -18.1941  -26.7922   22.1598 C   0  0  0  0  0  0
  -19.1548  -28.8842   23.2874 C   0  0  0  0  0  0
  -18.9474  -30.1449   23.8888 C   0  0  0  0  0  0
  -17.6474  -30.6581   24.0560 C   0  0  0  0  0  0
  -25.9047  -34.9447   23.5113 C   0  0  0  0  0  0
  -16.5366  -29.9075   23.6333 C   0  0  0  0  0  0
  -16.7283  -28.6498   23.0333 C   0  0  0  0  0  0
  -26.4524  -31.6540   25.0661 C   0  0  0  0  0  0
  -25.3781  -31.3704   26.1407 C   0  0  0  0  0  0
  -27.0324  -30.2945   24.6080 C   0  0  0  0  0  0
  -27.6109  -32.4227   25.7446 C   0  0  0  0  0  0
  -27.5595  -37.1780   24.8456 C   0  0  0  0  0  0
  -21.4178  -29.3035   22.3656 N   0  0  0  0  0  0
  -26.4285  -37.3776   23.9440 N   0  0  0  0  0  0
  -24.6825  -31.0627   22.0971 N   0  0  0  0  0  0
  -23.4201  -28.8165   23.2971 O   0  0  0  0  0  0
  -28.2861  -26.4221   20.1584 O   0  0  0  0  0  0
  -26.5585  -34.8928   22.4661 O   0  0  0  0  0  0
  -23.5416  -32.1427   23.7362 O   0  0  0  0  0  0
  -30.0325  -19.8928   22.3520 C   0  0  0  0  0  0
  -29.2843  -19.6951   20.2751 C   0  0  0  0  0  0
  -29.4830  -20.6477   21.3476 C   0  0  0  0  0  0
  -29.7599  -18.4462   20.6861 C   0  0  0  0  0  0
  -28.4539  -25.7168   21.3490 C   0  0  0  0  0  0
  -28.6527  -19.9628   18.9636 C   0  0  0  0  0  0
  -28.7148  -24.3962   21.6644 C   0  0  0  0  0  0
  -27.1497  -20.2103   19.0340 C   0  0  0  0  0  0
  -28.8861  -23.1855   20.7931 C   0  0  0  0  0  0
  -26.4064  -19.7916   20.3027 C   0  0  0  0  0  0
  -29.9606  -17.0680   19.9946 C   0  0  0  0  0  0
  -29.3354  -19.9456   17.8929 N   0  0  0  0  0  0
  -29.1839  -22.0743   21.5448 N   0  0  0  0  0  0
  -29.8603  -15.7567   20.7348 N   0  0  0  0  0  0
  -26.5120  -20.7000   18.0944 O   0  0  0  0  0  0
  -28.7670  -23.1551   19.5684 O   0  0  0  0  0  0
  -30.2186  -18.5824   21.9673 O   0  0  0  0  0  0
  -28.8246  -24.1651   22.9866 O   0  0  0  0  0  0
  -31.4681  -12.4886   19.1894 H   0  0  0  0  0  0
  -30.3278  -11.4046   19.9321 H   0  0  0  0  0  0
  -29.7827  -11.7642   17.4917 H   0  0  0  0  0  0
  -29.6514  -13.4822   17.7667 H   0  0  0  0  0  0
  -27.8670  -11.2909   18.8748 H   0  0  0  0  0  0
  -27.3815  -12.5676   17.7926 H   0  0  0  0  0  0
  -27.6535  -14.2528   19.4998 H   0  0  0  0  0  0
  -28.6888  -12.1090   21.4243 H   0  0  0  0  0  0
  -28.4256  -13.7857   21.8231 H   0  0  0  0  0  0
  -25.2776   -9.5667   22.4724 H   0  0  0  0  0  0
  -24.0006   -7.4622   22.7460 H   0  0  0  0  0  0
  -21.0833   -8.8751   19.8948 H   0  0  0  0  0  0
  -22.3691  -10.9644   19.6134 H   0  0  0  0  0  0
  -21.2058   -7.6166   23.9720 H   0  0  0  0  0  0
  -21.1446   -6.0533   25.9071 H   0  0  0  0  0  0
  -22.0615   -2.7615   23.2863 H   0  0  0  0  0  0
  -22.4106  -11.9867   22.4823 H   0  0  0  0  0  0
  -21.1092  -13.1189   22.2631 H   0  0  0  0  0  0
  -24.6542  -15.8441   20.5299 H   0  0  0  0  0  0
  -26.2782  -15.6352   20.1127 H   0  0  0  0  0  0
  -26.7143  -32.5480   23.1036 H   0  0  0  0  0  0
  -25.0199  -33.9709   25.0498 H   0  0  0  0  0  0
  -22.7084  -31.3032   21.3982 H   0  0  0  0  0  0
  -23.3775  -35.9591   23.3256 H   0  0  0  0  0  0
  -24.3608  -36.8922   22.2046 H   0  0  0  0  0  0
  -23.7218  -37.6468   23.6639 H   0  0  0  0  0  0
  -26.0789  -31.5530   20.6015 H   0  0  0  0  0  0
  -26.8356  -30.8490   22.0004 H   0  0  0  0  0  0
  -28.0994  -28.9735   21.2481 H   0  0  0  0  0  0
  -26.0409  -25.9386   18.9888 H   0  0  0  0  0  0
  -23.9916  -27.3163   18.9789 H   0  0  0  0  0  0
  -23.7589  -30.6006   19.4023 H   0  0  0  0  0  0
  -22.7552  -29.2531   19.8454 H   0  0  0  0  0  0
  -25.1269  -36.1918   25.0823 H   0  0  0  0  0  0
  -20.9987  -28.3266   24.1395 H   0  0  0  0  0  0
  -20.5666  -26.2288   23.3608 H   0  0  0  0  0  0
  -21.6659  -26.7417   22.1230 H   0  0  0  0  0  0
  -19.6936  -25.6306   21.1232 H   0  0  0  0  0  0
  -19.6723  -27.3196   20.6729 H   0  0  0  0  0  0
  -17.4215  -26.6673   21.3990 H   0  0  0  0  0  0
  -18.0340  -26.0064   22.8993 H   0  0  0  0  0  0
  -19.7962  -30.7272   24.2232 H   0  0  0  0  0  0
  -17.5038  -31.6254   24.5172 H   0  0  0  0  0  0
  -15.5365  -30.2963   23.7668 H   0  0  0  0  0  0
  -15.8688  -28.0821   22.7024 H   0  0  0  0  0  0
  -24.5996  -30.6970   25.7785 H   0  0  0  0  0  0
  -24.8927  -32.2882   26.4731 H   0  0  0  0  0  0
  -25.8157  -30.8998   27.0220 H   0  0  0  0  0  0
  -26.2853  -29.6712   24.1138 H   0  0  0  0  0  0
  -27.4054  -29.7169   25.4550 H   0  0  0  0  0  0
  -27.8726  -30.4195   23.9245 H   0  0  0  0  0  0
  -27.2747  -33.3538   26.2010 H   0  0  0  0  0  0
  -28.3952  -32.6736   25.0292 H   0  0  0  0  0  0
  -28.0711  -31.8324   26.5381 H   0  0  0  0  0  0
  -28.2554  -38.0127   24.7584 H   0  0  0  0  0  0
  -28.1144  -36.2677   24.6155 H   0  0  0  0  0  0
  -27.2353  -37.1293   25.8862 H   0  0  0  0  0  0
  -20.9324  -29.8768   21.6894 H   0  0  0  0  0  0
  -26.0169  -38.2842   24.1489 H   0  0  0  0  0  0
  -30.3510  -20.1119   23.3628 H   0  0  0  0  0  0
  -28.3518  -26.4211   22.1647 H   0  0  0  0  0  0
  -26.7819  -20.3251   21.1758 H   0  0  0  0  0  0
  -26.5413  -18.7219   20.4659 H   0  0  0  0  0  0
  -25.3391  -19.9929   20.2139 H   0  0  0  0  0  0
  -30.9120  -17.1014   19.4638 H   0  0  0  0  0  0
  -29.2148  -16.9922   19.2029 H   0  0  0  0  0  0
  -30.3135  -19.7555   18.0759 H   0  0  0  0  0  0
  -29.2617  -22.3796   22.5096 H   0  0  0  0  0  0
  -28.9576  -15.5606   21.1382 H   0  0  0  0  0  0
  -28.6894  -24.9913   23.4336 H   0  0  0  0  0  0
  1 25  1  0  0  0
  1 30  2  0  0  0
  1 84  1  0  0  0
  2  3  1  0  0  0
  2 25  1  0  0  0
  2 89  1  0  0  0
  2 90  1  0  0  0
  3  4  1  0  0  0
  3 91  1  0  0  0
  3 92  1  0  0  0
  4  5  1  0  0  0
  4 93  1  0  0  0
  4 94  1  0  0  0
  5  6  1  0  0  0
  5 26  1  0  0  0
  5 95  1  0  0  0
  6 25  1  0  0  0
  6 96  1  0  0  0
  6 97  1  0  0  0
  7  8  2  0  0  0
  7 26  1  0  0  0
  7 29  1  0  0  0
  8  9  1  0  0  0
  8 22  1  0  0  0
  9 10  1  0  0  0
  9 27  2  0  0  0
 10 11  2  0  0  0
 10 15  1  0  0  0
 11 12  1  0  0  0
 11 98  1  0  0  0
 12 13  2  0  0  0
 12 99  1  0  0  0
 13 14  1  0  0  0
 13 31  1  0  0  0
 14 15  2  0  0  0
 14100  1  0  0  0
 15101  1  0  0  0
 16 17  2  0  0  0
 16 21  1  0  0  0
 16 31  1  0  0  0
 17 18  1  0  0  0
 17102  1  0  0  0
 18 19  2  0  0  0
 18103  1  0  0  0
 19 20  1  0  0  0
 19 24  1  0  0  0
 20 21  2  0  0  0
 20104  1  0  0  0
 21 23  1  0  0  0
 22 28  1  0  0  0
 22 32  2  0  0  0
 26 27  1  0  0  0
 28105  1  0  0  0
 28106  1  0  0  0
 29107  1  0  0  0
 29108  1  0  0  0
 33 34  1  0  0  0
 33 66  1  0  0  0
 33 70  2  0  0  0
 34 36  1  0  0  0
 34 59  1  0  0  0
 34109  1  0  0  0
 35 44  2  0  0  0
 35 45  1  0  0  0
 35 68  1  0  0  0
 36 56  1  0  0  0
 36110  1  0  0  0
 37 39  1  0  0  0
 37 47  1  0  0  0
 37 66  1  0  0  0
 37111  1  0  0  0
 38 43  2  0  0  0
 38 46  1  0  0  0
 38 47  1  0  0  0
 39 64  1  0  0  0
 39 67  2  0  0  0
 40 52  1  0  0  0
 40 53  2  0  0  0
 40 58  1  0  0  0
 41112  1  0  0  0
 41113  1  0  0  0
 41114  1  0  0  0
 41 48  1  0  0  0
 42 43  1  0  0  0
 42 66  1  0  0  0
 42115  1  0  0  0
 42116  1  0  0  0
 43 44  1  0  0  0
 44117  1  0  0  0
 45 46  2  0  0  0
 45118  1  0  0  0
 46119  1  0  0  0
 47120  1  0  0  0
 47121  1  0  0  0
 48 56  1  0  0  0
 48 65  1  0  0  0
 48122  1  0  0  0
 49 50  1  0  0  0
 49 53  1  0  0  0
 49 64  1  0  0  0
 49123  1  0  0  0
 50 51  1  0  0  0
 50124  1  0  0  0
 50125  1  0  0  0
 51 52  1  0  0  0
 51126  1  0  0  0
 51127  1  0  0  0
 52128  1  0  0  0
 52129  1  0  0  0
 53 54  1  0  0  0
 54 55  2  0  0  0
 54130  1  0  0  0
 55 57  1  0  0  0
 55131  1  0  0  0
 56 69  2  0  0  0
 57 58  2  0  0  0
 57132  1  0  0  0
 58133  1  0  0  0
 59 60  1  0  0  0
 59 61  1  0  0  0
 59 62  1  0  0  0
 60134  1  0  0  0
 60135  1  0  0  0
 60136  1  0  0  0
 61137  1  0  0  0
 61138  1  0  0  0
 61139  1  0  0  0
 62140  1  0  0  0
 62141  1  0  0  0
 62142  1  0  0  0
 63 65  1  0  0  0
 63143  1  0  0  0
 63144  1  0  0  0
 63145  1  0  0  0
 64146  1  0  0  0
 65147  1  0  0  0
 68 75  1  0  0  0
 71 73  2  0  0  0
 71 87  1  0  0  0
 71148  1  0  0  0
 72 73  1  0  0  0
 72 74  2  0  0  0
 72 76  1  0  0  0
 73 83  1  0  0  0
 74 81  1  0  0  0
 74 87  1  0  0  0
 75 77  2  0  0  0
 75149  1  0  0  0
 76 78  1  0  0  0
 76 82  2  0  0  0
 77 79  1  0  0  0
 77 88  1  0  0  0
 78 80  1  0  0  0
 78 85  2  0  0  0
 79 83  1  0  0  0
 79 86  2  0  0  0
 80150  1  0  0  0
 80151  1  0  0  0
 80152  1  0  0  0
 81 84  1  0  0  0
 81153  1  0  0  0
 81154  1  0  0  0
 82155  1  0  0  0
 83156  1  0  0  0
 84157  1  0  0  0
 88158  1  0  0  0
M  ISO  4   1 100  68 101  75 101  84 100
M  END
> <chiral flag>
0

> <version>
0

> <s_m_source_file>
/data/baiqing/PycharmProjects/Reinvent-master-3.2/result/LINK_invent/BTK/process_docking_weight1_custom_product_contain_oxygen_bond_distance_aromatic_linkinvent_7_9_3/rearranged_h_0163.sdf

> <i_m_source_file_index>
24

> <r_mmod_Potential_Energy-OPLS-2005>
46.8086547851562

> <r_mmod_Stretch_Energy-OPLS-2005>
77.2790145874023

> <r_mmod_Bend_Energy-OPLS-2005>
210.095977783203

> <r_mmod_Torsional_Energy-OPLS-2005>
252.401077270508

> <r_mmod_Improper_Torsional_Energy-OPLS-2005>
8.47589778900146

> <r_mmod_Van_der_Waal_Energy-OPLS-2005>
118.726875305176

> <r_mmod_Electrostatic_Energy-OPLS-2005>
-386.906951904297

> <r_mmod_Solvation_Energy-OPLS-2005>
-287.089996337891

> <b_mmod_Minimization_Converged-OPLS-2005>
0

> <r_mmod_RMS_Derivative-OPLS-2005>
2.8411717414856

$$$$
24
                    3D
 Structure written by MMmdl.
147155  0  0  1  0            999 V2000
  -30.5806  -14.7184   20.4707 C   0  0  0  0  0  0
  -30.4459  -12.4386   19.4590 C   0  0  0  0  0  0
  -29.5120  -12.5069   18.2287 C   0  0  0  0  0  0
  -28.0368  -12.3303   18.6433 C   0  0  0  0  0  0
  -27.6471  -13.2179   19.8546 C   0  0  2  0  0  0
  -28.6936  -13.1118   20.9864 C   0  0  0  0  0  0
  -25.2543  -13.8166   20.5679 C   0  0  0  0  0  0
  -24.1821  -13.0432   20.9205 C   0  0  0  0  0  0
  -24.6392  -11.6903   20.8747 C   0  0  0  0  0  0
  -23.9062  -10.4288   21.0412 C   0  0  0  0  0  0
  -24.3614   -9.4204   21.9188 C   0  0  0  0  0  0
  -23.6290   -8.2238   22.0755 C   0  0  0  0  0  0
  -22.4273   -8.0278   21.3545 C   0  0  0  0  0  0
  -21.9908   -9.0252   20.4648 C   0  0  0  0  0  0
  -22.7236  -10.2132   20.3059 C   0  0  0  0  0  0
  -21.6853   -6.0734   22.5279 C   0  0  0  0  0  0
  -21.4013   -6.5638   23.8213 C   0  0  0  0  0  0
  -21.3659   -5.6792   24.9175 C   0  0  0  0  0  0
  -21.6044   -4.3054   24.7226 C   0  0  0  0  0  0
  -21.8820   -3.8146   23.4347 C   0  0  0  0  0  0
  -21.9193   -4.6962   22.3403 C   0  0  0  0  0  0
  -22.7844  -13.5227   21.1867 C   0  0  0  0  0  0
  -22.1662   -4.2148   21.0981 F   0  0  0  0  0  0
  -21.5629   -3.4539   25.7738 F   0  0  0  0  0  0
  -29.9984  -13.4745   20.4135 N   0  0  0  0  0  0
  -26.2960  -12.9344   20.3282 N   0  0  0  0  0  0
  -25.9316  -11.6503   20.5748 N   0  0  0  0  0  0
  -22.0484  -12.8218   22.0421 N   0  0  0  0  0  0
  -25.4237  -15.1891   20.4076 N   0  0  0  0  0  0
  -31.7648  -14.8783   20.1582 O   0  0  0  0  0  0
  -21.6638   -6.8876   21.4239 O   0  0  0  0  0  0
  -22.3533  -14.5535   20.6714 O   0  0  0  0  0  0
  -24.6286  -31.8564   23.1979 C   0  0  0  0  0  0
  -25.9117  -32.4763   23.8329 C   0  0  1  0  0  0
  -27.2296  -27.2879   20.1353 C   0  0  0  0  0  0
  -25.5920  -33.8564   24.2259 N   0  0  0  0  0  0
  -23.4254  -30.4763   21.5408 C   0  0  2  0  0  0
  -24.8749  -28.9180   20.1173 C   0  0  0  0  0  0
  -22.7490  -29.4605   22.4924 C   0  0  0  0  0  0
  -18.0291  -28.1386   22.8490 C   0  0  0  0  0  0
  -24.1488  -36.7286   23.2641 C   0  0  0  0  0  0
  -25.9677  -30.7784   21.3719 C   0  0  0  0  0  0
  -26.0447  -29.4000   20.7200 C   0  0  0  0  0  0
  -27.2286  -28.5989   20.7125 C   0  0  0  0  0  0
  -26.0385  -26.8563   19.5178 C   0  0  0  0  0  0
  -24.8747  -27.6528   19.5059 C   0  0  0  0  0  0
  -23.6440  -29.8032   20.1595 C   0  0  0  0  0  0
  -25.4115  -36.3076   24.0329 C   0  0  1  0  0  0
  -20.5893  -28.3693   23.1278 C   0  0  2  0  0  0
  -20.6778  -26.9413   22.5410 C   0  0  0  0  0  0
  -19.5753  -26.6384   21.5214 C   0  0  0  0  0  0
  -18.1934  -26.7928   22.1627 C   0  0  0  0  0  0
  -19.1543  -28.8857   23.2879 C   0  0  0  0  0  0
  -18.9465  -30.1459   23.8895 C   0  0  0  0  0  0
  -17.6464  -30.6589   24.0564 C   0  0  0  0  0  0
  -25.9053  -34.9445   23.5098 C   0  0  0  0  0  0
  -16.5356  -29.9086   23.6332 C   0  0  0  0  0  0
  -16.7277  -28.6503   23.0354 C   0  0  0  0  0  0
  -26.4494  -31.6582   25.0709 C   0  0  0  0  0  0
  -25.3724  -31.3727   26.1434 C   0  0  0  0  0  0
  -27.0340  -30.3004   24.6173 C   0  0  0  0  0  0
  -27.6051  -32.4318   25.7484 C   0  0  0  0  0  0
  -27.5579  -37.1800   24.8468 C   0  0  0  0  0  0
  -21.4200  -29.3043   22.3668 N   0  0  0  0  0  0
  -26.4293  -37.3771   23.9409 N   0  0  0  0  0  0
  -24.6930  -31.0547   22.0940 N   0  0  0  0  0  0
  -23.4197  -28.8153   23.3025 O   0  0  0  0  0  0
  -28.3393  -26.4257   20.1185 O   0  0  0  0  0  0
  -26.5628  -34.8919   22.4668 O   0  0  0  0  0  0
  -23.5440  -32.1372   23.7288 O   0  0  0  0  0  0
  -30.9317  -18.0092   20.7737 C   0  0  0  0  0  0
  -29.8423  -17.1722   20.5825 C   0  0  0  0  0  0
  -29.4095  -19.7462   20.4202 C   0  0  0  0  0  0
  -28.5751  -23.7651   20.0131 C   0  0  0  0  0  0
  -29.1757  -22.4850   20.7657 C   0  0  0  0  0  0
  -28.2222  -25.1055   20.8115 C   0  0  0  0  0  0
  -30.6756  -19.4154   20.7147 N   0  0  0  0  0  0
  -29.7139  -15.7776   20.6631 N   0  0  0  0  0  0
  -28.8740  -21.0796   20.2823 N   0  0  0  0  0  0
  -28.3568  -23.6954   18.7992 O   0  0  0  0  0  0
  -28.4444  -18.2393   20.2516 S   0  0  0  0  0  0
  -31.4833  -12.5857   19.1535 H   0  0  0  0  0  0
  -30.4053  -11.4516   19.9224 H   0  0  0  0  0  0
  -29.7895  -11.7424   17.5017 H   0  0  0  0  0  0
  -29.6377  -13.4667   17.7250 H   0  0  0  0  0  0
  -27.8901  -11.2795   18.8954 H   0  0  0  0  0  0
  -27.3786  -12.5336   17.7978 H   0  0  0  0  0  0
  -27.6499  -14.2443   19.4882 H   0  0  0  0  0  0
  -28.7249  -12.0989   21.3906 H   0  0  0  0  0  0
  -28.4310  -13.7611   21.8234 H   0  0  0  0  0  0
  -25.2759   -9.5680   22.4762 H   0  0  0  0  0  0
  -24.0001   -7.4629   22.7472 H   0  0  0  0  0  0
  -21.0840   -8.8770   19.8953 H   0  0  0  0  0  0
  -22.3694  -10.9672   19.6167 H   0  0  0  0  0  0
  -21.2005   -7.6147   23.9715 H   0  0  0  0  0  0
  -21.1480   -6.0523   25.9078 H   0  0  0  0  0  0
  -22.0599   -2.7608   23.2848 H   0  0  0  0  0  0
  -22.4098  -11.9876   22.4804 H   0  0  0  0  0  0
  -21.1104  -13.1246   22.2630 H   0  0  0  0  0  0
  -24.6492  -15.8360   20.5098 H   0  0  0  0  0  0
  -26.2564  -15.6291   20.0388 H   0  0  0  0  0  0
  -26.7185  -32.5427   23.1076 H   0  0  0  0  0  0
  -25.0065  -33.9703   25.0402 H   0  0  0  0  0  0
  -22.7213  -31.2975   21.3916 H   0  0  0  0  0  0
  -23.3753  -35.9615   23.3305 H   0  0  0  0  0  0
  -24.3580  -36.8905   22.2055 H   0  0  0  0  0  0
  -23.7236  -37.6486   23.6662 H   0  0  0  0  0  0
  -26.0997  -31.5377   20.5999 H   0  0  0  0  0  0
  -26.8477  -30.8324   22.0014 H   0  0  0  0  0  0
  -28.1308  -28.9691   21.1792 H   0  0  0  0  0  0
  -26.0075  -25.8842   19.0455 H   0  0  0  0  0  0
  -23.9783  -27.2779   19.0310 H   0  0  0  0  0  0
  -23.7678  -30.5757   19.3996 H   0  0  0  0  0  0
  -22.7636  -29.2334   19.8570 H   0  0  0  0  0  0
  -25.1297  -36.1926   25.0822 H   0  0  0  0  0  0
  -20.9988  -28.3267   24.1398 H   0  0  0  0  0  0
  -20.5677  -26.2303   23.3612 H   0  0  0  0  0  0
  -21.6645  -26.7438   22.1205 H   0  0  0  0  0  0
  -19.6913  -25.6295   21.1244 H   0  0  0  0  0  0
  -19.6688  -27.3196   20.6744 H   0  0  0  0  0  0
  -17.4203  -26.6678   21.4029 H   0  0  0  0  0  0
  -18.0335  -26.0071   22.9025 H   0  0  0  0  0  0
  -19.7941  -30.7278   24.2260 H   0  0  0  0  0  0
  -17.5019  -31.6269   24.5166 H   0  0  0  0  0  0
  -15.5356  -30.2988   23.7654 H   0  0  0  0  0  0
  -15.8679  -28.0822   22.7068 H   0  0  0  0  0  0
  -24.5892  -30.7084   25.7762 H   0  0  0  0  0  0
  -24.8924  -32.2897   26.4862 H   0  0  0  0  0  0
  -25.8045  -30.8900   27.0208 H   0  0  0  0  0  0
  -26.2915  -29.6751   24.1200 H   0  0  0  0  0  0
  -27.4041  -29.7264   25.4678 H   0  0  0  0  0  0
  -27.8782  -30.4292   23.9396 H   0  0  0  0  0  0
  -27.2664  -33.3624   26.2048 H   0  0  0  0  0  0
  -28.3869  -32.6866   25.0317 H   0  0  0  0  0  0
  -28.0707  -31.8448   26.5409 H   0  0  0  0  0  0
  -28.2600  -38.0093   24.7512 H   0  0  0  0  0  0
  -28.1071  -36.2625   24.6299 H   0  0  0  0  0  0
  -27.2298  -37.1454   25.8872 H   0  0  0  0  0  0
  -20.9381  -29.8759   21.6870 H   0  0  0  0  0  0
  -26.0174  -38.2846   24.1406 H   0  0  0  0  0  0
  -31.9393  -17.6914   21.0034 H   0  0  0  0  0  0
  -28.8595  -22.5509   21.8072 H   0  0  0  0  0  0
  -30.2594  -22.6060   20.7806 H   0  0  0  0  0  0
  -28.8705  -25.1412   21.6867 H   0  0  0  0  0  0
  -27.2100  -24.9933   21.2008 H   0  0  0  0  0  0
  -28.7675  -15.4606   20.8049 H   0  0  0  0  0  0
  -27.9289  -21.0442   19.9097 H   0  0  0  0  0  0
  1 25  1  0  0  0
  1 30  2  0  0  0
  1 78  1  0  0  0
  2  3  1  0  0  0
  2 25  1  0  0  0
  2 82  1  0  0  0
  2 83  1  0  0  0
  3  4  1  0  0  0
  3 84  1  0  0  0
  3 85  1  0  0  0
  4  5  1  0  0  0
  4 86  1  0  0  0
  4 87  1  0  0  0
  5  6  1  0  0  0
  5 26  1  0  0  0
  5 88  1  0  0  0
  6 25  1  0  0  0
  6 89  1  0  0  0
  6 90  1  0  0  0
  7  8  2  0  0  0
  7 26  1  0  0  0
  7 29  1  0  0  0
  8  9  1  0  0  0
  8 22  1  0  0  0
  9 10  1  0  0  0
  9 27  2  0  0  0
 10 11  2  0  0  0
 10 15  1  0  0  0
 11 12  1  0  0  0
 11 91  1  0  0  0
 12 13  2  0  0  0
 12 92  1  0  0  0
 13 14  1  0  0  0
 13 31  1  0  0  0
 14 15  2  0  0  0
 14 93  1  0  0  0
 15 94  1  0  0  0
 16 17  2  0  0  0
 16 21  1  0  0  0
 16 31  1  0  0  0
 17 18  1  0  0  0
 17 95  1  0  0  0
 18 19  2  0  0  0
 18 96  1  0  0  0
 19 20  1  0  0  0
 19 24  1  0  0  0
 20 21  2  0  0  0
 20 97  1  0  0  0
 21 23  1  0  0  0
 22 28  1  0  0  0
 22 32  2  0  0  0
 26 27  1  0  0  0
 28 98  1  0  0  0
 28 99  1  0  0  0
 29100  1  0  0  0
 29101  1  0  0  0
 33 34  1  0  0  0
 33 66  1  0  0  0
 33 70  2  0  0  0
 34 36  1  0  0  0
 34 59  1  0  0  0
 34102  1  0  0  0
 35 44  2  0  0  0
 35 45  1  0  0  0
 35 68  1  0  0  0
 36 56  1  0  0  0
 36103  1  0  0  0
 37 39  1  0  0  0
 37 47  1  0  0  0
 37 66  1  0  0  0
 37104  1  0  0  0
 38 43  2  0  0  0
 38 46  1  0  0  0
 38 47  1  0  0  0
 39 64  1  0  0  0
 39 67  2  0  0  0
 40 52  1  0  0  0
 40 53  2  0  0  0
 40 58  1  0  0  0
 41105  1  0  0  0
 41106  1  0  0  0
 41107  1  0  0  0
 41 48  1  0  0  0
 42 43  1  0  0  0
 42 66  1  0  0  0
 42108  1  0  0  0
 42109  1  0  0  0
 43 44  1  0  0  0
 44110  1  0  0  0
 45 46  2  0  0  0
 45111  1  0  0  0
 46112  1  0  0  0
 47113  1  0  0  0
 47114  1  0  0  0
 48 56  1  0  0  0
 48 65  1  0  0  0
 48115  1  0  0  0
 49 50  1  0  0  0
 49 53  1  0  0  0
 49 64  1  0  0  0
 49116  1  0  0  0
 50 51  1  0  0  0
 50117  1  0  0  0
 50118  1  0  0  0
 51 52  1  0  0  0
 51119  1  0  0  0
 51120  1  0  0  0
 52121  1  0  0  0
 52122  1  0  0  0
 53 54  1  0  0  0
 54 55  2  0  0  0
 54123  1  0  0  0
 55 57  1  0  0  0
 55124  1  0  0  0
 56 69  2  0  0  0
 57 58  2  0  0  0
 57125  1  0  0  0
 58126  1  0  0  0
 59 60  1  0  0  0
 59 61  1  0  0  0
 59 62  1  0  0  0
 60127  1  0  0  0
 60128  1  0  0  0
 60129  1  0  0  0
 61130  1  0  0  0
 61131  1  0  0  0
 61132  1  0  0  0
 62133  1  0  0  0
 62134  1  0  0  0
 62135  1  0  0  0
 63 65  1  0  0  0
 63136  1  0  0  0
 63137  1  0  0  0
 63138  1  0  0  0
 64139  1  0  0  0
 65140  1  0  0  0
 68 76  1  0  0  0
 71 72  2  0  0  0
 71 77  1  0  0  0
 71141  1  0  0  0
 72 78  1  0  0  0
 72 81  1  0  0  0
 73 77  2  0  0  0
 73 79  1  0  0  0
 73 81  1  0  0  0
 74 75  1  0  0  0
 74 76  1  0  0  0
 74 80  2  0  0  0
 75 79  1  0  0  0
 75142  1  0  0  0
 75143  1  0  0  0
 76144  1  0  0  0
 76145  1  0  0  0
 78146  1  0  0  0
 79147  1  0  0  0
M  ISO  4   1 100  68 101  76 101  78 100
M  END
> <chiral flag>
0

> <version>
0

> <s_m_source_file>
/data/baiqing/PycharmProjects/Reinvent-master-3.2/result/LINK_invent/BTK/process_docking_weight1_custom_product_contain_oxygen_bond_distance_aromatic_linkinvent_7_9_3/rearranged_h_0163.sdf

> <i_m_source_file_index>
25

> <r_mmod_Potential_Energy-OPLS-2005>
48.1307830810547

> <r_mmod_Stretch_Energy-OPLS-2005>
96.8335113525391

> <r_mmod_Bend_Energy-OPLS-2005>
150.57633972168

> <r_mmod_Torsional_Energy-OPLS-2005>
232.719451904297

> <r_mmod_Improper_Torsional_Energy-OPLS-2005>
6.26739740371704

> <r_mmod_Van_der_Waal_Energy-OPLS-2005>
109.829917907715

> <r_mmod_Electrostatic_Energy-OPLS-2005>
-364.983276367188

> <r_mmod_Solvation_Energy-OPLS-2005>
-253.880111694336

> <b_mmod_Minimization_Converged-OPLS-2005>
0

> <r_mmod_RMS_Derivative-OPLS-2005>
0.339222818613052

$$$$
25
                    3D
 Structure written by MMmdl.
183192  0  0  1  0            999 V2000
  -30.6539  -14.8035   20.4903 C   0  0  0  0  0  0
  -30.4107  -12.5010   19.5022 C   0  0  0  0  0  0
  -29.5073  -12.5182   18.2527 C   0  0  0  0  0  0
  -28.0379  -12.3298   18.6644 C   0  0  0  0  0  0
  -27.6322  -13.2471   19.8489 C   0  0  2  0  0  0
  -28.6712  -13.2466   20.9926 C   0  0  0  0  0  0
  -25.2400  -13.8173   20.5509 C   0  0  0  0  0  0
  -24.1754  -13.0428   20.9189 C   0  0  0  0  0  0
  -24.6394  -11.6922   20.8798 C   0  0  0  0  0  0
  -23.9080  -10.4291   21.0439 C   0  0  0  0  0  0
  -24.3624   -9.4196   21.9206 C   0  0  0  0  0  0
  -23.6293   -8.2233   22.0763 C   0  0  0  0  0  0
  -22.4277   -8.0282   21.3552 C   0  0  0  0  0  0
  -21.9924   -9.0255   20.4651 C   0  0  0  0  0  0
  -22.7260  -10.2132   20.3072 C   0  0  0  0  0  0
  -21.6852   -6.0734   22.5279 C   0  0  0  0  0  0
  -21.4010   -6.5637   23.8212 C   0  0  0  0  0  0
  -21.3658   -5.6790   24.9175 C   0  0  0  0  0  0
  -21.6045   -4.3053   24.7226 C   0  0  0  0  0  0
  -21.8818   -3.8142   23.4348 C   0  0  0  0  0  0
  -21.9189   -4.6961   22.3404 C   0  0  0  0  0  0
  -22.7786  -13.5214   21.1858 C   0  0  0  0  0  0
  -22.1660   -4.2145   21.0983 F   0  0  0  0  0  0
  -21.5629   -3.4537   25.7740 F   0  0  0  0  0  0
  -29.9661  -13.6028   20.4033 N   0  0  0  0  0  0
  -26.2889  -12.9439   20.3282 N   0  0  0  0  0  0
  -25.9339  -11.6577   20.5842 N   0  0  0  0  0  0
  -22.0443  -12.8207   22.0428 N   0  0  0  0  0  0
  -25.3980  -15.1830   20.3520 N   0  0  0  0  0  0
  -31.8142  -14.8023   20.0685 O   0  0  0  0  0  0
  -21.6643   -6.8877   21.4242 O   0  0  0  0  0  0
  -22.3476  -14.5533   20.6730 O   0  0  0  0  0  0
  -24.6369  -31.8503   23.1899 C   0  0  0  0  0  0
  -25.9167  -32.4736   23.8277 C   0  0  1  0  0  0
  -27.2207  -27.2088   20.1369 C   0  0  0  0  0  0
  -25.5954  -33.8539   24.2210 N   0  0  0  0  0  0
  -23.4350  -30.4712   21.5339 C   0  0  2  0  0  0
  -24.8781  -28.9024   20.1087 C   0  0  0  0  0  0
  -22.7527  -29.4588   22.4867 C   0  0  0  0  0  0
  -18.0304  -28.1406   22.8489 C   0  0  0  0  0  0
  -24.1477  -36.7251   23.2643 C   0  0  0  0  0  0
  -25.9828  -30.7489   21.3722 C   0  0  0  0  0  0
  -26.0514  -29.3659   20.7153 C   0  0  0  0  0  0
  -27.2188  -28.5314   20.7122 C   0  0  0  0  0  0
  -26.0126  -26.8110   19.5262 C   0  0  0  0  0  0
  -24.8666  -27.6349   19.5047 C   0  0  0  0  0  0
  -23.6544  -29.7999   20.1514 C   0  0  0  0  0  0
  -25.4108  -36.3043   24.0329 C   0  0  1  0  0  0
  -20.5912  -28.3718   23.1255 C   0  0  2  0  0  0
  -20.6791  -26.9430   22.5406 C   0  0  0  0  0  0
  -19.5760  -26.6392   21.5219 C   0  0  0  0  0  0
  -18.1937  -26.7953   22.1625 C   0  0  0  0  0  0
  -19.1560  -28.8876   23.2871 C   0  0  0  0  0  0
  -18.9480  -30.1472   23.8893 C   0  0  0  0  0  0
  -17.6482  -30.6608   24.0568 C   0  0  0  0  0  0
  -25.9065  -34.9435   23.5068 C   0  0  0  0  0  0
  -16.5368  -29.9110   23.6337 C   0  0  0  0  0  0
  -16.7292  -28.6524   23.0363 C   0  0  0  0  0  0
  -26.4518  -31.6598   25.0703 C   0  0  0  0  0  0
  -25.3725  -31.3783   26.1411 C   0  0  0  0  0  0
  -27.0379  -30.3017   24.6222 C   0  0  0  0  0  0
  -27.6047  -32.4362   25.7488 C   0  0  0  0  0  0
  -27.5564  -37.1778   24.8471 C   0  0  0  0  0  0
  -21.4224  -29.3059   22.3625 N   0  0  0  0  0  0
  -26.4267  -37.3764   23.9429 N   0  0  0  0  0  0
  -24.7048  -31.0434   22.0883 N   0  0  0  0  0  0
  -23.4202  -28.8133   23.2991 O   0  0  0  0  0  0
  -28.3512  -26.3477   20.2307 O   0  0  0  0  0  0
  -26.5627  -34.8935   22.4634 O   0  0  0  0  0  0
  -23.5508  -32.1335   23.7176 O   0  0  0  0  0  0
  -32.8411  -18.0154   22.4099 C   0  0  0  0  0  0
  -31.9988  -17.0583   21.8459 C   0  0  0  0  0  0
  -30.2276  -18.7595   21.3554 C   0  0  0  0  0  0
  -32.3725  -19.3128   22.5060 C   0  0  0  0  0  0
  -31.1162  -19.6754   22.0284 C   0  0  0  0  0  0
  -30.7056  -17.3205   21.2903 C   0  0  0  0  0  0
  -28.8139  -19.3806   20.9946 C   0  0  0  0  0  0
  -33.1018  -20.4195   23.2163 C   0  0  0  0  0  0
  -30.8879  -21.1222   22.4553 C   0  0  0  0  0  0
  -32.0072  -21.4604   23.4547 C   0  0  0  0  0  0
  -26.2966  -17.1484   23.1503 C   0  0  0  0  0  0
  -24.3867  -18.6410   22.5135 C   0  0  0  0  0  0
  -28.1341  -24.7708   18.2539 C   0  0  0  0  0  0
  -30.1422  -25.0262   19.6705 C   0  0  0  0  0  0
  -28.2868  -23.5371   20.5460 C   0  0  0  0  0  0
  -26.4899  -18.7174   21.1143 C   0  0  0  0  0  0
  -28.8348  -22.0441   20.0663 C   0  0  0  0  0  0
  -25.9235  -18.5290   22.5606 C   0  0  0  0  0  0
  -28.6052  -24.9273   19.7136 C   0  0  0  0  0  0
  -27.9212  -18.4443   21.0597 N   0  0  0  0  0  0
  -30.0427  -16.0286   20.8493 N   0  0  0  0  0  0
  -28.4697  -20.8063   20.8917 N   0  0  0  0  0  0
  -26.4621  -19.5673   23.4616 N   0  3  0  0  0  0
  -31.4555  -12.5878   19.2027 H   0  0  0  0  0  0
  -30.3378  -11.5403   20.0147 H   0  0  0  0  0  0
  -29.8060  -11.7327   17.5571 H   0  0  0  0  0  0
  -29.6266  -13.4641   17.7212 H   0  0  0  0  0  0
  -27.9090  -11.2840   18.9461 H   0  0  0  0  0  0
  -27.3790  -12.4977   17.8116 H   0  0  0  0  0  0
  -27.6107  -14.2583   19.4422 H   0  0  0  0  0  0
  -28.7206  -12.2712   21.4787 H   0  0  0  0  0  0
  -28.3884  -13.9646   21.7642 H   0  0  0  0  0  0
  -25.2763   -9.5667   22.4790 H   0  0  0  0  0  0
  -23.9997   -7.4618   22.7477 H   0  0  0  0  0  0
  -21.0859   -8.8776   19.8948 H   0  0  0  0  0  0
  -22.3722  -10.9673   19.6179 H   0  0  0  0  0  0
  -21.2004   -7.6145   23.9715 H   0  0  0  0  0  0
  -21.1481   -6.0522   25.9079 H   0  0  0  0  0  0
  -22.0598   -2.7605   23.2850 H   0  0  0  0  0  0
  -22.4061  -11.9854   22.4789 H   0  0  0  0  0  0
  -21.1068  -13.1233   22.2654 H   0  0  0  0  0  0
  -24.6121  -15.8200   20.4051 H   0  0  0  0  0  0
  -26.2415  -15.6143   19.9970 H   0  0  0  0  0  0
  -26.7237  -32.5357   23.1015 H   0  0  0  0  0  0
  -25.0164  -33.9670   25.0400 H   0  0  0  0  0  0
  -22.7351  -31.2950   21.3829 H   0  0  0  0  0  0
  -23.3759  -35.9565   23.3300 H   0  0  0  0  0  0
  -24.3559  -36.8873   22.2054 H   0  0  0  0  0  0
  -23.7215  -37.6447   23.6675 H   0  0  0  0  0  0
  -26.1285  -31.5061   20.6002 H   0  0  0  0  0  0
  -26.8578  -30.7986   22.0081 H   0  0  0  0  0  0
  -28.1180  -28.8848   21.1967 H   0  0  0  0  0  0
  -25.9089  -25.8291   19.1019 H   0  0  0  0  0  0
  -23.9613  -27.2644   19.0429 H   0  0  0  0  0  0
  -23.7929  -30.5743   19.3965 H   0  0  0  0  0  0
  -22.7690  -29.2430   19.8385 H   0  0  0  0  0  0
  -25.1297  -36.1861   25.0824 H   0  0  0  0  0  0
  -21.0022  -28.3304   24.1368 H   0  0  0  0  0  0
  -20.5686  -26.2338   23.3625 H   0  0  0  0  0  0
  -21.6659  -26.7452   22.1195 H   0  0  0  0  0  0
  -19.6923  -25.6295   21.1261 H   0  0  0  0  0  0
  -19.6695  -27.3195   20.6742 H   0  0  0  0  0  0
  -17.4209  -26.6709   21.4019 H   0  0  0  0  0  0
  -18.0320  -26.0101   22.9018 H   0  0  0  0  0  0
  -19.7961  -30.7286   24.2254 H   0  0  0  0  0  0
  -17.5049  -31.6286   24.5169 H   0  0  0  0  0  0
  -15.5374  -30.3016   23.7673 H   0  0  0  0  0  0
  -15.8689  -28.0844   22.7091 H   0  0  0  0  0  0
  -24.5897  -30.7136   25.7741 H   0  0  0  0  0  0
  -24.8925  -32.2970   26.4796 H   0  0  0  0  0  0
  -25.8021  -30.8988   27.0212 H   0  0  0  0  0  0
  -26.2974  -29.6747   24.1239 H   0  0  0  0  0  0
  -27.4053  -29.7306   25.4755 H   0  0  0  0  0  0
  -27.8859  -30.4306   23.9490 H   0  0  0  0  0  0
  -27.2643  -33.3684   26.2013 H   0  0  0  0  0  0
  -28.3893  -32.6879   25.0342 H   0  0  0  0  0  0
  -28.0686  -31.8525   26.5450 H   0  0  0  0  0  0
  -28.2577  -38.0078   24.7523 H   0  0  0  0  0  0
  -28.1055  -36.2609   24.6281 H   0  0  0  0  0  0
  -27.2286  -37.1404   25.8875 H   0  0  0  0  0  0
  -20.9406  -29.8782   21.6830 H   0  0  0  0  0  0
  -26.0127  -38.2826   24.1460 H   0  0  0  0  0  0
  -33.8018  -17.7355   22.8210 H   0  0  0  0  0  0
  -32.4092  -16.0650   21.9186 H   0  0  0  0  0  0
  -33.8854  -20.8112   22.5666 H   0  0  0  0  0  0
  -33.5584  -20.0812   24.1474 H   0  0  0  0  0  0
  -29.9157  -21.2920   22.9165 H   0  0  0  0  0  0
  -31.0093  -21.7777   21.5993 H   0  0  0  0  0  0
  -32.3612  -22.4895   23.3856 H   0  0  0  0  0  0
  -31.6165  -21.3219   24.4642 H   0  0  0  0  0  0
  -25.8918  -16.3352   22.5562 H   0  0  0  0  0  0
  -25.8972  -17.0220   24.1570 H   0  0  0  0  0  0
  -27.3752  -16.9994   23.2109 H   0  0  0  0  0  0
  -23.9537  -17.8532   21.8955 H   0  0  0  0  0  0
  -24.0621  -19.5944   22.0948 H   0  0  0  0  0  0
  -23.9423  -18.5479   23.5055 H   0  0  0  0  0  0
  -27.1099  -24.4099   18.1840 H   0  0  0  0  0  0
  -28.7392  -24.0354   17.7201 H   0  0  0  0  0  0
  -28.2123  -25.7086   17.7047 H   0  0  0  0  0  0
  -30.6022  -24.1419   19.2308 H   0  0  0  0  0  0
  -30.5573  -25.1460   20.6720 H   0  0  0  0  0  0
  -30.4746  -25.8812   19.0797 H   0  0  0  0  0  0
  -28.6470  -23.6908   21.5646 H   0  0  0  0  0  0
  -27.2033  -23.4701   20.6434 H   0  0  0  0  0  0
  -26.2184  -19.6968   20.7168 H   0  0  0  0  0  0
  -25.9894  -18.0139   20.4478 H   0  0  0  0  0  0
  -29.9091  -22.0735   19.9016 H   0  0  0  0  0  0
  -28.4290  -21.8608   19.0713 H   0  0  0  0  0  0
  -29.0348  -16.0211   20.9108 H   0  0  0  0  0  0
  -27.4945  -20.9656   21.0922 H   0  0  0  0  0  0
  -26.1663  -19.3961   24.4070 H   0  0  0  0  0  0
  -26.1467  -20.4856   23.2054 H   0  0  0  0  0  0
  -27.4674  -19.5437   23.4447 H   0  0  0  0  0  0
  1 25  1  0  0  0
  1 30  2  0  0  0
  1 91  1  0  0  0
  2  3  1  0  0  0
  2 25  1  0  0  0
  2 94  1  0  0  0
  2 95  1  0  0  0
  3  4  1  0  0  0
  3 96  1  0  0  0
  3 97  1  0  0  0
  4  5  1  0  0  0
  4 98  1  0  0  0
  4 99  1  0  0  0
  5  6  1  0  0  0
  5 26  1  0  0  0
  5100  1  0  0  0
  6 25  1  0  0  0
  6101  1  0  0  0
  6102  1  0  0  0
  7  8  2  0  0  0
  7 26  1  0  0  0
  7 29  1  0  0  0
  8  9  1  0  0  0
  8 22  1  0  0  0
  9 10  1  0  0  0
  9 27  2  0  0  0
 10 11  2  0  0  0
 10 15  1  0  0  0
 11 12  1  0  0  0
 11103  1  0  0  0
 12 13  2  0  0  0
 12104  1  0  0  0
 13 14  1  0  0  0
 13 31  1  0  0  0
 14 15  2  0  0  0
 14105  1  0  0  0
 15106  1  0  0  0
 16 17  2  0  0  0
 16 21  1  0  0  0
 16 31  1  0  0  0
 17 18  1  0  0  0
 17107  1  0  0  0
 18 19  2  0  0  0
 18108  1  0  0  0
 19 20  1  0  0  0
 19 24  1  0  0  0
 20 21  2  0  0  0
 20109  1  0  0  0
 21 23  1  0  0  0
 22 28  1  0  0  0
 22 32  2  0  0  0
 26 27  1  0  0  0
 28110  1  0  0  0
 28111  1  0  0  0
 29112  1  0  0  0
 29113  1  0  0  0
 33 34  1  0  0  0
 33 66  1  0  0  0
 33 70  2  0  0  0
 34 36  1  0  0  0
 34 59  1  0  0  0
 34114  1  0  0  0
 35 44  2  0  0  0
 35 45  1  0  0  0
 35 68  1  0  0  0
 36 56  1  0  0  0
 36115  1  0  0  0
 37 39  1  0  0  0
 37 47  1  0  0  0
 37 66  1  0  0  0
 37116  1  0  0  0
 38 43  2  0  0  0
 38 46  1  0  0  0
 38 47  1  0  0  0
 39 64  1  0  0  0
 39 67  2  0  0  0
 40 52  1  0  0  0
 40 53  2  0  0  0
 40 58  1  0  0  0
 41117  1  0  0  0
 41118  1  0  0  0
 41119  1  0  0  0
 41 48  1  0  0  0
 42 43  1  0  0  0
 42 66  1  0  0  0
 42120  1  0  0  0
 42121  1  0  0  0
 43 44  1  0  0  0
 44122  1  0  0  0
 45 46  2  0  0  0
 45123  1  0  0  0
 46124  1  0  0  0
 47125  1  0  0  0
 47126  1  0  0  0
 48 56  1  0  0  0
 48 65  1  0  0  0
 48127  1  0  0  0
 49 50  1  0  0  0
 49 53  1  0  0  0
 49 64  1  0  0  0
 49128  1  0  0  0
 50 51  1  0  0  0
 50129  1  0  0  0
 50130  1  0  0  0
 51 52  1  0  0  0
 51131  1  0  0  0
 51132  1  0  0  0
 52133  1  0  0  0
 52134  1  0  0  0
 53 54  1  0  0  0
 54 55  2  0  0  0
 54135  1  0  0  0
 55 57  1  0  0  0
 55136  1  0  0  0
 56 69  2  0  0  0
 57 58  2  0  0  0
 57137  1  0  0  0
 58138  1  0  0  0
 59 60  1  0  0  0
 59 61  1  0  0  0
 59 62  1  0  0  0
 60139  1  0  0  0
 60140  1  0  0  0
 60141  1  0  0  0
 61142  1  0  0  0
 61143  1  0  0  0
 61144  1  0  0  0
 62145  1  0  0  0
 62146  1  0  0  0
 62147  1  0  0  0
 63 65  1  0  0  0
 63148  1  0  0  0
 63149  1  0  0  0
 63150  1  0  0  0
 64151  1  0  0  0
 65152  1  0  0  0
 68 89  1  0  0  0
 71 72  2  0  0  0
 71 74  1  0  0  0
 71153  1  0  0  0
 72 76  1  0  0  0
 72154  1  0  0  0
 73 75  1  0  0  0
 73 76  2  0  0  0
 73 77  1  0  0  0
 74 75  2  0  0  0
 74 78  1  0  0  0
 75 79  1  0  0  0
 76 91  1  0  0  0
 77 90  2  0  0  0
 77 92  1  0  0  0
 78 80  1  0  0  0
 78155  1  0  0  0
 78156  1  0  0  0
 79 80  1  0  0  0
 79157  1  0  0  0
 79158  1  0  0  0
 80159  1  0  0  0
 80160  1  0  0  0
 81161  1  0  0  0
 81162  1  0  0  0
 81163  1  0  0  0
 81 88  1  0  0  0
 82 88  1  0  0  0
 82164  1  0  0  0
 82165  1  0  0  0
 82166  1  0  0  0
 83167  1  0  0  0
 83168  1  0  0  0
 83169  1  0  0  0
 83 89  1  0  0  0
 84 89  1  0  0  0
 84170  1  0  0  0
 84171  1  0  0  0
 84172  1  0  0  0
 85 87  1  0  0  0
 85 89  1  0  0  0
 85173  1  0  0  0
 85174  1  0  0  0
 86 88  1  0  0  0
 86 90  1  0  0  0
 86175  1  0  0  0
 86176  1  0  0  0
 87 92  1  0  0  0
 87177  1  0  0  0
 87178  1  0  0  0
 88 93  1  0  0  0
 91179  1  0  0  0
 92180  1  0  0  0
 93181  1  0  0  0
 93182  1  0  0  0
 93183  1  0  0  0
M  CHG  1  93   1
M  ISO  4   1 100  68 101  89 101  91 100
M  END
> <chiral flag>
0

> <version>
0

> <s_m_source_file>
/data/baiqing/PycharmProjects/Reinvent-master-3.2/result/LINK_invent/BTK/process_docking_weight1_custom_product_contain_oxygen_bond_distance_aromatic_linkinvent_7_9_3/rearranged_h_0163.sdf

> <i_m_source_file_index>
26

> <r_mmod_Potential_Energy-OPLS-2005>
277.047149658203

> <r_mmod_Stretch_Energy-OPLS-2005>
217.442626953125

> <r_mmod_Bend_Energy-OPLS-2005>
372.265899658203

> <r_mmod_Torsional_Energy-OPLS-2005>
252.36408996582

> <r_mmod_Improper_Torsional_Energy-OPLS-2005>
13.1390399932861

> <r_mmod_Van_der_Waal_Energy-OPLS-2005>
157.267807006836

> <r_mmod_Electrostatic_Energy-OPLS-2005>
-353.803405761719

> <r_mmod_Solvation_Energy-OPLS-2005>
-493.314758300781

> <b_mmod_Minimization_Converged-OPLS-2005>
0

> <r_mmod_RMS_Derivative-OPLS-2005>
1.50366282463074

$$$$
26
                    3D
 Structure written by MMmdl.
157165  0  0  1  0            999 V2000
  -30.4329  -14.6738   20.0816 C   0  0  0  0  0  0
  -30.7546  -12.3542   19.3794 C   0  0  0  0  0  0
  -29.7326  -12.1750   18.2319 C   0  0  0  0  0  0
  -28.3606  -11.8598   18.8656 C   0  0  0  0  0  0
  -28.1798  -12.7939   20.1051 C   0  0  2  0  0  0
  -29.1950  -12.8857   21.1509 C   0  0  0  0  0  0
  -25.6105  -14.3451   21.7259 C   0  0  0  0  0  0
  -23.9900  -13.6301   21.1855 C   0  0  0  0  0  0
  -24.2446  -12.1872   20.0857 C   0  0  0  0  0  0
  -23.6881  -10.7236   20.5493 C   0  0  0  0  0  0
  -24.2627   -9.7248   21.4782 C   0  0  0  0  0  0
  -23.6426   -8.4839   21.8492 C   0  0  0  0  0  0
  -22.4014   -8.1377   21.2760 C   0  0  0  0  0  0
  -21.8403   -9.0725   20.3849 C   0  0  0  0  0  0
  -22.4467  -10.3092   20.0588 C   0  0  0  0  0  0
  -21.7436   -6.1234   22.5233 C   0  0  0  0  0  0
  -21.4453   -6.6018   23.8179 C   0  0  0  0  0  0
  -21.3817   -5.7059   24.9090 C   0  0  0  0  0  0
  -21.6069   -4.3299   24.7121 C   0  0  0  0  0  0
  -21.8841   -3.8453   23.4225 C   0  0  0  0  0  0
  -21.9427   -4.7361   22.3344 C   0  0  0  0  0  0
  -22.5925  -13.9011   21.4448 C   0  0  0  0  0  0
  -22.1742   -4.2468   21.0916 F   0  0  0  0  0  0
  -21.5533   -3.4714   25.7586 F   0  0  0  0  0  0
  -30.2497  -13.3639   20.3350 N   0  0  0  0  0  0
  -26.9719  -13.0998   20.6363 N   0  0  0  0  0  0
  -25.8895  -11.9659   19.7118 N   0  0  0  0  0  0
  -21.9533  -12.9763   22.1507 N   0  0  0  0  0  0
  -25.8759  -15.5894   22.1573 N   0  0  0  0  0  0
  -31.6079  -15.0520   20.0228 O   0  0  0  0  0  0
  -21.7208   -6.9371   21.4093 O   0  0  0  0  0  0
  -22.0488  -14.8106   20.8404 O   0  0  0  0  0  0
  -24.6783  -31.8140   23.1769 C   0  0  0  0  0  0
  -25.9491  -32.4451   23.8156 C   0  0  1  0  0  0
  -26.8316  -26.6638   20.1077 C   0  0  0  0  0  0
  -25.6151  -33.8291   24.2032 N   0  0  0  0  0  0
  -23.4725  -30.4607   21.5418 C   0  0  2  0  0  0
  -24.8534  -28.8585   20.0855 C   0  0  0  0  0  0
  -22.7654  -29.4429   22.4759 C   0  0  0  0  0  0
  -18.0326  -28.1395   22.8477 C   0  0  0  0  0  0
  -24.1523  -36.7105   23.2648 C   0  0  0  0  0  0
  -26.0595  -30.5041   21.4616 C   0  0  0  0  0  0
  -26.0465  -29.0899   20.7789 C   0  0  0  0  0  0
  -27.0483  -27.9880   20.8024 C   0  0  0  0  0  0
  -25.7719  -26.7842   19.2214 C   0  0  0  0  0  0
  -24.7565  -27.7364   19.2792 C   0  0  0  0  0  0
  -23.6961  -29.8413   20.1475 C   0  0  0  0  0  0
  -25.4177  -36.2844   24.0268 C   0  0  1  0  0  0
  -20.5952  -28.3729   23.1170 C   0  0  2  0  0  0
  -20.6800  -26.9409   22.5392 C   0  0  0  0  0  0
  -19.5757  -26.6366   21.5212 C   0  0  0  0  0  0
  -18.1943  -26.7928   22.1634 C   0  0  0  0  0  0
  -19.1593  -28.8891   23.2811 C   0  0  0  0  0  0
  -18.9496  -30.1482   23.8852 C   0  0  0  0  0  0
  -17.6484  -30.6590   24.0557 C   0  0  0  0  0  0
  -25.9193  -34.9250   23.4957 C   0  0  0  0  0  0
  -16.5372  -29.9080   23.6341 C   0  0  0  0  0  0
  -16.7305  -28.6492   23.0372 C   0  0  0  0  0  0
  -26.4657  -31.6439   25.0753 C   0  0  0  0  0  0
  -25.3737  -31.3778   26.1378 C   0  0  0  0  0  0
  -27.0541  -30.2731   24.6686 C   0  0  0  0  0  0
  -27.6096  -32.4281   25.7582 C   0  0  0  0  0  0
  -27.5566  -37.1711   24.8461 C   0  0  0  0  0  0
  -21.4323  -29.3028   22.3518 N   0  0  0  0  0  0
  -26.4265  -37.3619   23.9427 N   0  0  0  0  0  0
  -24.7640  -30.9610   22.1064 N   0  0  0  0  0  0
  -23.4213  -28.7926   23.2929 O   0  0  0  0  0  0
  -27.3805  -25.2361   20.1277 O   0  0  0  0  0  0
  -26.5742  -34.8804   22.4517 O   0  0  0  0  0  0
  -23.5855  -32.1297   23.6773 O   0  0  0  0  0  0
  -24.9435  -15.8232   19.6530 C   0  0  0  0  0  0
  -26.2705  -16.9893   18.0535 C   0  0  0  0  0  0
  -25.5389  -17.2782   19.2272 C   0  0  0  0  0  0
  -25.4475  -14.2205   19.5778 C   0  0  0  0  0  0
  -26.7179  -14.9804   18.9670 C   0  0  0  0  0  0
  -28.0376  -15.6201   19.7800 C   0  0  0  0  0  0
  -26.7364  -21.9240   20.0909 C   0  0  0  0  0  0
  -25.5264  -23.7573   18.6306 C   0  0  0  0  0  0
  -25.9767  -20.3993   19.3604 C   0  0  0  0  0  0
  -26.4663  -23.7340   19.8568 C   0  0  2  0  0  0
  -26.6454  -15.7056   17.8057 N   0  0  0  0  0  0
  -25.5156  -12.2012   21.9094 N   0  0  0  0  0  0
  -25.6147  -18.7767   19.8103 N   0  0  0  0  0  0
  -29.3886  -15.3932   19.4640 N   0  0  0  0  0  0
  -27.8943  -16.4489   20.6762 O   0  0  0  0  0  0
  -27.6153  -21.6636   20.9182 O   0  0  0  0  0  0
  -31.7206  -12.6561   18.9683 H   0  0  0  0  0  0
  -30.9319  -11.4049   19.8892 H   0  0  0  0  0  0
  -30.0390  -11.3711   17.5610 H   0  0  0  0  0  0
  -29.6836  -13.0736   17.6139 H   0  0  0  0  0  0
  -28.3344  -10.8182   19.1895 H   0  0  0  0  0  0
  -27.6174  -11.9660   18.0683 H   0  0  0  0  0  0
  -28.2716  -13.4105   19.2818 H   0  0  0  0  0  0
  -29.4158  -11.9175   21.6025 H   0  0  0  0  0  0
  -28.9626  -13.5924   21.9528 H   0  0  0  0  0  0
  -25.2349   -9.8671   21.9168 H   0  0  0  0  0  0
  -24.1514   -7.8032   22.5168 H   0  0  0  0  0  0
  -20.8948   -8.8321   19.9194 H   0  0  0  0  0  0
  -21.9260  -10.9630   19.3725 H   0  0  0  0  0  0
  -21.2510   -7.6527   23.9762 H   0  0  0  0  0  0
  -21.1560   -6.0757   25.8992 H   0  0  0  0  0  0
  -22.0432   -2.7895   23.2640 H   0  0  0  0  0  0
  -22.4826  -12.2075   22.5394 H   0  0  0  0  0  0
  -20.9570  -13.0393   22.3115 H   0  0  0  0  0  0
  -25.2355  -16.1126   22.7423 H   0  0  0  0  0  0
  -26.7948  -16.0225   22.0964 H   0  0  0  0  0  0
  -26.7502  -32.4790   23.0773 H   0  0  0  0  0  0
  -25.0280  -33.9359   25.0173 H   0  0  0  0  0  0
  -22.7930  -31.3048   21.4074 H   0  0  0  0  0  0
  -23.3782  -35.9429   23.3247 H   0  0  0  0  0  0
  -24.3590  -36.8835   22.2073 H   0  0  0  0  0  0
  -23.7300  -37.6273   23.6772 H   0  0  0  0  0  0
  -26.3065  -31.2308   20.6862 H   0  0  0  0  0  0
  -26.9072  -30.5192   22.1311 H   0  0  0  0  0  0
  -27.9129  -28.0966   21.4432 H   0  0  0  0  0  0
  -25.6475  -26.0744   18.4404 H   0  0  0  0  0  0
  -23.8950  -27.6039   18.6379 H   0  0  0  0  0  0
  -23.9049  -30.6346   19.4292 H   0  0  0  0  0  0
  -22.7773  -29.3665   19.7987 H   0  0  0  0  0  0
  -25.1384  -36.1561   25.0743 H   0  0  0  0  0  0
  -21.0050  -28.3319   24.1284 H   0  0  0  0  0  0
  -20.5686  -26.2334   23.3631 H   0  0  0  0  0  0
  -21.6653  -26.7378   22.1177 H   0  0  0  0  0  0
  -19.6903  -25.6268   21.1250 H   0  0  0  0  0  0
  -19.6689  -27.3172   20.6732 H   0  0  0  0  0  0
  -17.4208  -26.6675   21.4039 H   0  0  0  0  0  0
  -18.0331  -26.0097   22.9057 H   0  0  0  0  0  0
  -19.7974  -30.7314   24.2189 H   0  0  0  0  0  0
  -17.5040  -31.6273   24.5157 H   0  0  0  0  0  0
  -15.5368  -30.2976   23.7690 H   0  0  0  0  0  0
  -15.8697  -28.0801   22.7114 H   0  0  0  0  0  0
  -24.5936  -30.7102   25.7708 H   0  0  0  0  0  0
  -24.8933  -32.3009   26.4616 H   0  0  0  0  0  0
  -25.7938  -30.9068   27.0271 H   0  0  0  0  0  0
  -26.3219  -29.6317   24.1763 H   0  0  0  0  0  0
  -27.3983  -29.7195   25.5432 H   0  0  0  0  0  0
  -27.9229  -30.3769   24.0185 H   0  0  0  0  0  0
  -27.2581  -33.3564   26.2079 H   0  0  0  0  0  0
  -28.3951  -32.6879   25.0481 H   0  0  0  0  0  0
  -28.0721  -31.8501   26.5592 H   0  0  0  0  0  0
  -28.2494  -38.0084   24.7529 H   0  0  0  0  0  0
  -28.1141  -36.2596   24.6247 H   0  0  0  0  0  0
  -27.2267  -37.1281   25.8853 H   0  0  0  0  0  0
  -20.9551  -29.8794   21.6733 H   0  0  0  0  0  0
  -26.0044  -38.2621   24.1510 H   0  0  0  0  0  0
  -24.1761  -16.0081   20.3835 H   0  0  0  0  0  0
  -26.6738  -17.7572   17.4075 H   0  0  0  0  0  0
  -25.1003  -22.7830   18.4061 H   0  0  0  0  0  0
  -26.0289  -24.0916   17.7240 H   0  0  0  0  0  0
  -24.6388  -24.3614   18.8206 H   0  0  0  0  0  0
  -25.0073  -20.7498   19.0096 H   0  0  0  0  0  0
  -26.5514  -20.2756   18.4426 H   0  0  0  0  0  0
  -25.7797  -23.8631   20.6933 H   0  0  0  0  0  0
  -25.8925  -11.3586   21.4848 H   0  0  0  0  0  0
  -26.1337  -12.4378   22.6809 H   0  0  0  0  0  0
  -25.2664  -18.7946   20.7681 H   0  0  0  0  0  0
  -29.7864  -16.2474   19.1101 H   0  0  0  0  0  0
  1 25  1  0  0  0
  1 30  2  0  0  0
  1 84  1  0  0  0
  2  3  1  0  0  0
  2 25  1  0  0  0
  2 87  1  0  0  0
  2 88  1  0  0  0
  3  4  1  0  0  0
  3 89  1  0  0  0
  3 90  1  0  0  0
  4  5  1  0  0  0
  4 91  1  0  0  0
  4 92  1  0  0  0
  5  6  1  0  0  0
  5 26  1  0  0  0
  5 93  1  0  0  0
  6 25  1  0  0  0
  6 94  1  0  0  0
  6 95  1  0  0  0
  7  8  2  0  0  0
  7 26  1  0  0  0
  7 29  1  0  0  0
  8  9  1  0  0  0
  8 22  1  0  0  0
  9 10  1  0  0  0
  9 27  2  0  0  0
 10 11  2  0  0  0
 10 15  1  0  0  0
 11 12  1  0  0  0
 11 96  1  0  0  0
 12 13  2  0  0  0
 12 97  1  0  0  0
 13 14  1  0  0  0
 13 31  1  0  0  0
 14 15  2  0  0  0
 14 98  1  0  0  0
 15 99  1  0  0  0
 16 17  2  0  0  0
 16 21  1  0  0  0
 16 31  1  0  0  0
 17 18  1  0  0  0
 17100  1  0  0  0
 18 19  2  0  0  0
 18101  1  0  0  0
 19 20  1  0  0  0
 19 24  1  0  0  0
 20 21  2  0  0  0
 20102  1  0  0  0
 21 23  1  0  0  0
 22 28  1  0  0  0
 22 32  2  0  0  0
 26 27  1  0  0  0
 28103  1  0  0  0
 28104  1  0  0  0
 29105  1  0  0  0
 29106  1  0  0  0
 33 34  1  0  0  0
 33 66  1  0  0  0
 33 70  2  0  0  0
 34 36  1  0  0  0
 34 59  1  0  0  0
 34107  1  0  0  0
 35 44  2  0  0  0
 35 45  1  0  0  0
 35 68  1  0  0  0
 36 56  1  0  0  0
 36108  1  0  0  0
 37 39  1  0  0  0
 37 47  1  0  0  0
 37 66  1  0  0  0
 37109  1  0  0  0
 38 43  2  0  0  0
 38 46  1  0  0  0
 38 47  1  0  0  0
 39 64  1  0  0  0
 39 67  2  0  0  0
 40 52  1  0  0  0
 40 53  2  0  0  0
 40 58  1  0  0  0
 41110  1  0  0  0
 41111  1  0  0  0
 41112  1  0  0  0
 41 48  1  0  0  0
 42 43  1  0  0  0
 42 66  1  0  0  0
 42113  1  0  0  0
 42114  1  0  0  0
 43 44  1  0  0  0
 44115  1  0  0  0
 45 46  2  0  0  0
 45116  1  0  0  0
 46117  1  0  0  0
 47118  1  0  0  0
 47119  1  0  0  0
 48 56  1  0  0  0
 48 65  1  0  0  0
 48120  1  0  0  0
 49 50  1  0  0  0
 49 53  1  0  0  0
 49 64  1  0  0  0
 49121  1  0  0  0
 50 51  1  0  0  0
 50122  1  0  0  0
 50123  1  0  0  0
 51 52  1  0  0  0
 51124  1  0  0  0
 51125  1  0  0  0
 52126  1  0  0  0
 52127  1  0  0  0
 53 54  1  0  0  0
 54 55  2  0  0  0
 54128  1  0  0  0
 55 57  1  0  0  0
 55129  1  0  0  0
 56 69  2  0  0  0
 57 58  2  0  0  0
 57130  1  0  0  0
 58131  1  0  0  0
 59 60  1  0  0  0
 59 61  1  0  0  0
 59 62  1  0  0  0
 60132  1  0  0  0
 60133  1  0  0  0
 60134  1  0  0  0
 61135  1  0  0  0
 61136  1  0  0  0
 61137  1  0  0  0
 62138  1  0  0  0
 62139  1  0  0  0
 62140  1  0  0  0
 63 65  1  0  0  0
 63141  1  0  0  0
 63142  1  0  0  0
 63143  1  0  0  0
 64144  1  0  0  0
 65145  1  0  0  0
 68 80  1  0  0  0
 71 73  2  0  0  0
 71 74  1  0  0  0
 71146  1  0  0  0
 72 73  1  0  0  0
 72 81  2  0  0  0
 72147  1  0  0  0
 73 83  1  0  0  0
 74 75  2  0  0  0
 74 82  1  0  0  0
 75 76  1  0  0  0
 75 81  1  0  0  0
 76 84  1  0  0  0
 76 85  2  0  0  0
 77 79  1  0  0  0
 77 80  1  0  0  0
 77 86  2  0  0  0
 78148  1  0  0  0
 78149  1  0  0  0
 78150  1  0  0  0
 78 80  1  0  0  0
 79 83  1  0  0  0
 79151  1  0  0  0
 79152  1  0  0  0
 80153  1  0  0  0
 82154  1  0  0  0
 82155  1  0  0  0
 83156  1  0  0  0
 84157  1  0  0  0
M  ISO  4   1 100  68 101  80 101  84 100
M  END
> <chiral flag>
0

> <version>
0

> <s_m_source_file>
/data/baiqing/PycharmProjects/Reinvent-master-3.2/result/LINK_invent/BTK/process_docking_weight1_custom_product_contain_oxygen_bond_distance_aromatic_linkinvent_7_9_3/rearranged_h_0163.sdf

> <i_m_source_file_index>
27

> <r_mmod_Potential_Energy-OPLS-2005>
16349.322265625

> <r_mmod_Stretch_Energy-OPLS-2005>
9611.8876953125

> <r_mmod_Bend_Energy-OPLS-2005>
1118.97448730469

> <r_mmod_Torsional_Energy-OPLS-2005>
731.260070800781

> <r_mmod_Improper_Torsional_Energy-OPLS-2005>
99.0123062133789

> <r_mmod_Van_der_Waal_Energy-OPLS-2005>
3655.57543945312

> <r_mmod_Electrostatic_Energy-OPLS-2005>
-390.012725830078

> <r_mmod_Solvation_Energy-OPLS-2005>
-238.709060668945

> <b_mmod_Minimization_Converged-OPLS-2005>
0

> <r_mmod_RMS_Derivative-OPLS-2005>
8.34159851074219

$$$$
27
                    3D
 Structure written by MMmdl.
156164  0  0  1  0            999 V2000
  -30.5699  -14.8027   20.4414 C   0  0  0  0  0  0
  -30.4395  -12.4905   19.4736 C   0  0  0  0  0  0
  -29.5110  -12.5054   18.2376 C   0  0  0  0  0  0
  -28.0405  -12.3145   18.6583 C   0  0  0  0  0  0
  -27.6374  -13.2277   19.8460 C   0  0  2  0  0  0
  -28.6833  -13.1844   20.9803 C   0  0  0  0  0  0
  -25.2511  -13.8187   20.5701 C   0  0  0  0  0  0
  -24.1803  -13.0434   20.9217 C   0  0  0  0  0  0
  -24.6388  -11.6908   20.8754 C   0  0  0  0  0  0
  -23.9066  -10.4287   21.0412 C   0  0  0  0  0  0
  -24.3619   -9.4200   21.9188 C   0  0  0  0  0  0
  -23.6289   -8.2238   22.0755 C   0  0  0  0  0  0
  -22.4273   -8.0278   21.3543 C   0  0  0  0  0  0
  -21.9910   -9.0254   20.4647 C   0  0  0  0  0  0
  -22.7240  -10.2132   20.3058 C   0  0  0  0  0  0
  -21.6856   -6.0732   22.5275 C   0  0  0  0  0  0
  -21.4015   -6.5637   23.8207 C   0  0  0  0  0  0
  -21.3660   -5.6791   24.9170 C   0  0  0  0  0  0
  -21.6042   -4.3053   24.7225 C   0  0  0  0  0  0
  -21.8820   -3.8145   23.4346 C   0  0  0  0  0  0
  -21.9193   -4.6960   22.3399 C   0  0  0  0  0  0
  -22.7821  -13.5214   21.1866 C   0  0  0  0  0  0
  -22.1662   -4.2145   21.0976 F   0  0  0  0  0  0
  -21.5629   -3.4536   25.7739 F   0  0  0  0  0  0
  -29.9752  -13.5575   20.3919 N   0  0  0  0  0  0
  -26.2919  -12.9377   20.3263 N   0  0  0  0  0  0
  -25.9316  -11.6523   20.5753 N   0  0  0  0  0  0
  -22.0477  -12.8203   22.0427 N   0  0  0  0  0  0
  -25.4188  -15.1913   20.4115 N   0  0  0  0  0  0
  -31.7692  -14.9027   20.1583 O   0  0  0  0  0  0
  -21.6638   -6.8875   21.4235 O   0  0  0  0  0  0
  -22.3504  -14.5523   20.6720 O   0  0  0  0  0  0
  -24.6337  -31.8517   23.1944 C   0  0  0  0  0  0
  -25.9149  -32.4738   23.8300 C   0  0  1  0  0  0
  -27.2163  -27.2306   20.1468 C   0  0  0  0  0  0
  -25.5937  -33.8543   24.2227 N   0  0  0  0  0  0
  -23.4324  -30.4716   21.5389 C   0  0  2  0  0  0
  -24.8803  -28.9096   20.1110 C   0  0  0  0  0  0
  -22.7513  -29.4586   22.4907 C   0  0  0  0  0  0
  -18.0294  -28.1387   22.8475 C   0  0  0  0  0  0
  -24.1496  -36.7275   23.2644 C   0  0  0  0  0  0
  -25.9789  -30.7553   21.3774 C   0  0  0  0  0  0
  -26.0520  -29.3728   20.7243 C   0  0  0  0  0  0
  -27.2256  -28.5475   20.7271 C   0  0  0  0  0  0
  -26.0286  -26.8420   19.4944 C   0  0  0  0  0  0
  -24.8745  -27.6530   19.4831 C   0  0  0  0  0  0
  -23.6525  -29.8011   20.1566 C   0  0  0  0  0  0
  -25.4122  -36.3057   24.0324 C   0  0  1  0  0  0
  -20.5899  -28.3700   23.1260 C   0  0  2  0  0  0
  -20.6785  -26.9415   22.5411 C   0  0  0  0  0  0
  -19.5764  -26.6383   21.5210 C   0  0  0  0  0  0
  -18.1939  -26.7931   22.1619 C   0  0  0  0  0  0
  -19.1547  -28.8858   23.2861 C   0  0  0  0  0  0
  -18.9473  -30.1452   23.8885 C   0  0  0  0  0  0
  -17.6476  -30.6587   24.0558 C   0  0  0  0  0  0
  -25.9068  -34.9433   23.5085 C   0  0  0  0  0  0
  -16.5362  -29.9082   23.6338 C   0  0  0  0  0  0
  -16.7283  -28.6501   23.0355 C   0  0  0  0  0  0
  -26.4510  -31.6571   25.0697 C   0  0  0  0  0  0
  -25.3731  -31.3729   26.1416 C   0  0  0  0  0  0
  -27.0365  -30.2988   24.6195 C   0  0  0  0  0  0
  -27.6061  -32.4318   25.7473 C   0  0  0  0  0  0
  -27.5575  -37.1791   24.8467 C   0  0  0  0  0  0
  -21.4221  -29.3038   22.3647 N   0  0  0  0  0  0
  -26.4293  -37.3754   23.9407 N   0  0  0  0  0  0
  -24.7009  -31.0453   22.0936 N   0  0  0  0  0  0
  -23.4186  -28.8142   23.3037 O   0  0  0  0  0  0
  -28.3025  -26.3177   20.1536 O   0  0  0  0  0  0
  -26.5649  -34.8909   22.4657 O   0  0  0  0  0  0
  -23.5486  -32.1366   23.7218 O   0  0  0  0  0  0
  -31.1594  -17.9768   20.6675 C   0  0  0  0  0  0
  -30.9338  -19.4055   20.5718 C   0  0  0  0  0  0
  -29.9634  -17.3203   20.5308 C   0  0  0  0  0  0
  -29.5745  -19.6046   20.3898 C   0  0  0  0  0  0
  -31.9856  -20.4532   20.5825 C   0  0  0  0  0  0
  -28.5237  -23.5914   20.0503 C   0  0  0  0  0  0
  -33.2132  -20.1722   21.4392 C   0  0  0  0  0  0
  -26.9832  -24.8048   21.7476 C   0  0  0  0  0  0
  -28.9748  -22.2168   20.7943 C   0  0  0  0  0  0
  -28.2382  -24.9665   20.8650 C   0  0  2  0  0  0
  -29.7414  -15.9217   20.5819 N   0  0  0  0  0  0
  -28.8142  -20.8369   20.1356 N   0  0  0  0  0  0
  -31.9273  -21.4995   19.9301 O   0  0  0  0  0  0
  -28.3863  -23.5768   18.8233 O   0  0  0  0  0  0
  -28.9719  -18.3194   20.3610 O   0  0  0  0  0  0
  -31.4761  -12.6360   19.1654 H   0  0  0  0  0  0
  -30.4063  -11.5190   19.9708 H   0  0  0  0  0  0
  -29.8028  -11.7224   17.5368 H   0  0  0  0  0  0
  -29.6196  -13.4509   17.7025 H   0  0  0  0  0  0
  -27.9155  -11.2695   18.9410 H   0  0  0  0  0  0
  -27.3761  -12.4797   17.8087 H   0  0  0  0  0  0
  -27.6233  -14.2415   19.4473 H   0  0  0  0  0  0
  -28.7359  -12.1903   21.4279 H   0  0  0  0  0  0
  -28.4090  -13.8664   21.7866 H   0  0  0  0  0  0
  -25.2765   -9.5676   22.4759 H   0  0  0  0  0  0
  -24.0001   -7.4629   22.7474 H   0  0  0  0  0  0
  -21.0844   -8.8773   19.8952 H   0  0  0  0  0  0
  -22.3702  -10.9671   19.6168 H   0  0  0  0  0  0
  -21.2010   -7.6147   23.9709 H   0  0  0  0  0  0
  -21.1479   -6.0522   25.9072 H   0  0  0  0  0  0
  -22.0601   -2.7607   23.2846 H   0  0  0  0  0  0
  -22.4111  -11.9861   22.4797 H   0  0  0  0  0  0
  -21.1094  -13.1214   22.2647 H   0  0  0  0  0  0
  -24.6472  -15.8396   20.5226 H   0  0  0  0  0  0
  -26.2545  -15.6342   20.0523 H   0  0  0  0  0  0
  -26.7201  -32.5382   23.1033 H   0  0  0  0  0  0
  -25.0073  -33.9667   25.0362 H   0  0  0  0  0  0
  -22.7311  -31.2952   21.3888 H   0  0  0  0  0  0
  -23.3757  -35.9609   23.3320 H   0  0  0  0  0  0
  -24.3583  -36.8892   22.2055 H   0  0  0  0  0  0
  -23.7256  -37.6481   23.6668 H   0  0  0  0  0  0
  -26.1202  -31.5122   20.6043 H   0  0  0  0  0  0
  -26.8557  -30.8070   22.0111 H   0  0  0  0  0  0
  -28.1257  -28.8991   21.2121 H   0  0  0  0  0  0
  -25.9852  -25.8766   19.0090 H   0  0  0  0  0  0
  -23.9803  -27.2958   18.9906 H   0  0  0  0  0  0
  -23.7784  -30.5761   19.3992 H   0  0  0  0  0  0
  -22.7694  -29.2361   19.8541 H   0  0  0  0  0  0
  -25.1309  -36.1906   25.0818 H   0  0  0  0  0  0
  -20.9980  -28.3285   24.1387 H   0  0  0  0  0  0
  -20.5691  -26.2306   23.3619 H   0  0  0  0  0  0
  -21.6648  -26.7448   22.1199 H   0  0  0  0  0  0
  -19.6937  -25.6295   21.1241 H   0  0  0  0  0  0
  -19.6706  -27.3197   20.6740 H   0  0  0  0  0  0
  -17.4214  -26.6676   21.4016 H   0  0  0  0  0  0
  -18.0326  -26.0072   22.9012 H   0  0  0  0  0  0
  -19.7952  -30.7256   24.2253 H   0  0  0  0  0  0
  -17.5040  -31.6269   24.5160 H   0  0  0  0  0  0
  -15.5366  -30.2984   23.7669 H   0  0  0  0  0  0
  -15.8683  -28.0819   22.7078 H   0  0  0  0  0  0
  -24.5922  -30.7058   25.7750 H   0  0  0  0  0  0
  -24.8899  -32.2897   26.4806 H   0  0  0  0  0  0
  -25.8041  -30.8942   27.0218 H   0  0  0  0  0  0
  -26.2949  -29.6717   24.1231 H   0  0  0  0  0  0
  -27.4064  -29.7267   25.4715 H   0  0  0  0  0  0
  -27.8819  -30.4263   23.9430 H   0  0  0  0  0  0
  -27.2676  -33.3640   26.2009 H   0  0  0  0  0  0
  -28.3887  -32.6847   25.0308 H   0  0  0  0  0  0
  -28.0708  -31.8471   26.5422 H   0  0  0  0  0  0
  -28.2604  -38.0074   24.7498 H   0  0  0  0  0  0
  -28.1061  -36.2610   24.6323 H   0  0  0  0  0  0
  -27.2292  -37.1468   25.8868 H   0  0  0  0  0  0
  -20.9412  -29.8744   21.6840 H   0  0  0  0  0  0
  -26.0181  -38.2834   24.1398 H   0  0  0  0  0  0
  -32.1164  -17.4932   20.8009 H   0  0  0  0  0  0
  -34.0138  -19.7631   20.8232 H   0  0  0  0  0  0
  -32.9783  -19.4611   22.2314 H   0  0  0  0  0  0
  -33.5649  -21.0941   21.9017 H   0  0  0  0  0  0
  -27.0525  -23.9204   22.3796 H   0  0  0  0  0  0
  -26.0786  -24.6959   21.1494 H   0  0  0  0  0  0
  -26.8521  -25.6592   22.4117 H   0  0  0  0  0  0
  -28.4167  -22.1821   21.7299 H   0  0  0  0  0  0
  -30.0069  -22.3581   21.1055 H   0  0  0  0  0  0
  -29.0754  -25.0194   21.5609 H   0  0  0  0  0  0
  -28.7718  -15.6690   20.6919 H   0  0  0  0  0  0
  -27.8672  -20.6859   19.7952 H   0  0  0  0  0  0
  1 25  1  0  0  0
  1 30  2  0  0  0
  1 81  1  0  0  0
  2  3  1  0  0  0
  2 25  1  0  0  0
  2 86  1  0  0  0
  2 87  1  0  0  0
  3  4  1  0  0  0
  3 88  1  0  0  0
  3 89  1  0  0  0
  4  5  1  0  0  0
  4 90  1  0  0  0
  4 91  1  0  0  0
  5  6  1  0  0  0
  5 26  1  0  0  0
  5 92  1  0  0  0
  6 25  1  0  0  0
  6 93  1  0  0  0
  6 94  1  0  0  0
  7  8  2  0  0  0
  7 26  1  0  0  0
  7 29  1  0  0  0
  8  9  1  0  0  0
  8 22  1  0  0  0
  9 10  1  0  0  0
  9 27  2  0  0  0
 10 11  2  0  0  0
 10 15  1  0  0  0
 11 12  1  0  0  0
 11 95  1  0  0  0
 12 13  2  0  0  0
 12 96  1  0  0  0
 13 14  1  0  0  0
 13 31  1  0  0  0
 14 15  2  0  0  0
 14 97  1  0  0  0
 15 98  1  0  0  0
 16 17  2  0  0  0
 16 21  1  0  0  0
 16 31  1  0  0  0
 17 18  1  0  0  0
 17 99  1  0  0  0
 18 19  2  0  0  0
 18100  1  0  0  0
 19 20  1  0  0  0
 19 24  1  0  0  0
 20 21  2  0  0  0
 20101  1  0  0  0
 21 23  1  0  0  0
 22 28  1  0  0  0
 22 32  2  0  0  0
 26 27  1  0  0  0
 28102  1  0  0  0
 28103  1  0  0  0
 29104  1  0  0  0
 29105  1  0  0  0
 33 34  1  0  0  0
 33 66  1  0  0  0
 33 70  2  0  0  0
 34 36  1  0  0  0
 34 59  1  0  0  0
 34106  1  0  0  0
 35 44  2  0  0  0
 35 45  1  0  0  0
 35 68  1  0  0  0
 36 56  1  0  0  0
 36107  1  0  0  0
 37 39  1  0  0  0
 37 47  1  0  0  0
 37 66  1  0  0  0
 37108  1  0  0  0
 38 43  2  0  0  0
 38 46  1  0  0  0
 38 47  1  0  0  0
 39 64  1  0  0  0
 39 67  2  0  0  0
 40 52  1  0  0  0
 40 53  2  0  0  0
 40 58  1  0  0  0
 41109  1  0  0  0
 41110  1  0  0  0
 41111  1  0  0  0
 41 48  1  0  0  0
 42 43  1  0  0  0
 42 66  1  0  0  0
 42112  1  0  0  0
 42113  1  0  0  0
 43 44  1  0  0  0
 44114  1  0  0  0
 45 46  2  0  0  0
 45115  1  0  0  0
 46116  1  0  0  0
 47117  1  0  0  0
 47118  1  0  0  0
 48 56  1  0  0  0
 48 65  1  0  0  0
 48119  1  0  0  0
 49 50  1  0  0  0
 49 53  1  0  0  0
 49 64  1  0  0  0
 49120  1  0  0  0
 50 51  1  0  0  0
 50121  1  0  0  0
 50122  1  0  0  0
 51 52  1  0  0  0
 51123  1  0  0  0
 51124  1  0  0  0
 52125  1  0  0  0
 52126  1  0  0  0
 53 54  1  0  0  0
 54 55  2  0  0  0
 54127  1  0  0  0
 55 57  1  0  0  0
 55128  1  0  0  0
 56 69  2  0  0  0
 57 58  2  0  0  0
 57129  1  0  0  0
 58130  1  0  0  0
 59 60  1  0  0  0
 59 61  1  0  0  0
 59 62  1  0  0  0
 60131  1  0  0  0
 60132  1  0  0  0
 60133  1  0  0  0
 61134  1  0  0  0
 61135  1  0  0  0
 61136  1  0  0  0
 62137  1  0  0  0
 62138  1  0  0  0
 62139  1  0  0  0
 63 65  1  0  0  0
 63140  1  0  0  0
 63141  1  0  0  0
 63142  1  0  0  0
 64143  1  0  0  0
 65144  1  0  0  0
 68 80  1  0  0  0
 71 72  1  0  0  0
 71 73  2  0  0  0
 71145  1  0  0  0
 72 74  2  0  0  0
 72 75  1  0  0  0
 73 81  1  0  0  0
 73 85  1  0  0  0
 74 82  1  0  0  0
 74 85  1  0  0  0
 75 77  1  0  0  0
 75 83  2  0  0  0
 76 79  1  0  0  0
 76 80  1  0  0  0
 76 84  2  0  0  0
 77146  1  0  0  0
 77147  1  0  0  0
 77148  1  0  0  0
 78149  1  0  0  0
 78150  1  0  0  0
 78151  1  0  0  0
 78 80  1  0  0  0
 79 82  1  0  0  0
 79152  1  0  0  0
 79153  1  0  0  0
 80154  1  0  0  0
 81155  1  0  0  0
 82156  1  0  0  0
M  ISO  4   1 100  68 101  80 101  81 100
M  END
> <chiral flag>
0

> <version>
0

> <s_m_source_file>
/data/baiqing/PycharmProjects/Reinvent-master-3.2/result/LINK_invent/BTK/process_docking_weight1_custom_product_contain_oxygen_bond_distance_aromatic_linkinvent_7_9_3/rearranged_h_0163.sdf

> <i_m_source_file_index>
28

> <r_mmod_Potential_Energy-OPLS-2005>
294.276885986328

> <r_mmod_Stretch_Energy-OPLS-2005>
148.988739013672

> <r_mmod_Bend_Energy-OPLS-2005>
208.279281616211

> <r_mmod_Torsional_Energy-OPLS-2005>
276.35791015625

> <r_mmod_Improper_Torsional_Energy-OPLS-2005>
7.5246434211731

> <r_mmod_Van_der_Waal_Energy-OPLS-2005>
114.318489074707

> <r_mmod_Electrostatic_Energy-OPLS-2005>
-313.705535888672

> <r_mmod_Solvation_Energy-OPLS-2005>
-256.208435058594

> <b_mmod_Minimization_Converged-OPLS-2005>
0

> <r_mmod_RMS_Derivative-OPLS-2005>
1.70558679103851

$$$$
28
                    3D
 Structure written by MMmdl.
152160  0  0  1  0            999 V2000
  -30.7185  -14.5845   20.5213 C   0  0  0  0  0  0
  -30.4092  -12.3684   19.4613 C   0  0  0  0  0  0
  -29.4972  -12.4910   18.2246 C   0  0  0  0  0  0
  -28.0221  -12.3200   18.6320 C   0  0  0  0  0  0
  -27.6436  -13.2036   19.8483 C   0  0  2  0  0  0
  -28.6868  -13.0848   20.9868 C   0  0  0  0  0  0
  -25.2532  -13.8133   20.5635 C   0  0  0  0  0  0
  -24.1813  -13.0417   20.9206 C   0  0  0  0  0  0
  -24.6362  -11.6886   20.8753 C   0  0  0  0  0  0
  -23.9039  -10.4278   21.0420 C   0  0  0  0  0  0
  -24.3598   -9.4199   21.9193 C   0  0  0  0  0  0
  -23.6280   -8.2234   22.0760 C   0  0  0  0  0  0
  -22.4268   -8.0266   21.3544 C   0  0  0  0  0  0
  -21.9895   -9.0240   20.4653 C   0  0  0  0  0  0
  -22.7216  -10.2125   20.3067 C   0  0  0  0  0  0
  -21.6853   -6.0725   22.5276 C   0  0  0  0  0  0
  -21.4012   -6.5630   23.8207 C   0  0  0  0  0  0
  -21.3656   -5.6786   24.9168 C   0  0  0  0  0  0
  -21.6050   -4.3049   24.7219 C   0  0  0  0  0  0
  -21.8822   -3.8137   23.4338 C   0  0  0  0  0  0
  -21.9190   -4.6954   22.3395 C   0  0  0  0  0  0
  -22.7846  -13.5231   21.1858 C   0  0  0  0  0  0
  -22.1668   -4.2142   21.0972 F   0  0  0  0  0  0
  -21.5626   -3.4531   25.7730 F   0  0  0  0  0  0
  -29.9994  -13.4172   20.4242 N   0  0  0  0  0  0
  -26.2932  -12.9293   20.3236 N   0  0  0  0  0  0
  -25.9276  -11.6463   20.5735 N   0  0  0  0  0  0
  -22.0470  -12.8243   22.0410 N   0  0  0  0  0  0
  -25.4181  -15.1848   20.3952 N   0  0  0  0  0  0
  -31.8812  -14.6039   20.1152 O   0  0  0  0  0  0
  -21.6634   -6.8867   21.4239 O   0  0  0  0  0  0
  -22.3551  -14.5534   20.6689 O   0  0  0  0  0  0
  -24.6202  -31.8643   23.2057 C   0  0  0  0  0  0
  -25.9075  -32.4798   23.8377 C   0  0  1  0  0  0
  -27.2231  -27.3774   20.1209 C   0  0  0  0  0  0
  -25.5906  -33.8597   24.2308 N   0  0  0  0  0  0
  -23.4118  -30.4883   21.5453 C   0  0  2  0  0  0
  -24.8596  -28.9464   20.1125 C   0  0  0  0  0  0
  -22.7441  -29.4666   22.4947 C   0  0  0  0  0  0
  -18.0281  -28.1386   22.8495 C   0  0  0  0  0  0
  -24.1489  -36.7306   23.2641 C   0  0  0  0  0  0
  -25.9455  -30.8148   21.3666 C   0  0  0  0  0  0
  -26.0232  -29.4450   20.7130 C   0  0  0  0  0  0
  -27.2132  -28.6705   20.7085 C   0  0  0  0  0  0
  -26.0465  -26.9121   19.4994 C   0  0  0  0  0  0
  -24.8691  -27.6830   19.4975 C   0  0  0  0  0  0
  -23.6250  -29.8196   20.1609 C   0  0  0  0  0  0
  -25.4107  -36.3092   24.0337 C   0  0  1  0  0  0
  -20.5877  -28.3705   23.1285 C   0  0  2  0  0  0
  -20.6804  -26.9436   22.5412 C   0  0  0  0  0  0
  -19.5761  -26.6367   21.5242 C   0  0  0  0  0  0
  -18.1940  -26.7910   22.1672 C   0  0  0  0  0  0
  -19.1529  -28.8860   23.2884 C   0  0  0  0  0  0
  -18.9457  -30.1466   23.8898 C   0  0  0  0  0  0
  -17.6457  -30.6598   24.0574 C   0  0  0  0  0  0
  -25.9034  -34.9458   23.5118 C   0  0  0  0  0  0
  -16.5349  -29.9099   23.6335 C   0  0  0  0  0  0
  -16.7265  -28.6510   23.0354 C   0  0  0  0  0  0
  -26.4487  -31.6579   25.0717 C   0  0  0  0  0  0
  -25.3743  -31.3693   26.1458 C   0  0  0  0  0  0
  -27.0332  -30.3014   24.6119 C   0  0  0  0  0  0
  -27.6056  -32.4304   25.7484 C   0  0  0  0  0  0
  -27.5576  -37.1810   24.8468 C   0  0  0  0  0  0
  -21.4152  -29.3093   22.3705 N   0  0  0  0  0  0
  -26.4293  -37.3777   23.9405 N   0  0  0  0  0  0
  -24.6778  -31.0712   22.0976 N   0  0  0  0  0  0
  -23.4193  -28.8189   23.2994 O   0  0  0  0  0  0
  -28.3365  -26.5509   20.1489 O   0  0  0  0  0  0
  -26.5607  -34.8917   22.4686 O   0  0  0  0  0  0
  -23.5381  -32.1417   23.7418 O   0  0  0  0  0  0
  -28.8605  -18.9207   20.8554 C   0  0  0  0  0  0
  -27.2589  -17.7864   22.2581 C   0  0  0  0  0  0
  -27.1364  -20.0884   22.0818 C   0  0  0  0  0  0
  -28.3580  -17.6898   21.3827 C   0  0  0  0  0  0
  -28.2321  -20.1623   21.1915 C   0  0  0  0  0  0
  -28.8582  -16.3057   21.0820 C   0  0  0  0  0  0
  -30.1415  -15.8961   20.9267 C   0  0  0  0  0  0
  -28.4236  -22.6812   21.1128 C   0  0  0  0  0  0
  -28.6151  -23.9525   20.2221 C   0  0  0  0  0  0
  -28.1603  -25.3049   20.8944 C   0  0  0  0  0  0
  -26.6645  -18.9425   22.6082 N   0  0  0  0  0  0
  -28.6143  -21.4327   20.5940 N   0  0  0  0  0  0
  -28.1406  -22.8354   22.3025 O   0  0  0  0  0  0
  -31.4545  -12.4423   19.1563 H   0  0  0  0  0  0
  -30.3126  -11.3800   19.9129 H   0  0  0  0  0  0
  -29.7683  -11.7429   17.4788 H   0  0  0  0  0  0
  -29.6426  -13.4632   17.7508 H   0  0  0  0  0  0
  -27.8668  -11.2679   18.8749 H   0  0  0  0  0  0
  -27.3680  -12.5380   17.7874 H   0  0  0  0  0  0
  -27.6504  -14.2191   19.4589 H   0  0  0  0  0  0
  -28.7000  -12.0664   21.3780 H   0  0  0  0  0  0
  -28.4413  -13.7090   21.8443 H   0  0  0  0  0  0
  -25.2747   -9.5676   22.4762 H   0  0  0  0  0  0
  -23.9987   -7.4626   22.7483 H   0  0  0  0  0  0
  -21.0825   -8.8757   19.8961 H   0  0  0  0  0  0
  -22.3676  -10.9662   19.6173 H   0  0  0  0  0  0
  -21.2014   -7.6139   23.9703 H   0  0  0  0  0  0
  -21.1480   -6.0518   25.9070 H   0  0  0  0  0  0
  -22.0607   -2.7600   23.2838 H   0  0  0  0  0  0
  -22.4085  -11.9914   22.4818 H   0  0  0  0  0  0
  -21.1095  -13.1293   22.2605 H   0  0  0  0  0  0
  -24.6239  -15.8127   20.4548 H   0  0  0  0  0  0
  -26.2224  -15.6065   19.9502 H   0  0  0  0  0  0
  -26.7151  -32.5498   23.1147 H   0  0  0  0  0  0
  -25.0058  -33.9750   25.0451 H   0  0  0  0  0  0
  -22.7022  -31.3058   21.4025 H   0  0  0  0  0  0
  -23.3737  -35.9654   23.3318 H   0  0  0  0  0  0
  -24.3584  -36.8910   22.2053 H   0  0  0  0  0  0
  -23.7255  -37.6522   23.6649 H   0  0  0  0  0  0
  -26.0676  -31.5780   20.5965 H   0  0  0  0  0  0
  -26.8296  -30.8676   21.9900 H   0  0  0  0  0  0
  -28.1095  -29.0454   21.1827 H   0  0  0  0  0  0
  -26.0372  -25.9381   19.0298 H   0  0  0  0  0  0
  -23.9763  -27.2944   19.0277 H   0  0  0  0  0  0
  -23.7419  -30.5941   19.4018 H   0  0  0  0  0  0
  -22.7471  -29.2453   19.8592 H   0  0  0  0  0  0
  -25.1286  -36.1960   25.0831 H   0  0  0  0  0  0
  -20.9968  -28.3282   24.1404 H   0  0  0  0  0  0
  -20.5753  -26.2317   23.3612 H   0  0  0  0  0  0
  -21.6672  -26.7513   22.1194 H   0  0  0  0  0  0
  -19.6942  -25.6276   21.1279 H   0  0  0  0  0  0
  -19.6662  -27.3169   20.6761 H   0  0  0  0  0  0
  -17.4200  -26.6585   21.4096 H   0  0  0  0  0  0
  -18.0380  -26.0091   22.9119 H   0  0  0  0  0  0
  -19.7940  -30.7292   24.2250 H   0  0  0  0  0  0
  -17.5018  -31.6285   24.5159 H   0  0  0  0  0  0
  -15.5354  -30.3020   23.7650 H   0  0  0  0  0  0
  -15.8659  -28.0832   22.7073 H   0  0  0  0  0  0
  -24.5915  -30.7043   25.7793 H   0  0  0  0  0  0
  -24.8937  -32.2851   26.4909 H   0  0  0  0  0  0
  -25.8086  -30.8860   27.0215 H   0  0  0  0  0  0
  -26.2893  -29.6763   24.1166 H   0  0  0  0  0  0
  -27.4092  -29.7265   25.4593 H   0  0  0  0  0  0
  -27.8731  -30.4333   23.9294 H   0  0  0  0  0  0
  -27.2672  -33.3592   26.2087 H   0  0  0  0  0  0
  -28.3850  -32.6880   25.0300 H   0  0  0  0  0  0
  -28.0743  -31.8410   26.5377 H   0  0  0  0  0  0
  -28.2607  -38.0094   24.7485 H   0  0  0  0  0  0
  -28.1055  -36.2619   24.6326 H   0  0  0  0  0  0
  -27.2291  -37.1502   25.8874 H   0  0  0  0  0  0
  -20.9320  -29.8809   21.6915 H   0  0  0  0  0  0
  -26.0181  -38.2861   24.1379 H   0  0  0  0  0  0
  -29.6885  -18.9049   20.1623 H   0  0  0  0  0  0
  -26.8269  -16.8955   22.6909 H   0  0  0  0  0  0
  -26.5684  -20.9634   22.3596 H   0  0  0  0  0  0
  -28.0583  -15.6033   20.9595 H   0  0  0  0  0  0
  -30.8837  -16.6646   21.0889 H   0  0  0  0  0  0
  -28.0578  -23.8050   19.2968 H   0  0  0  0  0  0
  -29.6669  -24.0187   19.9463 H   0  0  0  0  0  0
  -28.7269  -25.4321   21.8176 H   0  0  0  0  0  0
  -27.1250  -25.1896   21.2225 H   0  0  0  0  0  0
  -29.0159  -21.3899   19.6661 H   0  0  0  0  0  0
  1 25  1  0  0  0
  1 30  2  0  0  0
  1 77  1  0  0  0
  2  3  1  0  0  0
  2 25  1  0  0  0
  2 84  1  0  0  0
  2 85  1  0  0  0
  3  4  1  0  0  0
  3 86  1  0  0  0
  3 87  1  0  0  0
  4  5  1  0  0  0
  4 88  1  0  0  0
  4 89  1  0  0  0
  5  6  1  0  0  0
  5 26  1  0  0  0
  5 90  1  0  0  0
  6 25  1  0  0  0
  6 91  1  0  0  0
  6 92  1  0  0  0
  7  8  2  0  0  0
  7 26  1  0  0  0
  7 29  1  0  0  0
  8  9  1  0  0  0
  8 22  1  0  0  0
  9 10  1  0  0  0
  9 27  2  0  0  0
 10 11  2  0  0  0
 10 15  1  0  0  0
 11 12  1  0  0  0
 11 93  1  0  0  0
 12 13  2  0  0  0
 12 94  1  0  0  0
 13 14  1  0  0  0
 13 31  1  0  0  0
 14 15  2  0  0  0
 14 95  1  0  0  0
 15 96  1  0  0  0
 16 17  2  0  0  0
 16 21  1  0  0  0
 16 31  1  0  0  0
 17 18  1  0  0  0
 17 97  1  0  0  0
 18 19  2  0  0  0
 18 98  1  0  0  0
 19 20  1  0  0  0
 19 24  1  0  0  0
 20 21  2  0  0  0
 20 99  1  0  0  0
 21 23  1  0  0  0
 22 28  1  0  0  0
 22 32  2  0  0  0
 26 27  1  0  0  0
 28100  1  0  0  0
 28101  1  0  0  0
 29102  1  0  0  0
 29103  1  0  0  0
 33 34  1  0  0  0
 33 66  1  0  0  0
 33 70  2  0  0  0
 34 36  1  0  0  0
 34 59  1  0  0  0
 34104  1  0  0  0
 35 44  2  0  0  0
 35 45  1  0  0  0
 35 68  1  0  0  0
 36 56  1  0  0  0
 36105  1  0  0  0
 37 39  1  0  0  0
 37 47  1  0  0  0
 37 66  1  0  0  0
 37106  1  0  0  0
 38 43  2  0  0  0
 38 46  1  0  0  0
 38 47  1  0  0  0
 39 64  1  0  0  0
 39 67  2  0  0  0
 40 52  1  0  0  0
 40 53  2  0  0  0
 40 58  1  0  0  0
 41107  1  0  0  0
 41108  1  0  0  0
 41109  1  0  0  0
 41 48  1  0  0  0
 42 43  1  0  0  0
 42 66  1  0  0  0
 42110  1  0  0  0
 42111  1  0  0  0
 43 44  1  0  0  0
 44112  1  0  0  0
 45 46  2  0  0  0
 45113  1  0  0  0
 46114  1  0  0  0
 47115  1  0  0  0
 47116  1  0  0  0
 48 56  1  0  0  0
 48 65  1  0  0  0
 48117  1  0  0  0
 49 50  1  0  0  0
 49 53  1  0  0  0
 49 64  1  0  0  0
 49118  1  0  0  0
 50 51  1  0  0  0
 50119  1  0  0  0
 50120  1  0  0  0
 51 52  1  0  0  0
 51121  1  0  0  0
 51122  1  0  0  0
 52123  1  0  0  0
 52124  1  0  0  0
 53 54  1  0  0  0
 54 55  2  0  0  0
 54125  1  0  0  0
 55 57  1  0  0  0
 55126  1  0  0  0
 56 69  2  0  0  0
 57 58  2  0  0  0
 57127  1  0  0  0
 58128  1  0  0  0
 59 60  1  0  0  0
 59 61  1  0  0  0
 59 62  1  0  0  0
 60129  1  0  0  0
 60130  1  0  0  0
 60131  1  0  0  0
 61132  1  0  0  0
 61133  1  0  0  0
 61134  1  0  0  0
 62135  1  0  0  0
 62136  1  0  0  0
 62137  1  0  0  0
 63 65  1  0  0  0
 63138  1  0  0  0
 63139  1  0  0  0
 63140  1  0  0  0
 64141  1  0  0  0
 65142  1  0  0  0
 68 80  1  0  0  0
 71 74  2  0  0  0
 71 75  1  0  0  0
 71143  1  0  0  0
 72 74  1  0  0  0
 72 81  2  0  0  0
 72144  1  0  0  0
 73 75  2  0  0  0
 73 81  1  0  0  0
 73145  1  0  0  0
 74 76  1  0  0  0
 75 82  1  0  0  0
 76 77  2  0  0  0
 76146  1  0  0  0
 77147  1  0  0  0
 78 79  1  0  0  0
 78 82  1  0  0  0
 78 83  2  0  0  0
 79 80  1  0  0  0
 79148  1  0  0  0
 79149  1  0  0  0
 80150  1  0  0  0
 80151  1  0  0  0
 82152  1  0  0  0
M  ISO  4   1 100  68 101  77 100  80 101
M  END
> <chiral flag>
0

> <version>
0

> <s_m_source_file>
/data/baiqing/PycharmProjects/Reinvent-master-3.2/result/LINK_invent/BTK/process_docking_weight1_custom_product_contain_oxygen_bond_distance_aromatic_linkinvent_7_9_3/rearranged_h_0163.sdf

> <i_m_source_file_index>
29

> <r_mmod_Potential_Energy-OPLS-2005>
-56.4794807434082

> <r_mmod_Stretch_Energy-OPLS-2005>
58.8509330749512

> <r_mmod_Bend_Energy-OPLS-2005>
151.551849365234

> <r_mmod_Torsional_Energy-OPLS-2005>
231.864715576172

> <r_mmod_Improper_Torsional_Energy-OPLS-2005>
4.84035539627075

> <r_mmod_Van_der_Waal_Energy-OPLS-2005>
156.729797363281

> <r_mmod_Electrostatic_Energy-OPLS-2005>
-464.14599609375

> <r_mmod_Solvation_Energy-OPLS-2005>
-230.65771484375

> <b_mmod_Minimization_Converged-OPLS-2005>
0

> <r_mmod_RMS_Derivative-OPLS-2005>
1.60779786109924

$$$$
29
                    3D
 Structure written by MMmdl.
153161  0  0  1  0            999 V2000
  -30.6185  -14.5287   20.5182 C   0  0  0  0  0  0
  -30.4315  -12.3249   19.4269 C   0  0  0  0  0  0
  -29.4965  -12.5152   18.2116 C   0  0  0  0  0  0
  -28.0201  -12.3529   18.6340 C   0  0  0  0  0  0
  -27.6629  -13.1948   19.8855 C   0  0  2  0  0  0
  -28.7085  -12.9609   21.0000 C   0  0  0  0  0  0
  -25.2613  -13.8110   20.5770 C   0  0  0  0  0  0
  -24.1846  -13.0400   20.9199 C   0  0  0  0  0  0
  -24.6395  -11.6857   20.8729 C   0  0  0  0  0  0
  -23.9075  -10.4246   21.0396 C   0  0  0  0  0  0
  -24.3615   -9.4152   21.9181 C   0  0  0  0  0  0
  -23.6273   -8.2190   22.0739 C   0  0  0  0  0  0
  -22.4261   -8.0240   21.3528 C   0  0  0  0  0  0
  -21.9901   -9.0223   20.4643 C   0  0  0  0  0  0
  -22.7229  -10.2100   20.3052 C   0  0  0  0  0  0
  -21.6835   -6.0708   22.5270 C   0  0  0  0  0  0
  -21.4009   -6.5626   23.8203 C   0  0  0  0  0  0
  -21.3665   -5.6787   24.9169 C   0  0  0  0  0  0
  -21.6043   -4.3039   24.7226 C   0  0  0  0  0  0
  -21.8823   -3.8133   23.4350 C   0  0  0  0  0  0
  -21.9184   -4.6948   22.3398 C   0  0  0  0  0  0
  -22.7868  -13.5179   21.1879 C   0  0  0  0  0  0
  -22.1652   -4.2122   21.0979 F   0  0  0  0  0  0
  -21.5636   -3.4530   25.7746 F   0  0  0  0  0  0
  -30.0300  -13.3028   20.4501 N   0  0  0  0  0  0
  -26.3038  -12.9256   20.3434 N   0  0  0  0  0  0
  -25.9310  -11.6432   20.5815 N   0  0  0  0  0  0
  -22.0569  -12.8122   22.0461 N   0  0  0  0  0  0
  -25.4357  -15.1827   20.4161 N   0  0  0  0  0  0
  -31.7573  -14.7476   20.0865 O   0  0  0  0  0  0
  -21.6604   -6.8846   21.4225 O   0  0  0  0  0  0
  -22.3521  -14.5493   20.6767 O   0  0  0  0  0  0
  -24.6182  -31.8604   23.2156 C   0  0  0  0  0  0
  -25.9058  -32.4766   23.8454 C   0  0  1  0  0  0
  -27.1991  -27.3603   20.1507 C   0  0  0  0  0  0
  -25.5901  -33.8588   24.2354 N   0  0  0  0  0  0
  -23.4080  -30.4853   21.5590 C   0  0  2  0  0  0
  -24.8535  -28.9568   20.1095 C   0  0  0  0  0  0
  -22.7433  -29.4582   22.5053 C   0  0  0  0  0  0
  -18.0263  -28.1286   22.8496 C   0  0  0  0  0  0
  -24.1491  -36.7291   23.2644 C   0  0  0  0  0  0
  -25.9440  -30.8118   21.3830 C   0  0  0  0  0  0
  -26.0168  -29.4468   20.7162 C   0  0  0  0  0  0
  -27.1992  -28.6595   20.7243 C   0  0  0  0  0  0
  -26.0264  -26.9123   19.5071 C   0  0  0  0  0  0
  -24.8596  -27.6979   19.4879 C   0  0  0  0  0  0
  -23.6132  -29.8231   20.1706 C   0  0  0  0  0  0
  -25.4106  -36.3087   24.0343 C   0  0  1  0  0  0
  -20.5866  -28.3571   23.1330 C   0  0  2  0  0  0
  -20.6743  -26.9299   22.5444 C   0  0  0  0  0  0
  -19.5744  -26.6310   21.5210 C   0  0  0  0  0  0
  -18.1923  -26.7841   22.1629 C   0  0  0  0  0  0
  -19.1517  -28.8755   23.2907 C   0  0  0  0  0  0
  -18.9441  -30.1392   23.8863 C   0  0  0  0  0  0
  -17.6437  -30.6510   24.0513 C   0  0  0  0  0  0
  -25.9027  -34.9433   23.5144 C   0  0  0  0  0  0
  -16.5336  -29.8979   23.6338 C   0  0  0  0  0  0
  -16.7250  -28.6403   23.0361 C   0  0  0  0  0  0
  -26.4448  -31.6565   25.0812 C   0  0  0  0  0  0
  -25.3738  -31.3659   26.1599 C   0  0  0  0  0  0
  -27.0282  -30.2993   24.6227 C   0  0  0  0  0  0
  -27.6004  -32.4318   25.7566 C   0  0  0  0  0  0
  -27.5575  -37.1816   24.8458 C   0  0  0  0  0  0
  -21.4168  -29.2926   22.3752 N   0  0  0  0  0  0
  -26.4279  -37.3777   23.9394 N   0  0  0  0  0  0
  -24.6742  -31.0672   22.1086 N   0  0  0  0  0  0
  -23.4177  -28.8149   23.3138 O   0  0  0  0  0  0
  -28.3033  -26.5222   20.2262 O   0  0  0  0  0  0
  -26.5610  -34.8860   22.4718 O   0  0  0  0  0  0
  -23.5371  -32.1367   23.7520 O   0  0  0  0  0  0
  -28.8978  -18.4832   19.2646 C   0  0  0  0  0  0
  -29.0094  -17.0567   19.3031 C   0  0  0  0  0  0
  -29.4538  -18.9859   20.4136 C   0  0  0  0  0  0
  -29.6680  -16.7712   20.4648 C   0  0  0  0  0  0
  -29.6244  -20.3139   21.0310 C   0  0  0  0  0  0
  -28.9166  -24.0395   20.1921 C   0  0  0  0  0  0
  -29.3099  -22.8545   21.1132 C   0  0  0  0  0  0
  -28.0567  -25.1848   20.7878 C   0  0  0  0  0  0
  -29.3238  -24.0875   18.9950 N   0  0  0  0  0  0
  -29.8178  -15.5151   20.9840 N   0  0  0  0  0  0
  -29.1961  -21.4916   20.4867 N   0  0  0  0  0  0
  -30.2300  -20.3157   22.2240 N   0  3  0  0  0  0
  -29.9192  -17.9190   21.1713 O   0  0  0  0  0  0
  -31.4814  -12.4309   19.1486 H   0  0  0  0  0  0
  -30.3238  -11.3135   19.8207 H   0  0  0  0  0  0
  -29.7375  -11.7894   17.4349 H   0  0  0  0  0  0
  -29.6399  -13.5028   17.7642 H   0  0  0  0  0  0
  -27.8561  -11.2932   18.8475 H   0  0  0  0  0  0
  -27.3474  -12.5980   17.8085 H   0  0  0  0  0  0
  -27.7056  -14.2423   19.5861 H   0  0  0  0  0  0
  -28.7077  -11.9096   21.2891 H   0  0  0  0  0  0
  -28.4776  -13.5022   21.9174 H   0  0  0  0  0  0
  -25.2783   -9.5565   22.4736 H   0  0  0  0  0  0
  -23.9970   -7.4552   22.7437 H   0  0  0  0  0  0
  -21.0836   -8.8752   19.8930 H   0  0  0  0  0  0
  -22.3729  -10.9635   19.6143 H   0  0  0  0  0  0
  -21.2010   -7.6133   23.9692 H   0  0  0  0  0  0
  -21.1490   -6.0523   25.9073 H   0  0  0  0  0  0
  -22.0611   -2.7588   23.2858 H   0  0  0  0  0  0
  -22.4258  -11.9763   22.4745 H   0  0  0  0  0  0
  -21.1198  -13.1065   22.2799 H   0  0  0  0  0  0
  -24.6690  -15.8377   20.5426 H   0  0  0  0  0  0
  -26.2906  -15.6254   20.1059 H   0  0  0  0  0  0
  -26.7151  -32.5439   23.1226 H   0  0  0  0  0  0
  -25.0043  -33.9771   25.0493 H   0  0  0  0  0  0
  -22.6983  -31.3044   21.4275 H   0  0  0  0  0  0
  -23.3735  -35.9649   23.3319 H   0  0  0  0  0  0
  -24.3591  -36.8893   22.2063 H   0  0  0  0  0  0
  -23.7261  -37.6504   23.6642 H   0  0  0  0  0  0
  -26.0904  -31.5903   20.6324 H   0  0  0  0  0  0
  -26.8182  -30.8364   22.0220 H   0  0  0  0  0  0
  -28.0959  -29.0181   21.2100 H   0  0  0  0  0  0
  -25.9990  -25.9428   19.0310 H   0  0  0  0  0  0
  -23.9698  -27.3210   19.0031 H   0  0  0  0  0  0
  -23.6953  -30.5965   19.4067 H   0  0  0  0  0  0
  -22.7361  -29.2332   19.8979 H   0  0  0  0  0  0
  -25.1284  -36.1962   25.0843 H   0  0  0  0  0  0
  -20.9949  -28.3097   24.1452 H   0  0  0  0  0  0
  -20.5584  -26.2144   23.3617 H   0  0  0  0  0  0
  -21.6623  -26.7285   22.1284 H   0  0  0  0  0  0
  -19.6904  -25.6229   21.1208 H   0  0  0  0  0  0
  -19.6712  -27.3147   20.6769 H   0  0  0  0  0  0
  -17.4208  -26.6600   21.4018 H   0  0  0  0  0  0
  -18.0324  -25.9941   22.8987 H   0  0  0  0  0  0
  -19.7913  -30.7241   24.2192 H   0  0  0  0  0  0
  -17.4963  -31.6197   24.5087 H   0  0  0  0  0  0
  -15.5326  -30.2843   23.7647 H   0  0  0  0  0  0
  -15.8669  -28.0682   22.7086 H   0  0  0  0  0  0
  -24.5961  -30.6902   25.8024 H   0  0  0  0  0  0
  -24.8847  -32.2770   26.5048 H   0  0  0  0  0  0
  -25.8145  -30.8923   27.0380 H   0  0  0  0  0  0
  -26.2861  -29.6806   24.1160 H   0  0  0  0  0  0
  -27.3883  -29.7168   25.4718 H   0  0  0  0  0  0
  -27.8774  -30.4301   23.9516 H   0  0  0  0  0  0
  -27.2613  -33.3648   26.2074 H   0  0  0  0  0  0
  -28.3818  -32.6825   25.0390 H   0  0  0  0  0  0
  -28.0634  -31.8496   26.5540 H   0  0  0  0  0  0
  -28.2573  -38.0126   24.7477 H   0  0  0  0  0  0
  -28.1074  -36.2641   24.6295 H   0  0  0  0  0  0
  -27.2279  -37.1494   25.8857 H   0  0  0  0  0  0
  -20.9322  -29.8576   21.6932 H   0  0  0  0  0  0
  -26.0158  -38.2850   24.1378 H   0  0  0  0  0  0
  -28.4378  -19.0738   18.4922 H   0  0  0  0  0  0
  -28.6449  -16.3369   18.5795 H   0  0  0  0  0  0
  -28.7153  -22.8822   22.0258 H   0  0  0  0  0  0
  -30.3506  -23.0027   21.4017 H   0  0  0  0  0  0
  -28.2356  -25.2302   21.8628 H   0  0  0  0  0  0
  -27.0130  -24.8723   20.7074 H   0  0  0  0  0  0
  -29.9313  -23.3053   18.7921 H   0  0  0  0  0  0
  -28.9798  -15.1537   21.4099 H   0  0  0  0  0  0
  -28.7033  -21.4513   19.6049 H   0  0  0  0  0  0
  -30.4812  -19.4050   22.5831 H   0  0  0  0  0  0
  -30.4481  -21.1316   22.7695 H   0  0  0  0  0  0
  1 25  1  0  0  0
  1 30  2  0  0  0
  1 80  1  0  0  0
  2  3  1  0  0  0
  2 25  1  0  0  0
  2 84  1  0  0  0
  2 85  1  0  0  0
  3  4  1  0  0  0
  3 86  1  0  0  0
  3 87  1  0  0  0
  4  5  1  0  0  0
  4 88  1  0  0  0
  4 89  1  0  0  0
  5  6  1  0  0  0
  5 26  1  0  0  0
  5 90  1  0  0  0
  6 25  1  0  0  0
  6 91  1  0  0  0
  6 92  1  0  0  0
  7  8  2  0  0  0
  7 26  1  0  0  0
  7 29  1  0  0  0
  8  9  1  0  0  0
  8 22  1  0  0  0
  9 10  1  0  0  0
  9 27  2  0  0  0
 10 11  2  0  0  0
 10 15  1  0  0  0
 11 12  1  0  0  0
 11 93  1  0  0  0
 12 13  2  0  0  0
 12 94  1  0  0  0
 13 14  1  0  0  0
 13 31  1  0  0  0
 14 15  2  0  0  0
 14 95  1  0  0  0
 15 96  1  0  0  0
 16 17  2  0  0  0
 16 21  1  0  0  0
 16 31  1  0  0  0
 17 18  1  0  0  0
 17 97  1  0  0  0
 18 19  2  0  0  0
 18 98  1  0  0  0
 19 20  1  0  0  0
 19 24  1  0  0  0
 20 21  2  0  0  0
 20 99  1  0  0  0
 21 23  1  0  0  0
 22 28  1  0  0  0
 22 32  2  0  0  0
 26 27  1  0  0  0
 28100  1  0  0  0
 28101  1  0  0  0
 29102  1  0  0  0
 29103  1  0  0  0
 33 34  1  0  0  0
 33 66  1  0  0  0
 33 70  2  0  0  0
 34 36  1  0  0  0
 34 59  1  0  0  0
 34104  1  0  0  0
 35 44  2  0  0  0
 35 45  1  0  0  0
 35 68  1  0  0  0
 36 56  1  0  0  0
 36105  1  0  0  0
 37 39  1  0  0  0
 37 47  1  0  0  0
 37 66  1  0  0  0
 37106  1  0  0  0
 38 43  2  0  0  0
 38 46  1  0  0  0
 38 47  1  0  0  0
 39 64  1  0  0  0
 39 67  2  0  0  0
 40 52  1  0  0  0
 40 53  2  0  0  0
 40 58  1  0  0  0
 41107  1  0  0  0
 41108  1  0  0  0
 41109  1  0  0  0
 41 48  1  0  0  0
 42 43  1  0  0  0
 42 66  1  0  0  0
 42110  1  0  0  0
 42111  1  0  0  0
 43 44  1  0  0  0
 44112  1  0  0  0
 45 46  2  0  0  0
 45113  1  0  0  0
 46114  1  0  0  0
 47115  1  0  0  0
 47116  1  0  0  0
 48 56  1  0  0  0
 48 65  1  0  0  0
 48117  1  0  0  0
 49 50  1  0  0  0
 49 53  1  0  0  0
 49 64  1  0  0  0
 49118  1  0  0  0
 50 51  1  0  0  0
 50119  1  0  0  0
 50120  1  0  0  0
 51 52  1  0  0  0
 51121  1  0  0  0
 51122  1  0  0  0
 52123  1  0  0  0
 52124  1  0  0  0
 53 54  1  0  0  0
 54 55  2  0  0  0
 54125  1  0  0  0
 55 57  1  0  0  0
 55126  1  0  0  0
 56 69  2  0  0  0
 57 58  2  0  0  0
 57127  1  0  0  0
 58128  1  0  0  0
 59 60  1  0  0  0
 59 61  1  0  0  0
 59 62  1  0  0  0
 60129  1  0  0  0
 60130  1  0  0  0
 60131  1  0  0  0
 61132  1  0  0  0
 61133  1  0  0  0
 61134  1  0  0  0
 62135  1  0  0  0
 62136  1  0  0  0
 62137  1  0  0  0
 63 65  1  0  0  0
 63138  1  0  0  0
 63139  1  0  0  0
 63140  1  0  0  0
 64141  1  0  0  0
 65142  1  0  0  0
 68 78  1  0  0  0
 71 72  1  0  0  0
 71 73  2  0  0  0
 71143  1  0  0  0
 72 74  2  0  0  0
 72144  1  0  0  0
 73 75  1  0  0  0
 73 83  1  0  0  0
 74 80  1  0  0  0
 74 83  1  0  0  0
 75 81  1  0  0  0
 75 82  2  0  0  0
 76 77  1  0  0  0
 76 78  1  0  0  0
 76 79  2  0  0  0
 77 81  1  0  0  0
 77145  1  0  0  0
 77146  1  0  0  0
 78147  1  0  0  0
 78148  1  0  0  0
 79149  1  0  0  0
 80150  1  0  0  0
 81151  1  0  0  0
 82152  1  0  0  0
 82153  1  0  0  0
M  CHG  1  82   1
M  ISO  4   1 100  68 101  78 101  80 100
M  END
> <chiral flag>
0

> <version>
0

> <s_m_source_file>
/data/baiqing/PycharmProjects/Reinvent-master-3.2/result/LINK_invent/BTK/process_docking_weight1_custom_product_contain_oxygen_bond_distance_aromatic_linkinvent_7_9_3/rearranged_h_0163.sdf

> <i_m_source_file_index>
30

> <r_mmod_Potential_Energy-OPLS-2005>
-264.053588867188

> <r_mmod_Stretch_Energy-OPLS-2005>
50.219654083252

> <r_mmod_Bend_Energy-OPLS-2005>
111.653366088867

> <r_mmod_Torsional_Energy-OPLS-2005>
257.548706054688

> <r_mmod_Improper_Torsional_Energy-OPLS-2005>
7.25705051422119

> <r_mmod_Van_der_Waal_Energy-OPLS-2005>
130.374649047852

> <r_mmod_Electrostatic_Energy-OPLS-2005>
-343.295684814453

> <r_mmod_Solvation_Energy-OPLS-2005>
-509.255676269531

> <b_mmod_Minimization_Converged-OPLS-2005>
0

> <r_mmod_RMS_Derivative-OPLS-2005>
6.65372371673584

$$$$
30
                    3D
 Structure written by MMmdl.
164173  0  0  1  0            999 V2000
  -30.6744  -14.8582   20.4727 C   0  0  0  0  0  0
  -30.4189  -12.5411   19.5030 C   0  0  0  0  0  0
  -29.5160  -12.5400   18.2526 C   0  0  0  0  0  0
  -28.0436  -12.3505   18.6553 C   0  0  0  0  0  0
  -27.6351  -13.2582   19.8480 C   0  0  2  0  0  0
  -28.6837  -13.2555   20.9852 C   0  0  0  0  0  0
  -25.2371  -13.8089   20.5524 C   0  0  0  0  0  0
  -24.1749  -13.0352   20.9202 C   0  0  0  0  0  0
  -24.6433  -11.6868   20.8784 C   0  0  0  0  0  0
  -23.9129  -10.4243   21.0412 C   0  0  0  0  0  0
  -24.3655   -9.4156   21.9188 C   0  0  0  0  0  0
  -23.6305   -8.2211   22.0747 C   0  0  0  0  0  0
  -22.4300   -8.0259   21.3519 C   0  0  0  0  0  0
  -21.9943   -9.0248   20.4638 C   0  0  0  0  0  0
  -22.7301  -10.2110   20.3053 C   0  0  0  0  0  0
  -21.6842   -6.0722   22.5273 C   0  0  0  0  0  0
  -21.3991   -6.5625   23.8207 C   0  0  0  0  0  0
  -21.3656   -5.6775   24.9174 C   0  0  0  0  0  0
  -21.6053   -4.3031   24.7229 C   0  0  0  0  0  0
  -21.8829   -3.8128   23.4346 C   0  0  0  0  0  0
  -21.9180   -4.6940   22.3390 C   0  0  0  0  0  0
  -22.7777  -13.5135   21.1844 C   0  0  0  0  0  0
  -22.1648   -4.2120   21.0963 F   0  0  0  0  0  0
  -21.5650   -3.4521   25.7749 F   0  0  0  0  0  0
  -29.9733  -13.6497   20.4037 N   0  0  0  0  0  0
  -26.2917  -12.9438   20.3287 N   0  0  0  0  0  0
  -25.9399  -11.6565   20.5827 N   0  0  0  0  0  0
  -22.0436  -12.8168   22.0445 N   0  0  0  0  0  0
  -25.3858  -15.1708   20.3588 N   0  0  0  0  0  0
  -31.8388  -14.8117   20.0580 O   0  0  0  0  0  0
  -21.6636   -6.8883   21.4240 O   0  0  0  0  0  0
  -22.3455  -14.5423   20.6667 O   0  0  0  0  0  0
  -24.6343  -31.8477   23.1904 C   0  0  0  0  0  0
  -25.9147  -32.4720   23.8289 C   0  0  1  0  0  0
  -27.2435  -27.2221   20.1446 C   0  0  0  0  0  0
  -25.5945  -33.8527   24.2218 N   0  0  0  0  0  0
  -23.4355  -30.4643   21.5314 C   0  0  2  0  0  0
  -24.8902  -28.8956   20.1058 C   0  0  0  0  0  0
  -22.7526  -29.4555   22.4862 C   0  0  0  0  0  0
  -18.0292  -28.1378   22.8470 C   0  0  0  0  0  0
  -24.1490  -36.7274   23.2641 C   0  0  0  0  0  0
  -25.9802  -30.7507   21.3735 C   0  0  0  0  0  0
  -26.0567  -29.3663   20.7203 C   0  0  0  0  0  0
  -27.2286  -28.5396   20.7286 C   0  0  0  0  0  0
  -26.0534  -26.8185   19.5011 C   0  0  0  0  0  0
  -24.8960  -27.6330   19.4848 C   0  0  0  0  0  0
  -23.6604  -29.7875   20.1510 C   0  0  0  0  0  0
  -25.4116  -36.3041   24.0319 C   0  0  1  0  0  0
  -20.5900  -28.3697   23.1249 C   0  0  2  0  0  0
  -20.6770  -26.9407   22.5412 C   0  0  0  0  0  0
  -19.5755  -26.6368   21.5210 C   0  0  0  0  0  0
  -18.1930  -26.7924   22.1607 C   0  0  0  0  0  0
  -19.1544  -28.8851   23.2862 C   0  0  0  0  0  0
  -18.9467  -30.1449   23.8882 C   0  0  0  0  0  0
  -17.6467  -30.6582   24.0543 C   0  0  0  0  0  0
  -25.9060  -34.9418   23.5074 C   0  0  0  0  0  0
  -16.5355  -29.9074   23.6323 C   0  0  0  0  0  0
  -16.7280  -28.6487   23.0353 C   0  0  0  0  0  0
  -26.4509  -31.6570   25.0707 C   0  0  0  0  0  0
  -25.3750  -31.3731   26.1447 C   0  0  0  0  0  0
  -27.0364  -30.2983   24.6209 C   0  0  0  0  0  0
  -27.6040  -32.4339   25.7501 C   0  0  0  0  0  0
  -27.5573  -37.1790   24.8461 C   0  0  0  0  0  0
  -21.4218  -29.3040   22.3632 N   0  0  0  0  0  0
  -26.4275  -37.3755   23.9412 N   0  0  0  0  0  0
  -24.7018  -31.0405   22.0897 N   0  0  0  0  0  0
  -23.4205  -28.8110   23.2988 O   0  0  0  0  0  0
  -28.3610  -26.3509   20.2723 O   0  0  0  0  0  0
  -26.5622  -34.8901   22.4637 O   0  0  0  0  0  0
  -23.5480  -32.1302   23.7181 O   0  0  0  0  0  0
  -26.7384  -16.4509   23.3146 C   0  0  0  0  0  0
  -25.8991  -17.3810   22.7594 C   0  0  0  0  0  0
  -27.9700  -17.0156   21.4718 C   0  0  0  0  0  0
  -29.1792  -21.0550   19.6360 C   0  0  0  0  0  0
  -28.2593  -23.6222   20.5103 C   0  0  0  0  0  0
  -31.2303  -16.9940   21.6262 C   0  0  0  0  0  0
  -29.1797  -17.1498   20.5824 C   0  0  1  0  0  0
  -31.1946  -18.3972   20.9449 C   0  0  2  0  0  0
  -29.6986  -18.6879   20.7838 C   0  0  1  0  0  0
  -28.9374  -21.5589   18.2259 C   0  0  0  0  0  0
  -31.9746  -18.3920   19.6181 C   0  0  0  0  0  0
  -29.2482  -22.3272   20.6312 C   0  0  0  0  0  0
  -28.5479  -24.9682   19.6603 C   0  0  0  0  0  0
  -27.9215  -16.2794   22.5906 N   0  0  0  0  0  0
  -29.3414  -19.7252   19.7113 N   0  0  0  0  0  0
  -30.2205  -16.0912   21.0119 N   0  0  0  0  0  0
  -27.1966  -23.5727   21.1362 O   0  0  0  0  0  0
  -26.5489  -18.0478   21.2852 S   0  0  0  0  0  0
  -31.4636  -12.6251   19.1956 H   0  0  0  0  0  0
  -30.3622  -11.5807   20.0171 H   0  0  0  0  0  0
  -29.8267  -11.7562   17.5603 H   0  0  0  0  0  0
  -29.6313  -13.4843   17.7169 H   0  0  0  0  0  0
  -27.9084  -11.3035   18.9248 H   0  0  0  0  0  0
  -27.3946  -12.5315   17.7972 H   0  0  0  0  0  0
  -27.6081  -14.2726   19.4499 H   0  0  0  0  0  0
  -28.7502  -12.2691   21.4449 H   0  0  0  0  0  0
  -28.4025  -13.9343   21.7837 H   0  0  0  0  0  0
  -25.2820   -9.5609   22.4752 H   0  0  0  0  0  0
  -23.9986   -7.4599   22.7480 H   0  0  0  0  0  0
  -21.0851   -8.8808   19.8966 H   0  0  0  0  0  0
  -22.3778  -10.9653   19.6156 H   0  0  0  0  0  0
  -21.1981   -7.6142   23.9706 H   0  0  0  0  0  0
  -21.1458   -6.0505   25.9078 H   0  0  0  0  0  0
  -22.0617   -2.7583   23.2858 H   0  0  0  0  0  0
  -22.4066  -11.9882   22.4926 H   0  0  0  0  0  0
  -21.1017  -13.1165   22.2544 H   0  0  0  0  0  0
  -24.6566  -15.8323   20.5996 H   0  0  0  0  0  0
  -26.2740  -15.6109   20.1698 H   0  0  0  0  0  0
  -26.7217  -32.5355   23.1032 H   0  0  0  0  0  0
  -25.0134  -33.9668   25.0388 H   0  0  0  0  0  0
  -22.7336  -31.2866   21.3773 H   0  0  0  0  0  0
  -23.3752  -35.9614   23.3285 H   0  0  0  0  0  0
  -24.3578  -36.8917   22.2061 H   0  0  0  0  0  0
  -23.7251  -37.6465   23.6687 H   0  0  0  0  0  0
  -26.1172  -31.5069   20.5985 H   0  0  0  0  0  0
  -26.8570  -30.8082   22.0071 H   0  0  0  0  0  0
  -28.1178  -28.8944   21.2309 H   0  0  0  0  0  0
  -25.9909  -25.8416   19.0459 H   0  0  0  0  0  0
  -23.9992  -27.2624   19.0059 H   0  0  0  0  0  0
  -23.7901  -30.5593   19.3912 H   0  0  0  0  0  0
  -22.7782  -29.2234   19.8435 H   0  0  0  0  0  0
  -25.1303  -36.1869   25.0810 H   0  0  0  0  0  0
  -20.9994  -28.3286   24.1366 H   0  0  0  0  0  0
  -20.5638  -26.2316   23.3627 H   0  0  0  0  0  0
  -21.6640  -26.7401   22.1228 H   0  0  0  0  0  0
  -19.6911  -25.6275   21.1247 H   0  0  0  0  0  0
  -19.6697  -27.3162   20.6728 H   0  0  0  0  0  0
  -17.4209  -26.6679   21.4000 H   0  0  0  0  0  0
  -18.0316  -26.0069   22.8998 H   0  0  0  0  0  0
  -19.7951  -30.7260   24.2256 H   0  0  0  0  0  0
  -17.5024  -31.6262   24.5154 H   0  0  0  0  0  0
  -15.5352  -30.2964   23.7665 H   0  0  0  0  0  0
  -15.8685  -28.0801   22.7075 H   0  0  0  0  0  0
  -24.5925  -30.7065   25.7798 H   0  0  0  0  0  0
  -24.8956  -32.2911   26.4865 H   0  0  0  0  0  0
  -25.8104  -30.8930   27.0225 H   0  0  0  0  0  0
  -26.2942  -29.6718   24.1240 H   0  0  0  0  0  0
  -27.4039  -29.7257   25.4735 H   0  0  0  0  0  0
  -27.8829  -30.4238   23.9454 H   0  0  0  0  0  0
  -27.2611  -33.3643   26.2045 H   0  0  0  0  0  0
  -28.3887  -32.6896   25.0369 H   0  0  0  0  0  0
  -28.0679  -31.8498   26.5458 H   0  0  0  0  0  0
  -28.2570  -38.0097   24.7501 H   0  0  0  0  0  0
  -28.1075  -36.2627   24.6286 H   0  0  0  0  0  0
  -27.2295  -37.1440   25.8860 H   0  0  0  0  0  0
  -20.9412  -29.8772   21.6842 H   0  0  0  0  0  0
  -26.0139  -38.2817   24.1424 H   0  0  0  0  0  0
  -26.5822  -15.8792   24.2192 H   0  0  0  0  0  0
  -24.9343  -17.7033   23.1280 H   0  0  0  0  0  0
  -30.9538  -17.1075   22.6749 H   0  0  0  0  0  0
  -32.2459  -16.5914   21.6459 H   0  0  0  0  0  0
  -28.8946  -16.9686   19.5458 H   0  0  0  0  0  0
  -31.6494  -19.1410   21.6024 H   0  0  0  0  0  0
  -29.3568  -19.0577   21.7543 H   0  0  0  0  0  0
  -27.8748  -21.7230   18.0537 H   0  0  0  0  0  0
  -29.2991  -20.8468   17.4834 H   0  0  0  0  0  0
  -29.4715  -22.4947   18.0530 H   0  0  0  0  0  0
  -31.5566  -17.6764   18.9090 H   0  0  0  0  0  0
  -33.0198  -18.1253   19.7819 H   0  0  0  0  0  0
  -31.9610  -19.3748   19.1450 H   0  0  0  0  0  0
  -30.2601  -22.7238   20.5684 H   0  0  0  0  0  0
  -29.1563  -21.9557   21.6510 H   0  0  0  0  0  0
  -27.9912  -24.9089   18.7255 H   0  0  0  0  0  0
  -29.5949  -24.9078   19.3670 H   0  0  0  0  0  0
  1 25  1  0  0  0
  1 30  2  0  0  0
  1 86  1  0  0  0
  2  3  1  0  0  0
  2 25  1  0  0  0
  2 89  1  0  0  0
  2 90  1  0  0  0
  3  4  1  0  0  0
  3 91  1  0  0  0
  3 92  1  0  0  0
  4  5  1  0  0  0
  4 93  1  0  0  0
  4 94  1  0  0  0
  5  6  1  0  0  0
  5 26  1  0  0  0
  5 95  1  0  0  0
  6 25  1  0  0  0
  6 96  1  0  0  0
  6 97  1  0  0  0
  7  8  2  0  0  0
  7 26  1  0  0  0
  7 29  1  0  0  0
  8  9  1  0  0  0
  8 22  1  0  0  0
  9 10  1  0  0  0
  9 27  2  0  0  0
 10 11  2  0  0  0
 10 15  1  0  0  0
 11 12  1  0  0  0
 11 98  1  0  0  0
 12 13  2  0  0  0
 12 99  1  0  0  0
 13 14  1  0  0  0
 13 31  1  0  0  0
 14 15  2  0  0  0
 14100  1  0  0  0
 15101  1  0  0  0
 16 17  2  0  0  0
 16 21  1  0  0  0
 16 31  1  0  0  0
 17 18  1  0  0  0
 17102  1  0  0  0
 18 19  2  0  0  0
 18103  1  0  0  0
 19 20  1  0  0  0
 19 24  1  0  0  0
 20 21  2  0  0  0
 20104  1  0  0  0
 21 23  1  0  0  0
 22 28  1  0  0  0
 22 32  2  0  0  0
 26 27  1  0  0  0
 28105  1  0  0  0
 28106  1  0  0  0
 29107  1  0  0  0
 29108  1  0  0  0
 33 34  1  0  0  0
 33 66  1  0  0  0
 33 70  2  0  0  0
 34 36  1  0  0  0
 34 59  1  0  0  0
 34109  1  0  0  0
 35 44  2  0  0  0
 35 45  1  0  0  0
 35 68  1  0  0  0
 36 56  1  0  0  0
 36110  1  0  0  0
 37 39  1  0  0  0
 37 47  1  0  0  0
 37 66  1  0  0  0
 37111  1  0  0  0
 38 43  2  0  0  0
 38 46  1  0  0  0
 38 47  1  0  0  0
 39 64  1  0  0  0
 39 67  2  0  0  0
 40 52  1  0  0  0
 40 53  2  0  0  0
 40 58  1  0  0  0
 41112  1  0  0  0
 41113  1  0  0  0
 41114  1  0  0  0
 41 48  1  0  0  0
 42 43  1  0  0  0
 42 66  1  0  0  0
 42115  1  0  0  0
 42116  1  0  0  0
 43 44  1  0  0  0
 44117  1  0  0  0
 45 46  2  0  0  0
 45118  1  0  0  0
 46119  1  0  0  0
 47120  1  0  0  0
 47121  1  0  0  0
 48 56  1  0  0  0
 48 65  1  0  0  0
 48122  1  0  0  0
 49 50  1  0  0  0
 49 53  1  0  0  0
 49 64  1  0  0  0
 49123  1  0  0  0
 50 51  1  0  0  0
 50124  1  0  0  0
 50125  1  0  0  0
 51 52  1  0  0  0
 51126  1  0  0  0
 51127  1  0  0  0
 52128  1  0  0  0
 52129  1  0  0  0
 53 54  1  0  0  0
 54 55  2  0  0  0
 54130  1  0  0  0
 55 57  1  0  0  0
 55131  1  0  0  0
 56 69  2  0  0  0
 57 58  2  0  0  0
 57132  1  0  0  0
 58133  1  0  0  0
 59 60  1  0  0  0
 59 61  1  0  0  0
 59 62  1  0  0  0
 60134  1  0  0  0
 60135  1  0  0  0
 60136  1  0  0  0
 61137  1  0  0  0
 61138  1  0  0  0
 61139  1  0  0  0
 62140  1  0  0  0
 62141  1  0  0  0
 62142  1  0  0  0
 63 65  1  0  0  0
 63143  1  0  0  0
 63144  1  0  0  0
 63145  1  0  0  0
 64146  1  0  0  0
 65147  1  0  0  0
 68 83  1  0  0  0
 71 72  2  0  0  0
 71 84  1  0  0  0
 71148  1  0  0  0
 72 88  1  0  0  0
 72149  1  0  0  0
 73 84  2  0  0  0
 73 88  1  0  0  0
 73 77  1  0  0  0
 74 80  1  0  0  0
 74 82  1  0  0  0
 74 85  2  0  0  0
 75 82  1  0  0  0
 75 83  1  0  0  0
 75 87  2  0  0  0
 76 78  1  0  0  0
 76 86  1  0  0  0
 76150  1  0  0  0
 76151  1  0  0  0
 77 79  1  0  0  0
 77 86  1  0  0  0
 77152  1  0  0  0
 78 79  1  0  0  0
 78 81  1  0  0  0
 78153  1  0  0  0
 79 85  1  0  0  0
 79154  1  0  0  0
 80155  1  0  0  0
 80156  1  0  0  0
 80157  1  0  0  0
 81158  1  0  0  0
 81159  1  0  0  0
 81160  1  0  0  0
 82161  1  0  0  0
 82162  1  0  0  0
 83163  1  0  0  0
 83164  1  0  0  0
M  ISO  4   1 100  68 101  83 101  86 100
M  END
> <chiral flag>
0

> <version>
0

> <s_m_source_file>
/data/baiqing/PycharmProjects/Reinvent-master-3.2/result/LINK_invent/BTK/process_docking_weight1_custom_product_contain_oxygen_bond_distance_aromatic_linkinvent_7_9_3/rearranged_h_0163.sdf

> <i_m_source_file_index>
31

> <r_mmod_Potential_Energy-OPLS-2005>
516.611755371094

> <r_mmod_Stretch_Energy-OPLS-2005>
184.142837524414

> <r_mmod_Bend_Energy-OPLS-2005>
364.049072265625

> <r_mmod_Torsional_Energy-OPLS-2005>
316.805114746094

> <r_mmod_Improper_Torsional_Energy-OPLS-2005>
7.38724040985107

> <r_mmod_Van_der_Waal_Energy-OPLS-2005>
103.423210144043

> <r_mmod_Electrostatic_Energy-OPLS-2005>
-360.692352294922

> <r_mmod_Solvation_Energy-OPLS-2005>
-222.418655395508

> <b_mmod_Minimization_Converged-OPLS-2005>
0

> <r_mmod_RMS_Derivative-OPLS-2005>
3.03800868988037

$$$$
31
                    3D
 Structure written by MMmdl.
166175  0  0  1  0            999 V2000
  -30.5457  -14.7409   20.5109 C   0  0  0  0  0  0
  -30.4645  -12.4617   19.4533 C   0  0  0  0  0  0
  -29.5196  -12.5280   18.2290 C   0  0  0  0  0  0
  -28.0439  -12.3417   18.6416 C   0  0  0  0  0  0
  -27.6558  -13.2123   19.8647 C   0  0  2  0  0  0
  -28.7041  -13.0626   20.9905 C   0  0  0  0  0  0
  -25.2584  -13.8148   20.5697 C   0  0  0  0  0  0
  -24.1841  -13.0427   20.9192 C   0  0  0  0  0  0
  -24.6401  -11.6894   20.8731 C   0  0  0  0  0  0
  -23.9060  -10.4285   21.0401 C   0  0  0  0  0  0
  -24.3608   -9.4205   21.9183 C   0  0  0  0  0  0
  -23.6282   -8.2242   22.0758 C   0  0  0  0  0  0
  -22.4265   -8.0281   21.3546 C   0  0  0  0  0  0
  -21.9897   -9.0256   20.4651 C   0  0  0  0  0  0
  -22.7229  -10.2132   20.3057 C   0  0  0  0  0  0
  -21.6853   -6.0731   22.5276 C   0  0  0  0  0  0
  -21.4015   -6.5633   23.8209 C   0  0  0  0  0  0
  -21.3658   -5.6788   24.9171 C   0  0  0  0  0  0
  -21.6043   -4.3050   24.7222 C   0  0  0  0  0  0
  -21.8821   -3.8143   23.4344 C   0  0  0  0  0  0
  -21.9194   -4.6960   22.3400 C   0  0  0  0  0  0
  -22.7864  -13.5235   21.1852 C   0  0  0  0  0  0
  -22.1664   -4.2148   21.0976 F   0  0  0  0  0  0
  -21.5624   -3.4534   25.7735 F   0  0  0  0  0  0
  -30.0108  -13.4697   20.4363 N   0  0  0  0  0  0
  -26.3005  -12.9316   20.3314 N   0  0  0  0  0  0
  -25.9330  -11.6480   20.5741 N   0  0  0  0  0  0
  -22.0493  -12.8237   22.0404 N   0  0  0  0  0  0
  -25.4298  -15.1870   20.4135 N   0  0  0  0  0  0
  -31.6924  -14.9656   20.1017 O   0  0  0  0  0  0
  -21.6637   -6.8875   21.4239 O   0  0  0  0  0  0
  -22.3560  -14.5543   20.6702 O   0  0  0  0  0  0
  -24.6330  -31.8553   23.1991 C   0  0  0  0  0  0
  -25.9153  -32.4756   23.8335 C   0  0  1  0  0  0
  -27.2259  -27.2589   20.1224 C   0  0  0  0  0  0
  -25.5943  -33.8556   24.2256 N   0  0  0  0  0  0
  -23.4295  -30.4798   21.5427 C   0  0  2  0  0  0
  -24.8773  -28.9278   20.1141 C   0  0  0  0  0  0
  -22.7510  -29.4611   22.4907 C   0  0  0  0  0  0
  -18.0296  -28.1394   22.8483 C   0  0  0  0  0  0
  -24.1489  -36.7278   23.2639 C   0  0  0  0  0  0
  -25.9778  -30.7672   21.3808 C   0  0  0  0  0  0
  -26.0514  -29.3899   20.7219 C   0  0  0  0  0  0
  -27.2279  -28.5700   20.7130 C   0  0  0  0  0  0
  -26.0229  -26.8717   19.4844 C   0  0  0  0  0  0
  -24.8688  -27.6759   19.4858 C   0  0  0  0  0  0
  -23.6492  -29.8158   20.1592 C   0  0  0  0  0  0
  -25.4116  -36.3065   24.0325 C   0  0  1  0  0  0
  -20.5902  -28.3709   23.1262 C   0  0  2  0  0  0
  -20.6784  -26.9424   22.5406 C   0  0  0  0  0  0
  -19.5757  -26.6389   21.5212 C   0  0  0  0  0  0
  -18.1938  -26.7936   22.1626 C   0  0  0  0  0  0
  -19.1551  -28.8867   23.2869 C   0  0  0  0  0  0
  -18.9473  -30.1464   23.8894 C   0  0  0  0  0  0
  -17.6472  -30.6592   24.0565 C   0  0  0  0  0  0
  -25.9059  -34.9439   23.5092 C   0  0  0  0  0  0
  -16.5362  -29.9090   23.6333 C   0  0  0  0  0  0
  -16.7282  -28.6507   23.0353 C   0  0  0  0  0  0
  -26.4515  -31.6584   25.0728 C   0  0  0  0  0  0
  -25.3733  -31.3742   26.1445 C   0  0  0  0  0  0
  -27.0368  -30.2997   24.6229 C   0  0  0  0  0  0
  -27.6060  -32.4333   25.7505 C   0  0  0  0  0  0
  -27.5578  -37.1793   24.8465 C   0  0  0  0  0  0
  -21.4216  -29.3054   22.3649 N   0  0  0  0  0  0
  -26.4286  -37.3769   23.9413 N   0  0  0  0  0  0
  -24.6993  -31.0519   22.0970 N   0  0  0  0  0  0
  -23.4204  -28.8142   23.3004 O   0  0  0  0  0  0
  -28.3275  -26.3634   20.1559 O   0  0  0  0  0  0
  -26.5632  -34.8918   22.4661 O   0  0  0  0  0  0
  -23.5479  -32.1379   23.7284 O   0  0  0  0  0  0
  -28.1562  -17.2511   21.8478 C   0  0  0  0  0  0
  -27.6003  -18.5046   22.0693 C   0  0  0  0  0  0
  -29.3313  -17.1283   21.0830 C   0  0  0  0  0  0
  -29.2437  -19.5297   20.8595 C   0  0  0  0  0  0
  -28.7194  -22.1808   20.3350 C   0  0  0  0  0  0
  -31.3446  -22.9663   21.1622 C   0  0  0  0  0  0
  -29.8165  -20.9889   20.5014 C   0  0  1  0  0  0
  -29.1927  -23.7245   20.2061 C   0  0  1  0  0  0
  -30.9175  -21.5025   21.5023 C   0  0  0  0  0  0
  -32.1897  -20.6327   21.3817 C   0  0  0  0  0  0
  -30.4498  -21.4368   22.9767 C   0  0  0  0  0  0
  -28.0533  -24.8817   20.2593 C   0  0  0  0  0  0
  -28.1413  -19.6157   21.5942 N   0  0  0  0  0  0
  -29.8678  -18.3210   20.5839 N   0  0  0  0  0  0
  -26.4507  -18.6676   22.8210 N   0  0  0  0  0  0
  -29.6515  -15.6820   20.9838 N   0  0  0  0  0  0
  -30.2397  -23.9548   21.2246 N   0  3  0  0  0  0
  -31.4961  -12.6362   19.1428 H   0  0  0  0  0  0
  -30.4504  -11.4651   19.8973 H   0  0  0  0  0  0
  -29.8002  -11.7710   17.4958 H   0  0  0  0  0  0
  -29.6380  -13.4911   17.7304 H   0  0  0  0  0  0
  -27.8969  -11.2875   18.8801 H   0  0  0  0  0  0
  -27.3859  -12.5569   17.7991 H   0  0  0  0  0  0
  -27.6691  -14.2471   19.5221 H   0  0  0  0  0  0
  -28.7453  -12.0268   21.3321 H   0  0  0  0  0  0
  -28.4230  -13.6422   21.8712 H   0  0  0  0  0  0
  -25.2755   -9.5680   22.4751 H   0  0  0  0  0  0
  -23.9994   -7.4633   22.7477 H   0  0  0  0  0  0
  -21.0826   -8.8774   19.8954 H   0  0  0  0  0  0
  -22.3691  -10.9670   19.6162 H   0  0  0  0  0  0
  -21.2008   -7.6142   23.9711 H   0  0  0  0  0  0
  -21.1479   -6.0517   25.9073 H   0  0  0  0  0  0
  -22.0600   -2.7607   23.2845 H   0  0  0  0  0  0
  -22.4101  -11.9898   22.4795 H   0  0  0  0  0  0
  -21.1119  -13.1285   22.2613 H   0  0  0  0  0  0
  -24.6549  -15.8329   20.5147 H   0  0  0  0  0  0
  -26.2660  -15.6279   20.0540 H   0  0  0  0  0  0
  -26.7217  -32.5406   23.1075 H   0  0  0  0  0  0
  -25.0080  -33.9689   25.0395 H   0  0  0  0  0  0
  -22.7265  -31.3026   21.3970 H   0  0  0  0  0  0
  -23.3753  -35.9607   23.3295 H   0  0  0  0  0  0
  -24.3579  -36.8909   22.2055 H   0  0  0  0  0  0
  -23.7239  -37.6476   23.6670 H   0  0  0  0  0  0
  -26.1199  -31.5286   20.6126 H   0  0  0  0  0  0
  -26.8539  -30.8144   22.0161 H   0  0  0  0  0  0
  -28.1267  -28.9237   21.1987 H   0  0  0  0  0  0
  -25.9306  -25.9320   18.9652 H   0  0  0  0  0  0
  -23.9719  -27.3191   18.9982 H   0  0  0  0  0  0
  -23.7778  -30.5933   19.4051 H   0  0  0  0  0  0
  -22.7669  -29.2519   19.8508 H   0  0  0  0  0  0
  -25.1296  -36.1906   25.0816 H   0  0  0  0  0  0
  -20.9997  -28.3294   24.1383 H   0  0  0  0  0  0
  -20.5689  -26.2320   23.3613 H   0  0  0  0  0  0
  -21.6651  -26.7447   22.1201 H   0  0  0  0  0  0
  -19.6918  -25.6300   21.1243 H   0  0  0  0  0  0
  -19.6691  -27.3198   20.6739 H   0  0  0  0  0  0
  -17.4205  -26.6682   21.4030 H   0  0  0  0  0  0
  -18.0338  -26.0081   22.9026 H   0  0  0  0  0  0
  -19.7949  -30.7278   24.2264 H   0  0  0  0  0  0
  -17.5028  -31.6272   24.5167 H   0  0  0  0  0  0
  -15.5364  -30.2991   23.7660 H   0  0  0  0  0  0
  -15.8682  -28.0822   22.7073 H   0  0  0  0  0  0
  -24.5904  -30.7097   25.7774 H   0  0  0  0  0  0
  -24.8935  -32.2918   26.4859 H   0  0  0  0  0  0
  -25.8048  -30.8925   27.0228 H   0  0  0  0  0  0
  -26.2959  -29.6733   24.1246 H   0  0  0  0  0  0
  -27.4033  -29.7272   25.4761 H   0  0  0  0  0  0
  -27.8844  -30.4262   23.9490 H   0  0  0  0  0  0
  -27.2654  -33.3634   26.2067 H   0  0  0  0  0  0
  -28.3879  -32.6896   25.0343 H   0  0  0  0  0  0
  -28.0718  -31.8472   26.5437 H   0  0  0  0  0  0
  -28.2589  -38.0097   24.7523 H   0  0  0  0  0  0
  -28.1081  -36.2630   24.6275 H   0  0  0  0  0  0
  -27.2299  -37.1422   25.8868 H   0  0  0  0  0  0
  -20.9402  -29.8778   21.6855 H   0  0  0  0  0  0
  -26.0161  -38.2837   24.1429 H   0  0  0  0  0  0
  -27.6682  -16.3844   22.2731 H   0  0  0  0  0  0
  -28.0618  -22.1473   21.2036 H   0  0  0  0  0  0
  -28.0727  -21.9348   19.4924 H   0  0  0  0  0  0
  -31.7952  -23.0070   20.1688 H   0  0  0  0  0  0
  -32.1236  -23.2958   21.8522 H   0  0  0  0  0  0
  -30.2886  -20.8788   19.5242 H   0  0  0  0  0  0
  -29.6803  -23.8255   19.2353 H   0  0  0  0  0  0
  -32.5716  -20.6178   20.3597 H   0  0  0  0  0  0
  -32.0107  -19.5991   21.6770 H   0  0  0  0  0  0
  -32.9919  -21.0063   22.0197 H   0  0  0  0  0  0
  -29.5171  -21.9764   23.1389 H   0  0  0  0  0  0
  -31.1942  -21.8604   23.6519 H   0  0  0  0  0  0
  -30.2826  -20.4096   23.3015 H   0  0  0  0  0  0
  -27.4794  -24.7394   21.1762 H   0  0  0  0  0  0
  -27.3833  -24.5957   19.4535 H   0  0  0  0  0  0
  -25.8515  -17.8676   22.9783 H   0  0  0  0  0  0
  -25.9590  -19.5491   22.7488 H   0  0  0  0  0  0
  -28.8801  -15.1500   21.3476 H   0  0  0  0  0  0
  -30.6332  -24.8732   21.0777 H   0  0  0  0  0  0
  -29.8440  -23.9534   22.1518 H   0  0  0  0  0  0
  1 25  1  0  0  0
  1 30  2  0  0  0
  1 86  1  0  0  0
  2  3  1  0  0  0
  2 25  1  0  0  0
  2 88  1  0  0  0
  2 89  1  0  0  0
  3  4  1  0  0  0
  3 90  1  0  0  0
  3 91  1  0  0  0
  4  5  1  0  0  0
  4 92  1  0  0  0
  4 93  1  0  0  0
  5  6  1  0  0  0
  5 26  1  0  0  0
  5 94  1  0  0  0
  6 25  1  0  0  0
  6 95  1  0  0  0
  6 96  1  0  0  0
  7  8  2  0  0  0
  7 26  1  0  0  0
  7 29  1  0  0  0
  8  9  1  0  0  0
  8 22  1  0  0  0
  9 10  1  0  0  0
  9 27  2  0  0  0
 10 11  2  0  0  0
 10 15  1  0  0  0
 11 12  1  0  0  0
 11 97  1  0  0  0
 12 13  2  0  0  0
 12 98  1  0  0  0
 13 14  1  0  0  0
 13 31  1  0  0  0
 14 15  2  0  0  0
 14 99  1  0  0  0
 15100  1  0  0  0
 16 17  2  0  0  0
 16 21  1  0  0  0
 16 31  1  0  0  0
 17 18  1  0  0  0
 17101  1  0  0  0
 18 19  2  0  0  0
 18102  1  0  0  0
 19 20  1  0  0  0
 19 24  1  0  0  0
 20 21  2  0  0  0
 20103  1  0  0  0
 21 23  1  0  0  0
 22 28  1  0  0  0
 22 32  2  0  0  0
 26 27  1  0  0  0
 28104  1  0  0  0
 28105  1  0  0  0
 29106  1  0  0  0
 29107  1  0  0  0
 33 34  1  0  0  0
 33 66  1  0  0  0
 33 70  2  0  0  0
 34 36  1  0  0  0
 34 59  1  0  0  0
 34108  1  0  0  0
 35 44  2  0  0  0
 35 45  1  0  0  0
 35 68  1  0  0  0
 36 56  1  0  0  0
 36109  1  0  0  0
 37 39  1  0  0  0
 37 47  1  0  0  0
 37 66  1  0  0  0
 37110  1  0  0  0
 38 43  2  0  0  0
 38 46  1  0  0  0
 38 47  1  0  0  0
 39 64  1  0  0  0
 39 67  2  0  0  0
 40 52  1  0  0  0
 40 53  2  0  0  0
 40 58  1  0  0  0
 41111  1  0  0  0
 41112  1  0  0  0
 41113  1  0  0  0
 41 48  1  0  0  0
 42 43  1  0  0  0
 42 66  1  0  0  0
 42114  1  0  0  0
 42115  1  0  0  0
 43 44  1  0  0  0
 44116  1  0  0  0
 45 46  2  0  0  0
 45117  1  0  0  0
 46118  1  0  0  0
 47119  1  0  0  0
 47120  1  0  0  0
 48 56  1  0  0  0
 48 65  1  0  0  0
 48121  1  0  0  0
 49 50  1  0  0  0
 49 53  1  0  0  0
 49 64  1  0  0  0
 49122  1  0  0  0
 50 51  1  0  0  0
 50123  1  0  0  0
 50124  1  0  0  0
 51 52  1  0  0  0
 51125  1  0  0  0
 51126  1  0  0  0
 52127  1  0  0  0
 52128  1  0  0  0
 53 54  1  0  0  0
 54 55  2  0  0  0
 54129  1  0  0  0
 55 57  1  0  0  0
 55130  1  0  0  0
 56 69  2  0  0  0
 57 58  2  0  0  0
 57131  1  0  0  0
 58132  1  0  0  0
 59 60  1  0  0  0
 59 61  1  0  0  0
 59 62  1  0  0  0
 60133  1  0  0  0
 60134  1  0  0  0
 60135  1  0  0  0
 61136  1  0  0  0
 61137  1  0  0  0
 61138  1  0  0  0
 62139  1  0  0  0
 62140  1  0  0  0
 62141  1  0  0  0
 63 65  1  0  0  0
 63142  1  0  0  0
 63143  1  0  0  0
 63144  1  0  0  0
 64145  1  0  0  0
 65146  1  0  0  0
 68 82  1  0  0  0
 71 72  2  0  0  0
 71 73  1  0  0  0
 71147  1  0  0  0
 72 83  1  0  0  0
 72 85  1  0  0  0
 73 84  2  0  0  0
 73 86  1  0  0  0
 74 83  2  0  0  0
 74 84  1  0  0  0
 74 77  1  0  0  0
 75 77  1  0  0  0
 75 78  1  0  0  0
 75148  1  0  0  0
 75149  1  0  0  0
 76 79  1  0  0  0
 76 87  1  0  0  0
 76150  1  0  0  0
 76151  1  0  0  0
 77 79  1  0  0  0
 77152  1  0  0  0
 78 82  1  0  0  0
 78 87  1  0  0  0
 78153  1  0  0  0
 79 80  1  0  0  0
 79 81  1  0  0  0
 80154  1  0  0  0
 80155  1  0  0  0
 80156  1  0  0  0
 81157  1  0  0  0
 81158  1  0  0  0
 81159  1  0  0  0
 82160  1  0  0  0
 82161  1  0  0  0
 85162  1  0  0  0
 85163  1  0  0  0
 86164  1  0  0  0
 87165  1  0  0  0
 87166  1  0  0  0
M  CHG  1  87   1
M  ISO  4   1 100  68 101  82 101  86 100
M  END
> <chiral flag>
0

> <version>
0

> <s_m_source_file>
/data/baiqing/PycharmProjects/Reinvent-master-3.2/result/LINK_invent/BTK/process_docking_weight1_custom_product_contain_oxygen_bond_distance_aromatic_linkinvent_7_9_3/rearranged_h_0163.sdf

> <i_m_source_file_index>
32

> <r_mmod_Potential_Energy-OPLS-2005>
-334.584747314453

> <r_mmod_Stretch_Energy-OPLS-2005>
138.588287353516

> <r_mmod_Bend_Energy-OPLS-2005>
251.548034667969

> <r_mmod_Torsional_Energy-OPLS-2005>
253.393447875977

> <r_mmod_Improper_Torsional_Energy-OPLS-2005>
6.09652233123779

> <r_mmod_Van_der_Waal_Energy-OPLS-2005>
150.439575195312

> <r_mmod_Electrostatic_Energy-OPLS-2005>
-755.407165527344

> <r_mmod_Solvation_Energy-OPLS-2005>
-463.72412109375

> <b_mmod_Minimization_Converged-OPLS-2005>
0

> <r_mmod_RMS_Derivative-OPLS-2005>
0.757174253463745

$$$$
32
                    3D
 Structure written by MMmdl.
161169  0  0  1  0            999 V2000
  -30.7018  -14.5238   20.4674 C   0  0  0  0  0  0
  -30.4134  -12.3132   19.4378 C   0  0  0  0  0  0
  -29.4900  -12.4627   18.2116 C   0  0  0  0  0  0
  -28.0162  -12.3223   18.6355 C   0  0  0  0  0  0
  -27.6513  -13.2100   19.8546 C   0  0  2  0  0  0
  -28.6966  -13.0795   20.9841 C   0  0  0  0  0  0
  -25.2576  -13.8167   20.5690 C   0  0  0  0  0  0
  -24.1838  -13.0450   20.9213 C   0  0  0  0  0  0
  -24.6389  -11.6916   20.8761 C   0  0  0  0  0  0
  -23.9056  -10.4297   21.0406 C   0  0  0  0  0  0
  -24.3612   -9.4213   21.9187 C   0  0  0  0  0  0
  -23.6292   -8.2247   22.0754 C   0  0  0  0  0  0
  -22.4271   -8.0283   21.3545 C   0  0  0  0  0  0
  -21.9904   -9.0255   20.4647 C   0  0  0  0  0  0
  -22.7225  -10.2140   20.3052 C   0  0  0  0  0  0
  -21.6858   -6.0733   22.5274 C   0  0  0  0  0  0
  -21.4011   -6.5636   23.8206 C   0  0  0  0  0  0
  -21.3661   -5.6798   24.9177 C   0  0  0  0  0  0
  -21.6046   -4.3058   24.7231 C   0  0  0  0  0  0
  -21.8823   -3.8143   23.4352 C   0  0  0  0  0  0
  -21.9194   -4.6960   22.3402 C   0  0  0  0  0  0
  -22.7868  -13.5248   21.1884 C   0  0  0  0  0  0
  -22.1669   -4.2140   21.0986 F   0  0  0  0  0  0
  -21.5628   -3.4540   25.7745 F   0  0  0  0  0  0
  -30.0188  -13.3492   20.4048 N   0  0  0  0  0  0
  -26.2993  -12.9341   20.3313 N   0  0  0  0  0  0
  -25.9309  -11.6499   20.5772 N   0  0  0  0  0  0
  -22.0511  -12.8225   22.0435 N   0  0  0  0  0  0
  -25.4312  -15.1885   20.4069 N   0  0  0  0  0  0
  -31.9048  -14.5818   20.2169 O   0  0  0  0  0  0
  -21.6647   -6.8870   21.4234 O   0  0  0  0  0  0
  -22.3551  -14.5553   20.6733 O   0  0  0  0  0  0
  -24.6153  -31.8673   23.2135 C   0  0  0  0  0  0
  -25.9053  -32.4799   23.8413 C   0  0  1  0  0  0
  -27.2118  -27.4123   20.0986 C   0  0  0  0  0  0
  -25.5901  -33.8610   24.2319 N   0  0  0  0  0  0
  -23.4009  -30.4960   21.5542 C   0  0  2  0  0  0
  -24.8387  -28.9615   20.1155 C   0  0  0  0  0  0
  -22.7400  -29.4668   22.4976 C   0  0  0  0  0  0
  -18.0275  -28.1375   22.8485 C   0  0  0  0  0  0
  -24.1488  -36.7321   23.2638 C   0  0  0  0  0  0
  -25.9328  -30.8241   21.3721 C   0  0  0  0  0  0
  -26.0023  -29.4601   20.7139 C   0  0  0  0  0  0
  -27.1918  -28.6959   20.6978 C   0  0  0  0  0  0
  -26.0329  -26.9381   19.4796 C   0  0  0  0  0  0
  -24.8509  -27.7021   19.4933 C   0  0  0  0  0  0
  -23.6061  -29.8357   20.1652 C   0  0  0  0  0  0
  -25.4108  -36.3105   24.0329 C   0  0  1  0  0  0
  -20.5860  -28.3675   23.1303 C   0  0  2  0  0  0
  -20.6758  -26.9405   22.5412 C   0  0  0  0  0  0
  -19.5735  -26.6384   21.5202 C   0  0  0  0  0  0
  -18.1920  -26.7921   22.1621 C   0  0  0  0  0  0
  -19.1525  -28.8840   23.2894 C   0  0  0  0  0  0
  -18.9450  -30.1440   23.8912 C   0  0  0  0  0  0
  -17.6453  -30.6584   24.0562 C   0  0  0  0  0  0
  -25.9028  -34.9466   23.5115 C   0  0  0  0  0  0
  -16.5342  -29.9080   23.6326 C   0  0  0  0  0  0
  -16.7262  -28.6494   23.0345 C   0  0  0  0  0  0
  -26.4494  -31.6589   25.0748 C   0  0  0  0  0  0
  -25.3774  -31.3676   26.1496 C   0  0  0  0  0  0
  -27.0332  -30.3028   24.6151 C   0  0  0  0  0  0
  -27.6071  -32.4329   25.7493 C   0  0  0  0  0  0
  -27.5583  -37.1819   24.8464 C   0  0  0  0  0  0
  -21.4129  -29.3040   22.3704 N   0  0  0  0  0  0
  -26.4299  -37.3786   23.9398 N   0  0  0  0  0  0
  -24.6678  -31.0769   22.1044 N   0  0  0  0  0  0
  -23.4159  -28.8207   23.3026 O   0  0  0  0  0  0
  -28.3857  -26.6853   20.0829 O   0  0  0  0  0  0
  -26.5604  -34.8924   22.4682 O   0  0  0  0  0  0
  -23.5348  -32.1444   23.7518 O   0  0  0  0  0  0
  -29.6892  -18.0583   21.0990 C   0  0  0  0  0  0
  -31.7986  -18.7202   19.4010 C   0  0  0  0  0  0
  -30.0947  -19.4251   21.0139 C   0  0  0  0  0  0
  -30.3426  -17.0151   20.3871 C   0  0  0  0  0  0
  -31.2491  -19.7137   20.2360 C   0  0  0  0  0  0
  -31.3311  -17.3942   19.4412 C   0  0  0  0  0  0
  -29.3652  -20.4416   21.8578 C   0  0  0  0  0  0
  -28.8393  -21.7929   21.3028 C   0  0  0  0  0  0
  -29.7341  -23.4407   19.4024 C   0  0  0  0  0  0
  -30.9346  -23.1793   18.5155 C   0  0  0  0  0  0
  -28.9210  -22.1706   19.8045 C   0  0  0  0  0  0
  -28.3418  -25.2531   20.2580 C   0  0  0  0  0  0
  -29.1635  -20.1711   23.0850 N   0  0  0  0  0  0
  -28.2313  -22.5874   22.0862 N   0  0  0  0  0  0
  -29.5120  -24.6887   19.6190 N   0  0  0  0  0  0
  -31.9251  -20.9359   20.3124 N   0  0  0  0  0  0
  -29.9486  -15.6431   20.6130 N   0  0  0  0  0  0
  -31.8392  -16.5136   18.5464 F   0  0  0  0  0  0
  -31.4579  -12.3993   19.1331 H   0  0  0  0  0  0
  -30.3112  -11.3244   19.8845 H   0  0  0  0  0  0
  -29.7325  -11.7041   17.4669 H   0  0  0  0  0  0
  -29.6542  -13.4280   17.7293 H   0  0  0  0  0  0
  -27.8521  -11.2730   18.8837 H   0  0  0  0  0  0
  -27.3559  -12.5430   17.7967 H   0  0  0  0  0  0
  -27.6705  -14.2392   19.4992 H   0  0  0  0  0  0
  -28.6777  -12.0793   21.4185 H   0  0  0  0  0  0
  -28.4739  -13.7697   21.8000 H   0  0  0  0  0  0
  -25.2749   -9.5702   22.4767 H   0  0  0  0  0  0
  -24.0008   -7.4632   22.7464 H   0  0  0  0  0  0
  -21.0845   -8.8774   19.8938 H   0  0  0  0  0  0
  -22.3681  -10.9690   19.6166 H   0  0  0  0  0  0
  -21.2000   -7.6143   23.9708 H   0  0  0  0  0  0
  -21.1480   -6.0527   25.9079 H   0  0  0  0  0  0
  -22.0596   -2.7600   23.2862 H   0  0  0  0  0  0
  -22.4127  -11.9867   22.4795 H   0  0  0  0  0  0
  -21.1116  -13.1227   22.2626 H   0  0  0  0  0  0
  -24.6660  -15.8452   20.5135 H   0  0  0  0  0  0
  -26.2767  -15.6230   20.0596 H   0  0  0  0  0  0
  -26.7097  -32.5476   23.1145 H   0  0  0  0  0  0
  -25.0070  -33.9765   25.0473 H   0  0  0  0  0  0
  -22.6910  -31.3153   21.4215 H   0  0  0  0  0  0
  -23.3736  -35.9672   23.3314 H   0  0  0  0  0  0
  -24.3575  -36.8931   22.2054 H   0  0  0  0  0  0
  -23.7275  -37.6536   23.6656 H   0  0  0  0  0  0
  -26.0596  -31.5936   20.6095 H   0  0  0  0  0  0
  -26.8149  -30.8617   22.0001 H   0  0  0  0  0  0
  -28.0925  -29.0810   21.1564 H   0  0  0  0  0  0
  -26.0076  -25.9951   18.9563 H   0  0  0  0  0  0
  -23.9613  -27.3234   19.0077 H   0  0  0  0  0  0
  -23.7162  -30.6153   19.4109 H   0  0  0  0  0  0
  -22.7258  -29.2639   19.8654 H   0  0  0  0  0  0
  -25.1290  -36.1971   25.0828 H   0  0  0  0  0  0
  -20.9964  -28.3253   24.1414 H   0  0  0  0  0  0
  -20.5653  -26.2294   23.3609 H   0  0  0  0  0  0
  -21.6634  -26.7443   22.1207 H   0  0  0  0  0  0
  -19.6907  -25.6295   21.1226 H   0  0  0  0  0  0
  -19.6668  -27.3199   20.6730 H   0  0  0  0  0  0
  -17.4189  -26.6669   21.4022 H   0  0  0  0  0  0
  -18.0335  -26.0047   22.9008 H   0  0  0  0  0  0
  -19.7923  -30.7247   24.2294 H   0  0  0  0  0  0
  -17.5005  -31.6257   24.5165 H   0  0  0  0  0  0
  -15.5343  -30.2983   23.7633 H   0  0  0  0  0  0
  -15.8666  -28.0805   22.7060 H   0  0  0  0  0  0
  -24.5930  -30.7053   25.7809 H   0  0  0  0  0  0
  -24.8989  -32.2822   26.5016 H   0  0  0  0  0  0
  -25.8124  -30.8779   27.0219 H   0  0  0  0  0  0
  -26.2866  -29.6770   24.1250 H   0  0  0  0  0  0
  -27.4134  -29.7288   25.4615 H   0  0  0  0  0  0
  -27.8696  -30.4326   23.9281 H   0  0  0  0  0  0
  -27.2676  -33.3600   26.2131 H   0  0  0  0  0  0
  -28.3828  -32.6951   25.0283 H   0  0  0  0  0  0
  -28.0814  -31.8447   26.5362 H   0  0  0  0  0  0
  -28.2607  -38.0103   24.7477 H   0  0  0  0  0  0
  -28.1065  -36.2638   24.6322 H   0  0  0  0  0  0
  -27.2291  -37.1503   25.8861 H   0  0  0  0  0  0
  -20.9297  -29.8746   21.6904 H   0  0  0  0  0  0
  -26.0185  -38.2869   24.1368 H   0  0  0  0  0  0
  -28.8677  -17.8023   21.7518 H   0  0  0  0  0  0
  -32.6179  -18.9530   18.7365 H   0  0  0  0  0  0
  -31.8550  -23.4234   19.0442 H   0  0  0  0  0  0
  -30.8839  -23.8107   17.6278 H   0  0  0  0  0  0
  -30.9849  -22.1498   18.1700 H   0  0  0  0  0  0
  -27.8999  -22.3096   19.4525 H   0  0  0  0  0  0
  -29.2720  -21.3139   19.2338 H   0  0  0  0  0  0
  -28.3766  -25.0733   21.3313 H   0  0  0  0  0  0
  -27.4363  -24.7753   19.8860 H   0  0  0  0  0  0
  -28.6689  -20.9173   23.5525 H   0  0  0  0  0  0
  -28.1836  -22.2365   23.0330 H   0  0  0  0  0  0
  -32.8521  -20.9900   19.9011 H   0  0  0  0  0  0
  -31.8831  -21.4553   21.1829 H   0  0  0  0  0  0
  -28.9978  -15.4906   20.9094 H   0  0  0  0  0  0
  1 25  1  0  0  0
  1 30  2  0  0  0
  1 87  1  0  0  0
  2  3  1  0  0  0
  2 25  1  0  0  0
  2 89  1  0  0  0
  2 90  1  0  0  0
  3  4  1  0  0  0
  3 91  1  0  0  0
  3 92  1  0  0  0
  4  5  1  0  0  0
  4 93  1  0  0  0
  4 94  1  0  0  0
  5  6  1  0  0  0
  5 26  1  0  0  0
  5 95  1  0  0  0
  6 25  1  0  0  0
  6 96  1  0  0  0
  6 97  1  0  0  0
  7  8  2  0  0  0
  7 26  1  0  0  0
  7 29  1  0  0  0
  8  9  1  0  0  0
  8 22  1  0  0  0
  9 10  1  0  0  0
  9 27  2  0  0  0
 10 11  2  0  0  0
 10 15  1  0  0  0
 11 12  1  0  0  0
 11 98  1  0  0  0
 12 13  2  0  0  0
 12 99  1  0  0  0
 13 14  1  0  0  0
 13 31  1  0  0  0
 14 15  2  0  0  0
 14100  1  0  0  0
 15101  1  0  0  0
 16 17  2  0  0  0
 16 21  1  0  0  0
 16 31  1  0  0  0
 17 18  1  0  0  0
 17102  1  0  0  0
 18 19  2  0  0  0
 18103  1  0  0  0
 19 20  1  0  0  0
 19 24  1  0  0  0
 20 21  2  0  0  0
 20104  1  0  0  0
 21 23  1  0  0  0
 22 28  1  0  0  0
 22 32  2  0  0  0
 26 27  1  0  0  0
 28105  1  0  0  0
 28106  1  0  0  0
 29107  1  0  0  0
 29108  1  0  0  0
 33 34  1  0  0  0
 33 66  1  0  0  0
 33 70  2  0  0  0
 34 36  1  0  0  0
 34 59  1  0  0  0
 34109  1  0  0  0
 35 44  2  0  0  0
 35 45  1  0  0  0
 35 68  1  0  0  0
 36 56  1  0  0  0
 36110  1  0  0  0
 37 39  1  0  0  0
 37 47  1  0  0  0
 37 66  1  0  0  0
 37111  1  0  0  0
 38 43  2  0  0  0
 38 46  1  0  0  0
 38 47  1  0  0  0
 39 64  1  0  0  0
 39 67  2  0  0  0
 40 52  1  0  0  0
 40 53  2  0  0  0
 40 58  1  0  0  0
 41112  1  0  0  0
 41113  1  0  0  0
 41114  1  0  0  0
 41 48  1  0  0  0
 42 43  1  0  0  0
 42 66  1  0  0  0
 42115  1  0  0  0
 42116  1  0  0  0
 43 44  1  0  0  0
 44117  1  0  0  0
 45 46  2  0  0  0
 45118  1  0  0  0
 46119  1  0  0  0
 47120  1  0  0  0
 47121  1  0  0  0
 48 56  1  0  0  0
 48 65  1  0  0  0
 48122  1  0  0  0
 49 50  1  0  0  0
 49 53  1  0  0  0
 49 64  1  0  0  0
 49123  1  0  0  0
 50 51  1  0  0  0
 50124  1  0  0  0
 50125  1  0  0  0
 51 52  1  0  0  0
 51126  1  0  0  0
 51127  1  0  0  0
 52128  1  0  0  0
 52129  1  0  0  0
 53 54  1  0  0  0
 54 55  2  0  0  0
 54130  1  0  0  0
 55 57  1  0  0  0
 55131  1  0  0  0
 56 69  2  0  0  0
 57 58  2  0  0  0
 57132  1  0  0  0
 58133  1  0  0  0
 59 60  1  0  0  0
 59 61  1  0  0  0
 59 62  1  0  0  0
 60134  1  0  0  0
 60135  1  0  0  0
 60136  1  0  0  0
 61137  1  0  0  0
 61138  1  0  0  0
 61139  1  0  0  0
 62140  1  0  0  0
 62141  1  0  0  0
 62142  1  0  0  0
 63 65  1  0  0  0
 63143  1  0  0  0
 63144  1  0  0  0
 63145  1  0  0  0
 64146  1  0  0  0
 65147  1  0  0  0
 68 82  1  0  0  0
 71 73  2  0  0  0
 71 74  1  0  0  0
 71148  1  0  0  0
 72 75  2  0  0  0
 72 76  1  0  0  0
 72149  1  0  0  0
 73 75  1  0  0  0
 73 77  1  0  0  0
 74 76  2  0  0  0
 74 87  1  0  0  0
 75 86  1  0  0  0
 76 88  1  0  0  0
 77 78  1  0  0  0
 77 83  2  0  0  0
 78 81  1  0  0  0
 78 84  2  0  0  0
 79 80  1  0  0  0
 79 81  1  0  0  0
 79 85  2  0  0  0
 80150  1  0  0  0
 80151  1  0  0  0
 80152  1  0  0  0
 81153  1  0  0  0
 81154  1  0  0  0
 82 85  1  0  0  0
 82155  1  0  0  0
 82156  1  0  0  0
 83157  1  0  0  0
 84158  1  0  0  0
 86159  1  0  0  0
 86160  1  0  0  0
 87161  1  0  0  0
M  ISO  4   1 100  68 101  82 101  87 100
M  END
> <chiral flag>
0

> <version>
0

> <s_m_source_file>
/data/baiqing/PycharmProjects/Reinvent-master-3.2/result/LINK_invent/BTK/process_docking_weight1_custom_product_contain_oxygen_bond_distance_aromatic_linkinvent_7_9_3/rearranged_h_0163.sdf

> <i_m_source_file_index>
33

> <r_mmod_Potential_Energy-OPLS-2005>
87.3999176025391

> <r_mmod_Stretch_Energy-OPLS-2005>
54.2769584655762

> <r_mmod_Bend_Energy-OPLS-2005>
158.297592163086

> <r_mmod_Torsional_Energy-OPLS-2005>
273.275512695312

> <r_mmod_Improper_Torsional_Energy-OPLS-2005>
10.4457693099976

> <r_mmod_Van_der_Waal_Energy-OPLS-2005>
173.961685180664

> <r_mmod_Electrostatic_Energy-OPLS-2005>
-355.084289550781

> <r_mmod_Solvation_Energy-OPLS-2005>
-254.776519775391

> <b_mmod_Minimization_Converged-OPLS-2005>
0

> <r_mmod_RMS_Derivative-OPLS-2005>
3.06214809417725

$$$$
33
                    3D
 Structure written by MMmdl.
167175  0  0  1  0            999 V2000
  -30.7474  -14.3747   20.5559 C   0  0  0  0  0  0
  -30.4157  -12.2373   19.4212 C   0  0  0  0  0  0
  -29.4978  -12.4875   18.2054 C   0  0  0  0  0  0
  -28.0119  -12.3865   18.6070 C   0  0  0  0  0  0
  -27.6748  -13.2020   19.8837 C   0  0  2  0  0  0
  -28.7140  -12.9500   21.0041 C   0  0  0  0  0  0
  -25.2637  -13.8147   20.5628 C   0  0  0  0  0  0
  -24.1879  -13.0439   20.9151 C   0  0  0  0  0  0
  -24.6418  -11.6909   20.8733 C   0  0  0  0  0  0
  -23.9063  -10.4309   21.0399 C   0  0  0  0  0  0
  -24.3616   -9.4208   21.9179 C   0  0  0  0  0  0
  -23.6300   -8.2238   22.0734 C   0  0  0  0  0  0
  -22.4266   -8.0298   21.3526 C   0  0  0  0  0  0
  -21.9905   -9.0276   20.4625 C   0  0  0  0  0  0
  -22.7243  -10.2169   20.3043 C   0  0  0  0  0  0
  -21.6858   -6.0750   22.5287 C   0  0  0  0  0  0
  -21.4012   -6.5647   23.8227 C   0  0  0  0  0  0
  -21.3652   -5.6791   24.9175 C   0  0  0  0  0  0
  -21.6051   -4.3054   24.7208 C   0  0  0  0  0  0
  -21.8825   -3.8146   23.4331 C   0  0  0  0  0  0
  -21.9191   -4.6968   22.3388 C   0  0  0  0  0  0
  -22.7902  -13.5249   21.1810 C   0  0  0  0  0  0
  -22.1667   -4.2155   21.0965 F   0  0  0  0  0  0
  -21.5628   -3.4538   25.7724 F   0  0  0  0  0  0
  -30.0618  -13.2076   20.4659 N   0  0  0  0  0  0
  -26.3098  -12.9318   20.3377 N   0  0  0  0  0  0
  -25.9347  -11.6481   20.5773 N   0  0  0  0  0  0
  -22.0506  -12.8294   22.0380 N   0  0  0  0  0  0
  -25.4389  -15.1858   20.3945 N   0  0  0  0  0  0
  -31.8256  -14.5924   19.9935 O   0  0  0  0  0  0
  -21.6623   -6.8906   21.4253 O   0  0  0  0  0  0
  -22.3615  -14.5563   20.6668 O   0  0  0  0  0  0
  -24.6137  -31.8704   23.2134 C   0  0  0  0  0  0
  -25.9036  -32.4834   23.8421 C   0  0  1  0  0  0
  -27.2281  -27.4600   20.0584 C   0  0  0  0  0  0
  -25.5900  -33.8626   24.2353 N   0  0  0  0  0  0
  -23.3998  -30.4974   21.5516 C   0  0  2  0  0  0
  -24.8388  -28.9604   20.1175 C   0  0  0  0  0  0
  -22.7396  -29.4686   22.4982 C   0  0  0  0  0  0
  -18.0267  -28.1380   22.8486 C   0  0  0  0  0  0
  -24.1472  -36.7319   23.2641 C   0  0  0  0  0  0
  -25.9273  -30.8326   21.3669 C   0  0  0  0  0  0
  -25.9973  -29.4672   20.7181 C   0  0  0  0  0  0
  -27.1906  -28.7149   20.7021 C   0  0  0  0  0  0
  -26.0441  -26.9509   19.4783 C   0  0  0  0  0  0
  -24.8519  -27.6966   19.5067 C   0  0  0  0  0  0
  -23.6078  -29.8342   20.1643 C   0  0  0  0  0  0
  -25.4085  -36.3114   24.0356 C   0  0  1  0  0  0
  -20.5858  -28.3658   23.1310 C   0  0  2  0  0  0
  -20.6738  -26.9392   22.5410 C   0  0  0  0  0  0
  -19.5730  -26.6392   21.5187 C   0  0  0  0  0  0
  -18.1912  -26.7933   22.1604 C   0  0  0  0  0  0
  -19.1519  -28.8828   23.2905 C   0  0  0  0  0  0
  -18.9460  -30.1427   23.8925 C   0  0  0  0  0  0
  -17.6468  -30.6590   24.0557 C   0  0  0  0  0  0
  -25.9029  -34.9486   23.5154 C   0  0  0  0  0  0
  -16.5351  -29.9102   23.6318 C   0  0  0  0  0  0
  -16.7260  -28.6511   23.0350 C   0  0  0  0  0  0
  -26.4482  -31.6612   25.0740 C   0  0  0  0  0  0
  -25.3793  -31.3728   26.1540 C   0  0  0  0  0  0
  -27.0274  -30.3054   24.6095 C   0  0  0  0  0  0
  -27.6120  -32.4300   25.7434 C   0  0  0  0  0  0
  -27.5597  -37.1766   24.8445 C   0  0  0  0  0  0
  -21.4125  -29.3042   22.3721 N   0  0  0  0  0  0
  -26.4257  -37.3821   23.9470 N   0  0  0  0  0  0
  -24.6649  -31.0826   22.1019 N   0  0  0  0  0  0
  -23.4185  -28.8211   23.2996 O   0  0  0  0  0  0
  -28.4227  -26.7801   20.0221 O   0  0  0  0  0  0
  -26.5582  -34.8944   22.4710 O   0  0  0  0  0  0
  -23.5337  -32.1420   23.7545 O   0  0  0  0  0  0
  -29.9222  -19.1267   20.5266 C   0  0  0  0  0  0
  -29.4943  -20.5620   22.4205 C   0  0  0  0  0  0
  -29.7659  -17.9600   21.3182 C   0  0  0  0  0  0
  -29.5488  -18.1173   22.7323 C   0  0  0  0  0  0
  -29.7662  -20.4139   21.0480 C   0  0  0  0  0  0
  -29.4164  -19.4367   23.2789 C   0  0  0  0  0  0
  -29.4262  -16.9251   23.6320 C   0  0  0  0  0  0
  -29.8838  -16.6685   20.5733 C   0  0  0  0  0  0
  -28.6160  -24.5062   19.1748 C   0  0  0  0  0  0
  -30.0503  -22.7932   20.3287 C   0  0  0  0  0  0
  -30.4153  -16.8152   24.7857 C   0  0  0  0  0  0
  -29.6792  -20.8848   25.2702 C   0  0  0  0  0  0
  -29.9157  -23.6984   19.1019 C   0  0  0  0  0  0
  -28.7046  -26.0017   18.8544 C   0  0  0  0  0  0
  -29.8234  -21.4872   20.1177 N   0  0  0  0  0  0
  -29.1791  -19.6598   24.6541 N   0  0  0  0  0  0
  -30.0837  -15.4711   21.1637 N   0  0  0  0  0  0
  -29.7319  -16.7053   19.2340 N   0  3  0  0  0  0
  -28.6669  -15.9772   23.4067 O   0  0  0  0  0  0
  -27.5282  -23.9693   19.4156 O   0  0  0  0  0  0
  -30.3896  -23.2654   21.4172 O   0  0  0  0  0  0
  -31.4652  -12.3071   19.1256 H   0  0  0  0  0  0
  -30.2902  -11.2198   19.7968 H   0  0  0  0  0  0
  -29.7233  -11.7660   17.4177 H   0  0  0  0  0  0
  -29.6997  -13.4730   17.7817 H   0  0  0  0  0  0
  -27.7807  -11.3339   18.7654 H   0  0  0  0  0  0
  -27.3810  -12.7160   17.7801 H   0  0  0  0  0  0
  -27.7371  -14.2556   19.6085 H   0  0  0  0  0  0
  -28.6571  -11.9100   21.3313 H   0  0  0  0  0  0
  -28.4894  -13.5446   21.8887 H   0  0  0  0  0  0
  -25.2770   -9.5692   22.4740 H   0  0  0  0  0  0
  -24.0012   -7.4634   22.7462 H   0  0  0  0  0  0
  -21.0825   -8.8810   19.8965 H   0  0  0  0  0  0
  -22.3696  -10.9702   19.6145 H   0  0  0  0  0  0
  -21.2012   -7.6161   23.9741 H   0  0  0  0  0  0
  -21.1469   -6.0502   25.9094 H   0  0  0  0  0  0
  -22.0609   -2.7610   23.2802 H   0  0  0  0  0  0
  -22.4042  -11.9935   22.4814 H   0  0  0  0  0  0
  -21.1129  -13.1402   22.2545 H   0  0  0  0  0  0
  -24.6712  -15.8412   20.4796 H   0  0  0  0  0  0
  -26.2783  -15.6070   20.0186 H   0  0  0  0  0  0
  -26.7098  -32.5549   23.1180 H   0  0  0  0  0  0
  -25.0035  -33.9779   25.0488 H   0  0  0  0  0  0
  -22.6905  -31.3160   21.4154 H   0  0  0  0  0  0
  -23.3778  -35.9601   23.3199 H   0  0  0  0  0  0
  -24.3600  -36.9030   22.2077 H   0  0  0  0  0  0
  -23.7142  -37.6469   23.6702 H   0  0  0  0  0  0
  -26.0417  -31.5950   20.5953 H   0  0  0  0  0  0
  -26.8186  -30.8861   21.9804 H   0  0  0  0  0  0
  -28.0898  -29.1012   21.1596 H   0  0  0  0  0  0
  -26.0212  -25.9836   18.9983 H   0  0  0  0  0  0
  -23.9559  -27.3011   19.0486 H   0  0  0  0  0  0
  -23.7274  -30.6108   19.4075 H   0  0  0  0  0  0
  -22.7295  -29.2610   19.8626 H   0  0  0  0  0  0
  -25.1239  -36.1964   25.0845 H   0  0  0  0  0  0
  -20.9953  -28.3196   24.1425 H   0  0  0  0  0  0
  -20.5562  -26.2271   23.3595 H   0  0  0  0  0  0
  -21.6621  -26.7381   22.1248 H   0  0  0  0  0  0
  -19.6882  -25.6302   21.1211 H   0  0  0  0  0  0
  -19.6691  -27.3196   20.6712 H   0  0  0  0  0  0
  -17.4178  -26.6666   21.4019 H   0  0  0  0  0  0
  -18.0333  -26.0072   22.9000 H   0  0  0  0  0  0
  -19.7941  -30.7212   24.2336 H   0  0  0  0  0  0
  -17.5040  -31.6276   24.5149 H   0  0  0  0  0  0
  -15.5358  -30.3024   23.7644 H   0  0  0  0  0  0
  -15.8649  -28.0846   22.7069 H   0  0  0  0  0  0
  -24.5946  -30.7077   25.7916 H   0  0  0  0  0  0
  -24.9020  -32.2885   26.5043 H   0  0  0  0  0  0
  -25.8209  -30.8881   27.0259 H   0  0  0  0  0  0
  -26.2753  -29.6798   24.1278 H   0  0  0  0  0  0
  -27.4171  -29.7324   25.4519 H   0  0  0  0  0  0
  -27.8554  -30.4374   23.9128 H   0  0  0  0  0  0
  -27.2827  -33.3617   26.2046 H   0  0  0  0  0  0
  -28.3892  -32.6820   25.0201 H   0  0  0  0  0  0
  -28.0835  -31.8390   26.5296 H   0  0  0  0  0  0
  -28.2545  -38.0137   24.7640 H   0  0  0  0  0  0
  -28.1158  -36.2691   24.6050 H   0  0  0  0  0  0
  -27.2367  -37.1157   25.8854 H   0  0  0  0  0  0
  -20.9259  -29.8831   21.7020 H   0  0  0  0  0  0
  -26.0147  -38.2872   24.1609 H   0  0  0  0  0  0
  -30.1517  -19.0623   19.4710 H   0  0  0  0  0  0
  -29.3215  -21.5490   22.8161 H   0  0  0  0  0  0
  -31.1398  -17.6295   24.7588 H   0  0  0  0  0  0
  -30.9587  -15.8730   24.7123 H   0  0  0  0  0  0
  -29.8894  -16.8367   25.7397 H   0  0  0  0  0  0
  -29.7800  -20.7469   26.3487 H   0  0  0  0  0  0
  -28.9922  -21.7150   25.1002 H   0  0  0  0  0  0
  -30.6617  -21.1584   24.8803 H   0  0  0  0  0  0
  -30.7796  -24.3600   19.0492 H   0  0  0  0  0  0
  -29.9094  -23.1069   18.1848 H   0  0  0  0  0  0
  -28.0346  -26.2422   18.0274 H   0  0  0  0  0  0
  -29.7089  -26.2434   18.5069 H   0  0  0  0  0  0
  -29.6730  -21.2326   19.1509 H   0  0  0  0  0  0
  -29.1298  -18.8594   25.2767 H   0  0  0  0  0  0
  -29.4528  -15.3440   21.9509 H   0  0  0  0  0  0
  -29.4282  -17.5621   18.7986 H   0  0  0  0  0  0
  -29.9591  -15.9307   18.6336 H   0  0  0  0  0  0
  1 25  1  0  0  0
  1 30  2  0  0  0
  1 87  1  0  0  0
  2  3  1  0  0  0
  2 25  1  0  0  0
  2 92  1  0  0  0
  2 93  1  0  0  0
  3  4  1  0  0  0
  3 94  1  0  0  0
  3 95  1  0  0  0
  4  5  1  0  0  0
  4 96  1  0  0  0
  4 97  1  0  0  0
  5  6  1  0  0  0
  5 26  1  0  0  0
  5 98  1  0  0  0
  6 25  1  0  0  0
  6 99  1  0  0  0
  6100  1  0  0  0
  7  8  2  0  0  0
  7 26  1  0  0  0
  7 29  1  0  0  0
  8  9  1  0  0  0
  8 22  1  0  0  0
  9 10  1  0  0  0
  9 27  2  0  0  0
 10 11  2  0  0  0
 10 15  1  0  0  0
 11 12  1  0  0  0
 11101  1  0  0  0
 12 13  2  0  0  0
 12102  1  0  0  0
 13 14  1  0  0  0
 13 31  1  0  0  0
 14 15  2  0  0  0
 14103  1  0  0  0
 15104  1  0  0  0
 16 17  2  0  0  0
 16 21  1  0  0  0
 16 31  1  0  0  0
 17 18  1  0  0  0
 17105  1  0  0  0
 18 19  2  0  0  0
 18106  1  0  0  0
 19 20  1  0  0  0
 19 24  1  0  0  0
 20 21  2  0  0  0
 20107  1  0  0  0
 21 23  1  0  0  0
 22 28  1  0  0  0
 22 32  2  0  0  0
 26 27  1  0  0  0
 28108  1  0  0  0
 28109  1  0  0  0
 29110  1  0  0  0
 29111  1  0  0  0
 33 34  1  0  0  0
 33 66  1  0  0  0
 33 70  2  0  0  0
 34 36  1  0  0  0
 34 59  1  0  0  0
 34112  1  0  0  0
 35 44  2  0  0  0
 35 45  1  0  0  0
 35 68  1  0  0  0
 36 56  1  0  0  0
 36113  1  0  0  0
 37 39  1  0  0  0
 37 47  1  0  0  0
 37 66  1  0  0  0
 37114  1  0  0  0
 38 43  2  0  0  0
 38 46  1  0  0  0
 38 47  1  0  0  0
 39 64  1  0  0  0
 39 67  2  0  0  0
 40 52  1  0  0  0
 40 53  2  0  0  0
 40 58  1  0  0  0
 41115  1  0  0  0
 41116  1  0  0  0
 41117  1  0  0  0
 41 48  1  0  0  0
 42 43  1  0  0  0
 42 66  1  0  0  0
 42118  1  0  0  0
 42119  1  0  0  0
 43 44  1  0  0  0
 44120  1  0  0  0
 45 46  2  0  0  0
 45121  1  0  0  0
 46122  1  0  0  0
 47123  1  0  0  0
 47124  1  0  0  0
 48 56  1  0  0  0
 48 65  1  0  0  0
 48125  1  0  0  0
 49 50  1  0  0  0
 49 53  1  0  0  0
 49 64  1  0  0  0
 49126  1  0  0  0
 50 51  1  0  0  0
 50127  1  0  0  0
 50128  1  0  0  0
 51 52  1  0  0  0
 51129  1  0  0  0
 51130  1  0  0  0
 52131  1  0  0  0
 52132  1  0  0  0
 53 54  1  0  0  0
 54 55  2  0  0  0
 54133  1  0  0  0
 55 57  1  0  0  0
 55134  1  0  0  0
 56 69  2  0  0  0
 57 58  2  0  0  0
 57135  1  0  0  0
 58136  1  0  0  0
 59 60  1  0  0  0
 59 61  1  0  0  0
 59 62  1  0  0  0
 60137  1  0  0  0
 60138  1  0  0  0
 60139  1  0  0  0
 61140  1  0  0  0
 61141  1  0  0  0
 61142  1  0  0  0
 62143  1  0  0  0
 62144  1  0  0  0
 62145  1  0  0  0
 63 65  1  0  0  0
 63146  1  0  0  0
 63147  1  0  0  0
 63148  1  0  0  0
 64149  1  0  0  0
 65150  1  0  0  0
 68 84  1  0  0  0
 71 73  2  0  0  0
 71 75  1  0  0  0
 71151  1  0  0  0
 72 75  2  0  0  0
 72 76  1  0  0  0
 72152  1  0  0  0
 73 74  1  0  0  0
 73 78  1  0  0  0
 74 76  2  0  0  0
 74 77  1  0  0  0
 75 85  1  0  0  0
 76 86  1  0  0  0
 77 81  1  0  0  0
 77 89  2  0  0  0
 78 87  1  0  0  0
 78 88  2  0  0  0
 79 83  1  0  0  0
 79 84  1  0  0  0
 79 90  2  0  0  0
 80 83  1  0  0  0
 80 85  1  0  0  0
 80 91  2  0  0  0
 81153  1  0  0  0
 81154  1  0  0  0
 81155  1  0  0  0
 82 86  1  0  0  0
 82156  1  0  0  0
 82157  1  0  0  0
 82158  1  0  0  0
 83159  1  0  0  0
 83160  1  0  0  0
 84161  1  0  0  0
 84162  1  0  0  0
 85163  1  0  0  0
 86164  1  0  0  0
 87165  1  0  0  0
 88166  1  0  0  0
 88167  1  0  0  0
M  CHG  1  88   1
M  ISO  4   1 100  68 101  84 101  87 100
M  END
> <chiral flag>
0

> <version>
0

> <s_m_source_file>
/data/baiqing/PycharmProjects/Reinvent-master-3.2/result/LINK_invent/BTK/process_docking_weight1_custom_product_contain_oxygen_bond_distance_aromatic_linkinvent_7_9_3/rearranged_h_0163.sdf

> <i_m_source_file_index>
34

> <r_mmod_Potential_Energy-OPLS-2005>
-235.19010925293

> <r_mmod_Stretch_Energy-OPLS-2005>
42.7467460632324

> <r_mmod_Bend_Energy-OPLS-2005>
120.292861938477

> <r_mmod_Torsional_Energy-OPLS-2005>
330.804626464844

> <r_mmod_Improper_Torsional_Energy-OPLS-2005>
10.5184345245361

> <r_mmod_Van_der_Waal_Energy-OPLS-2005>
199.889999389648

> <r_mmod_Electrostatic_Energy-OPLS-2005>
-470.058776855469

> <r_mmod_Solvation_Energy-OPLS-2005>
-479.953277587891

> <b_mmod_Minimization_Converged-OPLS-2005>
0

> <r_mmod_RMS_Derivative-OPLS-2005>
3.58302330970764

$$$$
34
                    3D
 Structure written by MMmdl.
155164  0  0  1  0            999 V2000
  -30.6318  -14.5686   20.5544 C   0  0  0  0  0  0
  -30.4422  -12.3592   19.4380 C   0  0  0  0  0  0
  -29.5092  -12.5219   18.2175 C   0  0  0  0  0  0
  -28.0290  -12.3680   18.6236 C   0  0  0  0  0  0
  -27.6632  -13.2073   19.8765 C   0  0  2  0  0  0
  -28.7045  -12.9975   20.9994 C   0  0  0  0  0  0
  -25.2614  -13.8160   20.5713 C   0  0  0  0  0  0
  -24.1848  -13.0443   20.9172 C   0  0  0  0  0  0
  -24.6389  -11.6907   20.8710 C   0  0  0  0  0  0
  -23.9047  -10.4300   21.0388 C   0  0  0  0  0  0
  -24.3598   -9.4217   21.9173 C   0  0  0  0  0  0
  -23.6277   -8.2257   22.0758 C   0  0  0  0  0  0
  -22.4263   -8.0284   21.3551 C   0  0  0  0  0  0
  -21.9885   -9.0258   20.4653 C   0  0  0  0  0  0
  -22.7217  -10.2136   20.3045 C   0  0  0  0  0  0
  -21.6859   -6.0722   22.5270 C   0  0  0  0  0  0
  -21.4021   -6.5625   23.8202 C   0  0  0  0  0  0
  -21.3660   -5.6786   24.9167 C   0  0  0  0  0  0
  -21.6040   -4.3047   24.7222 C   0  0  0  0  0  0
  -21.8822   -3.8138   23.4346 C   0  0  0  0  0  0
  -21.9197   -4.6951   22.3398 C   0  0  0  0  0  0
  -22.7871  -13.5255   21.1827 C   0  0  0  0  0  0
  -22.1668   -4.2135   21.0972 F   0  0  0  0  0  0
  -21.5623   -3.4532   25.7738 F   0  0  0  0  0  0
  -30.0305  -13.3451   20.4552 N   0  0  0  0  0  0
  -26.3034  -12.9320   20.3356 N   0  0  0  0  0  0
  -25.9313  -11.6480   20.5726 N   0  0  0  0  0  0
  -22.0493  -12.8258   22.0381 N   0  0  0  0  0  0
  -25.4390  -15.1882   20.4186 N   0  0  0  0  0  0
  -31.7528  -14.7883   20.0847 O   0  0  0  0  0  0
  -21.6648   -6.8869   21.4235 O   0  0  0  0  0  0
  -22.3568  -14.5567   20.6678 O   0  0  0  0  0  0
  -24.6203  -31.8625   23.2053 C   0  0  0  0  0  0
  -25.9072  -32.4794   23.8370 C   0  0  1  0  0  0
  -27.2407  -27.3730   20.1028 C   0  0  0  0  0  0
  -25.5905  -33.8594   24.2299 N   0  0  0  0  0  0
  -23.4117  -30.4839   21.5466 C   0  0  2  0  0  0
  -24.8596  -28.9406   20.1126 C   0  0  0  0  0  0
  -22.7442  -29.4626   22.4967 C   0  0  0  0  0  0
  -18.0279  -28.1384   22.8487 C   0  0  0  0  0  0
  -24.1481  -36.7305   23.2639 C   0  0  0  0  0  0
  -25.9464  -30.8071   21.3687 C   0  0  0  0  0  0
  -26.0218  -29.4367   20.7153 C   0  0  0  0  0  0
  -27.2089  -28.6579   20.7120 C   0  0  0  0  0  0
  -26.0501  -26.9016   19.5026 C   0  0  0  0  0  0
  -24.8713  -27.6739   19.5052 C   0  0  0  0  0  0
  -23.6237  -29.8139   20.1619 C   0  0  0  0  0  0
  -25.4102  -36.3094   24.0334 C   0  0  1  0  0  0
  -20.5874  -28.3671   23.1306 C   0  0  2  0  0  0
  -20.6776  -26.9401   22.5416 C   0  0  0  0  0  0
  -19.5751  -26.6379   21.5214 C   0  0  0  0  0  0
  -18.1927  -26.7931   22.1618 C   0  0  0  0  0  0
  -19.1529  -28.8847   23.2893 C   0  0  0  0  0  0
  -18.9457  -30.1455   23.8904 C   0  0  0  0  0  0
  -17.6456  -30.6587   24.0561 C   0  0  0  0  0  0
  -25.9031  -34.9461   23.5117 C   0  0  0  0  0  0
  -16.5347  -29.9082   23.6333 C   0  0  0  0  0  0
  -16.7265  -28.6499   23.0353 C   0  0  0  0  0  0
  -26.4476  -31.6601   25.0728 C   0  0  0  0  0  0
  -25.3732  -31.3740   26.1472 C   0  0  0  0  0  0
  -27.0315  -30.3034   24.6154 C   0  0  0  0  0  0
  -27.6048  -32.4331   25.7490 C   0  0  0  0  0  0
  -27.5576  -37.1800   24.8459 C   0  0  0  0  0  0
  -21.4163  -29.3026   22.3705 N   0  0  0  0  0  0
  -26.4285  -37.3782   23.9406 N   0  0  0  0  0  0
  -24.6781  -31.0671   22.0981 N   0  0  0  0  0  0
  -23.4187  -28.8176   23.3040 O   0  0  0  0  0  0
  -28.3998  -26.6010   20.1654 O   0  0  0  0  0  0
  -26.5593  -34.8927   22.4678 O   0  0  0  0  0  0
  -23.5382  -32.1404   23.7413 O   0  0  0  0  0  0
  -28.3657  -18.9894   21.2642 C   0  0  0  0  0  0
  -30.4350  -19.1760   20.0404 C   0  0  0  0  0  0
  -28.6076  -17.6048   21.4554 C   0  0  0  0  0  0
  -30.6770  -17.7820   20.2258 C   0  0  0  0  0  0
  -29.2614  -19.8081   20.5366 C   0  0  0  0  0  0
  -29.7533  -16.9620   20.9272 C   0  0  0  0  0  0
  -28.8318  -24.0750   19.6398 C   0  0  0  0  0  0
  -28.5119  -23.0844   18.5249 C   0  0  0  0  0  0
  -29.1024  -21.6911   18.7759 C   0  0  0  0  0  0
  -28.8858  -21.2972   20.2390 C   0  0  2  0  0  0
  -28.6673  -25.5648   19.1786 C   0  0  0  0  0  0
  -29.2449  -23.6903   20.8023 N   0  0  0  0  0  0
  -29.8642  -15.5311   21.1345 N   0  0  0  0  0  0
  -29.5975  -22.2851   21.0268 O   0  0  0  0  0  0
  -31.4848  -12.4850   19.1393 H   0  0  0  0  0  0
  -30.3704  -11.3499   19.8443 H   0  0  0  0  0  0
  -29.7637  -11.7908   17.4490 H   0  0  0  0  0  0
  -29.6653  -13.5026   17.7665 H   0  0  0  0  0  0
  -27.8451  -11.3115   18.8204 H   0  0  0  0  0  0
  -27.3820  -12.6394   17.7887 H   0  0  0  0  0  0
  -27.7025  -14.2543   19.5747 H   0  0  0  0  0  0
  -28.7036  -11.9574   21.3283 H   0  0  0  0  0  0
  -28.4473  -13.5777   21.8866 H   0  0  0  0  0  0
  -25.2740   -9.5705   22.4746 H   0  0  0  0  0  0
  -23.9991   -7.4654   22.7479 H   0  0  0  0  0  0
  -21.0818   -8.8769   19.8965 H   0  0  0  0  0  0
  -22.3669  -10.9666   19.6148 H   0  0  0  0  0  0
  -21.2021   -7.6139   23.9695 H   0  0  0  0  0  0
  -21.1471   -6.0520   25.9067 H   0  0  0  0  0  0
  -22.0604   -2.7600   23.2854 H   0  0  0  0  0  0
  -22.4087  -11.9917   22.4777 H   0  0  0  0  0  0
  -21.1113  -13.1304   22.2561 H   0  0  0  0  0  0
  -24.6851  -15.8531   20.5505 H   0  0  0  0  0  0
  -26.2965  -15.6222   20.1022 H   0  0  0  0  0  0
  -26.7141  -32.5477   23.1126 H   0  0  0  0  0  0
  -25.0074  -33.9745   25.0459 H   0  0  0  0  0  0
  -22.7025  -31.3017   21.4033 H   0  0  0  0  0  0
  -23.3746  -35.9634   23.3298 H   0  0  0  0  0  0
  -24.3585  -36.8925   22.2056 H   0  0  0  0  0  0
  -23.7231  -37.6505   23.6663 H   0  0  0  0  0  0
  -26.0680  -31.5706   20.5991 H   0  0  0  0  0  0
  -26.8314  -30.8613   21.9911 H   0  0  0  0  0  0
  -28.1035  -29.0335   21.1892 H   0  0  0  0  0  0
  -25.9983  -25.9187   19.0589 H   0  0  0  0  0  0
  -23.9728  -27.2783   19.0512 H   0  0  0  0  0  0
  -23.7386  -30.5878   19.4023 H   0  0  0  0  0  0
  -22.7464  -29.2372   19.8637 H   0  0  0  0  0  0
  -25.1280  -36.1955   25.0826 H   0  0  0  0  0  0
  -20.9960  -28.3248   24.1429 H   0  0  0  0  0  0
  -20.5691  -26.2271   23.3603 H   0  0  0  0  0  0
  -21.6646  -26.7453   22.1198 H   0  0  0  0  0  0
  -19.6913  -25.6288   21.1247 H   0  0  0  0  0  0
  -19.6699  -27.3186   20.6742 H   0  0  0  0  0  0
  -17.4201  -26.6689   21.4015 H   0  0  0  0  0  0
  -18.0314  -26.0070   22.9006 H   0  0  0  0  0  0
  -19.7935  -30.7271   24.2271 H   0  0  0  0  0  0
  -17.5010  -31.6271   24.5157 H   0  0  0  0  0  0
  -15.5345  -30.2981   23.7658 H   0  0  0  0  0  0
  -15.8663  -28.0809   22.7078 H   0  0  0  0  0  0
  -24.5864  -30.7137   25.7809 H   0  0  0  0  0  0
  -24.8973  -32.2915   26.4947 H   0  0  0  0  0  0
  -25.8060  -30.8872   27.0218 H   0  0  0  0  0  0
  -26.2876  -29.6786   24.1197 H   0  0  0  0  0  0
  -27.4054  -29.7287   25.4639 H   0  0  0  0  0  0
  -27.8728  -30.4340   23.9343 H   0  0  0  0  0  0
  -27.2671  -33.3635   26.2069 H   0  0  0  0  0  0
  -28.3855  -32.6880   25.0313 H   0  0  0  0  0  0
  -28.0719  -31.8456   26.5403 H   0  0  0  0  0  0
  -28.2588  -38.0101   24.7511 H   0  0  0  0  0  0
  -28.1072  -36.2633   24.6272 H   0  0  0  0  0  0
  -27.2301  -37.1446   25.8864 H   0  0  0  0  0  0
  -20.9338  -29.8727   21.6899 H   0  0  0  0  0  0
  -26.0173  -38.2859   24.1410 H   0  0  0  0  0  0
  -27.4566  -19.4159   21.6655 H   0  0  0  0  0  0
  -31.1550  -19.7564   19.4805 H   0  0  0  0  0  0
  -27.8727  -17.0294   22.0015 H   0  0  0  0  0  0
  -31.5745  -17.3517   19.8050 H   0  0  0  0  0  0
  -28.8701  -23.4705   17.5704 H   0  0  0  0  0  0
  -27.4271  -23.0129   18.4447 H   0  0  0  0  0  0
  -30.1683  -21.6953   18.5465 H   0  0  0  0  0  0
  -28.6354  -20.9674   18.1078 H   0  0  0  0  0  0
  -27.8227  -21.3959   20.4684 H   0  0  0  0  0  0
  -27.9814  -25.6115   18.3347 H   0  0  0  0  0  0
  -29.6250  -25.8457   18.7401 H   0  0  0  0  0  0
  -29.0691  -15.1275   21.6056 H   0  0  0  0  0  0
  1 25  1  0  0  0
  1 30  2  0  0  0
  1 83  1  0  0  0
  2  3  1  0  0  0
  2 25  1  0  0  0
  2 85  1  0  0  0
  2 86  1  0  0  0
  3  4  1  0  0  0
  3 87  1  0  0  0
  3 88  1  0  0  0
  4  5  1  0  0  0
  4 89  1  0  0  0
  4 90  1  0  0  0
  5  6  1  0  0  0
  5 26  1  0  0  0
  5 91  1  0  0  0
  6 25  1  0  0  0
  6 92  1  0  0  0
  6 93  1  0  0  0
  7  8  2  0  0  0
  7 26  1  0  0  0
  7 29  1  0  0  0
  8  9  1  0  0  0
  8 22  1  0  0  0
  9 10  1  0  0  0
  9 27  2  0  0  0
 10 11  2  0  0  0
 10 15  1  0  0  0
 11 12  1  0  0  0
 11 94  1  0  0  0
 12 13  2  0  0  0
 12 95  1  0  0  0
 13 14  1  0  0  0
 13 31  1  0  0  0
 14 15  2  0  0  0
 14 96  1  0  0  0
 15 97  1  0  0  0
 16 17  2  0  0  0
 16 21  1  0  0  0
 16 31  1  0  0  0
 17 18  1  0  0  0
 17 98  1  0  0  0
 18 19  2  0  0  0
 18 99  1  0  0  0
 19 20  1  0  0  0
 19 24  1  0  0  0
 20 21  2  0  0  0
 20100  1  0  0  0
 21 23  1  0  0  0
 22 28  1  0  0  0
 22 32  2  0  0  0
 26 27  1  0  0  0
 28101  1  0  0  0
 28102  1  0  0  0
 29103  1  0  0  0
 29104  1  0  0  0
 33 34  1  0  0  0
 33 66  1  0  0  0
 33 70  2  0  0  0
 34 36  1  0  0  0
 34 59  1  0  0  0
 34105  1  0  0  0
 35 44  2  0  0  0
 35 45  1  0  0  0
 35 68  1  0  0  0
 36 56  1  0  0  0
 36106  1  0  0  0
 37 39  1  0  0  0
 37 47  1  0  0  0
 37 66  1  0  0  0
 37107  1  0  0  0
 38 43  2  0  0  0
 38 46  1  0  0  0
 38 47  1  0  0  0
 39 64  1  0  0  0
 39 67  2  0  0  0
 40 52  1  0  0  0
 40 53  2  0  0  0
 40 58  1  0  0  0
 41108  1  0  0  0
 41109  1  0  0  0
 41110  1  0  0  0
 41 48  1  0  0  0
 42 43  1  0  0  0
 42 66  1  0  0  0
 42111  1  0  0  0
 42112  1  0  0  0
 43 44  1  0  0  0
 44113  1  0  0  0
 45 46  2  0  0  0
 45114  1  0  0  0
 46115  1  0  0  0
 47116  1  0  0  0
 47117  1  0  0  0
 48 56  1  0  0  0
 48 65  1  0  0  0
 48118  1  0  0  0
 49 50  1  0  0  0
 49 53  1  0  0  0
 49 64  1  0  0  0
 49119  1  0  0  0
 50 51  1  0  0  0
 50120  1  0  0  0
 50121  1  0  0  0
 51 52  1  0  0  0
 51122  1  0  0  0
 51123  1  0  0  0
 52124  1  0  0  0
 52125  1  0  0  0
 53 54  1  0  0  0
 54 55  2  0  0  0
 54126  1  0  0  0
 55 57  1  0  0  0
 55127  1  0  0  0
 56 69  2  0  0  0
 57 58  2  0  0  0
 57128  1  0  0  0
 58129  1  0  0  0
 59 60  1  0  0  0
 59 61  1  0  0  0
 59 62  1  0  0  0
 60130  1  0  0  0
 60131  1  0  0  0
 60132  1  0  0  0
 61133  1  0  0  0
 61134  1  0  0  0
 61135  1  0  0  0
 62136  1  0  0  0
 62137  1  0  0  0
 62138  1  0  0  0
 63 65  1  0  0  0
 63139  1  0  0  0
 63140  1  0  0  0
 63141  1  0  0  0
 64142  1  0  0  0
 65143  1  0  0  0
 68 81  1  0  0  0
 71 73  2  0  0  0
 71 75  1  0  0  0
 71144  1  0  0  0
 72 74  1  0  0  0
 72 75  2  0  0  0
 72145  1  0  0  0
 73 76  1  0  0  0
 73146  1  0  0  0
 74 76  2  0  0  0
 74147  1  0  0  0
 75 80  1  0  0  0
 76 83  1  0  0  0
 77 78  1  0  0  0
 77 81  1  0  0  0
 77 82  2  0  0  0
 78 79  1  0  0  0
 78148  1  0  0  0
 78149  1  0  0  0
 79 80  1  0  0  0
 79150  1  0  0  0
 79151  1  0  0  0
 80 84  1  0  0  0
 80152  1  0  0  0
 81153  1  0  0  0
 81154  1  0  0  0
 82 84  1  0  0  0
 83155  1  0  0  0
M  ISO  4   1 100  68 101  81 101  83 100
M  END
> <chiral flag>
0

> <version>
0

> <s_m_source_file>
/data/baiqing/PycharmProjects/Reinvent-master-3.2/result/LINK_invent/BTK/process_docking_weight1_custom_product_contain_oxygen_bond_distance_aromatic_linkinvent_7_9_3/rearranged_h_0163.sdf

> <i_m_source_file_index>
35

> <r_mmod_Potential_Energy-OPLS-2005>
85.7731628417969

> <r_mmod_Stretch_Energy-OPLS-2005>
65.7049331665039

> <r_mmod_Bend_Energy-OPLS-2005>
156.553482055664

> <r_mmod_Torsional_Energy-OPLS-2005>
233.281616210938

> <r_mmod_Improper_Torsional_Energy-OPLS-2005>
3.90549230575562

> <r_mmod_Van_der_Waal_Energy-OPLS-2005>
157.12858581543

> <r_mmod_Electrostatic_Energy-OPLS-2005>
-321.568481445312

> <r_mmod_Solvation_Energy-OPLS-2005>
-237.051956176758

> <b_mmod_Minimization_Converged-OPLS-2005>
0

> <r_mmod_RMS_Derivative-OPLS-2005>
1.37876999378204

$$$$
35
                    3D
 Structure written by MMmdl.
170178  0  0  1  0            999 V2000
  -30.7073  -14.4126   20.5835 C   0  0  0  0  0  0
  -30.4147  -12.2689   19.4190 C   0  0  0  0  0  0
  -29.4923  -12.4965   18.2026 C   0  0  0  0  0  0
  -28.0083  -12.3790   18.6041 C   0  0  0  0  0  0
  -27.6616  -13.2015   19.8752 C   0  0  2  0  0  0
  -28.6961  -12.9445   20.9933 C   0  0  0  0  0  0
  -25.2562  -13.8154   20.5648 C   0  0  0  0  0  0
  -24.1807  -13.0449   20.9137 C   0  0  0  0  0  0
  -24.6345  -11.6909   20.8703 C   0  0  0  0  0  0
  -23.9014  -10.4295   21.0396 C   0  0  0  0  0  0
  -24.3582   -9.4213   21.9169 C   0  0  0  0  0  0
  -23.6268   -8.2249   22.0750 C   0  0  0  0  0  0
  -22.4251   -8.0279   21.3542 C   0  0  0  0  0  0
  -21.9863   -9.0245   20.4648 C   0  0  0  0  0  0
  -22.7184  -10.2126   20.3051 C   0  0  0  0  0  0
  -21.6856   -6.0719   22.5268 C   0  0  0  0  0  0
  -21.4019   -6.5625   23.8200 C   0  0  0  0  0  0
  -21.3652   -5.6775   24.9160 C   0  0  0  0  0  0
  -21.6053   -4.3042   24.7217 C   0  0  0  0  0  0
  -21.8820   -3.8129   23.4340 C   0  0  0  0  0  0
  -21.9191   -4.6948   22.3396 C   0  0  0  0  0  0
  -22.7836  -13.5268   21.1825 C   0  0  0  0  0  0
  -22.1666   -4.2134   21.0979 F   0  0  0  0  0  0
  -21.5625   -3.4527   25.7733 F   0  0  0  0  0  0
  -30.0349  -13.2400   20.4542 N   0  0  0  0  0  0
  -26.2995  -12.9319   20.3324 N   0  0  0  0  0  0
  -25.9263  -11.6483   20.5696 N   0  0  0  0  0  0
  -22.0477  -12.8275   22.0386 N   0  0  0  0  0  0
  -25.4320  -15.1876   20.4108 N   0  0  0  0  0  0
  -31.8301  -14.5890   20.0962 O   0  0  0  0  0  0
  -21.6639   -6.8862   21.4232 O   0  0  0  0  0  0
  -22.3524  -14.5572   20.6666 O   0  0  0  0  0  0
  -24.6133  -31.8687   23.2102 C   0  0  0  0  0  0
  -25.9036  -32.4821   23.8386 C   0  0  1  0  0  0
  -27.2393  -27.4507   20.0717 C   0  0  0  0  0  0
  -25.5895  -33.8617   24.2318 N   0  0  0  0  0  0
  -23.3996  -30.4934   21.5515 C   0  0  2  0  0  0
  -24.8434  -28.9585   20.1169 C   0  0  0  0  0  0
  -22.7389  -29.4669   22.4995 C   0  0  0  0  0  0
  -18.0265  -28.1379   22.8494 C   0  0  0  0  0  0
  -24.1480  -36.7303   23.2638 C   0  0  0  0  0  0
  -25.9286  -30.8336   21.3651 C   0  0  0  0  0  0
  -26.0026  -29.4697   20.7108 C   0  0  0  0  0  0
  -27.1978  -28.7206   20.6884 C   0  0  0  0  0  0
  -26.0520  -26.9394   19.4942 C   0  0  0  0  0  0
  -24.8625  -27.6909   19.5101 C   0  0  0  0  0  0
  -23.6063  -29.8246   20.1661 C   0  0  0  0  0  0
  -25.4103  -36.3106   24.0338 C   0  0  1  0  0  0
  -20.5852  -28.3665   23.1314 C   0  0  2  0  0  0
  -20.6759  -26.9402   22.5423 C   0  0  0  0  0  0
  -19.5743  -26.6385   21.5215 C   0  0  0  0  0  0
  -18.1916  -26.7927   22.1621 C   0  0  0  0  0  0
  -19.1516  -28.8840   23.2901 C   0  0  0  0  0  0
  -18.9450  -30.1445   23.8913 C   0  0  0  0  0  0
  -17.6456  -30.6591   24.0565 C   0  0  0  0  0  0
  -25.9038  -34.9476   23.5127 C   0  0  0  0  0  0
  -16.5344  -29.9094   23.6329 C   0  0  0  0  0  0
  -16.7257  -28.6506   23.0356 C   0  0  0  0  0  0
  -26.4481  -31.6608   25.0713 C   0  0  0  0  0  0
  -25.3754  -31.3712   26.1466 C   0  0  0  0  0  0
  -27.0327  -30.3052   24.6107 C   0  0  0  0  0  0
  -27.6059  -32.4339   25.7454 C   0  0  0  0  0  0
  -27.5587  -37.1781   24.8455 C   0  0  0  0  0  0
  -21.4123  -29.3027   22.3712 N   0  0  0  0  0  0
  -26.4281  -37.3802   23.9430 N   0  0  0  0  0  0
  -24.6652  -31.0798   22.1001 N   0  0  0  0  0  0
  -23.4167  -28.8222   23.3040 O   0  0  0  0  0  0
  -28.4528  -26.7920   20.0572 O   0  0  0  0  0  0
  -26.5603  -34.8928   22.4690 O   0  0  0  0  0  0
  -23.5330  -32.1445   23.7503 O   0  0  0  0  0  0
  -29.5332  -17.7204   21.6187 C   0  0  0  0  0  0
  -30.1398  -18.9034   21.1006 C   0  0  0  0  0  0
  -30.2312  -16.7179   21.0087 C   0  0  0  0  0  0
  -33.2306  -21.7929   22.7609 C   0  0  0  0  0  0
  -31.7103  -21.4302   22.8299 C   0  0  0  0  0  0
  -29.2065  -21.1826   20.3714 C   0  0  0  0  0  0
  -28.5296  -24.3751   20.3986 C   0  0  0  0  0  0
  -32.9882  -23.3661   20.7226 C   0  0  0  0  0  0
  -34.1618  -21.1227   20.4780 C   0  0  0  0  0  0
  -35.2270  -22.9935   21.7493 C   0  0  0  0  0  0
  -27.9479  -21.9820   20.7441 C   0  0  0  0  0  0
  -28.6034  -25.5323   19.3908 C   0  0  0  0  0  0
  -29.8950  -20.3527   21.4772 C   0  0  2  0  0  0
  -33.8719  -22.3086   21.4300 C   0  0  0  0  0  0
  -31.1015  -18.6043   20.2248 N   0  0  0  0  0  0
  -30.0230  -15.3931   21.1914 N   0  0  0  0  0  0
  -31.2280  -20.9032   21.7039 N   0  0  0  0  0  0
  -27.9105  -23.2531   20.0095 N   0  0  0  0  0  0
  -33.9333  -21.6462   23.7681 O   0  0  0  0  0  0
  -31.0361  -21.5852   23.8532 O   0  0  0  0  0  0
  -29.6602  -21.2776   19.2222 O   0  0  0  0  0  0
  -29.0703  -24.4743   21.5030 O   0  0  0  0  0  0
  -31.1601  -17.2135   20.1526 O   0  0  0  0  0  0
  -31.4623  -12.3566   19.1268 H   0  0  0  0  0  0
  -30.3028  -11.2558   19.8062 H   0  0  0  0  0  0
  -29.7231  -11.7795   17.4137 H   0  0  0  0  0  0
  -29.6760  -13.4848   17.7780 H   0  0  0  0  0  0
  -27.7891  -11.3228   18.7690 H   0  0  0  0  0  0
  -27.3750  -12.6923   17.7727 H   0  0  0  0  0  0
  -27.7179  -14.2544   19.5974 H   0  0  0  0  0  0
  -28.6552  -11.8991   21.3036 H   0  0  0  0  0  0
  -28.4591  -13.5172   21.8900 H   0  0  0  0  0  0
  -25.2740   -9.5700   22.4720 H   0  0  0  0  0  0
  -23.9985   -7.4644   22.7466 H   0  0  0  0  0  0
  -21.0789   -8.8758   19.8954 H   0  0  0  0  0  0
  -22.3643  -10.9656   19.6156 H   0  0  0  0  0  0
  -21.2016   -7.6136   23.9697 H   0  0  0  0  0  0
  -21.1480   -6.0512   25.9062 H   0  0  0  0  0  0
  -22.0605   -2.7592   23.2852 H   0  0  0  0  0  0
  -22.4108  -11.9968   22.4812 H   0  0  0  0  0  0
  -21.1098  -13.1305   22.2611 H   0  0  0  0  0  0
  -24.6673  -15.8440   20.5226 H   0  0  0  0  0  0
  -26.2857  -15.6237   20.0850 H   0  0  0  0  0  0
  -26.7100  -32.5533   23.1140 H   0  0  0  0  0  0
  -25.0038  -33.9787   25.0456 H   0  0  0  0  0  0
  -22.6892  -31.3107   21.4124 H   0  0  0  0  0  0
  -23.3750  -35.9626   23.3293 H   0  0  0  0  0  0
  -24.3583  -36.8928   22.2057 H   0  0  0  0  0  0
  -23.7214  -37.6495   23.6661 H   0  0  0  0  0  0
  -26.0478  -31.6017   20.5997 H   0  0  0  0  0  0
  -26.8146  -30.8814   21.9867 H   0  0  0  0  0  0
  -28.0986  -29.1194   21.1343 H   0  0  0  0  0  0
  -26.0086  -25.9720   19.0186 H   0  0  0  0  0  0
  -23.9688  -27.2904   19.0511 H   0  0  0  0  0  0
  -23.7114  -30.5984   19.4047 H   0  0  0  0  0  0
  -22.7302  -29.2436   19.8723 H   0  0  0  0  0  0
  -25.1269  -36.1963   25.0829 H   0  0  0  0  0  0
  -20.9950  -28.3243   24.1432 H   0  0  0  0  0  0
  -20.5662  -26.2276   23.3614 H   0  0  0  0  0  0
  -21.6631  -26.7450   22.1217 H   0  0  0  0  0  0
  -19.6906  -25.6296   21.1244 H   0  0  0  0  0  0
  -19.6678  -27.3195   20.6746 H   0  0  0  0  0  0
  -17.4183  -26.6670   21.4023 H   0  0  0  0  0  0
  -18.0313  -26.0069   22.9017 H   0  0  0  0  0  0
  -19.7931  -30.7252   24.2286 H   0  0  0  0  0  0
  -17.5019  -31.6275   24.5159 H   0  0  0  0  0  0
  -15.5349  -30.3007   23.7654 H   0  0  0  0  0  0
  -15.8649  -28.0836   22.7073 H   0  0  0  0  0  0
  -24.5903  -30.7094   25.7788 H   0  0  0  0  0  0
  -24.8979  -32.2876   26.4947 H   0  0  0  0  0  0
  -25.8110  -30.8838   27.0199 H   0  0  0  0  0  0
  -26.2877  -29.6776   24.1202 H   0  0  0  0  0  0
  -27.4144  -29.7324   25.4570 H   0  0  0  0  0  0
  -27.8689  -30.4365   23.9232 H   0  0  0  0  0  0
  -27.2674  -33.3614   26.2084 H   0  0  0  0  0  0
  -28.3820  -32.6953   25.0245 H   0  0  0  0  0  0
  -28.0792  -31.8446   26.5319 H   0  0  0  0  0  0
  -28.2566  -38.0117   24.7582 H   0  0  0  0  0  0
  -28.1120  -36.2659   24.6170 H   0  0  0  0  0  0
  -27.2327  -37.1299   25.8860 H   0  0  0  0  0  0
  -20.9288  -29.8712   21.6898 H   0  0  0  0  0  0
  -26.0164  -38.2863   24.1494 H   0  0  0  0  0  0
  -28.7375  -17.6360   22.3452 H   0  0  0  0  0  0
  -32.0889  -22.9385   20.2810 H   0  0  0  0  0  0
  -33.5249  -23.8484   19.9046 H   0  0  0  0  0  0
  -32.6739  -24.1507   21.4121 H   0  0  0  0  0  0
  -33.2723  -20.7730   19.9563 H   0  0  0  0  0  0
  -34.5844  -20.2703   21.0126 H   0  0  0  0  0  0
  -34.8820  -21.3976   19.7066 H   0  0  0  0  0  0
  -35.1080  -23.8026   22.4724 H   0  0  0  0  0  0
  -35.6773  -23.4291   20.8561 H   0  0  0  0  0  0
  -35.9541  -22.2907   22.1608 H   0  0  0  0  0  0
  -27.9002  -22.1531   21.8209 H   0  0  0  0  0  0
  -27.0720  -21.3896   20.4781 H   0  0  0  0  0  0
  -27.9435  -25.3806   18.5387 H   0  0  0  0  0  0
  -29.6077  -25.5145   18.9675 H   0  0  0  0  0  0
  -29.2903  -20.3940   22.3847 H   0  0  0  0  0  0
  -29.1737  -15.1259   21.6603 H   0  0  0  0  0  0
  -31.8718  -20.7640   20.9371 H   0  0  0  0  0  0
  -27.5288  -23.2250   19.0740 H   0  0  0  0  0  0
  1 25  1  0  0  0
  1 30  2  0  0  0
  1 86  1  0  0  0
  2  3  1  0  0  0
  2 25  1  0  0  0
  2 94  1  0  0  0
  2 95  1  0  0  0
  3  4  1  0  0  0
  3 96  1  0  0  0
  3 97  1  0  0  0
  4  5  1  0  0  0
  4 98  1  0  0  0
  4 99  1  0  0  0
  5  6  1  0  0  0
  5 26  1  0  0  0
  5100  1  0  0  0
  6 25  1  0  0  0
  6101  1  0  0  0
  6102  1  0  0  0
  7  8  2  0  0  0
  7 26  1  0  0  0
  7 29  1  0  0  0
  8  9  1  0  0  0
  8 22  1  0  0  0
  9 10  1  0  0  0
  9 27  2  0  0  0
 10 11  2  0  0  0
 10 15  1  0  0  0
 11 12  1  0  0  0
 11103  1  0  0  0
 12 13  2  0  0  0
 12104  1  0  0  0
 13 14  1  0  0  0
 13 31  1  0  0  0
 14 15  2  0  0  0
 14105  1  0  0  0
 15106  1  0  0  0
 16 17  2  0  0  0
 16 21  1  0  0  0
 16 31  1  0  0  0
 17 18  1  0  0  0
 17107  1  0  0  0
 18 19  2  0  0  0
 18108  1  0  0  0
 19 20  1  0  0  0
 19 24  1  0  0  0
 20 21  2  0  0  0
 20109  1  0  0  0
 21 23  1  0  0  0
 22 28  1  0  0  0
 22 32  2  0  0  0
 26 27  1  0  0  0
 28110  1  0  0  0
 28111  1  0  0  0
 29112  1  0  0  0
 29113  1  0  0  0
 33 34  1  0  0  0
 33 66  1  0  0  0
 33 70  2  0  0  0
 34 36  1  0  0  0
 34 59  1  0  0  0
 34114  1  0  0  0
 35 44  2  0  0  0
 35 45  1  0  0  0
 35 68  1  0  0  0
 36 56  1  0  0  0
 36115  1  0  0  0
 37 39  1  0  0  0
 37 47  1  0  0  0
 37 66  1  0  0  0
 37116  1  0  0  0
 38 43  2  0  0  0
 38 46  1  0  0  0
 38 47  1  0  0  0
 39 64  1  0  0  0
 39 67  2  0  0  0
 40 52  1  0  0  0
 40 53  2  0  0  0
 40 58  1  0  0  0
 41117  1  0  0  0
 41118  1  0  0  0
 41119  1  0  0  0
 41 48  1  0  0  0
 42 43  1  0  0  0
 42 66  1  0  0  0
 42120  1  0  0  0
 42121  1  0  0  0
 43 44  1  0  0  0
 44122  1  0  0  0
 45 46  2  0  0  0
 45123  1  0  0  0
 46124  1  0  0  0
 47125  1  0  0  0
 47126  1  0  0  0
 48 56  1  0  0  0
 48 65  1  0  0  0
 48127  1  0  0  0
 49 50  1  0  0  0
 49 53  1  0  0  0
 49 64  1  0  0  0
 49128  1  0  0  0
 50 51  1  0  0  0
 50129  1  0  0  0
 50130  1  0  0  0
 51 52  1  0  0  0
 51131  1  0  0  0
 51132  1  0  0  0
 52133  1  0  0  0
 52134  1  0  0  0
 53 54  1  0  0  0
 54 55  2  0  0  0
 54135  1  0  0  0
 55 57  1  0  0  0
 55136  1  0  0  0
 56 69  2  0  0  0
 57 58  2  0  0  0
 57137  1  0  0  0
 58138  1  0  0  0
 59 60  1  0  0  0
 59 61  1  0  0  0
 59 62  1  0  0  0
 60139  1  0  0  0
 60140  1  0  0  0
 60141  1  0  0  0
 61142  1  0  0  0
 61143  1  0  0  0
 61144  1  0  0  0
 62145  1  0  0  0
 62146  1  0  0  0
 62147  1  0  0  0
 63 65  1  0  0  0
 63148  1  0  0  0
 63149  1  0  0  0
 63150  1  0  0  0
 64151  1  0  0  0
 65152  1  0  0  0
 68 82  1  0  0  0
 71 72  1  0  0  0
 71 73  2  0  0  0
 71153  1  0  0  0
 72 83  1  0  0  0
 72 85  2  0  0  0
 73 86  1  0  0  0
 73 93  1  0  0  0
 74 75  1  0  0  0
 74 84  1  0  0  0
 74 89  2  0  0  0
 75 87  1  0  0  0
 75 90  2  0  0  0
 76 81  1  0  0  0
 76 83  1  0  0  0
 76 91  2  0  0  0
 77 82  1  0  0  0
 77 88  1  0  0  0
 77 92  2  0  0  0
 78154  1  0  0  0
 78155  1  0  0  0
 78156  1  0  0  0
 78 84  1  0  0  0
 79 84  1  0  0  0
 79157  1  0  0  0
 79158  1  0  0  0
 79159  1  0  0  0
 80 84  1  0  0  0
 80160  1  0  0  0
 80161  1  0  0  0
 80162  1  0  0  0
 81 88  1  0  0  0
 81163  1  0  0  0
 81164  1  0  0  0
 82165  1  0  0  0
 82166  1  0  0  0
 83 87  1  0  0  0
 83167  1  0  0  0
 85 93  1  0  0  0
 86168  1  0  0  0
 87169  1  0  0  0
 88170  1  0  0  0
M  ISO  4   1 100  68 101  82 101  86 100
M  END
> <chiral flag>
0

> <version>
0

> <s_m_source_file>
/data/baiqing/PycharmProjects/Reinvent-master-3.2/result/LINK_invent/BTK/process_docking_weight1_custom_product_contain_oxygen_bond_distance_aromatic_linkinvent_7_9_3/rearranged_h_0163.sdf

> <i_m_source_file_index>
36

> <r_mmod_Potential_Energy-OPLS-2005>
-222.447616577148

> <r_mmod_Stretch_Energy-OPLS-2005>
39.0059852600098

> <r_mmod_Bend_Energy-OPLS-2005>
118.558891296387

> <r_mmod_Torsional_Energy-OPLS-2005>
202.666320800781

> <r_mmod_Improper_Torsional_Energy-OPLS-2005>
4.37875413894653

> <r_mmod_Van_der_Waal_Energy-OPLS-2005>
143.359298706055

> <r_mmod_Electrostatic_Energy-OPLS-2005>
-424.807922363281

> <r_mmod_Solvation_Energy-OPLS-2005>
-316.271087646484

> <b_mmod_Minimization_Converged-OPLS-2005>
0

> <r_mmod_RMS_Derivative-OPLS-2005>
2.3188533782959

$$$$
36
                    3D
 Structure written by MMmdl.
166175  0  0  1  0            999 V2000
  -30.9795  -14.0822   21.0193 C   0  0  0  0  0  0
  -31.2097  -12.7510   18.8178 C   0  0  0  0  0  0
  -30.1586  -13.0454   17.6779 C   0  0  0  0  0  0
  -28.6897  -13.2045   18.1042 C   0  0  0  0  0  0
  -28.4089  -13.8138   19.6281 C   0  0  2  0  0  0
  -29.5493  -12.6517   20.0389 C   0  0  0  0  0  0
  -24.6565  -14.3525   20.8054 C   0  0  0  0  0  0
  -23.7506  -13.3261   20.9137 C   0  0  0  0  0  0
  -24.3517  -12.0761   21.0722 C   0  0  0  0  0  0
  -23.8348  -10.6367   21.1448 C   0  0  0  0  0  0
  -24.2915   -9.6090   22.0233 C   0  0  0  0  0  0
  -23.6372   -8.3474   22.1179 C   0  0  0  0  0  0
  -22.4755   -8.0785   21.3543 C   0  0  0  0  0  0
  -22.0630   -9.0541   20.4288 C   0  0  0  0  0  0
  -22.7416  -10.2877   20.3124 C   0  0  0  0  0  0
  -21.7191   -6.0945   22.5216 C   0  0  0  0  0  0
  -21.4225   -6.5787   23.8151 C   0  0  0  0  0  0
  -21.3696   -5.6900   24.9089 C   0  0  0  0  0  0
  -21.6026   -4.3149   24.7150 C   0  0  0  0  0  0
  -21.8773   -3.8257   23.4265 C   0  0  0  0  0  0
  -21.9303   -4.7112   22.3342 C   0  0  0  0  0  0
  -22.3420  -13.5817   21.1007 C   0  0  0  0  0  0
  -22.1728   -4.2256   21.0926 F   0  0  0  0  0  0
  -21.5572   -3.4617   25.7653 F   0  0  0  0  0  0
  -30.7406  -13.1379   20.1234 N   0  0  0  0  0  0
  -25.8962  -13.8445   20.9849 N   0  0  0  0  0  0
  -25.3150  -12.6630   21.7289 N   0  0  0  0  0  0
  -21.7289  -12.8291   22.0034 N   0  0  0  0  0  0
  -24.4955  -15.6930   20.5615 N   0  0  0  0  0  0
  -31.8063  -14.9349   20.6911 O   0  0  0  0  0  0
  -21.7305   -6.9152   21.4159 O   0  0  0  0  0  0
  -21.8399  -14.5535   20.5589 O   0  0  0  0  0  0
  -24.7061  -31.7742   23.1384 C   0  0  0  0  0  0
  -25.9563  -32.4306   23.7952 C   0  0  1  0  0  0
  -26.9330  -26.3725   20.2250 C   0  0  0  0  0  0
  -25.6065  -33.8156   24.1809 N   0  0  0  0  0  0
  -23.5218  -30.3929   21.5034 C   0  0  2  0  0  0
  -24.9189  -28.6945   20.0998 C   0  0  0  0  0  0
  -22.7792  -29.4227   22.4636 C   0  0  0  0  0  0
  -18.0338  -28.1423   22.8450 C   0  0  0  0  0  0
  -24.1509  -36.7088   23.2645 C   0  0  0  0  0  0
  -26.1115  -30.3911   21.4423 C   0  0  0  0  0  0
  -26.1153  -28.9311   20.7850 C   0  0  0  0  0  0
  -27.1237  -27.7978   20.8099 C   0  0  0  0  0  0
  -25.7659  -26.4410   19.4432 C   0  0  0  0  0  0
  -24.8077  -27.4907   19.3946 C   0  0  0  0  0  0
  -23.7669  -29.7102   20.1298 C   0  0  0  0  0  0
  -25.4163  -36.2799   24.0252 C   0  0  1  0  0  0
  -20.5985  -28.3783   23.1112 C   0  0  2  0  0  0
  -20.6799  -26.9428   22.5401 C   0  0  0  0  0  0
  -19.5776  -26.6361   21.5214 C   0  0  0  0  0  0
  -18.1960  -26.7946   22.1620 C   0  0  0  0  0  0
  -19.1612  -28.8926   23.2762 C   0  0  0  0  0  0
  -18.9516  -30.1505   23.8816 C   0  0  0  0  0  0
  -17.6509  -30.6604   24.0541 C   0  0  0  0  0  0
  -25.9179  -34.9202   23.4880 C   0  0  0  0  0  0
  -16.5394  -29.9087   23.6348 C   0  0  0  0  0  0
  -16.7317  -28.6507   23.0365 C   0  0  0  0  0  0
  -26.4649  -31.6448   25.0680 C   0  0  0  0  0  0
  -25.3660  -31.3859   26.1264 C   0  0  0  0  0  0
  -27.0585  -30.2739   24.6772 C   0  0  0  0  0  0
  -27.6051  -32.4359   25.7506 C   0  0  0  0  0  0
  -27.5580  -37.1675   24.8441 C   0  0  0  0  0  0
  -21.4431  -29.3017   22.3413 N   0  0  0  0  0  0
  -26.4249  -37.3607   23.9441 N   0  0  0  0  0  0
  -24.8098  -30.8955   22.0768 N   0  0  0  0  0  0
  -23.4192  -28.7805   23.3002 O   0  0  0  0  0  0
  -27.6215  -24.9187   20.2482 O   0  0  0  0  0  0
  -26.5841  -34.8828   22.4517 O   0  0  0  0  0  0
  -23.6050  -32.0982   23.6223 O   0  0  0  0  0  0
  -26.4192  -14.6598   18.8679 C   0  0  0  0  0  0
  -27.7851  -15.1476   21.4752 C   0  0  0  0  0  0
  -26.4365  -12.7830   19.0867 C   0  0  0  0  0  0
  -27.9567  -13.4043   21.8310 C   0  0  0  0  0  0
  -27.3059  -12.0965   20.6166 C   0  0  0  0  0  0
  -27.0928  -15.8871   20.0563 C   0  0  0  0  0  0
  -25.7282  -11.9427   18.0807 C   0  0  0  0  0  0
  -27.5207  -21.2345   19.9734 C   0  0  0  0  0  0
  -27.5836  -10.6452   21.0328 C   0  0  0  0  0  0
  -28.6180  -10.4606   22.2225 C   0  0  0  0  0  0
  -29.1115  -11.6311   23.1900 C   0  0  0  0  0  0
  -29.1141  -13.1582   22.7813 C   0  0  1  0  0  0
  -26.0109  -10.4485   18.0903 C   0  0  0  0  0  0
  -27.0293  -19.3406   20.4000 C   0  0  0  0  0  0
  -27.0021  -23.1322   20.3316 C   0  0  0  0  0  0
  -27.1396  -17.5869   19.8118 N   0  0  0  0  0  0
  -30.4183  -13.8518   22.2824 N   0  0  0  0  0  0
  -24.9580  -12.4119   17.2404 O   0  0  0  0  0  0
  -28.5029  -21.2169   19.2255 O   0  0  0  0  0  0
  -32.1391  -13.2753   18.5951 H   0  0  0  0  0  0
  -31.4901  -11.6938   18.8163 H   0  0  0  0  0  0
  -30.2477  -12.2956   16.8891 H   0  0  0  0  0  0
  -30.4543  -13.9842   17.2084 H   0  0  0  0  0  0
  -28.3355  -12.1966   17.8879 H   0  0  0  0  0  0
  -28.2244  -13.8311   17.3426 H   0  0  0  0  0  0
  -28.9664  -14.7526   19.5088 H   0  0  0  0  0  0
  -29.6538  -12.0443   20.8907 H   0  0  0  0  0  0
  -29.4430  -11.6759   19.5288 H   0  0  0  0  0  0
  -25.1082   -9.8154   22.6999 H   0  0  0  0  0  0
  -24.0030   -7.6124   22.8218 H   0  0  0  0  0  0
  -21.2070   -8.8563   19.7996 H   0  0  0  0  0  0
  -22.3683  -11.0090   19.5999 H   0  0  0  0  0  0
  -21.2312   -7.6305   23.9689 H   0  0  0  0  0  0
  -21.1487   -6.0630   25.8990 H   0  0  0  0  0  0
  -22.0449   -2.7709   23.2725 H   0  0  0  0  0  0
  -22.2120  -12.0741   22.4681 H   0  0  0  0  0  0
  -20.7660  -13.0131   22.2389 H   0  0  0  0  0  0
  -25.2499  -16.3551   20.3835 H   0  0  0  0  0  0
  -23.6105  -15.9894   20.1704 H   0  0  0  0  0  0
  -26.7632  -32.4646   23.0627 H   0  0  0  0  0  0
  -25.0059  -33.9147   24.9855 H   0  0  0  0  0  0
  -22.8604  -31.2431   21.3232 H   0  0  0  0  0  0
  -23.3823  -35.9358   23.3133 H   0  0  0  0  0  0
  -24.3600  -36.8950   22.2101 H   0  0  0  0  0  0
  -23.7202  -37.6171   23.6863 H   0  0  0  0  0  0
  -26.3625  -31.0954   20.6474 H   0  0  0  0  0  0
  -26.9545  -30.4397   22.1183 H   0  0  0  0  0  0
  -28.0177  -27.9634   21.3935 H   0  0  0  0  0  0
  -25.5086  -25.5481   18.8910 H   0  0  0  0  0  0
  -23.9122  -27.3176   18.8130 H   0  0  0  0  0  0
  -23.9879  -30.4751   19.3848 H   0  0  0  0  0  0
  -22.8512  -29.2275   19.7857 H   0  0  0  0  0  0
  -25.1373  -36.1494   25.0731 H   0  0  0  0  0  0
  -21.0063  -28.3424   24.1241 H   0  0  0  0  0  0
  -20.5643  -26.2409   23.3675 H   0  0  0  0  0  0
  -21.6658  -26.7341   22.1234 H   0  0  0  0  0  0
  -19.6929  -25.6251   21.1291 H   0  0  0  0  0  0
  -19.6730  -27.3131   20.6712 H   0  0  0  0  0  0
  -17.4227  -26.6673   21.4026 H   0  0  0  0  0  0
  -18.0352  -26.0109   22.9037 H   0  0  0  0  0  0
  -19.7988  -30.7331   24.2164 H   0  0  0  0  0  0
  -17.5057  -31.6275   24.5160 H   0  0  0  0  0  0
  -15.5391  -30.2965   23.7715 H   0  0  0  0  0  0
  -15.8713  -28.0792   22.7140 H   0  0  0  0  0  0
  -24.5905  -30.7122   25.7602 H   0  0  0  0  0  0
  -24.8785  -32.3104   26.4363 H   0  0  0  0  0  0
  -25.7806  -30.9266   27.0246 H   0  0  0  0  0  0
  -26.3309  -29.6282   24.1846 H   0  0  0  0  0  0
  -27.3961  -29.7288   25.5596 H   0  0  0  0  0  0
  -27.9330  -30.3774   24.0349 H   0  0  0  0  0  0
  -27.2567  -33.3777   26.1757 H   0  0  0  0  0  0
  -28.4033  -32.6724   25.0459 H   0  0  0  0  0  0
  -28.0522  -31.8702   26.5691 H   0  0  0  0  0  0
  -28.2439  -38.0115   24.7637 H   0  0  0  0  0  0
  -28.1227  -36.2649   24.6068 H   0  0  0  0  0  0
  -27.2326  -37.1056   25.8836 H   0  0  0  0  0  0
  -20.9746  -29.8701   21.6494 H   0  0  0  0  0  0
  -26.0034  -38.2611   24.1550 H   0  0  0  0  0  0
  -25.9503  -15.0343   17.9696 H   0  0  0  0  0  0
  -28.2582  -15.8194   22.1764 H   0  0  0  0  0  0
  -27.9582  -10.0930   20.1726 H   0  0  0  0  0  0
  -26.6530  -10.1544   21.2722 H   0  0  0  0  0  0
  -29.5254  -10.0661   21.7624 H   0  0  0  0  0  0
  -28.2876   -9.6194   22.8333 H   0  0  0  0  0  0
  -30.0813  -11.3712   23.6140 H   0  0  0  0  0  0
  -28.4293  -11.5703   24.0388 H   0  0  0  0  0  0
  -28.8677  -13.7068   23.6910 H   0  0  0  0  0  0
  -25.5105   -9.9712   18.9307 H   0  0  0  0  0  0
  -27.0811  -10.2589   18.1585 H   0  0  0  0  0  0
  -25.6504   -9.9941   17.1682 H   0  0  0  0  0  0
  -25.9557  -19.4511   20.5521 H   0  0  0  0  0  0
  -27.4135  -19.2561   21.4169 H   0  0  0  0  0  0
  -26.6496  -23.0694   21.3610 H   0  0  0  0  0  0
  -26.0805  -23.2013   19.7547 H   0  0  0  0  0  0
  -27.0336  -17.6986   18.8061 H   0  0  0  0  0  0
  -30.8089  -14.4679   22.9805 H   0  0  0  0  0  0
  1 25  1  0  0  0
  1 30  2  0  0  0
  1 87  1  0  0  0
  2  3  1  0  0  0
  2 25  1  0  0  0
  2 90  1  0  0  0
  2 91  1  0  0  0
  3  4  1  0  0  0
  3 92  1  0  0  0
  3 93  1  0  0  0
  4  5  1  0  0  0
  4 94  1  0  0  0
  4 95  1  0  0  0
  5  6  1  0  0  0
  5 26  1  0  0  0
  5 96  1  0  0  0
  6 25  1  0  0  0
  6 97  1  0  0  0
  6 98  1  0  0  0
  7  8  2  0  0  0
  7 26  1  0  0  0
  7 29  1  0  0  0
  8  9  1  0  0  0
  8 22  1  0  0  0
  9 10  1  0  0  0
  9 27  2  0  0  0
 10 11  2  0  0  0
 10 15  1  0  0  0
 11 12  1  0  0  0
 11 99  1  0  0  0
 12 13  2  0  0  0
 12100  1  0  0  0
 13 14  1  0  0  0
 13 31  1  0  0  0
 14 15  2  0  0  0
 14101  1  0  0  0
 15102  1  0  0  0
 16 17  2  0  0  0
 16 21  1  0  0  0
 16 31  1  0  0  0
 17 18  1  0  0  0
 17103  1  0  0  0
 18 19  2  0  0  0
 18104  1  0  0  0
 19 20  1  0  0  0
 19 24  1  0  0  0
 20 21  2  0  0  0
 20105  1  0  0  0
 21 23  1  0  0  0
 22 28  1  0  0  0
 22 32  2  0  0  0
 26 27  1  0  0  0
 28106  1  0  0  0
 28107  1  0  0  0
 29108  1  0  0  0
 29109  1  0  0  0
 33 34  1  0  0  0
 33 66  1  0  0  0
 33 70  2  0  0  0
 34 36  1  0  0  0
 34 59  1  0  0  0
 34110  1  0  0  0
 35 44  2  0  0  0
 35 45  1  0  0  0
 35 68  1  0  0  0
 36 56  1  0  0  0
 36111  1  0  0  0
 37 39  1  0  0  0
 37 47  1  0  0  0
 37 66  1  0  0  0
 37112  1  0  0  0
 38 43  2  0  0  0
 38 46  1  0  0  0
 38 47  1  0  0  0
 39 64  1  0  0  0
 39 67  2  0  0  0
 40 52  1  0  0  0
 40 53  2  0  0  0
 40 58  1  0  0  0
 41113  1  0  0  0
 41114  1  0  0  0
 41115  1  0  0  0
 41 48  1  0  0  0
 42 43  1  0  0  0
 42 66  1  0  0  0
 42116  1  0  0  0
 42117  1  0  0  0
 43 44  1  0  0  0
 44118  1  0  0  0
 45 46  2  0  0  0
 45119  1  0  0  0
 46120  1  0  0  0
 47121  1  0  0  0
 47122  1  0  0  0
 48 56  1  0  0  0
 48 65  1  0  0  0
 48123  1  0  0  0
 49 50  1  0  0  0
 49 53  1  0  0  0
 49 64  1  0  0  0
 49124  1  0  0  0
 50 51  1  0  0  0
 50125  1  0  0  0
 50126  1  0  0  0
 51 52  1  0  0  0
 51127  1  0  0  0
 51128  1  0  0  0
 52129  1  0  0  0
 52130  1  0  0  0
 53 54  1  0  0  0
 54 55  2  0  0  0
 54131  1  0  0  0
 55 57  1  0  0  0
 55132  1  0  0  0
 56 69  2  0  0  0
 57 58  2  0  0  0
 57133  1  0  0  0
 58134  1  0  0  0
 59 60  1  0  0  0
 59 61  1  0  0  0
 59 62  1  0  0  0
 60135  1  0  0  0
 60136  1  0  0  0
 60137  1  0  0  0
 61138  1  0  0  0
 61139  1  0  0  0
 61140  1  0  0  0
 62141  1  0  0  0
 62142  1  0  0  0
 62143  1  0  0  0
 63 65  1  0  0  0
 63144  1  0  0  0
 63145  1  0  0  0
 63146  1  0  0  0
 64147  1  0  0  0
 65148  1  0  0  0
 68 85  1  0  0  0
 71 73  2  0  0  0
 71 76  1  0  0  0
 71149  1  0  0  0
 72 74  1  0  0  0
 72 76  2  0  0  0
 72150  1  0  0  0
 73 75  1  0  0  0
 73 77  1  0  0  0
 74 75  2  0  0  0
 74 82  1  0  0  0
 75 79  1  0  0  0
 76 86  1  0  0  0
 77 83  1  0  0  0
 77 88  2  0  0  0
 78 84  1  0  0  0
 78 85  1  0  0  0
 78 89  2  0  0  0
 79 80  1  0  0  0
 79151  1  0  0  0
 79152  1  0  0  0
 80 81  1  0  0  0
 80153  1  0  0  0
 80154  1  0  0  0
 81 82  1  0  0  0
 81155  1  0  0  0
 81156  1  0  0  0
 82 87  1  0  0  0
 82157  1  0  0  0
 83158  1  0  0  0
 83159  1  0  0  0
 83160  1  0  0  0
 84 86  1  0  0  0
 84161  1  0  0  0
 84162  1  0  0  0
 85163  1  0  0  0
 85164  1  0  0  0
 86165  1  0  0  0
 87166  1  0  0  0
M  ISO  4   1 100  68 101  85 101  87 100
M  END
> <chiral flag>
0

> <version>
0

> <s_m_source_file>
/data/baiqing/PycharmProjects/Reinvent-master-3.2/result/LINK_invent/BTK/process_docking_weight1_custom_product_contain_oxygen_bond_distance_aromatic_linkinvent_7_9_3/rearranged_h_0163.sdf

> <i_m_source_file_index>
37

> <r_mmod_Potential_Energy-OPLS-2005>
12882.3369140625

> <r_mmod_Stretch_Energy-OPLS-2005>
6822.453125

> <r_mmod_Bend_Energy-OPLS-2005>
1180.53454589844

> <r_mmod_Torsional_Energy-OPLS-2005>
477.522918701172

> <r_mmod_Improper_Torsional_Energy-OPLS-2005>
32.0724334716797

> <r_mmod_Van_der_Waal_Energy-OPLS-2005>
2772.67724609375

> <r_mmod_Electrostatic_Energy-OPLS-2005>
-406.119567871094

> <r_mmod_Solvation_Energy-OPLS-2005>
-262.058898925781

> <b_mmod_Minimization_Converged-OPLS-2005>
0

> <r_mmod_RMS_Derivative-OPLS-2005>
5.17557907104492

$$$$
37
                    3D
 Structure written by MMmdl.
151159  0  0  1  0            999 V2000
  -30.5951  -14.7960   20.4615 C   0  0  0  0  0  0
  -30.4394  -12.4866   19.4874 C   0  0  0  0  0  0
  -29.5159  -12.5124   18.2482 C   0  0  0  0  0  0
  -28.0463  -12.3178   18.6648 C   0  0  0  0  0  0
  -27.6425  -13.2306   19.8523 C   0  0  2  0  0  0
  -28.6851  -13.1859   20.9919 C   0  0  0  0  0  0
  -25.2519  -13.8191   20.5684 C   0  0  0  0  0  0
  -24.1805  -13.0448   20.9210 C   0  0  0  0  0  0
  -24.6387  -11.6931   20.8750 C   0  0  0  0  0  0
  -23.9062  -10.4298   21.0402 C   0  0  0  0  0  0
  -24.3603   -9.4210   21.9190 C   0  0  0  0  0  0
  -23.6274   -8.2246   22.0764 C   0  0  0  0  0  0
  -22.4269   -8.0267   21.3529 C   0  0  0  0  0  0
  -21.9899   -9.0258   20.4651 C   0  0  0  0  0  0
  -22.7233  -10.2137   20.3060 C   0  0  0  0  0  0
  -21.6858   -6.0726   22.5277 C   0  0  0  0  0  0
  -21.4021   -6.5634   23.8205 C   0  0  0  0  0  0
  -21.3657   -5.6782   24.9167 C   0  0  0  0  0  0
  -21.6039   -4.3046   24.7224 C   0  0  0  0  0  0
  -21.8820   -3.8139   23.4346 C   0  0  0  0  0  0
  -21.9198   -4.6955   22.3398 C   0  0  0  0  0  0
  -22.7827  -13.5237   21.1876 C   0  0  0  0  0  0
  -22.1662   -4.2135   21.0980 F   0  0  0  0  0  0
  -21.5632   -3.4539   25.7743 F   0  0  0  0  0  0
  -29.9847  -13.5558   20.4118 N   0  0  0  0  0  0
  -26.2944  -12.9389   20.3288 N   0  0  0  0  0  0
  -25.9319  -11.6541   20.5771 N   0  0  0  0  0  0
  -22.0463  -12.8218   22.0411 N   0  0  0  0  0  0
  -25.4218  -15.1902   20.4066 N   0  0  0  0  0  0
  -31.7830  -14.8845   20.1330 O   0  0  0  0  0  0
  -21.6637   -6.8864   21.4232 O   0  0  0  0  0  0
  -22.3510  -14.5547   20.6718 O   0  0  0  0  0  0
  -24.6329  -31.8530   23.1942 C   0  0  0  0  0  0
  -25.9133  -32.4769   23.8313 C   0  0  1  0  0  0
  -27.2335  -27.2345   20.1502 C   0  0  0  0  0  0
  -25.5910  -33.8564   24.2243 N   0  0  0  0  0  0
  -23.4353  -30.4708   21.5358 C   0  0  2  0  0  0
  -24.8884  -28.9101   20.1139 C   0  0  0  0  0  0
  -22.7534  -29.4571   22.4873 C   0  0  0  0  0  0
  -18.0295  -28.1403   22.8484 C   0  0  0  0  0  0
  -24.1492  -36.7286   23.2640 C   0  0  0  0  0  0
  -25.9822  -30.7613   21.3756 C   0  0  0  0  0  0
  -26.0586  -29.3747   20.7290 C   0  0  0  0  0  0
  -27.2316  -28.5484   20.7368 C   0  0  0  0  0  0
  -26.0419  -26.8422   19.5039 C   0  0  0  0  0  0
  -24.8858  -27.6515   19.4913 C   0  0  0  0  0  0
  -23.6594  -29.8008   20.1554 C   0  0  0  0  0  0
  -25.4122  -36.3077   24.0338 C   0  0  1  0  0  0
  -20.5907  -28.3702   23.1280 C   0  0  2  0  0  0
  -20.6796  -26.9411   22.5423 C   0  0  0  0  0  0
  -19.5770  -26.6391   21.5237 C   0  0  0  0  0  0
  -18.1939  -26.7946   22.1626 C   0  0  0  0  0  0
  -19.1542  -28.8866   23.2877 C   0  0  0  0  0  0
  -18.9469  -30.1463   23.8921 C   0  0  0  0  0  0
  -17.6469  -30.6606   24.0565 C   0  0  0  0  0  0
  -25.9056  -34.9452   23.5097 C   0  0  0  0  0  0
  -16.5355  -29.9103   23.6331 C   0  0  0  0  0  0
  -16.7278  -28.6522   23.0351 C   0  0  0  0  0  0
  -26.4501  -31.6587   25.0691 C   0  0  0  0  0  0
  -25.3692  -31.3755   26.1387 C   0  0  0  0  0  0
  -27.0342  -30.3010   24.6138 C   0  0  0  0  0  0
  -27.6055  -32.4319   25.7474 C   0  0  0  0  0  0
  -27.5582  -37.1796   24.8469 C   0  0  0  0  0  0
  -21.4227  -29.3042   22.3658 N   0  0  0  0  0  0
  -26.4297  -37.3785   23.9425 N   0  0  0  0  0  0
  -24.7032  -31.0481   22.0931 N   0  0  0  0  0  0
  -23.4223  -28.8097   23.2970 O   0  0  0  0  0  0
  -28.3288  -26.3298   20.1675 O   0  0  0  0  0  0
  -26.5638  -34.8934   22.4669 O   0  0  0  0  0  0
  -23.5466  -32.1333   23.7232 O   0  0  0  0  0  0
  -31.1361  -19.3969   20.1108 C   0  0  0  0  0  0
  -29.9215  -20.0473   20.3307 C   0  0  0  0  0  0
  -30.0026  -17.3971   20.5556 C   0  0  0  0  0  0
  -28.1387  -24.9235   20.4170 C   0  0  0  0  0  0
  -29.0245  -23.8678   20.1796 C   0  0  0  0  0  0
  -28.7612  -22.3904   20.5020 C   0  0  0  0  0  0
  -32.4286  -20.0645   19.7378 C   0  0  0  0  0  0
  -31.1667  -17.9768   20.2312 N   0  0  0  0  0  0
  -29.7445  -21.4512   20.1881 N   0  0  0  0  0  0
  -29.8011  -15.9196   20.7044 N   0  0  0  0  0  0
  -30.3031  -24.2917   19.5683 N   0  3  0  0  0  0
  -27.7209  -22.0120   21.0434 O   0  0  0  0  0  0
  -28.7651  -18.7279   20.7541 S   0  0  0  0  0  0
  -31.4793  -12.6198   19.1795 H   0  0  0  0  0  0
  -30.3965  -11.5140   19.9826 H   0  0  0  0  0  0
  -29.8101  -11.7350   17.5433 H   0  0  0  0  0  0
  -29.6231  -13.4620   17.7230 H   0  0  0  0  0  0
  -27.9260  -11.2731   18.9547 H   0  0  0  0  0  0
  -27.3793  -12.4762   17.8161 H   0  0  0  0  0  0
  -27.6304  -14.2464   19.4565 H   0  0  0  0  0  0
  -28.7336  -12.1910   21.4377 H   0  0  0  0  0  0
  -28.4061  -13.8664   21.7979 H   0  0  0  0  0  0
  -25.2748   -9.5700   22.4764 H   0  0  0  0  0  0
  -23.9995   -7.4643   22.7492 H   0  0  0  0  0  0
  -21.0827   -8.8766   19.8954 H   0  0  0  0  0  0
  -22.3680  -10.9669   19.6162 H   0  0  0  0  0  0
  -21.2004   -7.6143   23.9702 H   0  0  0  0  0  0
  -21.1480   -6.0519   25.9063 H   0  0  0  0  0  0
  -22.0600   -2.7605   23.2859 H   0  0  0  0  0  0
  -22.4066  -11.9859   22.4773 H   0  0  0  0  0  0
  -21.1093  -13.1250   22.2640 H   0  0  0  0  0  0
  -24.6498  -15.8420   20.4980 H   0  0  0  0  0  0
  -26.2553  -15.6206   20.0292 H   0  0  0  0  0  0
  -26.7188  -32.5448   23.1050 H   0  0  0  0  0  0
  -25.0049  -33.9714   25.0374 H   0  0  0  0  0  0
  -22.7329  -31.2921   21.3842 H   0  0  0  0  0  0
  -23.3769  -35.9600   23.3312 H   0  0  0  0  0  0
  -24.3569  -36.8895   22.2048 H   0  0  0  0  0  0
  -23.7234  -37.6481   23.6656 H   0  0  0  0  0  0
  -26.1081  -31.5139   20.5960 H   0  0  0  0  0  0
  -26.8657  -30.8270   21.9995 H   0  0  0  0  0  0
  -28.1307  -28.8950   21.2263 H   0  0  0  0  0  0
  -25.9935  -25.8765   19.0209 H   0  0  0  0  0  0
  -23.9918  -27.2916   19.0018 H   0  0  0  0  0  0
  -23.7889  -30.5758   19.4004 H   0  0  0  0  0  0
  -22.7780  -29.2367   19.8470 H   0  0  0  0  0  0
  -25.1294  -36.1927   25.0833 H   0  0  0  0  0  0
  -21.0006  -28.3298   24.1400 H   0  0  0  0  0  0
  -20.5743  -26.2300   23.3628 H   0  0  0  0  0  0
  -21.6661  -26.7469   22.1183 H   0  0  0  0  0  0
  -19.6956  -25.6317   21.1239 H   0  0  0  0  0  0
  -19.6735  -27.3219   20.6792 H   0  0  0  0  0  0
  -17.4221  -26.6708   21.4010 H   0  0  0  0  0  0
  -18.0305  -26.0087   22.9015 H   0  0  0  0  0  0
  -19.7944  -30.7264   24.2313 H   0  0  0  0  0  0
  -17.5024  -31.6288   24.5155 H   0  0  0  0  0  0
  -15.5355  -30.3021   23.7670 H   0  0  0  0  0  0
  -15.8672  -28.0866   22.7077 H   0  0  0  0  0  0
  -24.5898  -30.7086   25.7704 H   0  0  0  0  0  0
  -24.8844  -32.2924   26.4740 H   0  0  0  0  0  0
  -25.7956  -30.8972   27.0212 H   0  0  0  0  0  0
  -26.2911  -29.6766   24.1166 H   0  0  0  0  0  0
  -27.4058  -29.7270   25.4641 H   0  0  0  0  0  0
  -27.8778  -30.4332   23.9360 H   0  0  0  0  0  0
  -27.2682  -33.3653   26.2005 H   0  0  0  0  0  0
  -28.3885  -32.6824   25.0297 H   0  0  0  0  0  0
  -28.0685  -31.8452   26.5413 H   0  0  0  0  0  0
  -28.2587  -38.0099   24.7510 H   0  0  0  0  0  0
  -28.1074  -36.2627   24.6287 H   0  0  0  0  0  0
  -27.2298  -37.1439   25.8868 H   0  0  0  0  0  0
  -20.9409  -29.8768   21.6871 H   0  0  0  0  0  0
  -26.0175  -38.2859   24.1418 H   0  0  0  0  0  0
  -27.1701  -24.7329   20.8621 H   0  0  0  0  0  0
  -33.2828  -19.5850   20.2172 H   0  0  0  0  0  0
  -32.4546  -21.1126   20.0357 H   0  0  0  0  0  0
  -32.5935  -20.0227   18.6609 H   0  0  0  0  0  0
  -30.5547  -21.8714   19.7658 H   0  0  0  0  0  0
  -28.8588  -15.6739   20.9587 H   0  0  0  0  0  0
  -30.2790  -25.2806   19.4020 H   0  0  0  0  0  0
  -30.4564  -23.8424   18.6827 H   0  0  0  0  0  0
  -31.0800  -24.1153   20.1798 H   0  0  0  0  0  0
  1 25  1  0  0  0
  1 30  2  0  0  0
  1 80  1  0  0  0
  2  3  1  0  0  0
  2 25  1  0  0  0
  2 84  1  0  0  0
  2 85  1  0  0  0
  3  4  1  0  0  0
  3 86  1  0  0  0
  3 87  1  0  0  0
  4  5  1  0  0  0
  4 88  1  0  0  0
  4 89  1  0  0  0
  5  6  1  0  0  0
  5 26  1  0  0  0
  5 90  1  0  0  0
  6 25  1  0  0  0
  6 91  1  0  0  0
  6 92  1  0  0  0
  7  8  2  0  0  0
  7 26  1  0  0  0
  7 29  1  0  0  0
  8  9  1  0  0  0
  8 22  1  0  0  0
  9 10  1  0  0  0
  9 27  2  0  0  0
 10 11  2  0  0  0
 10 15  1  0  0  0
 11 12  1  0  0  0
 11 93  1  0  0  0
 12 13  2  0  0  0
 12 94  1  0  0  0
 13 14  1  0  0  0
 13 31  1  0  0  0
 14 15  2  0  0  0
 14 95  1  0  0  0
 15 96  1  0  0  0
 16 17  2  0  0  0
 16 21  1  0  0  0
 16 31  1  0  0  0
 17 18  1  0  0  0
 17 97  1  0  0  0
 18 19  2  0  0  0
 18 98  1  0  0  0
 19 20  1  0  0  0
 19 24  1  0  0  0
 20 21  2  0  0  0
 20 99  1  0  0  0
 21 23  1  0  0  0
 22 28  1  0  0  0
 22 32  2  0  0  0
 26 27  1  0  0  0
 28100  1  0  0  0
 28101  1  0  0  0
 29102  1  0  0  0
 29103  1  0  0  0
 33 34  1  0  0  0
 33 66  1  0  0  0
 33 70  2  0  0  0
 34 36  1  0  0  0
 34 59  1  0  0  0
 34104  1  0  0  0
 35 44  2  0  0  0
 35 45  1  0  0  0
 35 68  1  0  0  0
 36 56  1  0  0  0
 36105  1  0  0  0
 37 39  1  0  0  0
 37 47  1  0  0  0
 37 66  1  0  0  0
 37106  1  0  0  0
 38 43  2  0  0  0
 38 46  1  0  0  0
 38 47  1  0  0  0
 39 64  1  0  0  0
 39 67  2  0  0  0
 40 52  1  0  0  0
 40 53  2  0  0  0
 40 58  1  0  0  0
 41107  1  0  0  0
 41108  1  0  0  0
 41109  1  0  0  0
 41 48  1  0  0  0
 42 43  1  0  0  0
 42 66  1  0  0  0
 42110  1  0  0  0
 42111  1  0  0  0
 43 44  1  0  0  0
 44112  1  0  0  0
 45 46  2  0  0  0
 45113  1  0  0  0
 46114  1  0  0  0
 47115  1  0  0  0
 47116  1  0  0  0
 48 56  1  0  0  0
 48 65  1  0  0  0
 48117  1  0  0  0
 49 50  1  0  0  0
 49 53  1  0  0  0
 49 64  1  0  0  0
 49118  1  0  0  0
 50 51  1  0  0  0
 50119  1  0  0  0
 50120  1  0  0  0
 51 52  1  0  0  0
 51121  1  0  0  0
 51122  1  0  0  0
 52123  1  0  0  0
 52124  1  0  0  0
 53 54  1  0  0  0
 54 55  2  0  0  0
 54125  1  0  0  0
 55 57  1  0  0  0
 55126  1  0  0  0
 56 69  2  0  0  0
 57 58  2  0  0  0
 57127  1  0  0  0
 58128  1  0  0  0
 59 60  1  0  0  0
 59 61  1  0  0  0
 59 62  1  0  0  0
 60129  1  0  0  0
 60130  1  0  0  0
 60131  1  0  0  0
 61132  1  0  0  0
 61133  1  0  0  0
 61134  1  0  0  0
 62135  1  0  0  0
 62136  1  0  0  0
 62137  1  0  0  0
 63 65  1  0  0  0
 63138  1  0  0  0
 63139  1  0  0  0
 63140  1  0  0  0
 64141  1  0  0  0
 65142  1  0  0  0
 68 74  1  0  0  0
 71 72  2  0  0  0
 71 77  1  0  0  0
 71 78  1  0  0  0
 72 79  1  0  0  0
 72 83  1  0  0  0
 73 78  2  0  0  0
 73 80  1  0  0  0
 73 83  1  0  0  0
 74 75  2  0  0  0
 74143  1  0  0  0
 75 76  1  0  0  0
 75 81  1  0  0  0
 76 79  1  0  0  0
 76 82  2  0  0  0
 77144  1  0  0  0
 77145  1  0  0  0
 77146  1  0  0  0
 79147  1  0  0  0
 80148  1  0  0  0
 81149  1  0  0  0
 81150  1  0  0  0
 81151  1  0  0  0
M  CHG  1  81   1
M  ISO  4   1 100  68 101  74 101  80 100
M  END
> <chiral flag>
0

> <version>
0

> <s_m_source_file>
/data/baiqing/PycharmProjects/Reinvent-master-3.2/result/LINK_invent/BTK/process_docking_weight1_custom_product_contain_oxygen_bond_distance_aromatic_linkinvent_7_9_3/rearranged_h_0163.sdf

> <i_m_source_file_index>
38

> <r_mmod_Potential_Energy-OPLS-2005>
-281.573883056641

> <r_mmod_Stretch_Energy-OPLS-2005>
133.774368286133

> <r_mmod_Bend_Energy-OPLS-2005>
192.039047241211

> <r_mmod_Torsional_Energy-OPLS-2005>
198.869644165039

> <r_mmod_Improper_Torsional_Energy-OPLS-2005>
4.20729875564575

> <r_mmod_Van_der_Waal_Energy-OPLS-2005>
114.781295776367

> <r_mmod_Electrostatic_Energy-OPLS-2005>
-445.679016113281

> <r_mmod_Solvation_Energy-OPLS-2005>
-582.88037109375

> <b_mmod_Minimization_Converged-OPLS-2005>
0

> <r_mmod_RMS_Derivative-OPLS-2005>
3.0764148235321

$$$$
38
                    3D
 Structure written by MMmdl.
181189  0  0  1  0            999 V2000
  -30.6107  -14.7221   20.4786 C   0  0  0  0  0  0
  -30.4301  -12.4403   19.4848 C   0  0  0  0  0  0
  -29.5126  -12.5113   18.2438 C   0  0  0  0  0  0
  -28.0362  -12.3393   18.6508 C   0  0  0  0  0  0
  -27.6437  -13.2297   19.8589 C   0  0  2  0  0  0
  -28.6841  -13.1472   20.9984 C   0  0  0  0  0  0
  -25.2505  -13.8191   20.5686 C   0  0  0  0  0  0
  -24.1793  -13.0431   20.9197 C   0  0  0  0  0  0
  -24.6386  -11.6913   20.8746 C   0  0  0  0  0  0
  -23.9070  -10.4284   21.0407 C   0  0  0  0  0  0
  -24.3623   -9.4205   21.9191 C   0  0  0  0  0  0
  -23.6293   -8.2245   22.0763 C   0  0  0  0  0  0
  -22.4282   -8.0283   21.3551 C   0  0  0  0  0  0
  -21.9916   -9.0254   20.4654 C   0  0  0  0  0  0
  -22.7240  -10.2133   20.3058 C   0  0  0  0  0  0
  -21.6851   -6.0741   22.5279 C   0  0  0  0  0  0
  -21.4011   -6.5643   23.8212 C   0  0  0  0  0  0
  -21.3664   -5.6797   24.9174 C   0  0  0  0  0  0
  -21.6049   -4.3061   24.7221 C   0  0  0  0  0  0
  -21.8822   -3.8151   23.4341 C   0  0  0  0  0  0
  -21.9189   -4.6968   22.3398 C   0  0  0  0  0  0
  -22.7822  -13.5222   21.1863 C   0  0  0  0  0  0
  -22.1661   -4.2155   21.0974 F   0  0  0  0  0  0
  -21.5632   -3.4540   25.7732 F   0  0  0  0  0  0
  -29.9905  -13.4946   20.4277 N   0  0  0  0  0  0
  -26.2939  -12.9399   20.3305 N   0  0  0  0  0  0
  -25.9317  -11.6541   20.5765 N   0  0  0  0  0  0
  -22.0475  -12.8198   22.0417 N   0  0  0  0  0  0
  -25.4152  -15.1917   20.4097 N   0  0  0  0  0  0
  -31.7855  -14.8305   20.1153 O   0  0  0  0  0  0
  -21.6642   -6.8888   21.4246 O   0  0  0  0  0  0
  -22.3512  -14.5529   20.6713 O   0  0  0  0  0  0
  -24.6313  -31.8580   23.2030 C   0  0  0  0  0  0
  -25.9136  -32.4769   23.8361 C   0  0  1  0  0  0
  -27.2080  -27.2661   20.1164 C   0  0  0  0  0  0
  -25.5935  -33.8575   24.2254 N   0  0  0  0  0  0
  -23.4279  -30.4833   21.5481 C   0  0  2  0  0  0
  -24.8744  -28.9457   20.1023 C   0  0  0  0  0  0
  -22.7502  -29.4607   22.4929 C   0  0  0  0  0  0
  -18.0292  -28.1401   22.8500 C   0  0  0  0  0  0
  -24.1494  -36.7291   23.2639 C   0  0  0  0  0  0
  -25.9763  -30.7704   21.3871 C   0  0  0  0  0  0
  -26.0479  -29.3978   20.7200 C   0  0  0  0  0  0
  -27.2191  -28.5704   20.7195 C   0  0  0  0  0  0
  -26.0242  -26.9114   19.4279 C   0  0  0  0  0  0
  -24.8694  -27.7110   19.4430 C   0  0  0  0  0  0
  -23.6452  -29.8297   20.1599 C   0  0  0  0  0  0
  -25.4126  -36.3068   24.0303 C   0  0  1  0  0  0
  -20.5899  -28.3714   23.1282 C   0  0  2  0  0  0
  -20.6786  -26.9432   22.5415 C   0  0  0  0  0  0
  -19.5752  -26.6390   21.5227 C   0  0  0  0  0  0
  -18.1931  -26.7943   22.1635 C   0  0  0  0  0  0
  -19.1554  -28.8874   23.2879 C   0  0  0  0  0  0
  -18.9469  -30.1479   23.8880 C   0  0  0  0  0  0
  -17.6470  -30.6602   24.0585 C   0  0  0  0  0  0
  -25.9066  -34.9447   23.5082 C   0  0  0  0  0  0
  -16.5358  -29.9102   23.6351 C   0  0  0  0  0  0
  -16.7277  -28.6527   23.0356 C   0  0  0  0  0  0
  -26.4494  -31.6614   25.0765 C   0  0  0  0  0  0
  -25.3697  -31.3761   26.1474 C   0  0  0  0  0  0
  -27.0371  -30.3031   24.6276 C   0  0  0  0  0  0
  -27.6029  -32.4387   25.7543 C   0  0  0  0  0  0
  -27.5578  -37.1794   24.8457 C   0  0  0  0  0  0
  -21.4207  -29.3055   22.3666 N   0  0  0  0  0  0
  -26.4290  -37.3783   23.9408 N   0  0  0  0  0  0
  -24.6980  -31.0532   22.1026 N   0  0  0  0  0  0
  -23.4213  -28.8128   23.3007 O   0  0  0  0  0  0
  -28.2521  -26.3084   20.2406 O   0  0  0  0  0  0
  -26.5658  -34.8912   22.4661 O   0  0  0  0  0  0
  -23.5446  -32.1411   23.7287 O   0  0  0  0  0  0
  -29.4022  -19.8434   20.2974 C   0  0  0  0  0  0
  -29.2401  -21.1545   22.3159 C   0  0  0  0  0  0
  -29.6852  -18.6181   21.0363 C   0  0  0  0  0  0
  -29.6781  -18.7196   22.4641 C   0  0  0  0  0  0
  -29.1785  -21.1374   20.9121 C   0  0  0  0  0  0
  -29.4537  -19.9862   23.0875 C   0  0  0  0  0  0
  -26.8335  -24.6181   21.4374 C   0  0  0  0  0  0
  -28.4181  -20.9247   26.6208 C   0  0  0  0  0  0
  -28.9698  -23.7178   20.5844 C   0  0  0  0  0  0
  -25.7426  -23.5689   21.2453 C   0  0  0  0  0  0
  -31.4115  -17.1329   23.4881 C   0  0  0  0  0  0
  -26.1993  -22.1007   26.9102 C   0  0  0  0  0  0
  -28.3500  -23.3867   27.2203 C   0  0  0  0  0  0
  -27.6374  -21.6850   28.9197 C   0  0  0  0  0  0
  -29.9258  -17.4902   23.3474 C   0  0  0  0  0  0
  -30.1182  -17.2824   20.2650 C   0  0  0  0  0  0
  -28.6028  -21.1232   25.1095 C   0  0  0  0  0  0
  -27.8558  -24.8372   20.2910 C   0  0  2  0  0  0
  -27.6563  -22.0200   27.4106 C   0  0  0  0  0  0
  -28.7727  -22.3865   20.2182 N   0  0  0  0  0  0
  -29.4495  -20.1020   24.4894 N   0  0  0  0  0  0
  -29.8348  -15.8460   20.7045 N   0  0  0  0  0  0
  -26.8786  -25.2674   22.4890 O   0  0  0  0  0  0
  -28.8578  -19.9079   27.1708 O   0  0  0  0  0  0
  -30.0162  -24.0558   21.1492 O   0  0  0  0  0  0
  -31.4723  -12.5589   19.1878 H   0  0  0  0  0  0
  -30.3633  -11.4606   19.9606 H   0  0  0  0  0  0
  -29.7924  -11.7432   17.5207 H   0  0  0  0  0  0
  -29.6454  -13.4705   17.7408 H   0  0  0  0  0  0
  -27.8855  -11.2887   18.9024 H   0  0  0  0  0  0
  -27.3834  -12.5457   17.8014 H   0  0  0  0  0  0
  -27.6445  -14.2549   19.4889 H   0  0  0  0  0  0
  -28.7117  -12.1459   21.4314 H   0  0  0  0  0  0
  -28.4196  -13.8227   21.8133 H   0  0  0  0  0  0
  -25.2766   -9.5690   22.4770 H   0  0  0  0  0  0
  -23.9998   -7.4651   22.7487 H   0  0  0  0  0  0
  -21.0851   -8.8782   19.8958 H   0  0  0  0  0  0
  -22.3701  -10.9681   19.6178 H   0  0  0  0  0  0
  -21.2009   -7.6154   23.9716 H   0  0  0  0  0  0
  -21.1486   -6.0527   25.9080 H   0  0  0  0  0  0
  -22.0595   -2.7611   23.2836 H   0  0  0  0  0  0
  -22.4093  -11.9848   22.4776 H   0  0  0  0  0  0
  -21.1117  -13.1247   22.2661 H   0  0  0  0  0  0
  -24.6394  -15.8359   20.5176 H   0  0  0  0  0  0
  -26.2547  -15.6405   20.0671 H   0  0  0  0  0  0
  -26.7201  -32.5401   23.1098 H   0  0  0  0  0  0
  -25.0037  -33.9742   25.0362 H   0  0  0  0  0  0
  -22.7241  -31.3073   21.4095 H   0  0  0  0  0  0
  -23.3756  -35.9625   23.3303 H   0  0  0  0  0  0
  -24.3555  -36.8952   22.2056 H   0  0  0  0  0  0
  -23.7264  -37.6478   23.6698 H   0  0  0  0  0  0
  -26.1159  -31.5374   20.6228 H   0  0  0  0  0  0
  -26.8528  -30.8129   22.0226 H   0  0  0  0  0  0
  -28.1087  -28.8998   21.2384 H   0  0  0  0  0  0
  -25.9435  -25.9812   18.8880 H   0  0  0  0  0  0
  -23.9765  -27.3677   18.9386 H   0  0  0  0  0  0
  -23.7664  -30.6132   19.4113 H   0  0  0  0  0  0
  -22.7608  -29.2686   19.8525 H   0  0  0  0  0  0
  -25.1319  -36.1898   25.0794 H   0  0  0  0  0  0
  -20.9999  -28.3301   24.1400 H   0  0  0  0  0  0
  -20.5723  -26.2316   23.3615 H   0  0  0  0  0  0
  -21.6645  -26.7469   22.1199 H   0  0  0  0  0  0
  -19.6913  -25.6305   21.1261 H   0  0  0  0  0  0
  -19.6689  -27.3197   20.6756 H   0  0  0  0  0  0
  -17.4209  -26.6715   21.4023 H   0  0  0  0  0  0
  -18.0312  -26.0089   22.9028 H   0  0  0  0  0  0
  -19.7941  -30.7324   24.2217 H   0  0  0  0  0  0
  -17.5026  -31.6274   24.5210 H   0  0  0  0  0  0
  -15.5362  -30.3016   23.7686 H   0  0  0  0  0  0
  -15.8670  -28.0862   22.7059 H   0  0  0  0  0  0
  -24.5872  -30.7122   25.7795 H   0  0  0  0  0  0
  -24.8870  -32.2922   26.4873 H   0  0  0  0  0  0
  -25.8002  -30.8946   27.0263 H   0  0  0  0  0  0
  -26.2990  -29.6748   24.1275 H   0  0  0  0  0  0
  -27.4042  -29.7321   25.4814 H   0  0  0  0  0  0
  -27.8857  -30.4333   23.9563 H   0  0  0  0  0  0
  -27.2628  -33.3720   26.2043 H   0  0  0  0  0  0
  -28.3857  -32.6910   25.0384 H   0  0  0  0  0  0
  -28.0670  -31.8572   26.5518 H   0  0  0  0  0  0
  -28.2566  -38.0123   24.7542 H   0  0  0  0  0  0
  -28.1108  -36.2645   24.6253 H   0  0  0  0  0  0
  -27.2280  -37.1409   25.8856 H   0  0  0  0  0  0
  -20.9390  -29.8775   21.6872 H   0  0  0  0  0  0
  -26.0146  -38.2834   24.1472 H   0  0  0  0  0  0
  -29.3798  -19.7877   19.2183 H   0  0  0  0  0  0
  -29.0827  -22.1000   22.8108 H   0  0  0  0  0  0
  -25.7778  -23.1405   20.2446 H   0  0  0  0  0  0
  -24.7616  -24.0236   21.3876 H   0  0  0  0  0  0
  -25.8637  -22.7656   21.9731 H   0  0  0  0  0  0
  -31.5346  -16.2601   24.1308 H   0  0  0  0  0  0
  -31.9715  -17.9540   23.9365 H   0  0  0  0  0  0
  -31.8693  -16.9026   22.5265 H   0  0  0  0  0  0
  -26.1391  -22.4390   25.8745 H   0  0  0  0  0  0
  -25.6126  -22.7993   27.5080 H   0  0  0  0  0  0
  -25.7036  -21.1299   26.9678 H   0  0  0  0  0  0
  -28.2649  -23.7523   26.1957 H   0  0  0  0  0  0
  -29.4134  -23.3345   27.4626 H   0  0  0  0  0  0
  -27.9088  -24.1502   27.8614 H   0  0  0  0  0  0
  -27.1392  -20.7341   29.1138 H   0  0  0  0  0  0
  -27.1066  -22.4488   29.4889 H   0  0  0  0  0  0
  -28.6461  -21.6177   29.3293 H   0  0  0  0  0  0
  -29.3528  -16.6433   22.9828 H   0  0  0  0  0  0
  -29.5140  -17.6286   24.3455 H   0  0  0  0  0  0
  -31.1962  -17.3722   20.1238 H   0  0  0  0  0  0
  -29.7034  -17.3584   19.2590 H   0  0  0  0  0  0
  -29.0468  -22.1051   24.9495 H   0  0  0  0  0  0
  -27.6208  -21.1233   24.6338 H   0  0  0  0  0  0
  -27.4147  -24.5575   19.3352 H   0  0  0  0  0  0
  -28.0848  -22.2492   19.4896 H   0  0  0  0  0  0
  -29.5292  -19.2547   25.0456 H   0  0  0  0  0  0
  -28.8839  -15.6607   20.9854 H   0  0  0  0  0  0
  1 25  1  0  0  0
  1 30  2  0  0  0
  1 92  1  0  0  0
  2  3  1  0  0  0
  2 25  1  0  0  0
  2 96  1  0  0  0
  2 97  1  0  0  0
  3  4  1  0  0  0
  3 98  1  0  0  0
  3 99  1  0  0  0
  4  5  1  0  0  0
  4100  1  0  0  0
  4101  1  0  0  0
  5  6  1  0  0  0
  5 26  1  0  0  0
  5102  1  0  0  0
  6 25  1  0  0  0
  6103  1  0  0  0
  6104  1  0  0  0
  7  8  2  0  0  0
  7 26  1  0  0  0
  7 29  1  0  0  0
  8  9  1  0  0  0
  8 22  1  0  0  0
  9 10  1  0  0  0
  9 27  2  0  0  0
 10 11  2  0  0  0
 10 15  1  0  0  0
 11 12  1  0  0  0
 11105  1  0  0  0
 12 13  2  0  0  0
 12106  1  0  0  0
 13 14  1  0  0  0
 13 31  1  0  0  0
 14 15  2  0  0  0
 14107  1  0  0  0
 15108  1  0  0  0
 16 17  2  0  0  0
 16 21  1  0  0  0
 16 31  1  0  0  0
 17 18  1  0  0  0
 17109  1  0  0  0
 18 19  2  0  0  0
 18110  1  0  0  0
 19 20  1  0  0  0
 19 24  1  0  0  0
 20 21  2  0  0  0
 20111  1  0  0  0
 21 23  1  0  0  0
 22 28  1  0  0  0
 22 32  2  0  0  0
 26 27  1  0  0  0
 28112  1  0  0  0
 28113  1  0  0  0
 29114  1  0  0  0
 29115  1  0  0  0
 33 34  1  0  0  0
 33 66  1  0  0  0
 33 70  2  0  0  0
 34 36  1  0  0  0
 34 59  1  0  0  0
 34116  1  0  0  0
 35 44  2  0  0  0
 35 45  1  0  0  0
 35 68  1  0  0  0
 36 56  1  0  0  0
 36117  1  0  0  0
 37 39  1  0  0  0
 37 47  1  0  0  0
 37 66  1  0  0  0
 37118  1  0  0  0
 38 43  2  0  0  0
 38 46  1  0  0  0
 38 47  1  0  0  0
 39 64  1  0  0  0
 39 67  2  0  0  0
 40 52  1  0  0  0
 40 53  2  0  0  0
 40 58  1  0  0  0
 41119  1  0  0  0
 41120  1  0  0  0
 41121  1  0  0  0
 41 48  1  0  0  0
 42 43  1  0  0  0
 42 66  1  0  0  0
 42122  1  0  0  0
 42123  1  0  0  0
 43 44  1  0  0  0
 44124  1  0  0  0
 45 46  2  0  0  0
 45125  1  0  0  0
 46126  1  0  0  0
 47127  1  0  0  0
 47128  1  0  0  0
 48 56  1  0  0  0
 48 65  1  0  0  0
 48129  1  0  0  0
 49 50  1  0  0  0
 49 53  1  0  0  0
 49 64  1  0  0  0
 49130  1  0  0  0
 50 51  1  0  0  0
 50131  1  0  0  0
 50132  1  0  0  0
 51 52  1  0  0  0
 51133  1  0  0  0
 51134  1  0  0  0
 52135  1  0  0  0
 52136  1  0  0  0
 53 54  1  0  0  0
 54 55  2  0  0  0
 54137  1  0  0  0
 55 57  1  0  0  0
 55138  1  0  0  0
 56 69  2  0  0  0
 57 58  2  0  0  0
 57139  1  0  0  0
 58140  1  0  0  0
 59 60  1  0  0  0
 59 61  1  0  0  0
 59 62  1  0  0  0
 60141  1  0  0  0
 60142  1  0  0  0
 60143  1  0  0  0
 61144  1  0  0  0
 61145  1  0  0  0
 61146  1  0  0  0
 62147  1  0  0  0
 62148  1  0  0  0
 62149  1  0  0  0
 63 65  1  0  0  0
 63150  1  0  0  0
 63151  1  0  0  0
 63152  1  0  0  0
 64153  1  0  0  0
 65154  1  0  0  0
 68 88  1  0  0  0
 71 73  2  0  0  0
 71 75  1  0  0  0
 71155  1  0  0  0
 72 75  2  0  0  0
 72 76  1  0  0  0
 72156  1  0  0  0
 73 74  1  0  0  0
 73 86  1  0  0  0
 74 76  2  0  0  0
 74 85  1  0  0  0
 75 90  1  0  0  0
 76 91  1  0  0  0
 77 80  1  0  0  0
 77 88  1  0  0  0
 77 93  2  0  0  0
 78 87  1  0  0  0
 78 89  1  0  0  0
 78 94  2  0  0  0
 79 88  1  0  0  0
 79 90  1  0  0  0
 79 95  2  0  0  0
 80157  1  0  0  0
 80158  1  0  0  0
 80159  1  0  0  0
 81 85  1  0  0  0
 81160  1  0  0  0
 81161  1  0  0  0
 81162  1  0  0  0
 82163  1  0  0  0
 82164  1  0  0  0
 82165  1  0  0  0
 82 89  1  0  0  0
 83 89  1  0  0  0
 83166  1  0  0  0
 83167  1  0  0  0
 83168  1  0  0  0
 84 89  1  0  0  0
 84169  1  0  0  0
 84170  1  0  0  0
 84171  1  0  0  0
 85172  1  0  0  0
 85173  1  0  0  0
 86 92  1  0  0  0
 86174  1  0  0  0
 86175  1  0  0  0
 87 91  1  0  0  0
 87176  1  0  0  0
 87177  1  0  0  0
 88178  1  0  0  0
 90179  1  0  0  0
 91180  1  0  0  0
 92181  1  0  0  0
M  ISO  4   1 100  68 101  88 101  92 100
M  END
> <chiral flag>
0

> <version>
0

> <s_m_source_file>
/data/baiqing/PycharmProjects/Reinvent-master-3.2/result/LINK_invent/BTK/process_docking_weight1_custom_product_contain_oxygen_bond_distance_aromatic_linkinvent_7_9_3/rearranged_h_0163.sdf

> <i_m_source_file_index>
39

> <r_mmod_Potential_Energy-OPLS-2005>
230.742736816406

> <r_mmod_Stretch_Energy-OPLS-2005>
134.401000976562

> <r_mmod_Bend_Energy-OPLS-2005>
172.935028076172

> <r_mmod_Torsional_Energy-OPLS-2005>
268.908752441406

> <r_mmod_Improper_Torsional_Energy-OPLS-2005>
10.6320276260376

> <r_mmod_Van_der_Waal_Energy-OPLS-2005>
157.991683959961

> <r_mmod_Electrostatic_Energy-OPLS-2005>
-318.644195556641

> <r_mmod_Solvation_Energy-OPLS-2005>
-283.273742675781

> <b_mmod_Minimization_Converged-OPLS-2005>
0

> <r_mmod_RMS_Derivative-OPLS-2005>
2.12737679481506

$$$$
39
                    3D
 Structure written by MMmdl.
161170  0  0  1  0            999 V2000
  -30.6529  -14.6208   20.5211 C   0  0  0  0  0  0
  -30.4392  -12.3939   19.4366 C   0  0  0  0  0  0
  -29.5073  -12.5102   18.2102 C   0  0  0  0  0  0
  -28.0280  -12.3541   18.6224 C   0  0  0  0  0  0
  -27.6497  -13.2170   19.8546 C   0  0  2  0  0  0
  -28.6997  -13.0818   20.9809 C   0  0  0  0  0  0
  -25.2548  -13.8160   20.5682 C   0  0  0  0  0  0
  -24.1806  -13.0435   20.9193 C   0  0  0  0  0  0
  -24.6355  -11.6913   20.8717 C   0  0  0  0  0  0
  -23.9015  -10.4297   21.0405 C   0  0  0  0  0  0
  -24.3574   -9.4225   21.9191 C   0  0  0  0  0  0
  -23.6276   -8.2239   22.0738 C   0  0  0  0  0  0
  -22.4258   -8.0261   21.3529 C   0  0  0  0  0  0
  -21.9896   -9.0241   20.4643 C   0  0  0  0  0  0
  -22.7189  -10.2136   20.3061 C   0  0  0  0  0  0
  -21.6853   -6.0722   22.5273 C   0  0  0  0  0  0
  -21.4007   -6.5622   23.8210 C   0  0  0  0  0  0
  -21.3683   -5.6762   24.9162 C   0  0  0  0  0  0
  -21.6051   -4.3020   24.7211 C   0  0  0  0  0  0
  -21.8825   -3.8114   23.4321 C   0  0  0  0  0  0
  -21.9203   -4.6942   22.3387 C   0  0  0  0  0  0
  -22.7835  -13.5261   21.1851 C   0  0  0  0  0  0
  -22.1675   -4.2139   21.0963 F   0  0  0  0  0  0
  -21.5654   -3.4507   25.7718 F   0  0  0  0  0  0
  -30.0086  -13.4177   20.4039 N   0  0  0  0  0  0
  -26.2965  -12.9351   20.3271 N   0  0  0  0  0  0
  -25.9287  -11.6509   20.5714 N   0  0  0  0  0  0
  -22.0435  -12.8296   22.0389 N   0  0  0  0  0  0
  -25.4238  -15.1889   20.4155 N   0  0  0  0  0  0
  -31.8465  -14.7425   20.2331 O   0  0  0  0  0  0
  -21.6618   -6.8862   21.4243 O   0  0  0  0  0  0
  -22.3577  -14.5597   20.6696 O   0  0  0  0  0  0
  -24.6265  -31.8604   23.2016 C   0  0  0  0  0  0
  -25.9114  -32.4778   23.8354 C   0  0  1  0  0  0
  -27.2266  -27.3160   20.1104 C   0  0  0  0  0  0
  -25.5941  -33.8582   24.2276 N   0  0  0  0  0  0
  -23.4187  -30.4849   21.5442 C   0  0  2  0  0  0
  -24.8659  -28.9441   20.1102 C   0  0  0  0  0  0
  -22.7475  -29.4636   22.4922 C   0  0  0  0  0  0
  -18.0284  -28.1384   22.8467 C   0  0  0  0  0  0
  -24.1501  -36.7297   23.2642 C   0  0  0  0  0  0
  -25.9623  -30.7904   21.3735 C   0  0  0  0  0  0
  -26.0342  -29.4179   20.7171 C   0  0  0  0  0  0
  -27.2124  -28.6135   20.7129 C   0  0  0  0  0  0
  -26.0194  -26.8915   19.5009 C   0  0  0  0  0  0
  -24.8616  -27.6862   19.4965 C   0  0  0  0  0  0
  -23.6332  -29.8212   20.1592 C   0  0  0  0  0  0
  -25.4115  -36.3083   24.0334 C   0  0  1  0  0  0
  -20.5883  -28.3704   23.1280 C   0  0  2  0  0  0
  -20.6767  -26.9426   22.5417 C   0  0  0  0  0  0
  -19.5754  -26.6387   21.5202 C   0  0  0  0  0  0
  -18.1929  -26.7928   22.1596 C   0  0  0  0  0  0
  -19.1533  -28.8857   23.2867 C   0  0  0  0  0  0
  -18.9463  -30.1453   23.8892 C   0  0  0  0  0  0
  -17.6463  -30.6587   24.0560 C   0  0  0  0  0  0
  -25.9054  -34.9448   23.5094 C   0  0  0  0  0  0
  -16.5350  -29.9082   23.6329 C   0  0  0  0  0  0
  -16.7273  -28.6497   23.0350 C   0  0  0  0  0  0
  -26.4507  -31.6579   25.0724 C   0  0  0  0  0  0
  -25.3751  -31.3731   26.1463 C   0  0  0  0  0  0
  -27.0346  -30.2995   24.6187 C   0  0  0  0  0  0
  -27.6084  -32.4317   25.7478 C   0  0  0  0  0  0
  -27.5589  -37.1792   24.8457 C   0  0  0  0  0  0
  -21.4183  -29.3049   22.3673 N   0  0  0  0  0  0
  -26.4297  -37.3776   23.9421 N   0  0  0  0  0  0
  -24.6876  -31.0626   22.0959 N   0  0  0  0  0  0
  -23.4204  -28.8165   23.2995 O   0  0  0  0  0  0
  -28.3605  -26.4844   20.1929 O   0  0  0  0  0  0
  -26.5599  -34.8918   22.4651 O   0  0  0  0  0  0
  -23.5433  -32.1407   23.7344 O   0  0  0  0  0  0
  -30.1072  -19.3406   21.5121 C   0  0  0  0  0  0
  -30.6150  -18.9133   22.7303 C   0  0  0  0  0  0
  -30.1744  -17.0121   21.2058 C   0  0  0  0  0  0
  -31.4681  -22.7749   19.9004 C   0  0  0  0  0  0
  -31.2290  -21.2845   20.3011 C   0  0  0  0  0  0
  -28.6320  -21.3274   20.4847 C   0  0  0  0  0  0
  -30.5492  -23.9116   20.4215 C   0  0  0  0  0  0
  -28.2486  -22.8570   20.6206 C   0  0  0  0  0  0
  -29.9833  -20.8485   21.1136 C   0  0  1  0  0  0
  -29.1277  -23.8750   19.8298 C   0  0  1  0  0  0
  -28.5052  -25.2750   19.3585 C   0  0  0  0  0  0
  -29.8429  -18.2183   20.6600 N   0  0  0  0  0  0
  -30.9918  -19.6736   23.8331 N   0  0  0  0  0  0
  -29.8518  -15.7214   20.6405 N   0  0  0  0  0  0
  -30.8309  -17.1765   22.8244 S   0  0  0  0  0  0
  -31.4814  -12.5175   19.1360 H   0  0  0  0  0  0
  -30.3694  -11.4001   19.8799 H   0  0  0  0  0  0
  -29.7749  -11.7652   17.4612 H   0  0  0  0  0  0
  -29.6515  -13.4828   17.7352 H   0  0  0  0  0  0
  -27.8537  -11.3018   18.8466 H   0  0  0  0  0  0
  -27.3771  -12.5971   17.7812 H   0  0  0  0  0  0
  -27.6653  -14.2508   19.5125 H   0  0  0  0  0  0
  -28.7114  -12.0658   21.3757 H   0  0  0  0  0  0
  -28.4533  -13.7262   21.8279 H   0  0  0  0  0  0
  -25.2751   -9.5709   22.4726 H   0  0  0  0  0  0
  -24.0011   -7.4645   22.7452 H   0  0  0  0  0  0
  -21.0831   -8.8750   19.8972 H   0  0  0  0  0  0
  -22.3665  -10.9648   19.6125 H   0  0  0  0  0  0
  -21.1970   -7.6126   23.9710 H   0  0  0  0  0  0
  -21.1525   -6.0472   25.9070 H   0  0  0  0  0  0
  -22.0588   -2.7578   23.2793 H   0  0  0  0  0  0
  -22.4002  -11.9967   22.4853 H   0  0  0  0  0  0
  -21.1053  -13.1374   22.2533 H   0  0  0  0  0  0
  -24.6459  -15.8304   20.5205 H   0  0  0  0  0  0
  -26.2589  -15.6387   20.0657 H   0  0  0  0  0  0
  -26.7184  -32.5446   23.1106 H   0  0  0  0  0  0
  -25.0093  -33.9733   25.0427 H   0  0  0  0  0  0
  -22.7095  -31.3038   21.4012 H   0  0  0  0  0  0
  -23.3761  -35.9631   23.3287 H   0  0  0  0  0  0
  -24.3615  -36.8929   22.2064 H   0  0  0  0  0  0
  -23.7257  -37.6500   23.6666 H   0  0  0  0  0  0
  -26.0951  -31.5505   20.6017 H   0  0  0  0  0  0
  -26.8416  -30.8396   22.0048 H   0  0  0  0  0  0
  -28.1061  -28.9749   21.2010 H   0  0  0  0  0  0
  -25.8913  -25.9230   19.0497 H   0  0  0  0  0  0
  -23.9602  -27.3098   19.0334 H   0  0  0  0  0  0
  -23.7486  -30.5954   19.3992 H   0  0  0  0  0  0
  -22.7546  -29.2456   19.8612 H   0  0  0  0  0  0
  -25.1292  -36.1922   25.0826 H   0  0  0  0  0  0
  -20.9976  -28.3295   24.1402 H   0  0  0  0  0  0
  -20.5661  -26.2326   23.3623 H   0  0  0  0  0  0
  -21.6641  -26.7456   22.1229 H   0  0  0  0  0  0
  -19.6924  -25.6293   21.1246 H   0  0  0  0  0  0
  -19.6695  -27.3187   20.6724 H   0  0  0  0  0  0
  -17.4213  -26.6709   21.3975 H   0  0  0  0  0  0
  -18.0306  -26.0066   22.8987 H   0  0  0  0  0  0
  -19.7950  -30.7259   24.2270 H   0  0  0  0  0  0
  -17.5029  -31.6265   24.5167 H   0  0  0  0  0  0
  -15.5352  -30.2981   23.7655 H   0  0  0  0  0  0
  -15.8677  -28.0811   22.7072 H   0  0  0  0  0  0
  -24.5912  -30.7087   25.7802 H   0  0  0  0  0  0
  -24.8957  -32.2905   26.4891 H   0  0  0  0  0  0
  -25.8083  -30.8909   27.0239 H   0  0  0  0  0  0
  -26.2908  -29.6729   24.1249 H   0  0  0  0  0  0
  -27.4073  -29.7264   25.4691 H   0  0  0  0  0  0
  -27.8773  -30.4254   23.9386 H   0  0  0  0  0  0
  -27.2697  -33.3605   26.2082 H   0  0  0  0  0  0
  -28.3865  -32.6903   25.0282 H   0  0  0  0  0  0
  -28.0798  -31.8440   26.5368 H   0  0  0  0  0  0
  -28.2588  -38.0111   24.7526 H   0  0  0  0  0  0
  -28.1095  -36.2636   24.6220 H   0  0  0  0  0  0
  -27.2330  -37.1388   25.8870 H   0  0  0  0  0  0
  -20.9367  -29.8782   21.6887 H   0  0  0  0  0  0
  -26.0164  -38.2853   24.1416 H   0  0  0  0  0  0
  -31.4886  -22.8240   18.8108 H   0  0  0  0  0  0
  -32.4893  -23.0262   20.1935 H   0  0  0  0  0  0
  -32.0965  -20.9766   20.8886 H   0  0  0  0  0  0
  -31.2823  -20.6728   19.3990 H   0  0  0  0  0  0
  -28.5809  -21.0169   19.4404 H   0  0  0  0  0  0
  -27.8360  -20.7733   20.9836 H   0  0  0  0  0  0
  -31.0099  -24.8577   20.1354 H   0  0  0  0  0  0
  -30.5205  -23.9185   21.5111 H   0  0  0  0  0  0
  -28.2267  -23.1370   21.6730 H   0  0  0  0  0  0
  -27.2192  -22.9693   20.2777 H   0  0  0  0  0  0
  -30.0384  -21.4108   22.0466 H   0  0  0  0  0  0
  -29.2394  -23.3829   18.8632 H   0  0  0  0  0  0
  -27.6053  -25.0027   18.8232 H   0  0  0  0  0  0
  -29.1571  -25.6230   18.5556 H   0  0  0  0  0  0
  -30.9046  -20.6856   23.8885 H   0  0  0  0  0  0
  -31.4207  -19.2751   24.6651 H   0  0  0  0  0  0
  -28.8665  -15.5433   20.5396 H   0  0  0  0  0  0
  1 25  1  0  0  0
  1 30  2  0  0  0
  1 84  1  0  0  0
  2  3  1  0  0  0
  2 25  1  0  0  0
  2 86  1  0  0  0
  2 87  1  0  0  0
  3  4  1  0  0  0
  3 88  1  0  0  0
  3 89  1  0  0  0
  4  5  1  0  0  0
  4 90  1  0  0  0
  4 91  1  0  0  0
  5  6  1  0  0  0
  5 26  1  0  0  0
  5 92  1  0  0  0
  6 25  1  0  0  0
  6 93  1  0  0  0
  6 94  1  0  0  0
  7  8  2  0  0  0
  7 26  1  0  0  0
  7 29  1  0  0  0
  8  9  1  0  0  0
  8 22  1  0  0  0
  9 10  1  0  0  0
  9 27  2  0  0  0
 10 11  2  0  0  0
 10 15  1  0  0  0
 11 12  1  0  0  0
 11 95  1  0  0  0
 12 13  2  0  0  0
 12 96  1  0  0  0
 13 14  1  0  0  0
 13 31  1  0  0  0
 14 15  2  0  0  0
 14 97  1  0  0  0
 15 98  1  0  0  0
 16 17  2  0  0  0
 16 21  1  0  0  0
 16 31  1  0  0  0
 17 18  1  0  0  0
 17 99  1  0  0  0
 18 19  2  0  0  0
 18100  1  0  0  0
 19 20  1  0  0  0
 19 24  1  0  0  0
 20 21  2  0  0  0
 20101  1  0  0  0
 21 23  1  0  0  0
 22 28  1  0  0  0
 22 32  2  0  0  0
 26 27  1  0  0  0
 28102  1  0  0  0
 28103  1  0  0  0
 29104  1  0  0  0
 29105  1  0  0  0
 33 34  1  0  0  0
 33 66  1  0  0  0
 33 70  2  0  0  0
 34 36  1  0  0  0
 34 59  1  0  0  0
 34106  1  0  0  0
 35 44  2  0  0  0
 35 45  1  0  0  0
 35 68  1  0  0  0
 36 56  1  0  0  0
 36107  1  0  0  0
 37 39  1  0  0  0
 37 47  1  0  0  0
 37 66  1  0  0  0
 37108  1  0  0  0
 38 43  2  0  0  0
 38 46  1  0  0  0
 38 47  1  0  0  0
 39 64  1  0  0  0
 39 67  2  0  0  0
 40 52  1  0  0  0
 40 53  2  0  0  0
 40 58  1  0  0  0
 41109  1  0  0  0
 41110  1  0  0  0
 41111  1  0  0  0
 41 48  1  0  0  0
 42 43  1  0  0  0
 42 66  1  0  0  0
 42112  1  0  0  0
 42113  1  0  0  0
 43 44  1  0  0  0
 44114  1  0  0  0
 45 46  2  0  0  0
 45115  1  0  0  0
 46116  1  0  0  0
 47117  1  0  0  0
 47118  1  0  0  0
 48 56  1  0  0  0
 48 65  1  0  0  0
 48119  1  0  0  0
 49 50  1  0  0  0
 49 53  1  0  0  0
 49 64  1  0  0  0
 49120  1  0  0  0
 50 51  1  0  0  0
 50121  1  0  0  0
 50122  1  0  0  0
 51 52  1  0  0  0
 51123  1  0  0  0
 51124  1  0  0  0
 52125  1  0  0  0
 52126  1  0  0  0
 53 54  1  0  0  0
 54 55  2  0  0  0
 54127  1  0  0  0
 55 57  1  0  0  0
 55128  1  0  0  0
 56 69  2  0  0  0
 57 58  2  0  0  0
 57129  1  0  0  0
 58130  1  0  0  0
 59 60  1  0  0  0
 59 61  1  0  0  0
 59 62  1  0  0  0
 60131  1  0  0  0
 60132  1  0  0  0
 60133  1  0  0  0
 61134  1  0  0  0
 61135  1  0  0  0
 61136  1  0  0  0
 62137  1  0  0  0
 62138  1  0  0  0
 62139  1  0  0  0
 63 65  1  0  0  0
 63140  1  0  0  0
 63141  1  0  0  0
 63142  1  0  0  0
 64143  1  0  0  0
 65144  1  0  0  0
 68 81  1  0  0  0
 71 72  2  0  0  0
 71 82  1  0  0  0
 71 79  1  0  0  0
 72 83  1  0  0  0
 72 85  1  0  0  0
 73 82  2  0  0  0
 73 84  1  0  0  0
 73 85  1  0  0  0
 74 75  1  0  0  0
 74 77  1  0  0  0
 74145  1  0  0  0
 74146  1  0  0  0
 75 79  1  0  0  0
 75147  1  0  0  0
 75148  1  0  0  0
 76 78  1  0  0  0
 76 79  1  0  0  0
 76149  1  0  0  0
 76150  1  0  0  0
 77 80  1  0  0  0
 77151  1  0  0  0
 77152  1  0  0  0
 78 80  1  0  0  0
 78153  1  0  0  0
 78154  1  0  0  0
 79155  1  0  0  0
 80 81  1  0  0  0
 80156  1  0  0  0
 81157  1  0  0  0
 81158  1  0  0  0
 83159  1  0  0  0
 83160  1  0  0  0
 84161  1  0  0  0
M  ISO  4   1 100  68 101  81 101  84 100
M  END
> <chiral flag>
0

> <version>
0

> <s_m_source_file>
/data/baiqing/PycharmProjects/Reinvent-master-3.2/result/LINK_invent/BTK/process_docking_weight1_custom_product_contain_oxygen_bond_distance_aromatic_linkinvent_7_9_3/rearranged_h_0163.sdf

> <i_m_source_file_index>
40

> <r_mmod_Potential_Energy-OPLS-2005>
150.137283325195

> <r_mmod_Stretch_Energy-OPLS-2005>
74.9795227050781

> <r_mmod_Bend_Energy-OPLS-2005>
190.589462280273

> <r_mmod_Torsional_Energy-OPLS-2005>
264.908386230469

> <r_mmod_Improper_Torsional_Energy-OPLS-2005>
10.2882118225098

> <r_mmod_Van_der_Waal_Energy-OPLS-2005>
121.137847900391

> <r_mmod_Electrostatic_Energy-OPLS-2005>
-344.038787841797

> <r_mmod_Solvation_Energy-OPLS-2005>
-216.727920532227

> <b_mmod_Minimization_Converged-OPLS-2005>
0

> <r_mmod_RMS_Derivative-OPLS-2005>
3.61854910850525

$$$$
40
                    3D
 Structure written by MMmdl.
168177  0  0  1  0            999 V2000
  -30.6718  -14.6274   20.4477 C   0  0  0  0  0  0
  -30.4223  -12.3717   19.4525 C   0  0  0  0  0  0
  -29.5025  -12.5038   18.2181 C   0  0  0  0  0  0
  -28.0243  -12.3520   18.6309 C   0  0  0  0  0  0
  -27.6473  -13.2078   19.8706 C   0  0  2  0  0  0
  -28.7028  -13.0921   20.9991 C   0  0  0  0  0  0
  -25.2486  -13.8122   20.5680 C   0  0  0  0  0  0
  -24.1744  -13.0394   20.9183 C   0  0  0  0  0  0
  -24.6327  -11.6864   20.8761 C   0  0  0  0  0  0
  -23.9034  -10.4244   21.0416 C   0  0  0  0  0  0
  -24.3603   -9.4154   21.9206 C   0  0  0  0  0  0
  -23.6259   -8.2202   22.0779 C   0  0  0  0  0  0
  -22.4218   -8.0262   21.3571 C   0  0  0  0  0  0
  -21.9852   -9.0218   20.4673 C   0  0  0  0  0  0
  -22.7201  -10.2086   20.3067 C   0  0  0  0  0  0
  -21.6800   -6.0702   22.5265 C   0  0  0  0  0  0
  -21.3993   -6.5601   23.8205 C   0  0  0  0  0  0
  -21.3680   -5.6769   24.9165 C   0  0  0  0  0  0
  -21.6036   -4.3029   24.7220 C   0  0  0  0  0  0
  -21.8810   -3.8127   23.4329 C   0  0  0  0  0  0
  -21.9163   -4.6945   22.3380 C   0  0  0  0  0  0
  -22.7778  -13.5202   21.1865 C   0  0  0  0  0  0
  -22.1627   -4.2140   21.0961 F   0  0  0  0  0  0
  -21.5677   -3.4509   25.7740 F   0  0  0  0  0  0
  -30.0202  -13.4153   20.4208 N   0  0  0  0  0  0
  -26.2939  -12.9295   20.3386 N   0  0  0  0  0  0
  -25.9268  -11.6464   20.5771 N   0  0  0  0  0  0
  -22.0404  -12.8216   22.0416 N   0  0  0  0  0  0
  -25.4199  -15.1858   20.4094 N   0  0  0  0  0  0
  -31.8415  -14.7271   20.0514 O   0  0  0  0  0  0
  -21.6592   -6.8839   21.4225 O   0  0  0  0  0  0
  -22.3453  -14.5501   20.6716 O   0  0  0  0  0  0
  -24.6271  -31.8595   23.2036 C   0  0  0  0  0  0
  -25.9115  -32.4780   23.8381 C   0  0  1  0  0  0
  -27.2320  -27.3283   20.0792 C   0  0  0  0  0  0
  -25.5916  -33.8585   24.2291 N   0  0  0  0  0  0
  -23.4217  -30.4823   21.5481 C   0  0  2  0  0  0
  -24.8642  -28.9365   20.1147 C   0  0  0  0  0  0
  -22.7481  -29.4616   22.4954 C   0  0  0  0  0  0
  -18.0295  -28.1379   22.8486 C   0  0  0  0  0  0
  -24.1486  -36.7311   23.2629 C   0  0  0  0  0  0
  -25.9648  -30.7812   21.3810 C   0  0  0  0  0  0
  -26.0337  -29.4099   20.7228 C   0  0  0  0  0  0
  -27.2138  -28.6100   20.7088 C   0  0  0  0  0  0
  -26.0393  -26.9165   19.4350 C   0  0  0  0  0  0
  -24.8673  -27.6918   19.4690 C   0  0  0  0  0  0
  -23.6339  -29.8165   20.1648 C   0  0  0  0  0  0
  -25.4105  -36.3092   24.0327 C   0  0  1  0  0  0
  -20.5886  -28.3675   23.1277 C   0  0  2  0  0  0
  -20.6770  -26.9398   22.5397 C   0  0  0  0  0  0
  -19.5745  -26.6376   21.5196 C   0  0  0  0  0  0
  -18.1929  -26.7922   22.1611 C   0  0  0  0  0  0
  -19.1548  -28.8849   23.2870 C   0  0  0  0  0  0
  -18.9465  -30.1445   23.8901 C   0  0  0  0  0  0
  -17.6465  -30.6576   24.0554 C   0  0  0  0  0  0
  -25.9047  -34.9449   23.5112 C   0  0  0  0  0  0
  -16.5361  -29.9076   23.6320 C   0  0  0  0  0  0
  -16.7281  -28.6489   23.0355 C   0  0  0  0  0  0
  -26.4484  -31.6608   25.0766 C   0  0  0  0  0  0
  -25.3718  -31.3784   26.1503 C   0  0  0  0  0  0
  -27.0293  -30.3016   24.6234 C   0  0  0  0  0  0
  -27.6051  -32.4340   25.7524 C   0  0  0  0  0  0
  -27.5591  -37.1798   24.8453 C   0  0  0  0  0  0
  -21.4193  -29.3046   22.3694 N   0  0  0  0  0  0
  -26.4293  -37.3780   23.9416 N   0  0  0  0  0  0
  -24.6903  -31.0585   22.1003 N   0  0  0  0  0  0
  -23.4198  -28.8145   23.3032 O   0  0  0  0  0  0
  -28.3807  -26.5204   20.0801 O   0  0  0  0  0  0
  -26.5615  -34.8917   22.4687 O   0  0  0  0  0  0
  -23.5431  -32.1406   23.7337 O   0  0  0  0  0  0
  -29.0108  -19.1373   18.3001 C   0  0  0  0  0  0
  -28.9038  -16.7545   18.7504 C   0  0  0  0  0  0
  -28.5369  -17.8604   17.9633 C   0  0  0  0  0  0
  -29.8647  -19.3072   19.4086 C   0  0  0  0  0  0
  -29.7125  -16.9062   19.9065 C   0  0  0  0  0  0
  -28.3059  -25.1264   19.8800 C   0  0  0  0  0  0
  -29.3607  -24.2588   19.8691 C   0  0  0  0  0  0
  -29.1926  -22.8190   19.5082 C   0  0  0  0  0  0
  -32.3728  -21.8663   22.1381 C   0  0  0  0  0  0
  -32.7505  -21.7321   20.6534 C   0  0  0  0  0  0
  -31.0013  -22.5061   22.4033 C   0  0  0  0  0  0
  -32.0725  -20.5262   19.9797 C   0  0  0  0  0  0
  -29.8179  -21.8203   21.6905 C   0  0  0  0  0  0
  -30.5782  -20.6876   19.5933 C   0  0  2  0  0  0
  -30.1442  -18.1975   20.1855 N   0  3  0  0  0  0
  -29.8932  -21.8739   20.2241 N   0  0  0  0  0  0
  -27.7281  -17.6880   16.8355 N   0  0  0  0  0  0
  -29.9327  -15.7390   20.7610 N   0  0  0  0  0  0
  -28.5794  -22.4890   18.4896 O   0  0  0  0  0  0
  -30.5917  -24.7383   20.0938 O   0  0  0  0  0  0
  -31.4690  -12.4468   19.1567 H   0  0  0  0  0  0
  -30.3174  -11.3824   19.8984 H   0  0  0  0  0  0
  -29.7620  -11.7590   17.4649 H   0  0  0  0  0  0
  -29.6539  -13.4729   17.7386 H   0  0  0  0  0  0
  -27.8364  -11.2974   18.8415 H   0  0  0  0  0  0
  -27.3756  -12.6072   17.7916 H   0  0  0  0  0  0
  -27.6443  -14.2386   19.5377 H   0  0  0  0  0  0
  -28.7151  -12.0794   21.4074 H   0  0  0  0  0  0
  -28.4533  -13.7437   21.8368 H   0  0  0  0  0  0
  -25.2771   -9.5595   22.4759 H   0  0  0  0  0  0
  -23.9971   -7.4538   22.7448 H   0  0  0  0  0  0
  -21.0813   -8.8696   19.8943 H   0  0  0  0  0  0
  -22.3682  -10.9605   19.6137 H   0  0  0  0  0  0
  -21.1988   -7.6113   23.9696 H   0  0  0  0  0  0
  -21.1530   -6.0505   25.9069 H   0  0  0  0  0  0
  -22.0595   -2.7587   23.2810 H   0  0  0  0  0  0
  -22.3964  -11.9894   22.4849 H   0  0  0  0  0  0
  -21.1040  -13.1293   22.2668 H   0  0  0  0  0  0
  -24.6585  -15.8433   20.5305 H   0  0  0  0  0  0
  -26.2679  -15.6241   20.0833 H   0  0  0  0  0  0
  -26.7190  -32.5430   23.1135 H   0  0  0  0  0  0
  -25.0084  -33.9730   25.0453 H   0  0  0  0  0  0
  -22.7171  -31.3031   21.4035 H   0  0  0  0  0  0
  -23.3748  -35.9641   23.3271 H   0  0  0  0  0  0
  -24.3600  -36.8964   22.2053 H   0  0  0  0  0  0
  -23.7228  -37.6499   23.6681 H   0  0  0  0  0  0
  -26.1005  -31.5404   20.6100 H   0  0  0  0  0  0
  -26.8443  -30.8282   22.0120 H   0  0  0  0  0  0
  -28.1132  -28.9649   21.1897 H   0  0  0  0  0  0
  -25.9784  -25.9944   18.8781 H   0  0  0  0  0  0
  -23.9748  -27.3268   18.9776 H   0  0  0  0  0  0
  -23.7518  -30.5890   19.4037 H   0  0  0  0  0  0
  -22.7542  -29.2425   19.8663 H   0  0  0  0  0  0
  -25.1271  -36.1954   25.0813 H   0  0  0  0  0  0
  -20.9979  -28.3249   24.1393 H   0  0  0  0  0  0
  -20.5653  -26.2287   23.3598 H   0  0  0  0  0  0
  -21.6642  -26.7408   22.1205 H   0  0  0  0  0  0
  -19.6891  -25.6279   21.1251 H   0  0  0  0  0  0
  -19.6681  -27.3165   20.6710 H   0  0  0  0  0  0
  -17.4181  -26.6667   21.4024 H   0  0  0  0  0  0
  -18.0333  -26.0076   22.9022 H   0  0  0  0  0  0
  -19.7943  -30.7261   24.2275 H   0  0  0  0  0  0
  -17.5021  -31.6265   24.5144 H   0  0  0  0  0  0
  -15.5358  -30.2972   23.7642 H   0  0  0  0  0  0
  -15.8681  -28.0796   22.7082 H   0  0  0  0  0  0
  -24.5826  -30.7199   25.7862 H   0  0  0  0  0  0
  -24.8976  -32.2965   26.4986 H   0  0  0  0  0  0
  -25.8027  -30.8915   27.0260 H   0  0  0  0  0  0
  -26.2847  -29.6807   24.1229 H   0  0  0  0  0  0
  -27.3934  -29.7249   25.4753 H   0  0  0  0  0  0
  -27.8768  -30.4289   23.9488 H   0  0  0  0  0  0
  -27.2669  -33.3648   26.2101 H   0  0  0  0  0  0
  -28.3854  -32.6893   25.0341 H   0  0  0  0  0  0
  -28.0728  -31.8469   26.5442 H   0  0  0  0  0  0
  -28.2567  -38.0132   24.7536 H   0  0  0  0  0  0
  -28.1123  -36.2664   24.6217 H   0  0  0  0  0  0
  -27.2329  -37.1381   25.8858 H   0  0  0  0  0  0
  -20.9377  -29.8808   21.6933 H   0  0  0  0  0  0
  -26.0177  -38.2857   24.1425 H   0  0  0  0  0  0
  -28.7697  -19.9861   17.6732 H   0  0  0  0  0  0
  -28.5494  -15.7816   18.4534 H   0  0  0  0  0  0
  -27.3092  -24.7523   19.7133 H   0  0  0  0  0  0
  -33.1315  -22.4669   22.6418 H   0  0  0  0  0  0
  -32.4096  -20.8886   22.6197 H   0  0  0  0  0  0
  -33.8283  -21.5752   20.5982 H   0  0  0  0  0  0
  -32.5662  -22.6588   20.1077 H   0  0  0  0  0  0
  -31.0433  -23.5650   22.1657 H   0  0  0  0  0  0
  -30.8172  -22.4826   23.4779 H   0  0  0  0  0  0
  -32.2010  -19.6771   20.6495 H   0  0  0  0  0  0
  -32.6298  -20.2525   19.0817 H   0  0  0  0  0  0
  -28.8817  -22.2706   22.0255 H   0  0  0  0  0  0
  -29.7615  -20.7794   22.0089 H   0  0  0  0  0  0
  -30.6897  -21.0144   18.5559 H   0  0  0  0  0  0
  -30.7480  -18.3356   21.0012 H   0  0  0  0  0  0
  -27.1789  -18.4846   16.5329 H   0  0  0  0  0  0
  -27.2232  -16.8140   16.7381 H   0  0  0  0  0  0
  -29.1229  -15.4822   21.2946 H   0  0  0  0  0  0
  -30.5013  -25.6717   20.2337 H   0  0  0  0  0  0
  1 25  1  0  0  0
  1 30  2  0  0  0
  1 88  1  0  0  0
  2  3  1  0  0  0
  2 25  1  0  0  0
  2 91  1  0  0  0
  2 92  1  0  0  0
  3  4  1  0  0  0
  3 93  1  0  0  0
  3 94  1  0  0  0
  4  5  1  0  0  0
  4 95  1  0  0  0
  4 96  1  0  0  0
  5  6  1  0  0  0
  5 26  1  0  0  0
  5 97  1  0  0  0
  6 25  1  0  0  0
  6 98  1  0  0  0
  6 99  1  0  0  0
  7  8  2  0  0  0
  7 26  1  0  0  0
  7 29  1  0  0  0
  8  9  1  0  0  0
  8 22  1  0  0  0
  9 10  1  0  0  0
  9 27  2  0  0  0
 10 11  2  0  0  0
 10 15  1  0  0  0
 11 12  1  0  0  0
 11100  1  0  0  0
 12 13  2  0  0  0
 12101  1  0  0  0
 13 14  1  0  0  0
 13 31  1  0  0  0
 14 15  2  0  0  0
 14102  1  0  0  0
 15103  1  0  0  0
 16 17  2  0  0  0
 16 21  1  0  0  0
 16 31  1  0  0  0
 17 18  1  0  0  0
 17104  1  0  0  0
 18 19  2  0  0  0
 18105  1  0  0  0
 19 20  1  0  0  0
 19 24  1  0  0  0
 20 21  2  0  0  0
 20106  1  0  0  0
 21 23  1  0  0  0
 22 28  1  0  0  0
 22 32  2  0  0  0
 26 27  1  0  0  0
 28107  1  0  0  0
 28108  1  0  0  0
 29109  1  0  0  0
 29110  1  0  0  0
 33 34  1  0  0  0
 33 66  1  0  0  0
 33 70  2  0  0  0
 34 36  1  0  0  0
 34 59  1  0  0  0
 34111  1  0  0  0
 35 44  2  0  0  0
 35 45  1  0  0  0
 35 68  1  0  0  0
 36 56  1  0  0  0
 36112  1  0  0  0
 37 39  1  0  0  0
 37 47  1  0  0  0
 37 66  1  0  0  0
 37113  1  0  0  0
 38 43  2  0  0  0
 38 46  1  0  0  0
 38 47  1  0  0  0
 39 64  1  0  0  0
 39 67  2  0  0  0
 40 52  1  0  0  0
 40 53  2  0  0  0
 40 58  1  0  0  0
 41114  1  0  0  0
 41115  1  0  0  0
 41116  1  0  0  0
 41 48  1  0  0  0
 42 43  1  0  0  0
 42 66  1  0  0  0
 42117  1  0  0  0
 42118  1  0  0  0
 43 44  1  0  0  0
 44119  1  0  0  0
 45 46  2  0  0  0
 45120  1  0  0  0
 46121  1  0  0  0
 47122  1  0  0  0
 47123  1  0  0  0
 48 56  1  0  0  0
 48 65  1  0  0  0
 48124  1  0  0  0
 49 50  1  0  0  0
 49 53  1  0  0  0
 49 64  1  0  0  0
 49125  1  0  0  0
 50 51  1  0  0  0
 50126  1  0  0  0
 50127  1  0  0  0
 51 52  1  0  0  0
 51128  1  0  0  0
 51129  1  0  0  0
 52130  1  0  0  0
 52131  1  0  0  0
 53 54  1  0  0  0
 54 55  2  0  0  0
 54132  1  0  0  0
 55 57  1  0  0  0
 55133  1  0  0  0
 56 69  2  0  0  0
 57 58  2  0  0  0
 57134  1  0  0  0
 58135  1  0  0  0
 59 60  1  0  0  0
 59 61  1  0  0  0
 59 62  1  0  0  0
 60136  1  0  0  0
 60137  1  0  0  0
 60138  1  0  0  0
 61139  1  0  0  0
 61140  1  0  0  0
 61141  1  0  0  0
 62142  1  0  0  0
 62143  1  0  0  0
 62144  1  0  0  0
 63 65  1  0  0  0
 63145  1  0  0  0
 63146  1  0  0  0
 63147  1  0  0  0
 64148  1  0  0  0
 65149  1  0  0  0
 68 76  1  0  0  0
 71 73  2  0  0  0
 71 74  1  0  0  0
 71150  1  0  0  0
 72 73  1  0  0  0
 72 75  2  0  0  0
 72151  1  0  0  0
 73 87  1  0  0  0
 74 85  2  0  0  0
 74 84  1  0  0  0
 75 85  1  0  0  0
 75 88  1  0  0  0
 76 77  2  0  0  0
 76152  1  0  0  0
 77 78  1  0  0  0
 77 90  1  0  0  0
 78 86  1  0  0  0
 78 89  2  0  0  0
 79 80  1  0  0  0
 79 81  1  0  0  0
 79153  1  0  0  0
 79154  1  0  0  0
 80 82  1  0  0  0
 80155  1  0  0  0
 80156  1  0  0  0
 81 83  1  0  0  0
 81157  1  0  0  0
 81158  1  0  0  0
 82 84  1  0  0  0
 82159  1  0  0  0
 82160  1  0  0  0
 83 86  1  0  0  0
 83161  1  0  0  0
 83162  1  0  0  0
 84 86  1  0  0  0
 84163  1  0  0  0
 85164  1  0  0  0
 87165  1  0  0  0
 87166  1  0  0  0
 88167  1  0  0  0
 90168  1  0  0  0
M  CHG  1  85   1
M  ISO  4   1 100  68 101  76 101  88 100
M  END
> <chiral flag>
0

> <version>
0

> <s_m_source_file>
/data/baiqing/PycharmProjects/Reinvent-master-3.2/result/LINK_invent/BTK/process_docking_weight1_custom_product_contain_oxygen_bond_distance_aromatic_linkinvent_7_9_3/rearranged_h_0163.sdf

> <i_m_source_file_index>
41

> <r_mmod_Potential_Energy-OPLS-2005>
170.476791381836

> <r_mmod_Stretch_Energy-OPLS-2005>
81.0446395874023

> <r_mmod_Bend_Energy-OPLS-2005>
158.678253173828

> <r_mmod_Torsional_Energy-OPLS-2005>
363.518676757812

> <r_mmod_Improper_Torsional_Energy-OPLS-2005>
14.7133369445801

> <r_mmod_Van_der_Waal_Energy-OPLS-2005>
148.873031616211

> <r_mmod_Electrostatic_Energy-OPLS-2005>
-199.930023193359

> <r_mmod_Solvation_Energy-OPLS-2005>
-440.149841308594

> <b_mmod_Minimization_Converged-OPLS-2005>
0

> <r_mmod_RMS_Derivative-OPLS-2005>
4.70737171173096

$$$$
41
                    3D
 Structure written by MMmdl.
153161  0  0  1  0            999 V2000
  -30.6373  -14.6446   20.5150 C   0  0  0  0  0  0
  -30.4396  -12.3966   19.4563 C   0  0  0  0  0  0
  -29.5071  -12.5063   18.2274 C   0  0  0  0  0  0
  -28.0315  -12.3367   18.6417 C   0  0  0  0  0  0
  -27.6513  -13.2145   19.8636 C   0  0  2  0  0  0
  -28.6973  -13.0737   20.9970 C   0  0  0  0  0  0
  -25.2533  -13.8178   20.5689 C   0  0  0  0  0  0
  -24.1807  -13.0440   20.9199 C   0  0  0  0  0  0
  -24.6378  -11.6910   20.8758 C   0  0  0  0  0  0
  -23.9056  -10.4290   21.0413 C   0  0  0  0  0  0
  -24.3618   -9.4209   21.9182 C   0  0  0  0  0  0
  -23.6293   -8.2246   22.0761 C   0  0  0  0  0  0
  -22.4274   -8.0282   21.3553 C   0  0  0  0  0  0
  -21.9909   -9.0251   20.4658 C   0  0  0  0  0  0
  -22.7238  -10.2127   20.3056 C   0  0  0  0  0  0
  -21.6859   -6.0737   22.5275 C   0  0  0  0  0  0
  -21.4020   -6.5653   23.8207 C   0  0  0  0  0  0
  -21.3649   -5.6812   24.9181 C   0  0  0  0  0  0
  -21.6039   -4.3071   24.7236 C   0  0  0  0  0  0
  -21.8822   -3.8150   23.4359 C   0  0  0  0  0  0
  -21.9199   -4.6964   22.3406 C   0  0  0  0  0  0
  -22.7824  -13.5223   21.1852 C   0  0  0  0  0  0
  -22.1668   -4.2150   21.0983 F   0  0  0  0  0  0
  -21.5620   -3.4545   25.7744 F   0  0  0  0  0  0
  -30.0182  -13.4175   20.4398 N   0  0  0  0  0  0
  -26.2964  -12.9358   20.3317 N   0  0  0  0  0  0
  -25.9310  -11.6519   20.5785 N   0  0  0  0  0  0
  -22.0488  -12.8190   22.0410 N   0  0  0  0  0  0
  -25.4223  -15.1902   20.4075 N   0  0  0  0  0  0
  -31.7929  -14.7926   20.0902 O   0  0  0  0  0  0
  -21.6655   -6.8873   21.4232 O   0  0  0  0  0  0
  -22.3507  -14.5530   20.6716 O   0  0  0  0  0  0
  -24.6253  -31.8613   23.2043 C   0  0  0  0  0  0
  -25.9102  -32.4793   23.8369 C   0  0  1  0  0  0
  -27.2276  -27.3335   20.1200 C   0  0  0  0  0  0
  -25.5925  -33.8594   24.2295 N   0  0  0  0  0  0
  -23.4189  -30.4840   21.5467 C   0  0  2  0  0  0
  -24.8673  -28.9401   20.1146 C   0  0  0  0  0  0
  -22.7462  -29.4634   22.4948 C   0  0  0  0  0  0
  -18.0279  -28.1390   22.8485 C   0  0  0  0  0  0
  -24.1486  -36.7294   23.2634 C   0  0  0  0  0  0
  -25.9579  -30.7975   21.3719 C   0  0  0  0  0  0
  -26.0356  -29.4244   20.7170 C   0  0  0  0  0  0
  -27.2212  -28.6328   20.7103 C   0  0  0  0  0  0
  -26.0416  -26.9028   19.4847 C   0  0  0  0  0  0
  -24.8715  -27.6844   19.4889 C   0  0  0  0  0  0
  -23.6338  -29.8178   20.1629 C   0  0  0  0  0  0
  -25.4109  -36.3093   24.0332 C   0  0  1  0  0  0
  -20.5878  -28.3698   23.1289 C   0  0  2  0  0  0
  -20.6770  -26.9426   22.5412 C   0  0  0  0  0  0
  -19.5748  -26.6398   21.5210 C   0  0  0  0  0  0
  -18.1925  -26.7935   22.1620 C   0  0  0  0  0  0
  -19.1530  -28.8859   23.2882 C   0  0  0  0  0  0
  -18.9456  -30.1458   23.8904 C   0  0  0  0  0  0
  -17.6457  -30.6594   24.0570 C   0  0  0  0  0  0
  -25.9051  -34.9462   23.5115 C   0  0  0  0  0  0
  -16.5348  -29.9097   23.6332 C   0  0  0  0  0  0
  -16.7264  -28.6511   23.0356 C   0  0  0  0  0  0
  -26.4495  -31.6593   25.0728 C   0  0  0  0  0  0
  -25.3734  -31.3705   26.1453 C   0  0  0  0  0  0
  -27.0337  -30.3029   24.6152 C   0  0  0  0  0  0
  -27.6064  -32.4318   25.7490 C   0  0  0  0  0  0
  -27.5585  -37.1791   24.8454 C   0  0  0  0  0  0
  -21.4177  -29.3058   22.3686 N   0  0  0  0  0  0
  -26.4281  -37.3797   23.9424 N   0  0  0  0  0  0
  -24.6860  -31.0635   22.0990 N   0  0  0  0  0  0
  -23.4184  -28.8175   23.3029 O   0  0  0  0  0  0
  -28.3365  -26.4805   20.1496 O   0  0  0  0  0  0
  -26.5617  -34.8923   22.4678 O   0  0  0  0  0  0
  -23.5419  -32.1401   23.7376 O   0  0  0  0  0  0
  -30.8804  -17.8211   19.9316 C   0  0  0  0  0  0
  -28.8732  -19.3218   21.1245 C   0  0  0  0  0  0
  -30.8198  -19.2320   19.7262 C   0  0  0  0  0  0
  -29.8083  -20.0357   20.3310 C   0  0  0  0  0  0
  -29.9167  -17.1440   20.7322 C   0  0  0  0  0  0
  -29.0862  -23.9789   20.1794 C   0  0  0  0  0  0
  -28.8194  -22.4726   20.5943 C   0  0  0  0  0  0
  -28.0650  -25.0990   20.6107 C   0  0  0  0  0  0
  -28.9596  -17.9619   21.2847 N   0  3  0  0  0  0
  -31.7491  -19.8635   18.8918 N   0  0  0  0  0  0
  -29.8061  -21.4562   20.1086 N   0  0  0  0  0  0
  -29.8604  -15.6899   20.9548 N   0  0  0  0  0  0
  -30.0955  -24.2596   19.5221 O   0  0  0  0  0  0
  -31.4796  -12.5205   19.1502 H   0  0  0  0  0  0
  -30.3784  -11.4007   19.8984 H   0  0  0  0  0  0
  -29.7745  -11.7542   17.4830 H   0  0  0  0  0  0
  -29.6429  -13.4750   17.7444 H   0  0  0  0  0  0
  -27.8781  -11.2849   18.8852 H   0  0  0  0  0  0
  -27.3732  -12.5523   17.7981 H   0  0  0  0  0  0
  -27.6645  -14.2477   19.5158 H   0  0  0  0  0  0
  -28.7087  -12.0505   21.3766 H   0  0  0  0  0  0
  -28.4320  -13.6977   21.8523 H   0  0  0  0  0  0
  -25.2774   -9.5693   22.4744 H   0  0  0  0  0  0
  -24.0014   -7.4654   22.7490 H   0  0  0  0  0  0
  -21.0843   -8.8769   19.8967 H   0  0  0  0  0  0
  -22.3703  -10.9661   19.6163 H   0  0  0  0  0  0
  -21.2010   -7.6165   23.9699 H   0  0  0  0  0  0
  -21.1470   -6.0554   25.9081 H   0  0  0  0  0  0
  -22.0601   -2.7603   23.2867 H   0  0  0  0  0  0
  -22.4128  -11.9842   22.4768 H   0  0  0  0  0  0
  -21.1097  -13.1162   22.2633 H   0  0  0  0  0  0
  -24.6426  -15.8329   20.5020 H   0  0  0  0  0  0
  -26.2418  -15.6292   20.0093 H   0  0  0  0  0  0
  -26.7171  -32.5477   23.1122 H   0  0  0  0  0  0
  -25.0081  -33.9746   25.0446 H   0  0  0  0  0  0
  -22.7127  -31.3046   21.4036 H   0  0  0  0  0  0
  -23.3770  -35.9602   23.3260 H   0  0  0  0  0  0
  -24.3586  -36.8953   22.2056 H   0  0  0  0  0  0
  -23.7202  -37.6469   23.6678 H   0  0  0  0  0  0
  -26.0803  -31.5594   20.6007 H   0  0  0  0  0  0
  -26.8422  -30.8533   21.9953 H   0  0  0  0  0  0
  -28.1178  -28.9997   21.1899 H   0  0  0  0  0  0
  -26.0052  -25.9491   18.9781 H   0  0  0  0  0  0
  -23.9784  -27.3108   19.0074 H   0  0  0  0  0  0
  -23.7508  -30.5941   19.4055 H   0  0  0  0  0  0
  -22.7545  -29.2450   19.8622 H   0  0  0  0  0  0
  -25.1280  -36.1944   25.0824 H   0  0  0  0  0  0
  -20.9963  -28.3274   24.1414 H   0  0  0  0  0  0
  -20.5685  -26.2307   23.3606 H   0  0  0  0  0  0
  -21.6637  -26.7467   22.1201 H   0  0  0  0  0  0
  -19.6921  -25.6312   21.1232 H   0  0  0  0  0  0
  -19.6688  -27.3211   20.6739 H   0  0  0  0  0  0
  -17.4199  -26.6687   21.4017 H   0  0  0  0  0  0
  -18.0325  -26.0069   22.9008 H   0  0  0  0  0  0
  -19.7929  -30.7268   24.2284 H   0  0  0  0  0  0
  -17.5016  -31.6275   24.5174 H   0  0  0  0  0  0
  -15.5351  -30.3011   23.7657 H   0  0  0  0  0  0
  -15.8658  -28.0840   22.7081 H   0  0  0  0  0  0
  -24.5919  -30.7051   25.7768 H   0  0  0  0  0  0
  -24.8914  -32.2862   26.4892 H   0  0  0  0  0  0
  -25.8068  -30.8869   27.0219 H   0  0  0  0  0  0
  -26.2906  -29.6771   24.1200 H   0  0  0  0  0  0
  -27.4083  -29.7283   25.4633 H   0  0  0  0  0  0
  -27.8750  -30.4327   23.9338 H   0  0  0  0  0  0
  -27.2697  -33.3630   26.2053 H   0  0  0  0  0  0
  -28.3879  -32.6856   25.0316 H   0  0  0  0  0  0
  -28.0725  -31.8449   26.5411 H   0  0  0  0  0  0
  -28.2560  -38.0132   24.7586 H   0  0  0  0  0  0
  -28.1130  -36.2674   24.6178 H   0  0  0  0  0  0
  -27.2318  -37.1311   25.8857 H   0  0  0  0  0  0
  -20.9359  -29.8772   21.6883 H   0  0  0  0  0  0
  -26.0161  -38.2859   24.1488 H   0  0  0  0  0  0
  -31.6667  -17.2569   19.4520 H   0  0  0  0  0  0
  -28.0523  -19.8026   21.6415 H   0  0  0  0  0  0
  -27.8274  -22.2039   20.2300 H   0  0  0  0  0  0
  -28.7706  -22.4322   21.6826 H   0  0  0  0  0  0
  -28.0407  -25.1177   21.6998 H   0  0  0  0  0  0
  -27.0812  -24.7538   20.2998 H   0  0  0  0  0  0
  -28.2347  -17.5390   21.8730 H   0  0  0  0  0  0
  -32.1711  -19.2655   18.1932 H   0  0  0  0  0  0
  -31.3633  -20.6913   18.4562 H   0  0  0  0  0  0
  -30.6652  -21.8462   19.7309 H   0  0  0  0  0  0
  -29.0182  -15.3589   21.3874 H   0  0  0  0  0  0
  1 25  1  0  0  0
  1 30  2  0  0  0
  1 82  1  0  0  0
  2  3  1  0  0  0
  2 25  1  0  0  0
  2 84  1  0  0  0
  2 85  1  0  0  0
  3  4  1  0  0  0
  3 86  1  0  0  0
  3 87  1  0  0  0
  4  5  1  0  0  0
  4 88  1  0  0  0
  4 89  1  0  0  0
  5  6  1  0  0  0
  5 26  1  0  0  0
  5 90  1  0  0  0
  6 25  1  0  0  0
  6 91  1  0  0  0
  6 92  1  0  0  0
  7  8  2  0  0  0
  7 26  1  0  0  0
  7 29  1  0  0  0
  8  9  1  0  0  0
  8 22  1  0  0  0
  9 10  1  0  0  0
  9 27  2  0  0  0
 10 11  2  0  0  0
 10 15  1  0  0  0
 11 12  1  0  0  0
 11 93  1  0  0  0
 12 13  2  0  0  0
 12 94  1  0  0  0
 13 14  1  0  0  0
 13 31  1  0  0  0
 14 15  2  0  0  0
 14 95  1  0  0  0
 15 96  1  0  0  0
 16 17  2  0  0  0
 16 21  1  0  0  0
 16 31  1  0  0  0
 17 18  1  0  0  0
 17 97  1  0  0  0
 18 19  2  0  0  0
 18 98  1  0  0  0
 19 20  1  0  0  0
 19 24  1  0  0  0
 20 21  2  0  0  0
 20 99  1  0  0  0
 21 23  1  0  0  0
 22 28  1  0  0  0
 22 32  2  0  0  0
 26 27  1  0  0  0
 28100  1  0  0  0
 28101  1  0  0  0
 29102  1  0  0  0
 29103  1  0  0  0
 33 34  1  0  0  0
 33 66  1  0  0  0
 33 70  2  0  0  0
 34 36  1  0  0  0
 34 59  1  0  0  0
 34104  1  0  0  0
 35 44  2  0  0  0
 35 45  1  0  0  0
 35 68  1  0  0  0
 36 56  1  0  0  0
 36105  1  0  0  0
 37 39  1  0  0  0
 37 47  1  0  0  0
 37 66  1  0  0  0
 37106  1  0  0  0
 38 43  2  0  0  0
 38 46  1  0  0  0
 38 47  1  0  0  0
 39 64  1  0  0  0
 39 67  2  0  0  0
 40 52  1  0  0  0
 40 53  2  0  0  0
 40 58  1  0  0  0
 41107  1  0  0  0
 41108  1  0  0  0
 41109  1  0  0  0
 41 48  1  0  0  0
 42 43  1  0  0  0
 42 66  1  0  0  0
 42110  1  0  0  0
 42111  1  0  0  0
 43 44  1  0  0  0
 44112  1  0  0  0
 45 46  2  0  0  0
 45113  1  0  0  0
 46114  1  0  0  0
 47115  1  0  0  0
 47116  1  0  0  0
 48 56  1  0  0  0
 48 65  1  0  0  0
 48117  1  0  0  0
 49 50  1  0  0  0
 49 53  1  0  0  0
 49 64  1  0  0  0
 49118  1  0  0  0
 50 51  1  0  0  0
 50119  1  0  0  0
 50120  1  0  0  0
 51 52  1  0  0  0
 51121  1  0  0  0
 51122  1  0  0  0
 52123  1  0  0  0
 52124  1  0  0  0
 53 54  1  0  0  0
 54 55  2  0  0  0
 54125  1  0  0  0
 55 57  1  0  0  0
 55126  1  0  0  0
 56 69  2  0  0  0
 57 58  2  0  0  0
 57127  1  0  0  0
 58128  1  0  0  0
 59 60  1  0  0  0
 59 61  1  0  0  0
 59 62  1  0  0  0
 60129  1  0  0  0
 60130  1  0  0  0
 60131  1  0  0  0
 61132  1  0  0  0
 61133  1  0  0  0
 61134  1  0  0  0
 62135  1  0  0  0
 62136  1  0  0  0
 62137  1  0  0  0
 63 65  1  0  0  0
 63138  1  0  0  0
 63139  1  0  0  0
 63140  1  0  0  0
 64141  1  0  0  0
 65142  1  0  0  0
 68 78  1  0  0  0
 71 73  2  0  0  0
 71 75  1  0  0  0
 71143  1  0  0  0
 72 74  2  0  0  0
 72 79  1  0  0  0
 72144  1  0  0  0
 73 74  1  0  0  0
 73 80  1  0  0  0
 74 81  1  0  0  0
 75 79  2  0  0  0
 75 82  1  0  0  0
 76 77  1  0  0  0
 76 78  1  0  0  0
 76 83  2  0  0  0
 77 81  1  0  0  0
 77145  1  0  0  0
 77146  1  0  0  0
 78147  1  0  0  0
 78148  1  0  0  0
 79149  1  0  0  0
 80150  1  0  0  0
 80151  1  0  0  0
 81152  1  0  0  0
 82153  1  0  0  0
M  CHG  1  79   1
M  ISO  4   1 100  68 101  78 101  82 100
M  END
> <chiral flag>
0

> <version>
0

> <s_m_source_file>
/data/baiqing/PycharmProjects/Reinvent-master-3.2/result/LINK_invent/BTK/process_docking_weight1_custom_product_contain_oxygen_bond_distance_aromatic_linkinvent_7_9_3/rearranged_h_0163.sdf

> <i_m_source_file_index>
42

> <r_mmod_Potential_Energy-OPLS-2005>
30.4373626708984

> <r_mmod_Stretch_Energy-OPLS-2005>
81.0682830810547

> <r_mmod_Bend_Energy-OPLS-2005>
145.493865966797

> <r_mmod_Torsional_Energy-OPLS-2005>
222.617736816406

> <r_mmod_Improper_Torsional_Energy-OPLS-2005>
9.60247039794922

> <r_mmod_Van_der_Waal_Energy-OPLS-2005>
147.679534912109

> <r_mmod_Electrostatic_Energy-OPLS-2005>
-148.02131652832

> <r_mmod_Solvation_Energy-OPLS-2005>
-473.505157470703

> <b_mmod_Minimization_Converged-OPLS-2005>
0

> <r_mmod_RMS_Derivative-OPLS-2005>
1.69801735877991

$$$$
42
                    3D
 Structure written by MMmdl.
160169  0  0  1  0            999 V2000
  -30.6525  -14.5319   20.5629 C   0  0  0  0  0  0
  -30.4375  -12.3411   19.4269 C   0  0  0  0  0  0
  -29.5018  -12.5174   18.2108 C   0  0  0  0  0  0
  -28.0227  -12.3678   18.6207 C   0  0  0  0  0  0
  -27.6631  -13.2050   19.8767 C   0  0  2  0  0  0
  -28.7059  -12.9836   20.9960 C   0  0  0  0  0  0
  -25.2599  -13.8146   20.5677 C   0  0  0  0  0  0
  -24.1844  -13.0428   20.9162 C   0  0  0  0  0  0
  -24.6395  -11.6894   20.8719 C   0  0  0  0  0  0
  -23.9058  -10.4285   21.0394 C   0  0  0  0  0  0
  -24.3610   -9.4205   21.9177 C   0  0  0  0  0  0
  -23.6285   -8.2242   22.0752 C   0  0  0  0  0  0
  -22.4269   -8.0281   21.3541 C   0  0  0  0  0  0
  -21.9899   -9.0252   20.4645 C   0  0  0  0  0  0
  -22.7227  -10.2129   20.3050 C   0  0  0  0  0  0
  -21.6853   -6.0732   22.5276 C   0  0  0  0  0  0
  -21.4015   -6.5638   23.8210 C   0  0  0  0  0  0
  -21.3658   -5.6789   24.9172 C   0  0  0  0  0  0
  -21.6044   -4.3052   24.7224 C   0  0  0  0  0  0
  -21.8822   -3.8144   23.4346 C   0  0  0  0  0  0
  -21.9193   -4.6958   22.3400 C   0  0  0  0  0  0
  -22.7870  -13.5232   21.1833 C   0  0  0  0  0  0
  -22.1663   -4.2145   21.0977 F   0  0  0  0  0  0
  -21.5625   -3.4536   25.7738 F   0  0  0  0  0  0
  -30.0339  -13.3203   20.4502 N   0  0  0  0  0  0
  -26.3033  -12.9312   20.3362 N   0  0  0  0  0  0
  -25.9326  -11.6472   20.5753 N   0  0  0  0  0  0
  -22.0511  -12.8229   22.0394 N   0  0  0  0  0  0
  -25.4317  -15.1866   20.4120 N   0  0  0  0  0  0
  -31.7720  -14.7563   20.0917 O   0  0  0  0  0  0
  -21.6637   -6.8874   21.4239 O   0  0  0  0  0  0
  -22.3555  -14.5543   20.6688 O   0  0  0  0  0  0
  -24.6179  -31.8652   23.2072 C   0  0  0  0  0  0
  -25.9058  -32.4809   23.8381 C   0  0  1  0  0  0
  -27.2359  -27.4059   20.1047 C   0  0  0  0  0  0
  -25.5902  -33.8607   24.2313 N   0  0  0  0  0  0
  -23.4089  -30.4865   21.5478 C   0  0  2  0  0  0
  -24.8595  -28.9482   20.1135 C   0  0  0  0  0  0
  -22.7432  -29.4639   22.4974 C   0  0  0  0  0  0
  -18.0278  -28.1376   22.8488 C   0  0  0  0  0  0
  -24.1485  -36.7307   23.2637 C   0  0  0  0  0  0
  -25.9405  -30.8215   21.3661 C   0  0  0  0  0  0
  -26.0208  -29.4526   20.7148 C   0  0  0  0  0  0
  -27.2152  -28.6883   20.7096 C   0  0  0  0  0  0
  -26.0623  -26.9234   19.4941 C   0  0  0  0  0  0
  -24.8762  -27.6832   19.4995 C   0  0  0  0  0  0
  -23.6210  -29.8173   20.1630 C   0  0  0  0  0  0
  -25.4106  -36.3105   24.0334 C   0  0  1  0  0  0
  -20.5870  -28.3665   23.1307 C   0  0  2  0  0  0
  -20.6765  -26.9397   22.5417 C   0  0  0  0  0  0
  -19.5746  -26.6381   21.5211 C   0  0  0  0  0  0
  -18.1924  -26.7922   22.1621 C   0  0  0  0  0  0
  -19.1527  -28.8839   23.2894 C   0  0  0  0  0  0
  -18.9456  -30.1443   23.8907 C   0  0  0  0  0  0
  -17.6458  -30.6579   24.0565 C   0  0  0  0  0  0
  -25.9036  -34.9469   23.5123 C   0  0  0  0  0  0
  -16.5349  -29.9080   23.6327 C   0  0  0  0  0  0
  -16.7267  -28.6499   23.0346 C   0  0  0  0  0  0
  -26.4475  -31.6591   25.0716 C   0  0  0  0  0  0
  -25.3735  -31.3707   26.1463 C   0  0  0  0  0  0
  -27.0307  -30.3030   24.6106 C   0  0  0  0  0  0
  -27.6053  -32.4306   25.7479 C   0  0  0  0  0  0
  -27.5579  -37.1810   24.8462 C   0  0  0  0  0  0
  -21.4157  -29.3027   22.3712 N   0  0  0  0  0  0
  -26.4292  -37.3790   23.9407 N   0  0  0  0  0  0
  -24.6738  -31.0724   22.0988 N   0  0  0  0  0  0
  -23.4188  -28.8188   23.3037 O   0  0  0  0  0  0
  -28.3519  -26.5895   20.1133 O   0  0  0  0  0  0
  -26.5600  -34.8924   22.4688 O   0  0  0  0  0  0
  -23.5362  -32.1419   23.7446 O   0  0  0  0  0  0
  -30.2829  -19.2304   21.5569 C   0  0  0  0  0  0
  -30.5524  -17.8405   21.6675 C   0  0  0  0  0  0
  -28.9176  -17.4004   19.9403 C   0  0  0  0  0  0
  -29.2942  -19.7360   20.6706 C   0  0  0  0  0  0
  -29.8498  -16.9006   20.8801 C   0  0  0  0  0  0
  -28.6492  -18.7901   19.8239 C   0  0  0  0  0  0
  -29.2720  -23.6794   19.8977 C   0  0  0  0  0  0
  -28.6844  -24.2040   20.9966 C   0  0  0  0  0  0
  -29.5655  -22.1785   19.6885 C   0  0  0  0  0  0
  -28.2600  -23.2841   22.1402 C   0  0  0  0  0  0
  -28.9234  -21.8848   22.1059 C   0  0  0  0  0  0
  -28.8593  -21.2378   20.7057 C   0  0  2  0  0  0
  -28.4104  -25.7065   21.2569 C   0  0  0  0  0  0
  -27.7027  -19.2000   18.8844 N   0  0  0  0  0  0
  -29.9073  -15.4910   21.1594 N   0  0  0  0  0  0
  -31.4789  -12.4647   19.1246 H   0  0  0  0  0  0
  -30.3622  -11.3287   19.8267 H   0  0  0  0  0  0
  -29.7490  -11.7901   17.4363 H   0  0  0  0  0  0
  -29.6604  -13.5013   17.7662 H   0  0  0  0  0  0
  -27.8380  -11.3107   18.8152 H   0  0  0  0  0  0
  -27.3726  -12.6405   17.7887 H   0  0  0  0  0  0
  -27.7047  -14.2530   19.5804 H   0  0  0  0  0  0
  -28.6971  -11.9415   21.3187 H   0  0  0  0  0  0
  -28.4538  -13.5592   21.8877 H   0  0  0  0  0  0
  -25.2758   -9.5679   22.4749 H   0  0  0  0  0  0
  -23.9994   -7.4634   22.7471 H   0  0  0  0  0  0
  -21.0827   -8.8770   19.8954 H   0  0  0  0  0  0
  -22.3686  -10.9667   19.6156 H   0  0  0  0  0  0
  -21.2013   -7.6148   23.9711 H   0  0  0  0  0  0
  -21.1475   -6.0522   25.9073 H   0  0  0  0  0  0
  -22.0602   -2.7605   23.2851 H   0  0  0  0  0  0
  -22.4119  -11.9884   22.4774 H   0  0  0  0  0  0
  -21.1133  -13.1260   22.2602 H   0  0  0  0  0  0
  -24.6668  -15.8425   20.5282 H   0  0  0  0  0  0
  -26.2883  -15.6313   20.1093 H   0  0  0  0  0  0
  -26.7131  -32.5517   23.1145 H   0  0  0  0  0  0
  -25.0052  -33.9761   25.0460 H   0  0  0  0  0  0
  -22.6990  -31.3040   21.4062 H   0  0  0  0  0  0
  -23.3745  -35.9643   23.3307 H   0  0  0  0  0  0
  -24.3584  -36.8918   22.2051 H   0  0  0  0  0  0
  -23.7238  -37.6513   23.6650 H   0  0  0  0  0  0
  -26.0559  -31.5852   20.5957 H   0  0  0  0  0  0
  -26.8271  -30.8771   21.9860 H   0  0  0  0  0  0
  -28.1103  -29.0691   21.1818 H   0  0  0  0  0  0
  -26.0651  -25.9474   19.0290 H   0  0  0  0  0  0
  -23.9843  -27.2874   19.0332 H   0  0  0  0  0  0
  -23.7298  -30.5919   19.4030 H   0  0  0  0  0  0
  -22.7452  -29.2375   19.8661 H   0  0  0  0  0  0
  -25.1283  -36.1969   25.0826 H   0  0  0  0  0  0
  -20.9959  -28.3233   24.1430 H   0  0  0  0  0  0
  -20.5661  -26.2272   23.3605 H   0  0  0  0  0  0
  -21.6639  -26.7429   22.1220 H   0  0  0  0  0  0
  -19.6905  -25.6296   21.1228 H   0  0  0  0  0  0
  -19.6682  -27.3200   20.6750 H   0  0  0  0  0  0
  -17.4192  -26.6670   21.4024 H   0  0  0  0  0  0
  -18.0322  -26.0060   22.9014 H   0  0  0  0  0  0
  -19.7932  -30.7257   24.2277 H   0  0  0  0  0  0
  -17.5013  -31.6260   24.5166 H   0  0  0  0  0  0
  -15.5350  -30.2986   23.7646 H   0  0  0  0  0  0
  -15.8667  -28.0823   22.7052 H   0  0  0  0  0  0
  -24.5897  -30.7066   25.7800 H   0  0  0  0  0  0
  -24.8939  -32.2867   26.4922 H   0  0  0  0  0  0
  -25.8080  -30.8862   27.0216 H   0  0  0  0  0  0
  -26.2856  -29.6794   24.1149 H   0  0  0  0  0  0
  -27.4063  -29.7262   25.4568 H   0  0  0  0  0  0
  -27.8698  -30.4349   23.9271 H   0  0  0  0  0  0
  -27.2678  -33.3600   26.2080 H   0  0  0  0  0  0
  -28.3850  -32.6872   25.0295 H   0  0  0  0  0  0
  -28.0732  -31.8412   26.5376 H   0  0  0  0  0  0
  -28.2603  -38.0102   24.7509 H   0  0  0  0  0  0
  -28.1069  -36.2636   24.6285 H   0  0  0  0  0  0
  -27.2302  -37.1457   25.8867 H   0  0  0  0  0  0
  -20.9321  -29.8751   21.6932 H   0  0  0  0  0  0
  -26.0180  -38.2869   24.1405 H   0  0  0  0  0  0
  -30.8141  -19.9038   22.2127 H   0  0  0  0  0  0
  -31.2608  -17.4993   22.4095 H   0  0  0  0  0  0
  -28.3642  -16.7006   19.3306 H   0  0  0  0  0  0
  -29.5947  -24.3431   19.1074 H   0  0  0  0  0  0
  -30.6458  -22.0464   19.7576 H   0  0  0  0  0  0
  -29.2831  -21.9005   18.6725 H   0  0  0  0  0  0
  -27.1744  -23.1832   22.1013 H   0  0  0  0  0  0
  -28.4911  -23.7635   23.0926 H   0  0  0  0  0  0
  -28.4322  -21.2410   22.8369 H   0  0  0  0  0  0
  -29.9618  -21.9786   22.4248 H   0  0  0  0  0  0
  -27.7985  -21.2455   20.4520 H   0  0  0  0  0  0
  -29.1863  -26.0762   21.9280 H   0  0  0  0  0  0
  -27.4797  -25.7647   21.8263 H   0  0  0  0  0  0
  -27.4676  -18.5710   18.1227 H   0  0  0  0  0  0
  -27.7006  -20.1740   18.6028 H   0  0  0  0  0  0
  -29.0559  -15.1113   21.5449 H   0  0  0  0  0  0
  1 25  1  0  0  0
  1 30  2  0  0  0
  1 85  1  0  0  0
  2  3  1  0  0  0
  2 25  1  0  0  0
  2 86  1  0  0  0
  2 87  1  0  0  0
  3  4  1  0  0  0
  3 88  1  0  0  0
  3 89  1  0  0  0
  4  5  1  0  0  0
  4 90  1  0  0  0
  4 91  1  0  0  0
  5  6  1  0  0  0
  5 26  1  0  0  0
  5 92  1  0  0  0
  6 25  1  0  0  0
  6 93  1  0  0  0
  6 94  1  0  0  0
  7  8  2  0  0  0
  7 26  1  0  0  0
  7 29  1  0  0  0
  8  9  1  0  0  0
  8 22  1  0  0  0
  9 10  1  0  0  0
  9 27  2  0  0  0
 10 11  2  0  0  0
 10 15  1  0  0  0
 11 12  1  0  0  0
 11 95  1  0  0  0
 12 13  2  0  0  0
 12 96  1  0  0  0
 13 14  1  0  0  0
 13 31  1  0  0  0
 14 15  2  0  0  0
 14 97  1  0  0  0
 15 98  1  0  0  0
 16 17  2  0  0  0
 16 21  1  0  0  0
 16 31  1  0  0  0
 17 18  1  0  0  0
 17 99  1  0  0  0
 18 19  2  0  0  0
 18100  1  0  0  0
 19 20  1  0  0  0
 19 24  1  0  0  0
 20 21  2  0  0  0
 20101  1  0  0  0
 21 23  1  0  0  0
 22 28  1  0  0  0
 22 32  2  0  0  0
 26 27  1  0  0  0
 28102  1  0  0  0
 28103  1  0  0  0
 29104  1  0  0  0
 29105  1  0  0  0
 33 34  1  0  0  0
 33 66  1  0  0  0
 33 70  2  0  0  0
 34 36  1  0  0  0
 34 59  1  0  0  0
 34106  1  0  0  0
 35 44  2  0  0  0
 35 45  1  0  0  0
 35 68  1  0  0  0
 36 56  1  0  0  0
 36107  1  0  0  0
 37 39  1  0  0  0
 37 47  1  0  0  0
 37 66  1  0  0  0
 37108  1  0  0  0
 38 43  2  0  0  0
 38 46  1  0  0  0
 38 47  1  0  0  0
 39 64  1  0  0  0
 39 67  2  0  0  0
 40 52  1  0  0  0
 40 53  2  0  0  0
 40 58  1  0  0  0
 41109  1  0  0  0
 41110  1  0  0  0
 41111  1  0  0  0
 41 48  1  0  0  0
 42 43  1  0  0  0
 42 66  1  0  0  0
 42112  1  0  0  0
 42113  1  0  0  0
 43 44  1  0  0  0
 44114  1  0  0  0
 45 46  2  0  0  0
 45115  1  0  0  0
 46116  1  0  0  0
 47117  1  0  0  0
 47118  1  0  0  0
 48 56  1  0  0  0
 48 65  1  0  0  0
 48119  1  0  0  0
 49 50  1  0  0  0
 49 53  1  0  0  0
 49 64  1  0  0  0
 49120  1  0  0  0
 50 51  1  0  0  0
 50121  1  0  0  0
 50122  1  0  0  0
 51 52  1  0  0  0
 51123  1  0  0  0
 51124  1  0  0  0
 52125  1  0  0  0
 52126  1  0  0  0
 53 54  1  0  0  0
 54 55  2  0  0  0
 54127  1  0  0  0
 55 57  1  0  0  0
 55128  1  0  0  0
 56 69  2  0  0  0
 57 58  2  0  0  0
 57129  1  0  0  0
 58130  1  0  0  0
 59 60  1  0  0  0
 59 61  1  0  0  0
 59 62  1  0  0  0
 60131  1  0  0  0
 60132  1  0  0  0
 60133  1  0  0  0
 61134  1  0  0  0
 61135  1  0  0  0
 61136  1  0  0  0
 62137  1  0  0  0
 62138  1  0  0  0
 62139  1  0  0  0
 63 65  1  0  0  0
 63140  1  0  0  0
 63141  1  0  0  0
 63142  1  0  0  0
 64143  1  0  0  0
 65144  1  0  0  0
 68 83  1  0  0  0
 71 72  2  0  0  0
 71 74  1  0  0  0
 71145  1  0  0  0
 72 75  1  0  0  0
 72146  1  0  0  0
 73 75  2  0  0  0
 73 76  1  0  0  0
 73147  1  0  0  0
 74 76  2  0  0  0
 74 82  1  0  0  0
 75 85  1  0  0  0
 76 84  1  0  0  0
 77 78  2  0  0  0
 77 79  1  0  0  0
 77148  1  0  0  0
 78 80  1  0  0  0
 78 83  1  0  0  0
 79 82  1  0  0  0
 79149  1  0  0  0
 79150  1  0  0  0
 80 81  1  0  0  0
 80151  1  0  0  0
 80152  1  0  0  0
 81 82  1  0  0  0
 81153  1  0  0  0
 81154  1  0  0  0
 82155  1  0  0  0
 83156  1  0  0  0
 83157  1  0  0  0
 84158  1  0  0  0
 84159  1  0  0  0
 85160  1  0  0  0
M  ISO  4   1 100  68 101  83 101  85 100
M  END
> <chiral flag>
0

> <version>
0

> <s_m_source_file>
/data/baiqing/PycharmProjects/Reinvent-master-3.2/result/LINK_invent/BTK/process_docking_weight1_custom_product_contain_oxygen_bond_distance_aromatic_linkinvent_7_9_3/rearranged_h_0163.sdf

> <i_m_source_file_index>
43

> <r_mmod_Potential_Energy-OPLS-2005>
53.9149703979492

> <r_mmod_Stretch_Energy-OPLS-2005>
49.5966186523438

> <r_mmod_Bend_Energy-OPLS-2005>
109.589027404785

> <r_mmod_Torsional_Energy-OPLS-2005>
281.324523925781

> <r_mmod_Improper_Torsional_Energy-OPLS-2005>
8.78228664398193

> <r_mmod_Van_der_Waal_Energy-OPLS-2005>
146.973831176758

> <r_mmod_Electrostatic_Energy-OPLS-2005>
-356.610412597656

> <r_mmod_Solvation_Energy-OPLS-2005>
-206.248992919922

> <b_mmod_Minimization_Converged-OPLS-2005>
0

> <r_mmod_RMS_Derivative-OPLS-2005>
0.660177946090698

$$$$
43
                    3D
 Structure written by MMmdl.
182191  0  0  1  0            999 V2000
  -30.7488  -14.4593   20.6345 C   0  0  0  0  0  0
  -30.4115  -12.3265   19.4229 C   0  0  0  0  0  0
  -29.4823  -12.5058   18.2065 C   0  0  0  0  0  0
  -28.0080  -12.3493   18.6194 C   0  0  0  0  0  0
  -27.6507  -13.2024   19.8626 C   0  0  2  0  0  0
  -28.6927  -13.0106   20.9909 C   0  0  0  0  0  0
  -25.2532  -13.8127   20.5747 C   0  0  0  0  0  0
  -24.1813  -13.0396   20.9248 C   0  0  0  0  0  0
  -24.6392  -11.6871   20.8783 C   0  0  0  0  0  0
  -23.9103  -10.4251   21.0465 C   0  0  0  0  0  0
  -24.3647   -9.4161   21.9232 C   0  0  0  0  0  0
  -23.6321   -8.2199   22.0777 C   0  0  0  0  0  0
  -22.4296   -8.0262   21.3565 C   0  0  0  0  0  0
  -21.9951   -9.0245   20.4665 C   0  0  0  0  0  0
  -22.7296  -10.2116   20.3091 C   0  0  0  0  0  0
  -21.6830   -6.0750   22.5302 C   0  0  0  0  0  0
  -21.3992   -6.5656   23.8236 C   0  0  0  0  0  0
  -21.3658   -5.6812   24.9204 C   0  0  0  0  0  0
  -21.6045   -4.3076   24.7259 C   0  0  0  0  0  0
  -21.8812   -3.8168   23.4383 C   0  0  0  0  0  0
  -21.9178   -4.6978   22.3434 C   0  0  0  0  0  0
  -22.7833  -13.5169   21.1953 C   0  0  0  0  0  0
  -22.1642   -4.2165   21.1001 F   0  0  0  0  0  0
  -21.5639   -3.4554   25.7772 F   0  0  0  0  0  0
  -30.0283  -13.3137   20.4496 N   0  0  0  0  0  0
  -26.2960  -12.9315   20.3321 N   0  0  0  0  0  0
  -25.9305  -11.6470   20.5765 N   0  0  0  0  0  0
  -22.0480  -12.8125   22.0467 N   0  0  0  0  0  0
  -25.4202  -15.1845   20.4252 N   0  0  0  0  0  0
  -31.8205  -14.6469   20.0485 O   0  0  0  0  0  0
  -21.6634   -6.8890   21.4263 O   0  0  0  0  0  0
  -22.3503  -14.5492   20.6867 O   0  0  0  0  0  0
  -24.6123  -31.8687   23.2123 C   0  0  0  0  0  0
  -25.9034  -32.4821   23.8405 C   0  0  1  0  0  0
  -27.2317  -27.4560   20.0804 C   0  0  0  0  0  0
  -25.5899  -33.8623   24.2335 N   0  0  0  0  0  0
  -23.3982  -30.4904   21.5563 C   0  0  2  0  0  0
  -24.8402  -28.9640   20.1146 C   0  0  0  0  0  0
  -22.7394  -29.4633   22.5050 C   0  0  0  0  0  0
  -18.0261  -28.1366   22.8505 C   0  0  0  0  0  0
  -24.1488  -36.7312   23.2636 C   0  0  0  0  0  0
  -25.9247  -30.8379   21.3636 C   0  0  0  0  0  0
  -25.9980  -29.4737   20.7135 C   0  0  0  0  0  0
  -27.1928  -28.7232   20.6995 C   0  0  0  0  0  0
  -26.0532  -26.9614   19.4700 C   0  0  0  0  0  0
  -24.8621  -27.7062   19.4913 C   0  0  0  0  0  0
  -23.6003  -29.8246   20.1699 C   0  0  0  0  0  0
  -25.4107  -36.3103   24.0336 C   0  0  1  0  0  0
  -20.5847  -28.3629   23.1364 C   0  0  2  0  0  0
  -20.6739  -26.9369   22.5448 C   0  0  0  0  0  0
  -19.5732  -26.6382   21.5222 C   0  0  0  0  0  0
  -18.1899  -26.7925   22.1606 C   0  0  0  0  0  0
  -19.1509  -28.8819   23.2928 C   0  0  0  0  0  0
  -18.9429  -30.1438   23.8921 C   0  0  0  0  0  0
  -17.6430  -30.6584   24.0568 C   0  0  0  0  0  0
  -25.9039  -34.9472   23.5137 C   0  0  0  0  0  0
  -16.5323  -29.9084   23.6329 C   0  0  0  0  0  0
  -16.7254  -28.6500   23.0348 C   0  0  0  0  0  0
  -26.4473  -31.6589   25.0719 C   0  0  0  0  0  0
  -25.3754  -31.3661   26.1465 C   0  0  0  0  0  0
  -27.0303  -30.3044   24.6057 C   0  0  0  0  0  0
  -27.6045  -32.4311   25.7480 C   0  0  0  0  0  0
  -27.5598  -37.1787   24.8448 C   0  0  0  0  0  0
  -21.4127  -29.3007   22.3795 N   0  0  0  0  0  0
  -26.4290  -37.3799   23.9425 N   0  0  0  0  0  0
  -24.6632  -31.0799   22.1029 N   0  0  0  0  0  0
  -23.4184  -28.8178   23.3072 O   0  0  0  0  0  0
  -28.4239  -26.7627   20.1032 O   0  0  0  0  0  0
  -26.5602  -34.8912   22.4691 O   0  0  0  0  0  0
  -23.5321  -32.1430   23.7536 O   0  0  0  0  0  0
  -27.2987  -18.0572   19.5818 C   0  0  0  0  0  0
  -26.4212  -20.2643   19.9568 C   0  0  0  0  0  0
  -26.2350  -18.9682   19.4629 C   0  0  0  0  0  0
  -28.4830  -18.4674   20.2164 C   0  0  0  0  0  0
  -27.6707  -20.6445   20.4818 C   0  0  0  0  0  0
  -27.5026  -23.0709   20.0845 C   0  0  0  0  0  0
  -24.6235  -17.7523   17.9901 C   0  0  0  0  0  0
  -31.3737  -17.5573   22.2637 C   0  0  0  0  0  0
  -30.9874  -18.0073   20.8413 C   0  0  0  0  0  0
  -31.2982  -16.0149   22.4572 C   0  0  0  0  0  0
  -29.1814  -16.2488   21.3087 C   0  0  0  0  0  0
  -29.6069  -17.4407   20.4102 C   0  0  1  0  0  0
  -22.0123  -18.1593   19.9037 C   0  0  0  0  0  0
  -22.5878  -16.3366   17.4792 C   0  0  0  0  0  0
  -23.1259  -18.3799   16.1203 C   0  0  0  0  0  0
  -27.7506  -24.4554   20.6818 C   0  0  0  0  0  0
  -22.2261  -18.6564   18.4574 C   0  0  0  0  0  0
  -28.4441  -25.4012   19.6755 C   0  0  0  0  0  0
  -23.1396  -17.7788   17.5410 C   0  0  0  0  0  0
  -28.6510  -19.7320   20.6772 N   0  0  0  0  0  0
  -30.3181  -15.3463   21.5727 N   0  0  0  0  0  0
  -24.9766  -18.6684   18.9013 N   0  0  0  0  0  0
  -27.8750  -22.0039   20.8169 N   0  0  0  0  0  0
  -26.9766  -22.9900   18.9684 O   0  0  0  0  0  0
  -25.4093  -16.9514   17.4746 O   0  0  0  0  0  0
  -31.4549  -12.4165   19.1148 H   0  0  0  0  0  0
  -30.3187  -11.3193   19.8310 H   0  0  0  0  0  0
  -29.7306  -11.7761   17.4346 H   0  0  0  0  0  0
  -29.6364  -13.4924   17.7651 H   0  0  0  0  0  0
  -27.8275  -11.2944   18.8294 H   0  0  0  0  0  0
  -27.3533  -12.6087   17.7865 H   0  0  0  0  0  0
  -27.6734  -14.2330   19.5168 H   0  0  0  0  0  0
  -28.6725  -11.9802   21.3461 H   0  0  0  0  0  0
  -28.4425  -13.6183   21.8617 H   0  0  0  0  0  0
  -25.2788   -9.5599   22.4829 H   0  0  0  0  0  0
  -24.0018   -7.4569   22.7490 H   0  0  0  0  0  0
  -21.0884   -8.8799   19.8954 H   0  0  0  0  0  0
  -22.3807  -10.9680   19.6199 H   0  0  0  0  0  0
  -21.1962   -7.6157   23.9746 H   0  0  0  0  0  0
  -21.1492   -6.0552   25.9114 H   0  0  0  0  0  0
  -22.0593   -2.7636   23.2898 H   0  0  0  0  0  0
  -22.4081  -11.9720   22.4756 H   0  0  0  0  0  0
  -21.1097  -13.1127   22.2700 H   0  0  0  0  0  0
  -24.6456  -15.8277   20.5329 H   0  0  0  0  0  0
  -26.2558  -15.6251   20.0681 H   0  0  0  0  0  0
  -26.7105  -32.5539   23.1169 H   0  0  0  0  0  0
  -25.0049  -33.9789   25.0484 H   0  0  0  0  0  0
  -22.6849  -31.3058   21.4197 H   0  0  0  0  0  0
  -23.3763  -35.9627   23.3245 H   0  0  0  0  0  0
  -24.3602  -36.8980   22.2060 H   0  0  0  0  0  0
  -23.7205  -37.6482   23.6692 H   0  0  0  0  0  0
  -26.0302  -31.5999   20.5906 H   0  0  0  0  0  0
  -26.8162  -30.8940   21.9768 H   0  0  0  0  0  0
  -28.0863  -29.1085   21.1693 H   0  0  0  0  0  0
  -26.0243  -26.0051   18.9717 H   0  0  0  0  0  0
  -23.9749  -27.3115   19.0171 H   0  0  0  0  0  0
  -23.6953  -30.5955   19.4050 H   0  0  0  0  0  0
  -22.7274  -29.2328   19.8852 H   0  0  0  0  0  0
  -25.1276  -36.1963   25.0822 H   0  0  0  0  0  0
  -20.9929  -28.3164   24.1486 H   0  0  0  0  0  0
  -20.5633  -26.2214   23.3618 H   0  0  0  0  0  0
  -21.6613  -26.7399   22.1254 H   0  0  0  0  0  0
  -19.6886  -25.6305   21.1219 H   0  0  0  0  0  0
  -19.6702  -27.3223   20.6775 H   0  0  0  0  0  0
  -17.4195  -26.6742   21.3965 H   0  0  0  0  0  0
  -18.0238  -26.0041   22.8960 H   0  0  0  0  0  0
  -19.7899  -30.7259   24.2289 H   0  0  0  0  0  0
  -17.4974  -31.6251   24.5172 H   0  0  0  0  0  0
  -15.5326  -30.2976   23.7645 H   0  0  0  0  0  0
  -15.8658  -28.0835   22.7036 H   0  0  0  0  0  0
  -24.6006  -30.6903   25.7821 H   0  0  0  0  0  0
  -24.8852  -32.2785   26.4859 H   0  0  0  0  0  0
  -25.8143  -30.8912   27.0249 H   0  0  0  0  0  0
  -26.2824  -29.6800   24.1150 H   0  0  0  0  0  0
  -27.4127  -29.7270   25.4484 H   0  0  0  0  0  0
  -27.8630  -30.4377   23.9151 H   0  0  0  0  0  0
  -27.2661  -33.3595   26.2087 H   0  0  0  0  0  0
  -28.3835  -32.6889   25.0298 H   0  0  0  0  0  0
  -28.0732  -31.8418   26.5365 H   0  0  0  0  0  0
  -28.2555  -38.0145   24.7582 H   0  0  0  0  0  0
  -28.1151  -36.2673   24.6164 H   0  0  0  0  0  0
  -27.2336  -37.1318   25.8855 H   0  0  0  0  0  0
  -20.9290  -29.8745   21.7034 H   0  0  0  0  0  0
  -26.0166  -38.2856   24.1495 H   0  0  0  0  0  0
  -27.2101  -17.0495   19.2081 H   0  0  0  0  0  0
  -25.6221  -20.9892   19.8794 H   0  0  0  0  0  0
  -30.7068  -18.0483   22.9764 H   0  0  0  0  0  0
  -32.3758  -17.9123   22.5078 H   0  0  0  0  0  0
  -31.7442  -17.6317   20.1516 H   0  0  0  0  0  0
  -31.0493  -19.0907   20.7482 H   0  0  0  0  0  0
  -31.0407  -15.7910   23.4926 H   0  0  0  0  0  0
  -32.2956  -15.5923   22.3216 H   0  0  0  0  0  0
  -28.3477  -15.7260   20.8563 H   0  0  0  0  0  0
  -28.7948  -16.6168   22.2605 H   0  0  0  0  0  0
  -29.7587  -17.0397   19.4075 H   0  0  0  0  0  0
  -21.4137  -18.8768   20.4672 H   0  0  0  0  0  0
  -22.9451  -18.0241   20.4515 H   0  0  0  0  0  0
  -21.4777  -17.2090   19.9285 H   0  0  0  0  0  0
  -23.0756  -15.7483   16.7008 H   0  0  0  0  0  0
  -21.5166  -16.3265   17.2762 H   0  0  0  0  0  0
  -22.7473  -15.8079   18.4189 H   0  0  0  0  0  0
  -23.7254  -17.7864   15.4279 H   0  0  0  0  0  0
  -23.5385  -19.3904   16.1171 H   0  0  0  0  0  0
  -22.1180  -18.4365   15.7112 H   0  0  0  0  0  0
  -28.3308  -24.3853   21.6011 H   0  0  0  0  0  0
  -26.7748  -24.8432   20.9748 H   0  0  0  0  0  0
  -22.6038  -19.6804   18.4908 H   0  0  0  0  0  0
  -21.2449  -18.7548   17.9928 H   0  0  0  0  0  0
  -28.0492  -25.3152   18.6618 H   0  0  0  0  0  0
  -29.4879  -25.0979   19.5978 H   0  0  0  0  0  0
  -24.2243  -19.2884   19.1606 H   0  0  0  0  0  0
  -28.4373  -22.1801   21.6351 H   0  0  0  0  0  0
  1 25  1  0  0  0
  1 30  2  0  0  0
  1 91  1  0  0  0
  2  3  1  0  0  0
  2 25  1  0  0  0
  2 96  1  0  0  0
  2 97  1  0  0  0
  3  4  1  0  0  0
  3 98  1  0  0  0
  3 99  1  0  0  0
  4  5  1  0  0  0
  4100  1  0  0  0
  4101  1  0  0  0
  5  6  1  0  0  0
  5 26  1  0  0  0
  5102  1  0  0  0
  6 25  1  0  0  0
  6103  1  0  0  0
  6104  1  0  0  0
  7  8  2  0  0  0
  7 26  1  0  0  0
  7 29  1  0  0  0
  8  9  1  0  0  0
  8 22  1  0  0  0
  9 10  1  0  0  0
  9 27  2  0  0  0
 10 11  2  0  0  0
 10 15  1  0  0  0
 11 12  1  0  0  0
 11105  1  0  0  0
 12 13  2  0  0  0
 12106  1  0  0  0
 13 14  1  0  0  0
 13 31  1  0  0  0
 14 15  2  0  0  0
 14107  1  0  0  0
 15108  1  0  0  0
 16 17  2  0  0  0
 16 21  1  0  0  0
 16 31  1  0  0  0
 17 18  1  0  0  0
 17109  1  0  0  0
 18 19  2  0  0  0
 18110  1  0  0  0
 19 20  1  0  0  0
 19 24  1  0  0  0
 20 21  2  0  0  0
 20111  1  0  0  0
 21 23  1  0  0  0
 22 28  1  0  0  0
 22 32  2  0  0  0
 26 27  1  0  0  0
 28112  1  0  0  0
 28113  1  0  0  0
 29114  1  0  0  0
 29115  1  0  0  0
 33 34  1  0  0  0
 33 66  1  0  0  0
 33 70  2  0  0  0
 34 36  1  0  0  0
 34 59  1  0  0  0
 34116  1  0  0  0
 35 44  2  0  0  0
 35 45  1  0  0  0
 35 68  1  0  0  0
 36 56  1  0  0  0
 36117  1  0  0  0
 37 39  1  0  0  0
 37 47  1  0  0  0
 37 66  1  0  0  0
 37118  1  0  0  0
 38 43  2  0  0  0
 38 46  1  0  0  0
 38 47  1  0  0  0
 39 64  1  0  0  0
 39 67  2  0  0  0
 40 52  1  0  0  0
 40 53  2  0  0  0
 40 58  1  0  0  0
 41119  1  0  0  0
 41120  1  0  0  0
 41121  1  0  0  0
 41 48  1  0  0  0
 42 43  1  0  0  0
 42 66  1  0  0  0
 42122  1  0  0  0
 42123  1  0  0  0
 43 44  1  0  0  0
 44124  1  0  0  0
 45 46  2  0  0  0
 45125  1  0  0  0
 46126  1  0  0  0
 47127  1  0  0  0
 47128  1  0  0  0
 48 56  1  0  0  0
 48 65  1  0  0  0
 48129  1  0  0  0
 49 50  1  0  0  0
 49 53  1  0  0  0
 49 64  1  0  0  0
 49130  1  0  0  0
 50 51  1  0  0  0
 50131  1  0  0  0
 50132  1  0  0  0
 51 52  1  0  0  0
 51133  1  0  0  0
 51134  1  0  0  0
 52135  1  0  0  0
 52136  1  0  0  0
 53 54  1  0  0  0
 54 55  2  0  0  0
 54137  1  0  0  0
 55 57  1  0  0  0
 55138  1  0  0  0
 56 69  2  0  0  0
 57 58  2  0  0  0
 57139  1  0  0  0
 58140  1  0  0  0
 59 60  1  0  0  0
 59 61  1  0  0  0
 59 62  1  0  0  0
 60141  1  0  0  0
 60142  1  0  0  0
 60143  1  0  0  0
 61144  1  0  0  0
 61145  1  0  0  0
 61146  1  0  0  0
 62147  1  0  0  0
 62148  1  0  0  0
 62149  1  0  0  0
 63 65  1  0  0  0
 63150  1  0  0  0
 63151  1  0  0  0
 63152  1  0  0  0
 64153  1  0  0  0
 65154  1  0  0  0
 68 88  1  0  0  0
 71 73  2  0  0  0
 71 74  1  0  0  0
 71155  1  0  0  0
 72 73  1  0  0  0
 72 75  2  0  0  0
 72156  1  0  0  0
 73 92  1  0  0  0
 74 90  2  0  0  0
 74 82  1  0  0  0
 75 90  1  0  0  0
 75 93  1  0  0  0
 76 86  1  0  0  0
 76 93  1  0  0  0
 76 94  2  0  0  0
 77 89  1  0  0  0
 77 92  1  0  0  0
 77 95  2  0  0  0
 78 79  1  0  0  0
 78 80  1  0  0  0
 78157  1  0  0  0
 78158  1  0  0  0
 79 82  1  0  0  0
 79159  1  0  0  0
 79160  1  0  0  0
 80 91  1  0  0  0
 80161  1  0  0  0
 80162  1  0  0  0
 81 82  1  0  0  0
 81 91  1  0  0  0
 81163  1  0  0  0
 81164  1  0  0  0
 82165  1  0  0  0
 83 87  1  0  0  0
 83166  1  0  0  0
 83167  1  0  0  0
 83168  1  0  0  0
 84169  1  0  0  0
 84170  1  0  0  0
 84171  1  0  0  0
 84 89  1  0  0  0
 85 89  1  0  0  0
 85172  1  0  0  0
 85173  1  0  0  0
 85174  1  0  0  0
 86 88  1  0  0  0
 86175  1  0  0  0
 86176  1  0  0  0
 87 89  1  0  0  0
 87177  1  0  0  0
 87178  1  0  0  0
 88179  1  0  0  0
 88180  1  0  0  0
 92181  1  0  0  0
 93182  1  0  0  0
M  ISO  4   1 100  68 101  88 101  91 100
M  END
> <chiral flag>
0

> <version>
0

> <s_m_source_file>
/data/baiqing/PycharmProjects/Reinvent-master-3.2/result/LINK_invent/BTK/process_docking_weight1_custom_product_contain_oxygen_bond_distance_aromatic_linkinvent_7_9_3/rearranged_h_0163.sdf

> <i_m_source_file_index>
44

> <r_mmod_Potential_Energy-OPLS-2005>
-7.02583360671997

> <r_mmod_Stretch_Energy-OPLS-2005>
42.4247779846191

> <r_mmod_Bend_Energy-OPLS-2005>
133.21630859375

> <r_mmod_Torsional_Energy-OPLS-2005>
364.259063720703

> <r_mmod_Improper_Torsional_Energy-OPLS-2005>
5.94812536239624

> <r_mmod_Van_der_Waal_Energy-OPLS-2005>
181.092193603516

> <r_mmod_Electrostatic_Energy-OPLS-2005>
-522.022277832031

> <r_mmod_Solvation_Energy-OPLS-2005>
-223.688690185547

> <b_mmod_Minimization_Converged-OPLS-2005>
0

> <r_mmod_RMS_Derivative-OPLS-2005>
3.10017991065979

$$$$
44
                    3D
 Structure written by MMmdl.
153161  0  0  1  0            999 V2000
  -30.5982  -14.7361   20.4492 C   0  0  0  0  0  0
  -30.4305  -12.4451   19.4663 C   0  0  0  0  0  0
  -29.5082  -12.4921   18.2302 C   0  0  0  0  0  0
  -28.0320  -12.3182   18.6416 C   0  0  0  0  0  0
  -27.6340  -13.2243   19.8385 C   0  0  2  0  0  0
  -28.6777  -13.1643   20.9725 C   0  0  0  0  0  0
  -25.2485  -13.8172   20.5698 C   0  0  0  0  0  0
  -24.1771  -13.0426   20.9209 C   0  0  0  0  0  0
  -24.6362  -11.6897   20.8727 C   0  0  0  0  0  0
  -23.9033  -10.4286   21.0373 C   0  0  0  0  0  0
  -24.3590   -9.4222   21.9169 C   0  0  0  0  0  0
  -23.6283   -8.2249   22.0741 C   0  0  0  0  0  0
  -22.4276   -8.0269   21.3527 C   0  0  0  0  0  0
  -21.9899   -9.0232   20.4628 C   0  0  0  0  0  0
  -22.7200  -10.2122   20.3031 C   0  0  0  0  0  0
  -21.6862   -6.0728   22.5280 C   0  0  0  0  0  0
  -21.4011   -6.5627   23.8208 C   0  0  0  0  0  0
  -21.3663   -5.6781   24.9163 C   0  0  0  0  0  0
  -21.6054   -4.3050   24.7210 C   0  0  0  0  0  0
  -21.8820   -3.8138   23.4332 C   0  0  0  0  0  0
  -21.9194   -4.6956   22.3388 C   0  0  0  0  0  0
  -22.7801  -13.5211   21.1874 C   0  0  0  0  0  0
  -22.1661   -4.2141   21.0962 F   0  0  0  0  0  0
  -21.5637   -3.4536   25.7724 F   0  0  0  0  0  0
  -29.9768  -13.5113   20.3840 N   0  0  0  0  0  0
  -26.2885  -12.9361   20.3219 N   0  0  0  0  0  0
  -25.9286  -11.6516   20.5707 N   0  0  0  0  0  0
  -22.0445  -12.8199   22.0423 N   0  0  0  0  0  0
  -25.4171  -15.1909   20.4160 N   0  0  0  0  0  0
  -31.8054  -14.8237   20.2019 O   0  0  0  0  0  0
  -21.6642   -6.8869   21.4236 O   0  0  0  0  0  0
  -22.3483  -14.5526   20.6726 O   0  0  0  0  0  0
  -24.6285  -31.8537   23.1951 C   0  0  0  0  0  0
  -25.9128  -32.4748   23.8295 C   0  0  1  0  0  0
  -27.2203  -27.2692   20.1453 C   0  0  0  0  0  0
  -25.5945  -33.8548   24.2239 N   0  0  0  0  0  0
  -23.4236  -30.4762   21.5365 C   0  0  2  0  0  0
  -24.8737  -28.9165   20.1126 C   0  0  0  0  0  0
  -22.7478  -29.4587   22.4880 C   0  0  0  0  0  0
  -18.0302  -28.1399   22.8493 C   0  0  0  0  0  0
  -24.1492  -36.7275   23.2641 C   0  0  0  0  0  0
  -25.9659  -30.7758   21.3662 C   0  0  0  0  0  0
  -26.0440  -29.3950   20.7166 C   0  0  0  0  0  0
  -27.2233  -28.5875   20.7134 C   0  0  0  0  0  0
  -26.0275  -26.8433   19.5274 C   0  0  0  0  0  0
  -24.8710  -27.6499   19.5045 C   0  0  0  0  0  0
  -23.6427  -29.8042   20.1532 C   0  0  0  0  0  0
  -25.4107  -36.3049   24.0330 C   0  0  1  0  0  0
  -20.5907  -28.3680   23.1291 C   0  0  2  0  0  0
  -20.6781  -26.9404   22.5407 C   0  0  0  0  0  0
  -19.5764  -26.6386   21.5206 C   0  0  0  0  0  0
  -18.1943  -26.7946   22.1620 C   0  0  0  0  0  0
  -19.1556  -28.8851   23.2899 C   0  0  0  0  0  0
  -18.9480  -30.1468   23.8896 C   0  0  0  0  0  0
  -17.6478  -30.6592   24.0568 C   0  0  0  0  0  0
  -25.9053  -34.9438   23.5074 C   0  0  0  0  0  0
  -16.5369  -29.9101   23.6343 C   0  0  0  0  0  0
  -16.7287  -28.6528   23.0344 C   0  0  0  0  0  0
  -26.4493  -31.6589   25.0699 C   0  0  0  0  0  0
  -25.3705  -31.3763   26.1414 C   0  0  0  0  0  0
  -27.0318  -30.3007   24.6163 C   0  0  0  0  0  0
  -27.6064  -32.4289   25.7487 C   0  0  0  0  0  0
  -27.5570  -37.1796   24.8471 C   0  0  0  0  0  0
  -21.4177  -29.3046   22.3673 N   0  0  0  0  0  0
  -26.4279  -37.3753   23.9416 N   0  0  0  0  0  0
  -24.6923  -31.0526   22.0900 N   0  0  0  0  0  0
  -23.4202  -28.8101   23.2944 O   0  0  0  0  0  0
  -28.3344  -26.4086   20.1417 O   0  0  0  0  0  0
  -26.5605  -34.8923   22.4633 O   0  0  0  0  0  0
  -23.5448  -32.1339   23.7285 O   0  0  0  0  0  0
  -31.2903  -17.6413   21.4376 C   0  0  0  0  0  0
  -31.6113  -18.9823   21.7274 C   0  0  0  0  0  0
  -29.3203  -18.4345   20.2505 C   0  0  0  0  0  0
  -29.6549  -19.8365   20.5001 C   0  0  0  0  0  0
  -30.1301  -17.3060   20.7020 C   0  0  0  0  0  0
  -30.8183  -20.0581   21.2756 C   0  0  0  0  0  0
  -28.9131  -21.0586   19.9204 C   0  0  0  0  0  0
  -28.3574  -23.6811   19.8028 C   0  0  0  0  0  0
  -28.2335  -25.0201   20.7066 C   0  0  0  0  0  0
  -28.2472  -20.8819   18.7787 N   0  0  0  0  0  0
  -29.7945  -15.8694   20.5093 N   0  0  0  0  0  0
  -28.8992  -22.3628   20.4138 N   0  3  0  0  0  0
  -31.2043  -21.3186   21.5920 F   0  0  0  0  0  0
  -31.4714  -12.5723   19.1648 H   0  0  0  0  0  0
  -30.3761  -11.4709   19.9549 H   0  0  0  0  0  0
  -29.7891  -11.7134   17.5192 H   0  0  0  0  0  0
  -29.6382  -13.4428   17.7126 H   0  0  0  0  0  0
  -27.8867  -11.2708   18.9071 H   0  0  0  0  0  0
  -27.3774  -12.5008   17.7891 H   0  0  0  0  0  0
  -27.6225  -14.2423   19.4506 H   0  0  0  0  0  0
  -28.7094  -12.1686   21.4173 H   0  0  0  0  0  0
  -28.4148  -13.8530   21.7776 H   0  0  0  0  0  0
  -25.2728   -9.5728   22.4747 H   0  0  0  0  0  0
  -24.0010   -7.4642   22.7474 H   0  0  0  0  0  0
  -21.0835   -8.8711   19.8933 H   0  0  0  0  0  0
  -22.3627  -10.9644   19.6146 H   0  0  0  0  0  0
  -21.1998   -7.6134   23.9703 H   0  0  0  0  0  0
  -21.1496   -6.0507   25.9066 H   0  0  0  0  0  0
  -22.0604   -2.7603   23.2818 H   0  0  0  0  0  0
  -22.4038  -11.9865   22.4829 H   0  0  0  0  0  0
  -21.1056  -13.1208   22.2601 H   0  0  0  0  0  0
  -24.6502  -15.8438   20.5382 H   0  0  0  0  0  0
  -26.2615  -15.6390   20.0873 H   0  0  0  0  0  0
  -26.7190  -32.5394   23.1034 H   0  0  0  0  0  0
  -25.0153  -33.9685   25.0423 H   0  0  0  0  0  0
  -22.7197  -31.2982   21.3860 H   0  0  0  0  0  0
  -23.3759  -35.9619   23.3310 H   0  0  0  0  0  0
  -24.3570  -36.8871   22.2053 H   0  0  0  0  0  0
  -23.7245  -37.6476   23.6654 H   0  0  0  0  0  0
  -26.0918  -31.5363   20.5932 H   0  0  0  0  0  0
  -26.8480  -30.8316   21.9924 H   0  0  0  0  0  0
  -28.1234  -28.9547   21.1853 H   0  0  0  0  0  0
  -25.9863  -25.8677   19.0644 H   0  0  0  0  0  0
  -23.9770  -27.2790   19.0247 H   0  0  0  0  0  0
  -23.7633  -30.5776   19.3933 H   0  0  0  0  0  0
  -22.7618  -29.2372   19.8469 H   0  0  0  0  0  0
  -25.1293  -36.1888   25.0824 H   0  0  0  0  0  0
  -21.0020  -28.3244   24.1402 H   0  0  0  0  0  0
  -20.5658  -26.2274   23.3594 H   0  0  0  0  0  0
  -21.6647  -26.7404   22.1205 H   0  0  0  0  0  0
  -19.6911  -25.6296   21.1237 H   0  0  0  0  0  0
  -19.6731  -27.3201   20.6747 H   0  0  0  0  0  0
  -17.4204  -26.6720   21.4027 H   0  0  0  0  0  0
  -18.0339  -26.0091   22.9019 H   0  0  0  0  0  0
  -19.7947  -30.7289   24.2261 H   0  0  0  0  0  0
  -17.5030  -31.6276   24.5167 H   0  0  0  0  0  0
  -15.5374  -30.2990   23.7671 H   0  0  0  0  0  0
  -15.8692  -28.0843   22.7044 H   0  0  0  0  0  0
  -24.5951  -30.7013   25.7765 H   0  0  0  0  0  0
  -24.8822  -32.2940   26.4720 H   0  0  0  0  0  0
  -25.8030  -30.9046   27.0249 H   0  0  0  0  0  0
  -26.2900  -29.6803   24.1121 H   0  0  0  0  0  0
  -27.3941  -29.7223   25.4678 H   0  0  0  0  0  0
  -27.8791  -30.4281   23.9421 H   0  0  0  0  0  0
  -27.2724  -33.3646   26.1979 H   0  0  0  0  0  0
  -28.3947  -32.6740   25.0358 H   0  0  0  0  0  0
  -28.0636  -31.8419   26.5465 H   0  0  0  0  0  0
  -28.2591  -38.0092   24.7480 H   0  0  0  0  0  0
  -28.1054  -36.2612   24.6329 H   0  0  0  0  0  0
  -27.2276  -37.1454   25.8874 H   0  0  0  0  0  0
  -20.9334  -29.8813   21.6931 H   0  0  0  0  0  0
  -26.0161  -38.2824   24.1435 H   0  0  0  0  0  0
  -31.9452  -16.8721   21.8198 H   0  0  0  0  0  0
  -32.4939  -19.1945   22.3132 H   0  0  0  0  0  0
  -28.4285  -18.2219   19.6782 H   0  0  0  0  0  0
  -28.9972  -23.9196   18.9528 H   0  0  0  0  0  0
  -27.3762  -23.4864   19.3701 H   0  0  0  0  0  0
  -27.3121  -24.9533   21.2866 H   0  0  0  0  0  0
  -29.0211  -24.9662   21.4578 H   0  0  0  0  0  0
  -28.2954  -19.9910   18.3104 H   0  0  0  0  0  0
  -27.7664  -21.6326   18.3124 H   0  0  0  0  0  0
  -28.8101  -15.6664   20.4365 H   0  0  0  0  0  0
  -29.5023  -22.4886   21.2219 H   0  0  0  0  0  0
  1 25  1  0  0  0
  1 30  2  0  0  0
  1 81  1  0  0  0
  2  3  1  0  0  0
  2 25  1  0  0  0
  2 84  1  0  0  0
  2 85  1  0  0  0
  3  4  1  0  0  0
  3 86  1  0  0  0
  3 87  1  0  0  0
  4  5  1  0  0  0
  4 88  1  0  0  0
  4 89  1  0  0  0
  5  6  1  0  0  0
  5 26  1  0  0  0
  5 90  1  0  0  0
  6 25  1  0  0  0
  6 91  1  0  0  0
  6 92  1  0  0  0
  7  8  2  0  0  0
  7 26  1  0  0  0
  7 29  1  0  0  0
  8  9  1  0  0  0
  8 22  1  0  0  0
  9 10  1  0  0  0
  9 27  2  0  0  0
 10 11  2  0  0  0
 10 15  1  0  0  0
 11 12  1  0  0  0
 11 93  1  0  0  0
 12 13  2  0  0  0
 12 94  1  0  0  0
 13 14  1  0  0  0
 13 31  1  0  0  0
 14 15  2  0  0  0
 14 95  1  0  0  0
 15 96  1  0  0  0
 16 17  2  0  0  0
 16 21  1  0  0  0
 16 31  1  0  0  0
 17 18  1  0  0  0
 17 97  1  0  0  0
 18 19  2  0  0  0
 18 98  1  0  0  0
 19 20  1  0  0  0
 19 24  1  0  0  0
 20 21  2  0  0  0
 20 99  1  0  0  0
 21 23  1  0  0  0
 22 28  1  0  0  0
 22 32  2  0  0  0
 26 27  1  0  0  0
 28100  1  0  0  0
 28101  1  0  0  0
 29102  1  0  0  0
 29103  1  0  0  0
 33 34  1  0  0  0
 33 66  1  0  0  0
 33 70  2  0  0  0
 34 36  1  0  0  0
 34 59  1  0  0  0
 34104  1  0  0  0
 35 44  2  0  0  0
 35 45  1  0  0  0
 35 68  1  0  0  0
 36 56  1  0  0  0
 36105  1  0  0  0
 37 39  1  0  0  0
 37 47  1  0  0  0
 37 66  1  0  0  0
 37106  1  0  0  0
 38 43  2  0  0  0
 38 46  1  0  0  0
 38 47  1  0  0  0
 39 64  1  0  0  0
 39 67  2  0  0  0
 40 52  1  0  0  0
 40 53  2  0  0  0
 40 58  1  0  0  0
 41107  1  0  0  0
 41108  1  0  0  0
 41109  1  0  0  0
 41 48  1  0  0  0
 42 43  1  0  0  0
 42 66  1  0  0  0
 42110  1  0  0  0
 42111  1  0  0  0
 43 44  1  0  0  0
 44112  1  0  0  0
 45 46  2  0  0  0
 45113  1  0  0  0
 46114  1  0  0  0
 47115  1  0  0  0
 47116  1  0  0  0
 48 56  1  0  0  0
 48 65  1  0  0  0
 48117  1  0  0  0
 49 50  1  0  0  0
 49 53  1  0  0  0
 49 64  1  0  0  0
 49118  1  0  0  0
 50 51  1  0  0  0
 50119  1  0  0  0
 50120  1  0  0  0
 51 52  1  0  0  0
 51121  1  0  0  0
 51122  1  0  0  0
 52123  1  0  0  0
 52124  1  0  0  0
 53 54  1  0  0  0
 54 55  2  0  0  0
 54125  1  0  0  0
 55 57  1  0  0  0
 55126  1  0  0  0
 56 69  2  0  0  0
 57 58  2  0  0  0
 57127  1  0  0  0
 58128  1  0  0  0
 59 60  1  0  0  0
 59 61  1  0  0  0
 59 62  1  0  0  0
 60129  1  0  0  0
 60130  1  0  0  0
 60131  1  0  0  0
 61132  1  0  0  0
 61133  1  0  0  0
 61134  1  0  0  0
 62135  1  0  0  0
 62136  1  0  0  0
 62137  1  0  0  0
 63 65  1  0  0  0
 63138  1  0  0  0
 63139  1  0  0  0
 63140  1  0  0  0
 64141  1  0  0  0
 65142  1  0  0  0
 68 79  1  0  0  0
 71 72  2  0  0  0
 71 75  1  0  0  0
 71143  1  0  0  0
 72 76  1  0  0  0
 72144  1  0  0  0
 73 74  1  0  0  0
 73 75  2  0  0  0
 73145  1  0  0  0
 74 76  2  0  0  0
 74 77  1  0  0  0
 75 81  1  0  0  0
 76 83  1  0  0  0
 77 80  1  0  0  0
 77 82  2  0  0  0
 78 79  1  0  0  0
 78 82  1  0  0  0
 78146  1  0  0  0
 78147  1  0  0  0
 79148  1  0  0  0
 79149  1  0  0  0
 80150  1  0  0  0
 80151  1  0  0  0
 81152  1  0  0  0
 82153  1  0  0  0
M  CHG  1  82   1
M  ISO  4   1 100  68 101  79 101  81 100
M  END
> <chiral flag>
0

> <version>
0

> <s_m_source_file>
/data/baiqing/PycharmProjects/Reinvent-master-3.2/result/LINK_invent/BTK/process_docking_weight1_custom_product_contain_oxygen_bond_distance_aromatic_linkinvent_7_9_3/rearranged_h_0163.sdf

> <i_m_source_file_index>
45

> <r_mmod_Potential_Energy-OPLS-2005>
-78.2331314086914

> <r_mmod_Stretch_Energy-OPLS-2005>
122.75724029541

> <r_mmod_Bend_Energy-OPLS-2005>
157.652648925781

> <r_mmod_Torsional_Energy-OPLS-2005>
237.128341674805

> <r_mmod_Improper_Torsional_Energy-OPLS-2005>
7.64045858383179

> <r_mmod_Van_der_Waal_Energy-OPLS-2005>
138.503082275391

> <r_mmod_Electrostatic_Energy-OPLS-2005>
-395.545074462891

> <r_mmod_Solvation_Energy-OPLS-2005>
-427.286193847656

> <b_mmod_Minimization_Converged-OPLS-2005>
0

> <r_mmod_RMS_Derivative-OPLS-2005>
2.90963292121887

$$$$
45
                    3D
 Structure written by MMmdl.
168177  0  0  1  0            999 V2000
  -30.5755  -14.6740   20.4531 C   0  0  0  0  0  0
  -30.4531  -12.3955   19.4227 C   0  0  0  0  0  0
  -29.5110  -12.4956   18.2000 C   0  0  0  0  0  0
  -28.0295  -12.3218   18.6177 C   0  0  0  0  0  0
  -27.6509  -13.2001   19.8443 C   0  0  2  0  0  0
  -28.7072  -13.0668   20.9617 C   0  0  0  0  0  0
  -25.2558  -13.8146   20.5603 C   0  0  0  0  0  0
  -24.1815  -13.0430   20.9129 C   0  0  0  0  0  0
  -24.6349  -11.6889   20.8651 C   0  0  0  0  0  0
  -23.8969  -10.4300   21.0380 C   0  0  0  0  0  0
  -24.3543   -9.4219   21.9136 C   0  0  0  0  0  0
  -23.6273   -8.2244   22.0732 C   0  0  0  0  0  0
  -22.4232   -8.0247   21.3526 C   0  0  0  0  0  0
  -21.9849   -9.0228   20.4633 C   0  0  0  0  0  0
  -22.7148  -10.2114   20.3015 C   0  0  0  0  0  0
  -21.6855   -6.0706   22.5275 C   0  0  0  0  0  0
  -21.4021   -6.5610   23.8222 C   0  0  0  0  0  0
  -21.3646   -5.6739   24.9172 C   0  0  0  0  0  0
  -21.6013   -4.3030   24.7237 C   0  0  0  0  0  0
  -21.8821   -3.8110   23.4363 C   0  0  0  0  0  0
  -21.9176   -4.6951   22.3413 C   0  0  0  0  0  0
  -22.7814  -13.5255   21.1721 C   0  0  0  0  0  0
  -22.1647   -4.2111   21.1007 F   0  0  0  0  0  0
  -21.5620   -3.4506   25.7763 F   0  0  0  0  0  0
  -30.0031  -13.4280   20.3742 N   0  0  0  0  0  0
  -26.2967  -12.9283   20.3210 N   0  0  0  0  0  0
  -25.9307  -11.6472   20.5717 N   0  0  0  0  0  0
  -22.0375  -12.8406   22.0337 N   0  0  0  0  0  0
  -25.4322  -15.1884   20.4119 N   0  0  0  0  0  0
  -31.7931  -14.8250   20.2765 O   0  0  0  0  0  0
  -21.6598   -6.8880   21.4256 O   0  0  0  0  0  0
  -22.3513  -14.5526   20.6465 O   0  0  0  0  0  0
  -24.6317  -31.8535   23.1913 C   0  0  0  0  0  0
  -25.9132  -32.4738   23.8302 C   0  0  1  0  0  0
  -27.2229  -27.1992   20.3040 C   0  0  0  0  0  0
  -25.5916  -33.8535   24.2216 N   0  0  0  0  0  0
  -23.4382  -30.4675   21.5241 C   0  0  2  0  0  0
  -24.9067  -28.8989   20.1207 C   0  0  0  0  0  0
  -22.7519  -29.4590   22.4804 C   0  0  0  0  0  0
  -18.0306  -28.1389   22.8468 C   0  0  0  0  0  0
  -24.1470  -36.7254   23.2655 C   0  0  0  0  0  0
  -25.9802  -30.7657   21.3787 C   0  0  0  0  0  0
  -26.0632  -29.3749   20.7522 C   0  0  0  0  0  0
  -27.2265  -28.5388   20.8263 C   0  0  0  0  0  0
  -26.0674  -26.8065   19.5988 C   0  0  0  0  0  0
  -24.9201  -27.6287   19.5160 C   0  0  0  0  0  0
  -23.6754  -29.7895   20.1446 C   0  0  0  0  0  0
  -25.4090  -36.3036   24.0326 C   0  0  1  0  0  0
  -20.5935  -28.3732   23.1230 C   0  0  2  0  0  0
  -20.6790  -26.9422   22.5426 C   0  0  0  0  0  0
  -19.5777  -26.6385   21.5206 C   0  0  0  0  0  0
  -18.1942  -26.7938   22.1593 C   0  0  0  0  0  0
  -19.1570  -28.8872   23.2848 C   0  0  0  0  0  0
  -18.9468  -30.1479   23.8877 C   0  0  0  0  0  0
  -17.6467  -30.6602   24.0563 C   0  0  0  0  0  0
  -25.9066  -34.9434   23.5069 C   0  0  0  0  0  0
  -16.5361  -29.9099   23.6347 C   0  0  0  0  0  0
  -16.7297  -28.6511   23.0373 C   0  0  0  0  0  0
  -26.4506  -31.6588   25.0706 C   0  0  0  0  0  0
  -25.3713  -31.3743   26.1408 C   0  0  0  0  0  0
  -27.0418  -30.3025   24.6213 C   0  0  0  0  0  0
  -27.6031  -32.4360   25.7468 C   0  0  0  0  0  0
  -27.5563  -37.1766   24.8455 C   0  0  0  0  0  0
  -21.4245  -29.3036   22.3569 N   0  0  0  0  0  0
  -26.4269  -37.3747   23.9420 N   0  0  0  0  0  0
  -24.7008  -31.0500   22.0866 N   0  0  0  0  0  0
  -23.4200  -28.8157   23.2963 O   0  0  0  0  0  0
  -28.2793  -26.2594   20.4508 O   0  0  0  0  0  0
  -26.5650  -34.8927   22.4660 O   0  0  0  0  0  0
  -23.5457  -32.1359   23.7156 O   0  0  0  0  0  0
  -29.2463  -18.3473   22.9686 C   0  0  0  0  0  0
  -29.0507  -19.5563   22.2619 C   0  0  0  0  0  0
  -29.5547  -17.1353   22.3112 C   0  0  0  0  0  0
  -29.4472  -18.3216   20.2083 C   0  0  0  0  0  0
  -29.1702  -19.6058   20.8549 C   0  0  0  0  0  0
  -29.6420  -17.0744   20.9152 C   0  0  0  0  0  0
  -29.0157  -25.0667   22.6002 C   0  0  0  0  0  0
  -29.9373  -21.5808   17.7803 C   0  0  0  0  0  0
  -30.2898  -22.9973   18.3158 C   0  0  0  0  0  0
  -28.7524  -20.9508   18.5540 C   0  0  0  0  0  0
  -30.4067  -23.1267   19.8690 C   0  0  0  0  0  0
  -29.1100  -20.9937   20.0493 C   0  0  1  0  0  0
  -28.6258  -24.3076   23.8957 C   0  0  0  0  0  0
  -27.9993  -23.4850   20.6643 C   0  0  0  0  0  0
  -28.1021  -25.0008   21.3210 C   0  0  2  0  0  0
  -29.7014  -15.7315   20.3145 N   0  0  0  0  0  0
  -29.1863  -22.5018   20.4538 N   0  3  1  0  0  0
  -30.0474  -25.7541   22.6011 O   0  0  0  0  0  0
  -31.4943  -12.5315   19.1290 H   0  0  0  0  0  0
  -30.3916  -11.3947   19.8652 H   0  0  0  0  0  0
  -29.7795  -11.7518   17.4428 H   0  0  0  0  0  0
  -29.6325  -13.4727   17.7255 H   0  0  0  0  0  0
  -27.8747  -11.2725   18.8664 H   0  0  0  0  0  0
  -27.3639  -12.5380   17.7790 H   0  0  0  0  0  0
  -27.6650  -14.2286   19.4836 H   0  0  0  0  0  0
  -28.7368  -12.0443   21.3480 H   0  0  0  0  0  0
  -28.4871  -13.7095   21.8165 H   0  0  0  0  0  0
  -25.2759   -9.5737   22.4658 H   0  0  0  0  0  0
  -23.9958   -7.4677   22.7480 H   0  0  0  0  0  0
  -21.0728   -8.8809   19.8995 H   0  0  0  0  0  0
  -22.3637  -10.9644   19.6095 H   0  0  0  0  0  0
  -21.2081   -7.6110   23.9738 H   0  0  0  0  0  0
  -21.1405   -6.0461   25.9063 H   0  0  0  0  0  0
  -22.0621   -2.7576   23.2872 H   0  0  0  0  0  0
  -22.3857  -12.0197   22.5038 H   0  0  0  0  0  0
  -21.0955  -13.1509   22.2193 H   0  0  0  0  0  0
  -24.6887  -15.8609   20.5617 H   0  0  0  0  0  0
  -26.3142  -15.6289   20.1912 H   0  0  0  0  0  0
  -26.7216  -32.5419   23.1074 H   0  0  0  0  0  0
  -25.0022  -33.9656   25.0330 H   0  0  0  0  0  0
  -22.7375  -31.2876   21.3648 H   0  0  0  0  0  0
  -23.3754  -35.9575   23.3309 H   0  0  0  0  0  0
  -24.3580  -36.8913   22.2087 H   0  0  0  0  0  0
  -23.7215  -37.6437   23.6707 H   0  0  0  0  0  0
  -26.1213  -31.5177   20.6001 H   0  0  0  0  0  0
  -26.8535  -30.8281   22.0129 H   0  0  0  0  0  0
  -28.0929  -28.8904   21.3692 H   0  0  0  0  0  0
  -26.0364  -25.8162   19.1601 H   0  0  0  0  0  0
  -24.0403  -27.2526   19.0112 H   0  0  0  0  0  0
  -23.8120  -30.5581   19.3852 H   0  0  0  0  0  0
  -22.7986  -29.2196   19.8313 H   0  0  0  0  0  0
  -25.1272  -36.1863   25.0823 H   0  0  0  0  0  0
  -21.0050  -28.3329   24.1349 H   0  0  0  0  0  0
  -20.5669  -26.2306   23.3637 H   0  0  0  0  0  0
  -21.6651  -26.7413   22.1234 H   0  0  0  0  0  0
  -19.6931  -25.6284   21.1251 H   0  0  0  0  0  0
  -19.6739  -27.3183   20.6722 H   0  0  0  0  0  0
  -17.4228  -26.6752   21.3976 H   0  0  0  0  0  0
  -18.0307  -26.0067   22.8971 H   0  0  0  0  0  0
  -19.7964  -30.7308   24.2218 H   0  0  0  0  0  0
  -17.5036  -31.6276   24.5180 H   0  0  0  0  0  0
  -15.5363  -30.2988   23.7693 H   0  0  0  0  0  0
  -15.8695  -28.0831   22.7083 H   0  0  0  0  0  0
  -24.5736  -30.7306   25.7669 H   0  0  0  0  0  0
  -24.9085  -32.2946   26.5005 H   0  0  0  0  0  0
  -25.7985  -30.8693   27.0091 H   0  0  0  0  0  0
  -26.3037  -29.6668   24.1290 H   0  0  0  0  0  0
  -27.4222  -29.7370   25.4749 H   0  0  0  0  0  0
  -27.8859  -30.4353   23.9420 H   0  0  0  0  0  0
  -27.2612  -33.3644   26.2066 H   0  0  0  0  0  0
  -28.3826  -32.6974   25.0287 H   0  0  0  0  0  0
  -28.0744  -31.8488   26.5371 H   0  0  0  0  0  0
  -28.2539  -38.0095   24.7533 H   0  0  0  0  0  0
  -28.1083  -36.2635   24.6195 H   0  0  0  0  0  0
  -27.2307  -37.1347   25.8863 H   0  0  0  0  0  0
  -20.9428  -29.8688   21.6709 H   0  0  0  0  0  0
  -26.0122  -38.2810   24.1457 H   0  0  0  0  0  0
  -29.1552  -18.3272   24.0404 H   0  0  0  0  0  0
  -28.8251  -20.4544   22.8151 H   0  0  0  0  0  0
  -29.6563  -16.2254   22.8779 H   0  0  0  0  0  0
  -29.5237  -18.2788   19.1331 H   0  0  0  0  0  0
  -30.8047  -20.9188   17.8435 H   0  0  0  0  0  0
  -29.7073  -21.6512   16.7168 H   0  0  0  0  0  0
  -29.5173  -23.6804   17.9535 H   0  0  0  0  0  0
  -31.2123  -23.3337   17.8393 H   0  0  0  0  0  0
  -28.5134  -19.9495   18.1904 H   0  0  0  0  0  0
  -27.8634  -21.5532   18.3711 H   0  0  0  0  0  0
  -30.5152  -24.1674   20.1708 H   0  0  0  0  0  0
  -31.3096  -22.6288   20.2335 H   0  0  0  0  0  0
  -30.1862  -20.8203   20.0025 H   0  0  0  0  0  0
  -27.7417  -23.6769   23.7875 H   0  0  0  0  0  0
  -28.4314  -24.9975   24.7196 H   0  0  0  0  0  0
  -29.4400  -23.6692   24.2526 H   0  0  0  0  0  0
  -27.5883  -23.6321   19.6646 H   0  0  0  0  0  0
  -27.2155  -22.9336   21.1890 H   0  0  0  0  0  0
  -27.1124  -25.1356   21.7677 H   0  0  0  0  0  0
  -28.7939  -15.3971   20.0345 H   0  0  0  0  0  0
  -28.8269  -22.5616   19.5136 H   0  0  0  0  0  0
  1 25  1  0  0  0
  1 30  2  0  0  0
  1 86  1  0  0  0
  2  3  1  0  0  0
  2 25  1  0  0  0
  2 89  1  0  0  0
  2 90  1  0  0  0
  3  4  1  0  0  0
  3 91  1  0  0  0
  3 92  1  0  0  0
  4  5  1  0  0  0
  4 93  1  0  0  0
  4 94  1  0  0  0
  5  6  1  0  0  0
  5 26  1  0  0  0
  5 95  1  0  0  0
  6 25  1  0  0  0
  6 96  1  0  0  0
  6 97  1  0  0  0
  7  8  2  0  0  0
  7 26  1  0  0  0
  7 29  1  0  0  0
  8  9  1  0  0  0
  8 22  1  0  0  0
  9 10  1  0  0  0
  9 27  2  0  0  0
 10 11  2  0  0  0
 10 15  1  0  0  0
 11 12  1  0  0  0
 11 98  1  0  0  0
 12 13  2  0  0  0
 12 99  1  0  0  0
 13 14  1  0  0  0
 13 31  1  0  0  0
 14 15  2  0  0  0
 14100  1  0  0  0
 15101  1  0  0  0
 16 17  2  0  0  0
 16 21  1  0  0  0
 16 31  1  0  0  0
 17 18  1  0  0  0
 17102  1  0  0  0
 18 19  2  0  0  0
 18103  1  0  0  0
 19 20  1  0  0  0
 19 24  1  0  0  0
 20 21  2  0  0  0
 20104  1  0  0  0
 21 23  1  0  0  0
 22 28  1  0  0  0
 22 32  2  0  0  0
 26 27  1  0  0  0
 28105  1  0  0  0
 28106  1  0  0  0
 29107  1  0  0  0
 29108  1  0  0  0
 33 34  1  0  0  0
 33 66  1  0  0  0
 33 70  2  0  0  0
 34 36  1  0  0  0
 34 59  1  0  0  0
 34109  1  0  0  0
 35 44  2  0  0  0
 35 45  1  0  0  0
 35 68  1  0  0  0
 36 56  1  0  0  0
 36110  1  0  0  0
 37 39  1  0  0  0
 37 47  1  0  0  0
 37 66  1  0  0  0
 37111  1  0  0  0
 38 43  2  0  0  0
 38 46  1  0  0  0
 38 47  1  0  0  0
 39 64  1  0  0  0
 39 67  2  0  0  0
 40 52  1  0  0  0
 40 53  2  0  0  0
 40 58  1  0  0  0
 41112  1  0  0  0
 41113  1  0  0  0
 41114  1  0  0  0
 41 48  1  0  0  0
 42 43  1  0  0  0
 42 66  1  0  0  0
 42115  1  0  0  0
 42116  1  0  0  0
 43 44  1  0  0  0
 44117  1  0  0  0
 45 46  2  0  0  0
 45118  1  0  0  0
 46119  1  0  0  0
 47120  1  0  0  0
 47121  1  0  0  0
 48 56  1  0  0  0
 48 65  1  0  0  0
 48122  1  0  0  0
 49 50  1  0  0  0
 49 53  1  0  0  0
 49 64  1  0  0  0
 49123  1  0  0  0
 50 51  1  0  0  0
 50124  1  0  0  0
 50125  1  0  0  0
 51 52  1  0  0  0
 51126  1  0  0  0
 51127  1  0  0  0
 52128  1  0  0  0
 52129  1  0  0  0
 53 54  1  0  0  0
 54 55  2  0  0  0
 54130  1  0  0  0
 55 57  1  0  0  0
 55131  1  0  0  0
 56 69  2  0  0  0
 57 58  2  0  0  0
 57132  1  0  0  0
 58133  1  0  0  0
 59 60  1  0  0  0
 59 61  1  0  0  0
 59 62  1  0  0  0
 60134  1  0  0  0
 60135  1  0  0  0
 60136  1  0  0  0
 61137  1  0  0  0
 61138  1  0  0  0
 61139  1  0  0  0
 62140  1  0  0  0
 62141  1  0  0  0
 62142  1  0  0  0
 63 65  1  0  0  0
 63143  1  0  0  0
 63144  1  0  0  0
 63145  1  0  0  0
 64146  1  0  0  0
 65147  1  0  0  0
 68 85  1  0  0  0
 71 72  2  0  0  0
 71 73  1  0  0  0
 71148  1  0  0  0
 72 75  1  0  0  0
 72149  1  0  0  0
 73 76  2  0  0  0
 73150  1  0  0  0
 74 75  2  0  0  0
 74 76  1  0  0  0
 74151  1  0  0  0
 75 82  1  0  0  0
 76 86  1  0  0  0
 77 83  1  0  0  0
 77 85  1  0  0  0
 77 88  2  0  0  0
 78 79  1  0  0  0
 78 80  1  0  0  0
 78152  1  0  0  0
 78153  1  0  0  0
 79 81  1  0  0  0
 79154  1  0  0  0
 79155  1  0  0  0
 80 82  1  0  0  0
 80156  1  0  0  0
 80157  1  0  0  0
 81 87  1  0  0  0
 81158  1  0  0  0
 81159  1  0  0  0
 82 87  1  0  0  0
 82160  1  0  0  0
 83161  1  0  0  0
 83162  1  0  0  0
 83163  1  0  0  0
 84164  1  0  0  0
 84165  1  0  0  0
 84 85  1  0  0  0
 84 87  1  0  0  0
 85166  1  0  0  0
 86167  1  0  0  0
 87168  1  0  0  0
M  CHG  1  87   1
M  ISO  4   1 100  68 101  85 101  86 100
M  END
> <chiral flag>
0

> <version>
0

> <s_m_source_file>
/data/baiqing/PycharmProjects/Reinvent-master-3.2/result/LINK_invent/BTK/process_docking_weight1_custom_product_contain_oxygen_bond_distance_aromatic_linkinvent_7_9_3/rearranged_h_0163.sdf

> <i_m_source_file_index>
46

> <r_mmod_Potential_Energy-OPLS-2005>
487.434661865234

> <r_mmod_Stretch_Energy-OPLS-2005>
154.993637084961

> <r_mmod_Bend_Energy-OPLS-2005>
418.273864746094

> <r_mmod_Torsional_Energy-OPLS-2005>
338.506713867188

> <r_mmod_Improper_Torsional_Energy-OPLS-2005>
14.9266176223755

> <r_mmod_Van_der_Waal_Energy-OPLS-2005>
130.896759033203

> <r_mmod_Electrostatic_Energy-OPLS-2005>
-231.247863769531

> <r_mmod_Solvation_Energy-OPLS-2005>
-453.929656982422

> <b_mmod_Minimization_Converged-OPLS-2005>
0

> <r_mmod_RMS_Derivative-OPLS-2005>
11.7357797622681

$$$$
46
                    3D
 Structure written by MMmdl.
154162  0  0  1  0            999 V2000
  -30.6921  -14.5755   20.5260 C   0  0  0  0  0  0
  -30.4107  -12.3530   19.4667 C   0  0  0  0  0  0
  -29.5028  -12.5009   18.2285 C   0  0  0  0  0  0
  -28.0251  -12.3423   18.6339 C   0  0  0  0  0  0
  -27.6495  -13.2231   19.8586 C   0  0  2  0  0  0
  -28.6862  -13.0991   20.9956 C   0  0  0  0  0  0
  -25.2552  -13.8199   20.5724 C   0  0  0  0  0  0
  -24.1807  -13.0476   20.9216 C   0  0  0  0  0  0
  -24.6385  -11.6948   20.8756 C   0  0  0  0  0  0
  -23.9067  -10.4317   21.0411 C   0  0  0  0  0  0
  -24.3616   -9.4232   21.9194 C   0  0  0  0  0  0
  -23.6290   -8.2263   22.0758 C   0  0  0  0  0  0
  -22.4276   -8.0304   21.3538 C   0  0  0  0  0  0
  -21.9902   -9.0277   20.4640 C   0  0  0  0  0  0
  -22.7234  -10.2167   20.3053 C   0  0  0  0  0  0
  -21.6864   -6.0729   22.5271 C   0  0  0  0  0  0
  -21.4005   -6.5623   23.8219 C   0  0  0  0  0  0
  -21.3652   -5.6788   24.9179 C   0  0  0  0  0  0
  -21.6047   -4.3051   24.7243 C   0  0  0  0  0  0
  -21.8824   -3.8135   23.4360 C   0  0  0  0  0  0
  -21.9192   -4.6940   22.3412 C   0  0  0  0  0  0
  -22.7825  -13.5272   21.1870 C   0  0  0  0  0  0
  -22.1667   -4.2125   21.0978 F   0  0  0  0  0  0
  -21.5637   -3.4533   25.7741 F   0  0  0  0  0  0
  -30.0104  -13.3904   20.4381 N   0  0  0  0  0  0
  -26.2970  -12.9392   20.3304 N   0  0  0  0  0  0
  -25.9313  -11.6539   20.5758 N   0  0  0  0  0  0
  -22.0427  -12.8277   22.0405 N   0  0  0  0  0  0
  -25.4308  -15.1914   20.4184 N   0  0  0  0  0  0
  -31.8471  -14.6414   20.0980 O   0  0  0  0  0  0
  -21.6649   -6.8875   21.4237 O   0  0  0  0  0  0
  -22.3531  -14.5584   20.6712 O   0  0  0  0  0  0
  -24.6185  -31.8666   23.2085 C   0  0  0  0  0  0
  -25.9093  -32.4791   23.8367 C   0  0  1  0  0  0
  -27.2359  -27.4071   20.1118 C   0  0  0  0  0  0
  -25.5967  -33.8585   24.2341 N   0  0  0  0  0  0
  -23.4059  -30.4897   21.5463 C   0  0  2  0  0  0
  -24.8578  -28.9554   20.1040 C   0  0  0  0  0  0
  -22.7425  -29.4672   22.4947 C   0  0  0  0  0  0
  -18.0269  -28.1364   22.8464 C   0  0  0  0  0  0
  -24.1489  -36.7260   23.2620 C   0  0  0  0  0  0
  -25.9354  -30.8250   21.3671 C   0  0  0  0  0  0
  -26.0178  -29.4589   20.7079 C   0  0  0  0  0  0
  -27.2110  -28.6940   20.7110 C   0  0  0  0  0  0
  -26.0677  -26.9313   19.4830 C   0  0  0  0  0  0
  -24.8830  -27.6947   19.4788 C   0  0  0  0  0  0
  -23.6173  -29.8238   20.1580 C   0  0  0  0  0  0
  -25.4102  -36.3061   24.0328 C   0  0  1  0  0  0
  -20.5859  -28.3665   23.1267 C   0  0  2  0  0  0
  -20.6743  -26.9389   22.5393 C   0  0  0  0  0  0
  -19.5744  -26.6378   21.5153 C   0  0  0  0  0  0
  -18.1923  -26.7912   22.1585 C   0  0  0  0  0  0
  -19.1528  -28.8838   23.2864 C   0  0  0  0  0  0
  -18.9463  -30.1440   23.8891 C   0  0  0  0  0  0
  -17.6470  -30.6579   24.0550 C   0  0  0  0  0  0
  -25.9045  -34.9442   23.5119 C   0  0  0  0  0  0
  -16.5362  -29.9081   23.6332 C   0  0  0  0  0  0
  -16.7252  -28.6494   23.0355 C   0  0  0  0  0  0
  -26.4519  -31.6507   25.0668 C   0  0  0  0  0  0
  -25.3826  -31.3602   26.1452 C   0  0  0  0  0  0
  -27.0299  -30.2920   24.6043 C   0  0  0  0  0  0
  -27.6132  -32.4182   25.7422 C   0  0  0  0  0  0
  -27.5573  -37.1784   24.8477 C   0  0  0  0  0  0
  -21.4147  -29.3057   22.3691 N   0  0  0  0  0  0
  -26.4264  -37.3770   23.9454 N   0  0  0  0  0  0
  -24.6698  -31.0746   22.0988 N   0  0  0  0  0  0
  -23.4198  -28.8188   23.2966 O   0  0  0  0  0  0
  -28.3269  -26.5591   20.1617 O   0  0  0  0  0  0
  -26.5604  -34.8901   22.4672 O   0  0  0  0  0  0
  -23.5406  -32.1417   23.7509 O   0  0  0  0  0  0
  -28.9313  -18.6075   21.5758 C   0  0  0  0  0  0
  -28.6523  -19.9647   21.8866 C   0  0  0  0  0  0
  -30.1084  -20.6781   20.0977 C   0  0  0  0  0  0
  -29.8265  -18.2458   20.5365 C   0  0  0  0  0  0
  -30.4154  -19.3218   19.7883 C   0  0  0  0  0  0
  -29.2350  -21.0262   21.1540 C   0  0  0  0  0  0
  -30.1788  -16.7937   20.2525 C   0  0  0  0  0  0
  -28.5748  -26.0186   21.4067 C   0  0  0  0  0  0
  -28.8343  -24.7276   21.7714 C   0  0  0  0  0  0
  -28.9423  -23.5570   20.8699 C   0  0  0  0  0  0
  -31.4116  -19.0622   18.6476 C   0  0  0  0  0  0
  -29.9704  -15.7185   20.9510 N   0  0  0  0  0  0
  -29.0095  -22.3917   21.5687 N   0  0  0  0  0  0
  -28.9554  -23.5979   19.6374 O   0  0  0  0  0  0
  -28.9942  -24.5044   23.0881 O   0  0  0  0  0  0
  -31.9305  -20.1921   18.1606 F   0  0  0  0  0  0
  -32.4360  -18.3157   19.0621 F   0  0  0  0  0  0
  -30.7957  -18.4414   17.6426 F   0  0  0  0  0  0
  -31.4587  -12.4241   19.1754 H   0  0  0  0  0  0
  -30.3006  -11.3618   19.9110 H   0  0  0  0  0  0
  -29.7679  -11.7529   17.4806 H   0  0  0  0  0  0
  -29.6577  -13.4759   17.7633 H   0  0  0  0  0  0
  -27.8692  -11.2900   18.8797 H   0  0  0  0  0  0
  -27.3700  -12.5602   17.7871 H   0  0  0  0  0  0
  -27.6702  -14.2554   19.5104 H   0  0  0  0  0  0
  -28.6746  -12.0981   21.4287 H   0  0  0  0  0  0
  -28.4397  -13.7827   21.8091 H   0  0  0  0  0  0
  -25.2746   -9.5711   22.4789 H   0  0  0  0  0  0
  -23.9981   -7.4654   22.7485 H   0  0  0  0  0  0
  -21.0818   -8.8798   19.8952 H   0  0  0  0  0  0
  -22.3674  -10.9715   19.6167 H   0  0  0  0  0  0
  -21.1993   -7.6135   23.9712 H   0  0  0  0  0  0
  -21.1469   -6.0513   25.9080 H   0  0  0  0  0  0
  -22.0608   -2.7588   23.2878 H   0  0  0  0  0  0
  -22.3980  -11.9926   22.4818 H   0  0  0  0  0  0
  -21.1045  -13.1314   22.2567 H   0  0  0  0  0  0
  -24.6800  -15.8597   20.5510 H   0  0  0  0  0  0
  -26.3074  -15.6231   20.1511 H   0  0  0  0  0  0
  -26.7116  -32.5524   23.1086 H   0  0  0  0  0  0
  -25.0150  -33.9692   25.0523 H   0  0  0  0  0  0
  -22.6931  -31.3064   21.4081 H   0  0  0  0  0  0
  -23.3756  -35.9580   23.3276 H   0  0  0  0  0  0
  -24.3602  -36.8899   22.2038 H   0  0  0  0  0  0
  -23.7229  -37.6452   23.6649 H   0  0  0  0  0  0
  -26.0537  -31.5952   20.6044 H   0  0  0  0  0  0
  -26.8186  -30.8759   21.9902 H   0  0  0  0  0  0
  -28.0985  -29.0753   21.1968 H   0  0  0  0  0  0
  -26.0767  -25.9544   19.0215 H   0  0  0  0  0  0
  -23.9983  -27.3063   18.9962 H   0  0  0  0  0  0
  -23.7217  -30.6059   19.4044 H   0  0  0  0  0  0
  -22.7397  -29.2483   19.8608 H   0  0  0  0  0  0
  -25.1261  -36.1865   25.0804 H   0  0  0  0  0  0
  -20.9956  -28.3286   24.1390 H   0  0  0  0  0  0
  -20.5579  -26.2322   23.3615 H   0  0  0  0  0  0
  -21.6610  -26.7406   22.1206 H   0  0  0  0  0  0
  -19.6915  -25.6285   21.1183 H   0  0  0  0  0  0
  -19.6640  -27.3191   20.6664 H   0  0  0  0  0  0
  -17.4149  -26.6618   21.4028 H   0  0  0  0  0  0
  -18.0363  -26.0060   22.8998 H   0  0  0  0  0  0
  -19.7957  -30.7234   24.2280 H   0  0  0  0  0  0
  -17.5022  -31.6251   24.5172 H   0  0  0  0  0  0
  -15.5349  -30.2983   23.7644 H   0  0  0  0  0  0
  -15.8650  -28.0785   22.7098 H   0  0  0  0  0  0
  -24.6009  -30.6923   25.7809 H   0  0  0  0  0  0
  -24.9009  -32.2740   26.4934 H   0  0  0  0  0  0
  -25.8234  -30.8755   27.0175 H   0  0  0  0  0  0
  -26.2770  -29.6668   24.1217 H   0  0  0  0  0  0
  -27.4147  -29.7172   25.4476 H   0  0  0  0  0  0
  -27.8606  -30.4151   23.9092 H   0  0  0  0  0  0
  -27.2799  -33.3526   26.1927 H   0  0  0  0  0  0
  -28.3991  -32.6631   25.0271 H   0  0  0  0  0  0
  -28.0705  -31.8309   26.5385 H   0  0  0  0  0  0
  -28.2571  -38.0097   24.7534 H   0  0  0  0  0  0
  -28.1073  -36.2636   24.6254 H   0  0  0  0  0  0
  -27.2312  -37.1379   25.8881 H   0  0  0  0  0  0
  -20.9329  -29.8824   21.6933 H   0  0  0  0  0  0
  -26.0133  -38.2817   24.1546 H   0  0  0  0  0  0
  -28.4589  -17.8345   22.1650 H   0  0  0  0  0  0
  -27.9786  -20.1870   22.7049 H   0  0  0  0  0  0
  -30.5808  -21.4741   19.5388 H   0  0  0  0  0  0
  -30.7033  -16.6836   19.3001 H   0  0  0  0  0  0
  -28.5301  -26.7922   22.1633 H   0  0  0  0  0  0
  -28.8815  -22.5441   22.5632 H   0  0  0  0  0  0
  -28.8667  -25.3327   23.5300 H   0  0  0  0  0  0
  1 25  1  0  0  0
  1 30  2  0  0  0
  1 82  1  0  0  0
  2  3  1  0  0  0
  2 25  1  0  0  0
  2 89  1  0  0  0
  2 90  1  0  0  0
  3  4  1  0  0  0
  3 91  1  0  0  0
  3 92  1  0  0  0
  4  5  1  0  0  0
  4 93  1  0  0  0
  4 94  1  0  0  0
  5  6  1  0  0  0
  5 26  1  0  0  0
  5 95  1  0  0  0
  6 25  1  0  0  0
  6 96  1  0  0  0
  6 97  1  0  0  0
  7  8  2  0  0  0
  7 26  1  0  0  0
  7 29  1  0  0  0
  8  9  1  0  0  0
  8 22  1  0  0  0
  9 10  1  0  0  0
  9 27  2  0  0  0
 10 11  2  0  0  0
 10 15  1  0  0  0
 11 12  1  0  0  0
 11 98  1  0  0  0
 12 13  2  0  0  0
 12 99  1  0  0  0
 13 14  1  0  0  0
 13 31  1  0  0  0
 14 15  2  0  0  0
 14100  1  0  0  0
 15101  1  0  0  0
 16 17  2  0  0  0
 16 21  1  0  0  0
 16 31  1  0  0  0
 17 18  1  0  0  0
 17102  1  0  0  0
 18 19  2  0  0  0
 18103  1  0  0  0
 19 20  1  0  0  0
 19 24  1  0  0  0
 20 21  2  0  0  0
 20104  1  0  0  0
 21 23  1  0  0  0
 22 28  1  0  0  0
 22 32  2  0  0  0
 26 27  1  0  0  0
 28105  1  0  0  0
 28106  1  0  0  0
 29107  1  0  0  0
 29108  1  0  0  0
 33 34  1  0  0  0
 33 66  1  0  0  0
 33 70  2  0  0  0
 34 36  1  0  0  0
 34 59  1  0  0  0
 34109  1  0  0  0
 35 44  2  0  0  0
 35 45  1  0  0  0
 35 68  1  0  0  0
 36 56  1  0  0  0
 36110  1  0  0  0
 37 39  1  0  0  0
 37 47  1  0  0  0
 37 66  1  0  0  0
 37111  1  0  0  0
 38 43  2  0  0  0
 38 46  1  0  0  0
 38 47  1  0  0  0
 39 64  1  0  0  0
 39 67  2  0  0  0
 40 52  1  0  0  0
 40 53  2  0  0  0
 40 58  1  0  0  0
 41112  1  0  0  0
 41113  1  0  0  0
 41114  1  0  0  0
 41 48  1  0  0  0
 42 43  1  0  0  0
 42 66  1  0  0  0
 42115  1  0  0  0
 42116  1  0  0  0
 43 44  1  0  0  0
 44117  1  0  0  0
 45 46  2  0  0  0
 45118  1  0  0  0
 46119  1  0  0  0
 47120  1  0  0  0
 47121  1  0  0  0
 48 56  1  0  0  0
 48 65  1  0  0  0
 48122  1  0  0  0
 49 50  1  0  0  0
 49 53  1  0  0  0
 49 64  1  0  0  0
 49123  1  0  0  0
 50 51  1  0  0  0
 50124  1  0  0  0
 50125  1  0  0  0
 51 52  1  0  0  0
 51126  1  0  0  0
 51127  1  0  0  0
 52128  1  0  0  0
 52129  1  0  0  0
 53 54  1  0  0  0
 54 55  2  0  0  0
 54130  1  0  0  0
 55 57  1  0  0  0
 55131  1  0  0  0
 56 69  2  0  0  0
 57 58  2  0  0  0
 57132  1  0  0  0
 58133  1  0  0  0
 59 60  1  0  0  0
 59 61  1  0  0  0
 59 62  1  0  0  0
 60134  1  0  0  0
 60135  1  0  0  0
 60136  1  0  0  0
 61137  1  0  0  0
 61138  1  0  0  0
 61139  1  0  0  0
 62140  1  0  0  0
 62141  1  0  0  0
 62142  1  0  0  0
 63 65  1  0  0  0
 63143  1  0  0  0
 63144  1  0  0  0
 63145  1  0  0  0
 64146  1  0  0  0
 65147  1  0  0  0
 68 78  1  0  0  0
 71 72  2  0  0  0
 71 74  1  0  0  0
 71148  1  0  0  0
 72 76  1  0  0  0
 72149  1  0  0  0
 73 75  1  0  0  0
 73 76  2  0  0  0
 73150  1  0  0  0
 74 75  2  0  0  0
 74 77  1  0  0  0
 75 81  1  0  0  0
 76 83  1  0  0  0
 77 82  2  0  0  0
 77151  1  0  0  0
 78 79  2  0  0  0
 78152  1  0  0  0
 79 80  1  0  0  0
 79 85  1  0  0  0
 80 83  1  0  0  0
 80 84  2  0  0  0
 81 86  1  0  0  0
 81 87  1  0  0  0
 81 88  1  0  0  0
 83153  1  0  0  0
 85154  1  0  0  0
M  ISO  4   1 100  68 101  78 101  82 100
M  END
> <chiral flag>
0

> <version>
0

> <s_m_source_file>
/data/baiqing/PycharmProjects/Reinvent-master-3.2/result/LINK_invent/BTK/process_docking_weight1_custom_product_contain_oxygen_bond_distance_aromatic_linkinvent_7_9_3/rearranged_h_0163.sdf

> <i_m_source_file_index>
47

> <r_mmod_Potential_Energy-OPLS-2005>
-26.8898601531982

> <r_mmod_Stretch_Energy-OPLS-2005>
59.1493606567383

> <r_mmod_Bend_Energy-OPLS-2005>
127.392097473145

> <r_mmod_Torsional_Energy-OPLS-2005>
193.788436889648

> <r_mmod_Improper_Torsional_Energy-OPLS-2005>
4.04465436935425

> <r_mmod_Van_der_Waal_Energy-OPLS-2005>
169.974884033203

> <r_mmod_Electrostatic_Energy-OPLS-2005>
-404.235015869141

> <r_mmod_Solvation_Energy-OPLS-2005>
-207.044876098633

> <b_mmod_Minimization_Converged-OPLS-2005>
0

> <r_mmod_RMS_Derivative-OPLS-2005>
4.72846031188965

$$$$
47
                    3D
 Structure written by MMmdl.
172180  0  0  1  0            999 V2000
  -30.6383  -14.7067   20.4416 C   0  0  0  0  0  0
  -30.4300  -12.4277   19.4716 C   0  0  0  0  0  0
  -29.5057  -12.4911   18.2365 C   0  0  0  0  0  0
  -28.0349  -12.3141   18.6569 C   0  0  0  0  0  0
  -27.6434  -13.2235   19.8508 C   0  0  2  0  0  0
  -28.6892  -13.1627   20.9864 C   0  0  0  0  0  0
  -25.2511  -13.8176   20.5691 C   0  0  0  0  0  0
  -24.1797  -13.0440   20.9210 C   0  0  0  0  0  0
  -24.6375  -11.6905   20.8760 C   0  0  0  0  0  0
  -23.9044  -10.4292   21.0411 C   0  0  0  0  0  0
  -24.3596   -9.4214   21.9190 C   0  0  0  0  0  0
  -23.6284   -8.2243   22.0753 C   0  0  0  0  0  0
  -22.4266   -8.0279   21.3540 C   0  0  0  0  0  0
  -21.9902   -9.0242   20.4638 C   0  0  0  0  0  0
  -22.7219  -10.2131   20.3056 C   0  0  0  0  0  0
  -21.6849   -6.0730   22.5272 C   0  0  0  0  0  0
  -21.4015   -6.5636   23.8205 C   0  0  0  0  0  0
  -21.3662   -5.6794   24.9173 C   0  0  0  0  0  0
  -21.6046   -4.3056   24.7226 C   0  0  0  0  0  0
  -21.8821   -3.8144   23.4347 C   0  0  0  0  0  0
  -21.9193   -4.6958   22.3398 C   0  0  0  0  0  0
  -22.7821  -13.5229   21.1867 C   0  0  0  0  0  0
  -22.1663   -4.2138   21.0978 F   0  0  0  0  0  0
  -21.5629   -3.4545   25.7743 F   0  0  0  0  0  0
  -29.9961  -13.4917   20.4025 N   0  0  0  0  0  0
  -26.2937  -12.9373   20.3290 N   0  0  0  0  0  0
  -25.9305  -11.6521   20.5761 N   0  0  0  0  0  0
  -22.0467  -12.8209   22.0410 N   0  0  0  0  0  0
  -25.4216  -15.1904   20.4085 N   0  0  0  0  0  0
  -31.8244  -14.7963   20.1217 O   0  0  0  0  0  0
  -21.6641   -6.8871   21.4232 O   0  0  0  0  0  0
  -22.3513  -14.5550   20.6733 O   0  0  0  0  0  0
  -24.6310  -31.8584   23.2042 C   0  0  0  0  0  0
  -25.9153  -32.4755   23.8370 C   0  0  1  0  0  0
  -27.2012  -27.2400   20.1354 C   0  0  0  0  0  0
  -25.5963  -33.8565   24.2273 N   0  0  0  0  0  0
  -23.4291  -30.4821   21.5491 C   0  0  2  0  0  0
  -24.8789  -28.9433   20.1098 C   0  0  0  0  0  0
  -22.7521  -29.4592   22.4943 C   0  0  0  0  0  0
  -18.0276  -28.1387   22.8482 C   0  0  0  0  0  0
  -24.1495  -36.7283   23.2641 C   0  0  0  0  0  0
  -25.9796  -30.7587   21.3982 C   0  0  0  0  0  0
  -26.0493  -29.3808   20.7446 C   0  0  0  0  0  0
  -27.2105  -28.5362   20.7621 C   0  0  0  0  0  0
  -26.0412  -26.9372   19.3904 C   0  0  0  0  0  0
  -24.8822  -27.7266   19.4192 C   0  0  0  0  0  0
  -23.6476  -29.8257   20.1633 C   0  0  0  0  0  0
  -25.4122  -36.3062   24.0326 C   0  0  1  0  0  0
  -20.5892  -28.3707   23.1278 C   0  0  2  0  0  0
  -20.6773  -26.9432   22.5402 C   0  0  0  0  0  0
  -19.5743  -26.6393   21.5199 C   0  0  0  0  0  0
  -18.1917  -26.7932   22.1613 C   0  0  0  0  0  0
  -19.1536  -28.8860   23.2855 C   0  0  0  0  0  0
  -18.9460  -30.1451   23.8892 C   0  0  0  0  0  0
  -17.6462  -30.6584   24.0563 C   0  0  0  0  0  0
  -25.9082  -34.9433   23.5098 C   0  0  0  0  0  0
  -16.5347  -29.9088   23.6344 C   0  0  0  0  0  0
  -16.7261  -28.6502   23.0366 C   0  0  0  0  0  0
  -26.4518  -31.6586   25.0759 C   0  0  0  0  0  0
  -25.3719  -31.3703   26.1448 C   0  0  0  0  0  0
  -27.0432  -30.3013   24.6279 C   0  0  0  0  0  0
  -27.6083  -32.4354   25.7523 C   0  0  0  0  0  0
  -27.5580  -37.1778   24.8457 C   0  0  0  0  0  0
  -21.4227  -29.3047   22.3681 N   0  0  0  0  0  0
  -26.4292  -37.3765   23.9416 N   0  0  0  0  0  0
  -24.6986  -31.0517   22.1052 N   0  0  0  0  0  0
  -23.4213  -28.8107   23.3028 O   0  0  0  0  0  0
  -28.2565  -26.2856   20.1883 O   0  0  0  0  0  0
  -26.5645  -34.8926   22.4658 O   0  0  0  0  0  0
  -23.5446  -32.1439   23.7314 O   0  0  0  0  0  0
  -29.1216  -21.1062   22.2147 C   0  0  0  0  0  0
  -29.6175  -19.8518   20.2154 C   0  0  0  0  0  0
  -29.2516  -19.9120   22.9662 C   0  0  0  0  0  0
  -29.7889  -18.6031   20.9394 C   0  0  0  0  0  0
  -29.6370  -18.6700   22.3608 C   0  0  0  0  0  0
  -29.3038  -21.1289   20.8237 C   0  0  0  0  0  0
  -28.9778  -20.0423   24.4191 C   0  0  0  0  0  0
  -27.1705  -20.2007   26.2505 C   0  0  0  0  0  0
  -26.8482  -24.1016   19.9135 C   0  0  0  0  0  0
  -27.6545  -24.9527   22.1033 C   0  0  0  0  0  0
  -30.2175  -17.2705   20.1652 C   0  0  0  0  0  0
  -29.9015  -17.4301   23.2375 C   0  0  0  0  0  0
  -27.5451  -20.4519   24.7807 C   0  0  0  0  0  0
  -29.2915  -23.8067   20.5300 C   0  0  0  0  0  0
  -28.0229  -24.8288   20.6133 C   0  0  0  0  0  0
  -29.1226  -22.3562   20.0819 N   0  0  0  0  0  0
  -29.8828  -15.8500   20.6156 N   0  0  0  0  0  0
  -31.3409  -17.1317   23.3324 N   0  3  0  0  0  0
  -29.8122  -19.7881   25.2928 O   0  0  0  0  0  0
  -31.4706  -12.5406   19.1646 H   0  0  0  0  0  0
  -30.3647  -11.4512   19.9547 H   0  0  0  0  0  0
  -29.7821  -11.7181   17.5185 H   0  0  0  0  0  0
  -29.6293  -13.4467   17.7228 H   0  0  0  0  0  0
  -27.9018  -11.2677   18.9342 H   0  0  0  0  0  0
  -27.3717  -12.4893   17.8094 H   0  0  0  0  0  0
  -27.6382  -14.2416   19.4616 H   0  0  0  0  0  0
  -28.7117  -12.1708   21.4415 H   0  0  0  0  0  0
  -28.4274  -13.8567   21.7858 H   0  0  0  0  0  0
  -25.2729   -9.5703   22.4776 H   0  0  0  0  0  0
  -23.9992   -7.4637   22.7478 H   0  0  0  0  0  0
  -21.0837   -8.8760   19.8938 H   0  0  0  0  0  0
  -22.3669  -10.9675   19.6174 H   0  0  0  0  0  0
  -21.2012   -7.6144   23.9706 H   0  0  0  0  0  0
  -21.1482   -6.0527   25.9076 H   0  0  0  0  0  0
  -22.0599   -2.7603   23.2856 H   0  0  0  0  0  0
  -22.4092  -11.9863   22.4773 H   0  0  0  0  0  0
  -21.1088  -13.1227   22.2627 H   0  0  0  0  0  0
  -24.6465  -15.8375   20.5002 H   0  0  0  0  0  0
  -26.2590  -15.6272   20.0477 H   0  0  0  0  0  0
  -26.7214  -32.5401   23.1111 H   0  0  0  0  0  0
  -25.0095  -33.9716   25.0394 H   0  0  0  0  0  0
  -22.7227  -31.3023   21.4069 H   0  0  0  0  0  0
  -23.3768  -35.9596   23.3262 H   0  0  0  0  0  0
  -24.3582  -36.8957   22.2063 H   0  0  0  0  0  0
  -23.7248  -37.6466   23.6708 H   0  0  0  0  0  0
  -26.1221  -31.5128   20.6218 H   0  0  0  0  0  0
  -26.8567  -30.8115   22.0319 H   0  0  0  0  0  0
  -28.0965  -28.8546   21.2967 H   0  0  0  0  0  0
  -26.0053  -26.0754   18.7492 H   0  0  0  0  0  0
  -24.0072  -27.4111   18.8660 H   0  0  0  0  0  0
  -23.7621  -30.6045   19.4091 H   0  0  0  0  0  0
  -22.7670  -29.2534   19.8637 H   0  0  0  0  0  0
  -25.1267  -36.1912   25.0815 H   0  0  0  0  0  0
  -20.9946  -28.3300   24.1418 H   0  0  0  0  0  0
  -20.5707  -26.2310   23.3599 H   0  0  0  0  0  0
  -21.6636  -26.7476   22.1181 H   0  0  0  0  0  0
  -19.6924  -25.6302   21.1248 H   0  0  0  0  0  0
  -19.6691  -27.3194   20.6729 H   0  0  0  0  0  0
  -17.4194  -26.6685   21.4003 H   0  0  0  0  0  0
  -18.0295  -26.0054   22.8991 H   0  0  0  0  0  0
  -19.7927  -30.7237   24.2307 H   0  0  0  0  0  0
  -17.5021  -31.6283   24.5131 H   0  0  0  0  0  0
  -15.5349  -30.2985   23.7685 H   0  0  0  0  0  0
  -15.8657  -28.0815   22.7120 H   0  0  0  0  0  0
  -24.5952  -30.7000   25.7726 H   0  0  0  0  0  0
  -24.8822  -32.2841   26.4834 H   0  0  0  0  0  0
  -25.8005  -30.8902   27.0256 H   0  0  0  0  0  0
  -26.3058  -29.6706   24.1303 H   0  0  0  0  0  0
  -27.4106  -29.7329   25.4828 H   0  0  0  0  0  0
  -27.8918  -30.4285   23.9561 H   0  0  0  0  0  0
  -27.2721  -33.3716   26.2011 H   0  0  0  0  0  0
  -28.3932  -32.6830   25.0357 H   0  0  0  0  0  0
  -28.0717  -31.8534   26.5499 H   0  0  0  0  0  0
  -28.2540  -38.0133   24.7572 H   0  0  0  0  0  0
  -28.1132  -36.2654   24.6193 H   0  0  0  0  0  0
  -27.2294  -37.1327   25.8859 H   0  0  0  0  0  0
  -20.9434  -29.8800   21.6898 H   0  0  0  0  0  0
  -26.0157  -38.2826   24.1443 H   0  0  0  0  0  0
  -28.8551  -22.0214   22.7222 H   0  0  0  0  0  0
  -29.7478  -19.8261   19.1430 H   0  0  0  0  0  0
  -26.1177  -20.4263   26.4201 H   0  0  0  0  0  0
  -27.7570  -20.8284   26.9213 H   0  0  0  0  0  0
  -27.3312  -19.1593   26.5336 H   0  0  0  0  0  0
  -26.7414  -23.0728   20.2598 H   0  0  0  0  0  0
  -26.9765  -24.0682   18.8312 H   0  0  0  0  0  0
  -25.8796  -24.5296   20.1584 H   0  0  0  0  0  0
  -27.5026  -23.9740   22.5583 H   0  0  0  0  0  0
  -26.7332  -25.5175   22.2454 H   0  0  0  0  0  0
  -28.4408  -25.4603   22.6616 H   0  0  0  0  0  0
  -31.2952  -17.3379   20.0075 H   0  0  0  0  0  0
  -29.7989  -17.3536   19.1607 H   0  0  0  0  0  0
  -29.3410  -16.5724   22.8785 H   0  0  0  0  0  0
  -29.5254  -17.5293   24.2523 H   0  0  0  0  0  0
  -26.8661  -19.8929   24.1353 H   0  0  0  0  0  0
  -27.4112  -21.5058   24.5375 H   0  0  0  0  0  0
  -29.8509  -23.8319   21.4658 H   0  0  0  0  0  0
  -29.9752  -24.2400   19.7983 H   0  0  0  0  0  0
  -29.1482  -22.2481   19.0706 H   0  0  0  0  0  0
  -28.9088  -15.6822   20.8160 H   0  0  0  0  0  0
  -31.7333  -16.9345   22.4304 H   0  0  0  0  0  0
  -31.4864  -16.3331   23.9234 H   0  0  0  0  0  0
  -31.8314  -17.9105   23.7343 H   0  0  0  0  0  0
  1 25  1  0  0  0
  1 30  2  0  0  0
  1 87  1  0  0  0
  2  3  1  0  0  0
  2 25  1  0  0  0
  2 90  1  0  0  0
  2 91  1  0  0  0
  3  4  1  0  0  0
  3 92  1  0  0  0
  3 93  1  0  0  0
  4  5  1  0  0  0
  4 94  1  0  0  0
  4 95  1  0  0  0
  5  6  1  0  0  0
  5 26  1  0  0  0
  5 96  1  0  0  0
  6 25  1  0  0  0
  6 97  1  0  0  0
  6 98  1  0  0  0
  7  8  2  0  0  0
  7 26  1  0  0  0
  7 29  1  0  0  0
  8  9  1  0  0  0
  8 22  1  0  0  0
  9 10  1  0  0  0
  9 27  2  0  0  0
 10 11  2  0  0  0
 10 15  1  0  0  0
 11 12  1  0  0  0
 11 99  1  0  0  0
 12 13  2  0  0  0
 12100  1  0  0  0
 13 14  1  0  0  0
 13 31  1  0  0  0
 14 15  2  0  0  0
 14101  1  0  0  0
 15102  1  0  0  0
 16 17  2  0  0  0
 16 21  1  0  0  0
 16 31  1  0  0  0
 17 18  1  0  0  0
 17103  1  0  0  0
 18 19  2  0  0  0
 18104  1  0  0  0
 19 20  1  0  0  0
 19 24  1  0  0  0
 20 21  2  0  0  0
 20105  1  0  0  0
 21 23  1  0  0  0
 22 28  1  0  0  0
 22 32  2  0  0  0
 26 27  1  0  0  0
 28106  1  0  0  0
 28107  1  0  0  0
 29108  1  0  0  0
 29109  1  0  0  0
 33 34  1  0  0  0
 33 66  1  0  0  0
 33 70  2  0  0  0
 34 36  1  0  0  0
 34 59  1  0  0  0
 34110  1  0  0  0
 35 44  2  0  0  0
 35 45  1  0  0  0
 35 68  1  0  0  0
 36 56  1  0  0  0
 36111  1  0  0  0
 37 39  1  0  0  0
 37 47  1  0  0  0
 37 66  1  0  0  0
 37112  1  0  0  0
 38 43  2  0  0  0
 38 46  1  0  0  0
 38 47  1  0  0  0
 39 64  1  0  0  0
 39 67  2  0  0  0
 40 52  1  0  0  0
 40 53  2  0  0  0
 40 58  1  0  0  0
 41113  1  0  0  0
 41114  1  0  0  0
 41115  1  0  0  0
 41 48  1  0  0  0
 42 43  1  0  0  0
 42 66  1  0  0  0
 42116  1  0  0  0
 42117  1  0  0  0
 43 44  1  0  0  0
 44118  1  0  0  0
 45 46  2  0  0  0
 45119  1  0  0  0
 46120  1  0  0  0
 47121  1  0  0  0
 47122  1  0  0  0
 48 56  1  0  0  0
 48 65  1  0  0  0
 48123  1  0  0  0
 49 50  1  0  0  0
 49 53  1  0  0  0
 49 64  1  0  0  0
 49124  1  0  0  0
 50 51  1  0  0  0
 50125  1  0  0  0
 50126  1  0  0  0
 51 52  1  0  0  0
 51127  1  0  0  0
 51128  1  0  0  0
 52129  1  0  0  0
 52130  1  0  0  0
 53 54  1  0  0  0
 54 55  2  0  0  0
 54131  1  0  0  0
 55 57  1  0  0  0
 55132  1  0  0  0
 56 69  2  0  0  0
 57 58  2  0  0  0
 57133  1  0  0  0
 58134  1  0  0  0
 59 60  1  0  0  0
 59 61  1  0  0  0
 59 62  1  0  0  0
 60135  1  0  0  0
 60136  1  0  0  0
 60137  1  0  0  0
 61138  1  0  0  0
 61139  1  0  0  0
 61140  1  0  0  0
 62141  1  0  0  0
 62142  1  0  0  0
 62143  1  0  0  0
 63 65  1  0  0  0
 63144  1  0  0  0
 63145  1  0  0  0
 63146  1  0  0  0
 64147  1  0  0  0
 65148  1  0  0  0
 68 85  1  0  0  0
 71 73  2  0  0  0
 71 76  1  0  0  0
 71149  1  0  0  0
 72 74  1  0  0  0
 72 76  2  0  0  0
 72150  1  0  0  0
 73 75  1  0  0  0
 73 77  1  0  0  0
 74 75  2  0  0  0
 74 81  1  0  0  0
 75 82  1  0  0  0
 76 86  1  0  0  0
 77 83  1  0  0  0
 77 89  2  0  0  0
 78 83  1  0  0  0
 78151  1  0  0  0
 78152  1  0  0  0
 78153  1  0  0  0
 79154  1  0  0  0
 79155  1  0  0  0
 79156  1  0  0  0
 79 85  1  0  0  0
 80 85  1  0  0  0
 80157  1  0  0  0
 80158  1  0  0  0
 80159  1  0  0  0
 81 87  1  0  0  0
 81160  1  0  0  0
 81161  1  0  0  0
 82 88  1  0  0  0
 82162  1  0  0  0
 82163  1  0  0  0
 83164  1  0  0  0
 83165  1  0  0  0
 84 85  1  0  0  0
 84 86  1  0  0  0
 84166  1  0  0  0
 84167  1  0  0  0
 86168  1  0  0  0
 87169  1  0  0  0
 88170  1  0  0  0
 88171  1  0  0  0
 88172  1  0  0  0
M  CHG  1  88   1
M  ISO  4   1 100  68 101  85 101  87 100
M  END
> <chiral flag>
0

> <version>
0

> <s_m_source_file>
/data/baiqing/PycharmProjects/Reinvent-master-3.2/result/LINK_invent/BTK/process_docking_weight1_custom_product_contain_oxygen_bond_distance_aromatic_linkinvent_7_9_3/rearranged_h_0163.sdf

> <i_m_source_file_index>
48

> <r_mmod_Potential_Energy-OPLS-2005>
-139.436904907227

> <r_mmod_Stretch_Energy-OPLS-2005>
134.601455688477

> <r_mmod_Bend_Energy-OPLS-2005>
197.439025878906

> <r_mmod_Torsional_Energy-OPLS-2005>
276.364715576172

> <r_mmod_Improper_Torsional_Energy-OPLS-2005>
7.58849906921387

> <r_mmod_Van_der_Waal_Energy-OPLS-2005>
161.801040649414

> <r_mmod_Electrostatic_Energy-OPLS-2005>
-523.982177734375

> <r_mmod_Solvation_Energy-OPLS-2005>
-484.505889892578

> <b_mmod_Minimization_Converged-OPLS-2005>
0

> <r_mmod_RMS_Derivative-OPLS-2005>
2.73941230773926

$$$$
48
                    3D
 Structure written by MMmdl.
157166  0  0  1  0            999 V2000
  -30.6102  -14.8898   20.4761 C   0  0  0  0  0  0
  -30.4287  -12.5547   19.5181 C   0  0  0  0  0  0
  -29.5164  -12.5208   18.2689 C   0  0  0  0  0  0
  -28.0633  -12.2751   18.7030 C   0  0  0  0  0  0
  -27.6266  -13.2370   19.8389 C   0  0  2  0  0  0
  -28.6624  -13.2966   20.9883 C   0  0  0  0  0  0
  -25.2465  -13.8220   20.5734 C   0  0  0  0  0  0
  -24.1755  -13.0453   20.9244 C   0  0  0  0  0  0
  -24.6351  -11.6928   20.8744 C   0  0  0  0  0  0
  -23.9055  -10.4295   21.0421 C   0  0  0  0  0  0
  -24.3611   -9.4193   21.9181 C   0  0  0  0  0  0
  -23.6263   -8.2230   22.0745 C   0  0  0  0  0  0
  -22.4242   -8.0275   21.3545 C   0  0  0  0  0  0
  -21.9902   -9.0254   20.4643 C   0  0  0  0  0  0
  -22.7242  -10.2130   20.3058 C   0  0  0  0  0  0
  -21.6846   -6.0701   22.5271 C   0  0  0  0  0  0
  -21.4006   -6.5629   23.8203 C   0  0  0  0  0  0
  -21.3686   -5.6805   24.9188 C   0  0  0  0  0  0
  -21.6074   -4.3060   24.7248 C   0  0  0  0  0  0
  -21.8824   -3.8116   23.4381 C   0  0  0  0  0  0
  -21.9206   -4.6917   22.3421 C   0  0  0  0  0  0
  -22.7775  -13.5177   21.1950 C   0  0  0  0  0  0
  -22.1674   -4.2104   21.0990 F   0  0  0  0  0  0
  -21.5650   -3.4561   25.7762 F   0  0  0  0  0  0
  -29.9576  -13.6614   20.3988 N   0  0  0  0  0  0
  -26.2840  -12.9411   20.3230 N   0  0  0  0  0  0
  -25.9272  -11.6554   20.5730 N   0  0  0  0  0  0
  -22.0509  -12.8060   22.0520 N   0  0  0  0  0  0
  -25.4236  -15.1918   20.4156 N   0  0  0  0  0  0
  -31.8006  -14.9161   20.1662 O   0  0  0  0  0  0
  -21.6636   -6.8835   21.4231 O   0  0  0  0  0  0
  -22.3434  -14.5515   20.6862 O   0  0  0  0  0  0
  -24.6433  -31.8474   23.1882 C   0  0  0  0  0  0
  -25.9223  -32.4698   23.8252 C   0  0  1  0  0  0
  -27.2147  -27.1554   20.1294 C   0  0  0  0  0  0
  -25.5968  -33.8516   24.2156 N   0  0  0  0  0  0
  -23.4434  -30.4685   21.5377 C   0  0  2  0  0  0
  -24.8888  -28.9043   20.1039 C   0  0  0  0  0  0
  -22.7517  -29.4617   22.4878 C   0  0  0  0  0  0
  -18.0318  -28.1366   22.8469 C   0  0  0  0  0  0
  -24.1511  -36.7252   23.2634 C   0  0  0  0  0  0
  -25.9986  -30.7202   21.3934 C   0  0  0  0  0  0
  -26.0633  -29.3350   20.7311 C   0  0  0  0  0  0
  -27.2186  -28.4705   20.7423 C   0  0  0  0  0  0
  -26.0160  -26.8362   19.4470 C   0  0  0  0  0  0
  -24.8774  -27.6666   19.4508 C   0  0  0  0  0  0
  -23.6607  -29.7957   20.1551 C   0  0  0  0  0  0
  -25.4151  -36.3017   24.0295 C   0  0  1  0  0  0
  -20.5923  -28.3803   23.1264 C   0  0  2  0  0  0
  -20.6890  -26.9504   22.5447 C   0  0  0  0  0  0
  -19.5917  -26.6397   21.5261 C   0  0  0  0  0  0
  -18.2042  -26.7904   22.1582 C   0  0  0  0  0  0
  -19.1545  -28.8924   23.2837 C   0  0  0  0  0  0
  -18.9424  -30.1555   23.8803 C   0  0  0  0  0  0
  -17.6390  -30.6595   24.0535 C   0  0  0  0  0  0
  -25.9113  -34.9401   23.5042 C   0  0  0  0  0  0
  -16.5341  -29.9029   23.6329 C   0  0  0  0  0  0
  -16.7289  -28.6464   23.0263 C   0  0  0  0  0  0
  -26.4558  -31.6543   25.0684 C   0  0  0  0  0  0
  -25.3756  -31.3736   26.1368 C   0  0  0  0  0  0
  -27.0444  -30.2916   24.6335 C   0  0  0  0  0  0
  -27.6077  -32.4322   25.7468 C   0  0  0  0  0  0
  -27.5592  -37.1777   24.8470 C   0  0  0  0  0  0
  -21.4233  -29.3090   22.3570 N   0  0  0  0  0  0
  -26.4318  -37.3717   23.9392 N   0  0  0  0  0  0
  -24.7130  -31.0355   22.0925 N   0  0  0  0  0  0
  -23.4186  -28.8252   23.3097 O   0  0  0  0  0  0
  -28.2715  -26.1779   20.2428 O   0  0  0  0  0  0
  -26.5727  -34.8903   22.4629 O   0  0  0  0  0  0
  -23.5569  -32.1328   23.7145 O   0  0  0  0  0  0
  -31.6874  -17.9064   22.7922 C   0  0  0  0  0  0
  -31.6296  -17.6026   21.4129 C   0  0  0  0  0  0
  -30.4996  -18.2924   23.4418 C   0  0  0  0  0  0
  -30.3359  -17.5535   20.8334 C   0  0  0  0  0  0
  -29.4918  -18.6472   21.3828 C   0  0  0  0  0  0
  -28.4548  -22.7797   21.3795 C   0  0  0  0  0  0
  -28.7705  -23.3396   20.1792 C   0  0  0  0  0  0
  -28.7543  -21.2931   21.8364 C   0  0  0  0  0  0
  -29.4406  -22.3191   19.1957 C   0  0  0  0  0  0
  -29.9752  -20.8970   19.7595 C   0  0  0  0  0  0
  -29.0442  -20.1191   20.7666 C   0  0  2  0  0  0
  -28.2263  -24.7738   19.5883 C   0  0  0  0  0  0
  -29.4095  -18.6817   22.7382 N   0  0  0  0  0  0
  -29.8915  -16.0955   20.7006 N   0  0  0  0  0  0
  -31.4736  -12.6745   19.2262 H   0  0  0  0  0  0
  -30.3820  -11.6082   20.0561 H   0  0  0  0  0  0
  -29.8369  -11.7340   17.5899 H   0  0  0  0  0  0
  -29.5914  -13.4589   17.7209 H   0  0  0  0  0  0
  -28.0100  -11.2434   19.0605 H   0  0  0  0  0  0
  -27.3847  -12.3458   17.8530 H   0  0  0  0  0  0
  -27.5884  -14.2255   19.3893 H   0  0  0  0  0  0
  -28.7196  -12.3467   21.5215 H   0  0  0  0  0  0
  -28.3580  -14.0459   21.7228 H   0  0  0  0  0  0
  -25.2793   -9.5644   22.4726 H   0  0  0  0  0  0
  -24.0029   -7.4586   22.7414 H   0  0  0  0  0  0
  -21.0868   -8.8751   19.8877 H   0  0  0  0  0  0
  -22.3740  -10.9660   19.6119 H   0  0  0  0  0  0
  -21.1978   -7.6133   23.9679 H   0  0  0  0  0  0
  -21.1505   -6.0546   25.9094 H   0  0  0  0  0  0
  -22.0572   -2.7578   23.2909 H   0  0  0  0  0  0
  -22.4239  -11.9664   22.4703 H   0  0  0  0  0  0
  -21.1125  -13.0933   22.2913 H   0  0  0  0  0  0
  -24.6752  -15.8659   20.5359 H   0  0  0  0  0  0
  -26.2796  -15.6118   20.0791 H   0  0  0  0  0  0
  -26.7291  -32.5258   23.0985 H   0  0  0  0  0  0
  -25.0021  -33.9632   25.0237 H   0  0  0  0  0  0
  -22.7448  -31.2947   21.3822 H   0  0  0  0  0  0
  -23.3762  -35.9592   23.3310 H   0  0  0  0  0  0
  -24.3585  -36.8895   22.2043 H   0  0  0  0  0  0
  -23.7300  -37.6461   23.6678 H   0  0  0  0  0  0
  -26.1669  -31.4790   20.6281 H   0  0  0  0  0  0
  -26.8599  -30.7469   22.0471 H   0  0  0  0  0  0
  -28.1028  -28.7961   21.2808 H   0  0  0  0  0  0
  -25.8835  -25.9089   18.9162 H   0  0  0  0  0  0
  -23.9788  -27.3318   18.9496 H   0  0  0  0  0  0
  -23.7746  -30.5625   19.3905 H   0  0  0  0  0  0
  -22.7751  -29.2254   19.8675 H   0  0  0  0  0  0
  -25.1346  -36.1839   25.0789 H   0  0  0  0  0  0
  -20.9963  -28.3417   24.1398 H   0  0  0  0  0  0
  -20.5827  -26.2435   23.3678 H   0  0  0  0  0  0
  -21.6744  -26.7661   22.1205 H   0  0  0  0  0  0
  -19.7212  -25.6293   21.1393 H   0  0  0  0  0  0
  -19.6902  -27.3094   20.6710 H   0  0  0  0  0  0
  -17.4340  -26.6608   21.3989 H   0  0  0  0  0  0
  -18.0406  -26.0020   22.8933 H   0  0  0  0  0  0
  -19.7869  -30.7481   24.2035 H   0  0  0  0  0  0
  -17.4902  -31.6316   24.5082 H   0  0  0  0  0  0
  -15.5323  -30.2828   23.7778 H   0  0  0  0  0  0
  -15.8698  -28.0817   22.6900 H   0  0  0  0  0  0
  -24.5935  -30.7105   25.7662 H   0  0  0  0  0  0
  -24.8966  -32.2918   26.4734 H   0  0  0  0  0  0
  -25.8020  -30.8916   27.0162 H   0  0  0  0  0  0
  -26.3062  -29.6590   24.1384 H   0  0  0  0  0  0
  -27.4038  -29.7267   25.4937 H   0  0  0  0  0  0
  -27.8967  -30.4092   23.9658 H   0  0  0  0  0  0
  -27.2643  -33.3614   26.2010 H   0  0  0  0  0  0
  -28.3883  -32.6904   25.0311 H   0  0  0  0  0  0
  -28.0737  -31.8490   26.5416 H   0  0  0  0  0  0
  -28.2614  -38.0064   24.7484 H   0  0  0  0  0  0
  -28.1096  -36.2595   24.6343 H   0  0  0  0  0  0
  -27.2302  -37.1455   25.8871 H   0  0  0  0  0  0
  -20.9410  -29.8527   21.6544 H   0  0  0  0  0  0
  -26.0195  -38.2798   24.1332 H   0  0  0  0  0  0
  -32.6035  -17.7521   23.3532 H   0  0  0  0  0  0
  -32.4862  -17.1022   20.9781 H   0  0  0  0  0  0
  -30.4510  -18.3803   24.5232 H   0  0  0  0  0  0
  -27.9291  -23.3934   22.1009 H   0  0  0  0  0  0
  -27.9293  -20.9822   22.4744 H   0  0  0  0  0  0
  -29.6223  -21.3791   22.4914 H   0  0  0  0  0  0
  -30.2683  -22.8154   18.6802 H   0  0  0  0  0  0
  -28.7024  -22.1240   18.4165 H   0  0  0  0  0  0
  -30.9378  -21.0573   20.2532 H   0  0  0  0  0  0
  -30.1999  -20.2454   18.9150 H   0  0  0  0  0  0
  -28.0983  -19.9178   20.2499 H   0  0  0  0  0  0
  -27.2299  -24.5040   19.2576 H   0  0  0  0  0  0
  -28.7818  -24.9153   18.6624 H   0  0  0  0  0  0
  -28.9030  -15.9369   20.8275 H   0  0  0  0  0  0
  1 25  1  0  0  0
  1 30  2  0  0  0
  1 84  1  0  0  0
  2  3  1  0  0  0
  2 25  1  0  0  0
  2 85  1  0  0  0
  2 86  1  0  0  0
  3  4  1  0  0  0
  3 87  1  0  0  0
  3 88  1  0  0  0
  4  5  1  0  0  0
  4 89  1  0  0  0
  4 90  1  0  0  0
  5  6  1  0  0  0
  5 26  1  0  0  0
  5 91  1  0  0  0
  6 25  1  0  0  0
  6 92  1  0  0  0
  6 93  1  0  0  0
  7  8  2  0  0  0
  7 26  1  0  0  0
  7 29  1  0  0  0
  8  9  1  0  0  0
  8 22  1  0  0  0
  9 10  1  0  0  0
  9 27  2  0  0  0
 10 11  2  0  0  0
 10 15  1  0  0  0
 11 12  1  0  0  0
 11 94  1  0  0  0
 12 13  2  0  0  0
 12 95  1  0  0  0
 13 14  1  0  0  0
 13 31  1  0  0  0
 14 15  2  0  0  0
 14 96  1  0  0  0
 15 97  1  0  0  0
 16 17  2  0  0  0
 16 21  1  0  0  0
 16 31  1  0  0  0
 17 18  1  0  0  0
 17 98  1  0  0  0
 18 19  2  0  0  0
 18 99  1  0  0  0
 19 20  1  0  0  0
 19 24  1  0  0  0
 20 21  2  0  0  0
 20100  1  0  0  0
 21 23  1  0  0  0
 22 28  1  0  0  0
 22 32  2  0  0  0
 26 27  1  0  0  0
 28101  1  0  0  0
 28102  1  0  0  0
 29103  1  0  0  0
 29104  1  0  0  0
 33 34  1  0  0  0
 33 66  1  0  0  0
 33 70  2  0  0  0
 34 36  1  0  0  0
 34 59  1  0  0  0
 34105  1  0  0  0
 35 44  2  0  0  0
 35 45  1  0  0  0
 35 68  1  0  0  0
 36 56  1  0  0  0
 36106  1  0  0  0
 37 39  1  0  0  0
 37 47  1  0  0  0
 37 66  1  0  0  0
 37107  1  0  0  0
 38 43  2  0  0  0
 38 46  1  0  0  0
 38 47  1  0  0  0
 39 64  1  0  0  0
 39 67  2  0  0  0
 40 52  1  0  0  0
 40 53  2  0  0  0
 40 58  1  0  0  0
 41108  1  0  0  0
 41109  1  0  0  0
 41110  1  0  0  0
 41 48  1  0  0  0
 42 43  1  0  0  0
 42 66  1  0  0  0
 42111  1  0  0  0
 42112  1  0  0  0
 43 44  1  0  0  0
 44113  1  0  0  0
 45 46  2  0  0  0
 45114  1  0  0  0
 46115  1  0  0  0
 47116  1  0  0  0
 47117  1  0  0  0
 48 56  1  0  0  0
 48 65  1  0  0  0
 48118  1  0  0  0
 49 50  1  0  0  0
 49 53  1  0  0  0
 49 64  1  0  0  0
 49119  1  0  0  0
 50 51  1  0  0  0
 50120  1  0  0  0
 50121  1  0  0  0
 51 52  1  0  0  0
 51122  1  0  0  0
 51123  1  0  0  0
 52124  1  0  0  0
 52125  1  0  0  0
 53 54  1  0  0  0
 54 55  2  0  0  0
 54126  1  0  0  0
 55 57  1  0  0  0
 55127  1  0  0  0
 56 69  2  0  0  0
 57 58  2  0  0  0
 57128  1  0  0  0
 58129  1  0  0  0
 59 60  1  0  0  0
 59 61  1  0  0  0
 59 62  1  0  0  0
 60130  1  0  0  0
 60131  1  0  0  0
 60132  1  0  0  0
 61133  1  0  0  0
 61134  1  0  0  0
 61135  1  0  0  0
 62136  1  0  0  0
 62137  1  0  0  0
 62138  1  0  0  0
 63 65  1  0  0  0
 63139  1  0  0  0
 63140  1  0  0  0
 63141  1  0  0  0
 64142  1  0  0  0
 65143  1  0  0  0
 68 82  1  0  0  0
 71 72  2  0  0  0
 71 73  1  0  0  0
 71144  1  0  0  0
 72 74  1  0  0  0
 72145  1  0  0  0
 73 83  2  0  0  0
 73146  1  0  0  0
 74 75  2  0  0  0
 74 84  1  0  0  0
 75 83  1  0  0  0
 75 81  1  0  0  0
 76 77  2  0  0  0
 76 78  1  0  0  0
 76147  1  0  0  0
 77 79  1  0  0  0
 77 82  1  0  0  0
 78 81  1  0  0  0
 78148  1  0  0  0
 78149  1  0  0  0
 79 80  1  0  0  0
 79150  1  0  0  0
 79151  1  0  0  0
 80 81  1  0  0  0
 80152  1  0  0  0
 80153  1  0  0  0
 81154  1  0  0  0
 82155  1  0  0  0
 82156  1  0  0  0
 84157  1  0  0  0
M  ISO  4   1 100  68 101  82 101  84 100
M  END
> <chiral flag>
0

> <version>
0

> <s_m_source_file>
/data/baiqing/PycharmProjects/Reinvent-master-3.2/result/LINK_invent/BTK/process_docking_weight1_custom_product_contain_oxygen_bond_distance_aromatic_linkinvent_7_9_3/rearranged_h_0163.sdf

> <i_m_source_file_index>
49

> <r_mmod_Potential_Energy-OPLS-2005>
546.904235839844

> <r_mmod_Stretch_Energy-OPLS-2005>
228.417861938477

> <r_mmod_Bend_Energy-OPLS-2005>
274.975677490234

> <r_mmod_Torsional_Energy-OPLS-2005>
431.637084960938

> <r_mmod_Improper_Torsional_Energy-OPLS-2005>
29.419038772583

> <r_mmod_Van_der_Waal_Energy-OPLS-2005>
159.161544799805

> <r_mmod_Electrostatic_Energy-OPLS-2005>
-534.703857421875

> <r_mmod_Solvation_Energy-OPLS-2005>
-210.556854248047

> <b_mmod_Minimization_Converged-OPLS-2005>
0

> <r_mmod_RMS_Derivative-OPLS-2005>
8.21789264678955

$$$$
49
                    3D
 Structure written by MMmdl.
156164  0  0  1  0            999 V2000
  -30.6129  -14.5175   20.4612 C   0  0  0  0  0  0
  -30.4291  -12.3094   19.3986 C   0  0  0  0  0  0
  -29.4858  -12.5060   18.1900 C   0  0  0  0  0  0
  -28.0088  -12.3467   18.6102 C   0  0  0  0  0  0
  -27.6513  -13.1838   19.8658 C   0  0  2  0  0  0
  -28.7039  -12.9739   20.9797 C   0  0  0  0  0  0
  -25.2582  -13.8105   20.5674 C   0  0  0  0  0  0
  -24.1812  -13.0402   20.9181 C   0  0  0  0  0  0
  -24.6330  -11.6863   20.8733 C   0  0  0  0  0  0
  -23.8992  -10.4263   21.0410 C   0  0  0  0  0  0
  -24.3558   -9.4199   21.9191 C   0  0  0  0  0  0
  -23.6264   -8.2216   22.0742 C   0  0  0  0  0  0
  -22.4261   -8.0222   21.3517 C   0  0  0  0  0  0
  -21.9855   -9.0202   20.4653 C   0  0  0  0  0  0
  -22.7154  -10.2103   20.3081 C   0  0  0  0  0  0
  -21.6851   -6.0701   22.5258 C   0  0  0  0  0  0
  -21.4016   -6.5623   23.8185 C   0  0  0  0  0  0
  -21.3669   -5.6786   24.9157 C   0  0  0  0  0  0
  -21.6062   -4.3044   24.7221 C   0  0  0  0  0  0
  -21.8839   -3.8119   23.4346 C   0  0  0  0  0  0
  -21.9192   -4.6928   22.3392 C   0  0  0  0  0  0
  -22.7868  -13.5236   21.1922 C   0  0  0  0  0  0
  -22.1669   -4.2103   21.0978 F   0  0  0  0  0  0
  -21.5630   -3.4544   25.7747 F   0  0  0  0  0  0
  -30.0236  -13.2936   20.4062 N   0  0  0  0  0  0
  -26.2956  -12.9198   20.3317 N   0  0  0  0  0  0
  -25.9236  -11.6386   20.5753 N   0  0  0  0  0  0
  -22.0547  -12.8140   22.0445 N   0  0  0  0  0  0
  -25.4411  -15.1818   20.4157 N   0  0  0  0  0  0
  -31.7931  -14.7325   20.1654 O   0  0  0  0  0  0
  -21.6624   -6.8820   21.4214 O   0  0  0  0  0  0
  -22.3505  -14.5527   20.6797 O   0  0  0  0  0  0
  -24.6200  -31.8714   23.2149 C   0  0  0  0  0  0
  -25.9091  -32.4818   23.8426 C   0  0  1  0  0  0
  -27.1844  -27.4044   20.0468 C   0  0  0  0  0  0
  -25.5954  -33.8598   24.2356 N   0  0  0  0  0  0
  -23.3976  -30.5065   21.5636 C   0  0  2  0  0  0
  -24.8176  -28.9751   20.1090 C   0  0  0  0  0  0
  -22.7404  -29.4725   22.5048 C   0  0  0  0  0  0
  -18.0270  -28.1371   22.8596 C   0  0  0  0  0  0
  -24.1474  -36.7280   23.2638 C   0  0  0  0  0  0
  -25.9369  -30.8218   21.3732 C   0  0  0  0  0  0
  -25.9948  -29.4627   20.6948 C   0  0  0  0  0  0
  -27.1800  -28.6858   20.6543 C   0  0  0  0  0  0
  -25.9709  -26.9252   19.4986 C   0  0  0  0  0  0
  -24.7990  -27.7051   19.5165 C   0  0  0  0  0  0
  -23.5917  -29.8598   20.1710 C   0  0  0  0  0  0
  -25.4108  -36.3106   24.0344 C   0  0  1  0  0  0
  -20.5852  -28.3717   23.1352 C   0  0  2  0  0  0
  -20.6799  -26.9488   22.5388 C   0  0  0  0  0  0
  -19.5752  -26.6478   21.5210 C   0  0  0  0  0  0
  -18.1955  -26.7909   22.1738 C   0  0  0  0  0  0
  -19.1522  -28.8867   23.2945 C   0  0  0  0  0  0
  -18.9423  -30.1467   23.8909 C   0  0  0  0  0  0
  -17.6445  -30.6611   24.0611 C   0  0  0  0  0  0
  -25.9056  -34.9479   23.5148 C   0  0  0  0  0  0
  -16.5350  -29.9055   23.6445 C   0  0  0  0  0  0
  -16.7248  -28.6486   23.0447 C   0  0  0  0  0  0
  -26.4517  -31.6587   25.0746 C   0  0  0  0  0  0
  -25.3777  -31.3664   26.1479 C   0  0  0  0  0  0
  -27.0365  -30.3028   24.6169 C   0  0  0  0  0  0
  -27.6092  -32.4298   25.7490 C   0  0  0  0  0  0
  -27.5577  -37.1802   24.8482 C   0  0  0  0  0  0
  -21.4122  -29.3116   22.3831 N   0  0  0  0  0  0
  -26.4299  -37.3798   23.9421 N   0  0  0  0  0  0
  -24.6724  -31.0767   22.1088 N   0  0  0  0  0  0
  -23.4240  -28.8234   23.3030 O   0  0  0  0  0  0
  -28.3717  -26.6886   20.0084 O   0  0  0  0  0  0
  -26.5610  -34.8942   22.4705 O   0  0  0  0  0  0
  -23.5401  -32.1531   23.7554 O   0  0  0  0  0  0
  -29.8462  -18.0058   20.4134 C   0  0  0  0  0  0
  -29.4104  -16.7822   22.4817 C   0  0  0  0  0  0
  -29.7352  -16.7723   21.1162 C   0  0  0  0  0  0
  -29.6186  -19.2543   21.0770 C   0  0  0  0  0  0
  -29.3089  -19.2109   22.4698 C   0  0  0  0  0  0
  -29.2100  -17.9896   23.1533 C   0  0  0  0  0  0
  -28.4079  -24.1910   20.2769 C   0  0  0  0  0  0
  -29.1797  -22.9294   19.8411 C   0  0  0  0  0  0
  -28.4560  -25.4068   19.3321 C   0  0  0  0  0  0
  -28.7815  -21.5919   20.5181 C   0  0  0  0  0  0
  -27.7194  -24.2889   21.3447 N   0  0  0  0  0  0
  -29.0797  -20.3465   23.2456 N   0  0  0  0  0  0
  -29.6953  -15.5046   20.4720 N   0  0  0  0  0  0
  -29.7288  -20.4654   20.3410 N   0  0  0  0  0  0
  -30.0939  -22.9312   19.0063 O   0  0  0  0  0  0
  -28.8917  -17.9868   24.4721 F   0  0  0  0  0  0
  -31.4725  -12.4292   19.1048 H   0  0  0  0  0  0
  -30.3445  -11.3008   19.8059 H   0  0  0  0  0  0
  -29.7213  -11.7935   17.4007 H   0  0  0  0  0  0
  -29.6392  -13.4964   17.7562 H   0  0  0  0  0  0
  -27.8285  -11.2900   18.7987 H   0  0  0  0  0  0
  -27.3503  -12.6184   17.7827 H   0  0  0  0  0  0
  -27.6714  -14.2273   19.5528 H   0  0  0  0  0  0
  -28.6906  -11.9424   21.3332 H   0  0  0  0  0  0
  -28.4855  -13.5871   21.8557 H   0  0  0  0  0  0
  -25.2740   -9.5660   22.4727 H   0  0  0  0  0  0
  -24.0007   -7.4603   22.7439 H   0  0  0  0  0  0
  -21.0798   -8.8728   19.8930 H   0  0  0  0  0  0
  -22.3652  -10.9637   19.6167 H   0  0  0  0  0  0
  -21.2012   -7.6137   23.9664 H   0  0  0  0  0  0
  -21.1484   -6.0531   25.9057 H   0  0  0  0  0  0
  -22.0611   -2.7577   23.2873 H   0  0  0  0  0  0
  -22.4205  -11.9775   22.4736 H   0  0  0  0  0  0
  -21.1195  -13.1159   22.2798 H   0  0  0  0  0  0
  -24.6943  -15.8535   20.5637 H   0  0  0  0  0  0
  -26.2957  -15.6139   20.0870 H   0  0  0  0  0  0
  -26.7133  -32.5503   23.1152 H   0  0  0  0  0  0
  -25.0091  -33.9785   25.0491 H   0  0  0  0  0  0
  -22.6914  -31.3333   21.4446 H   0  0  0  0  0  0
  -23.3758  -35.9586   23.3318 H   0  0  0  0  0  0
  -24.3570  -36.8873   22.2050 H   0  0  0  0  0  0
  -23.7208  -37.6473   23.6642 H   0  0  0  0  0  0
  -26.0777  -31.6034   20.6266 H   0  0  0  0  0  0
  -26.8141  -30.8381   22.0104 H   0  0  0  0  0  0
  -28.0972  -29.0646   21.0823 H   0  0  0  0  0  0
  -25.8767  -25.9480   19.0562 H   0  0  0  0  0  0
  -23.8809  -27.3298   19.0859 H   0  0  0  0  0  0
  -23.6991  -30.6502   19.4262 H   0  0  0  0  0  0
  -22.7009  -29.3044   19.8752 H   0  0  0  0  0  0
  -25.1277  -36.1970   25.0835 H   0  0  0  0  0  0
  -20.9971  -28.3320   24.1450 H   0  0  0  0  0  0
  -21.6684  -26.7697   22.1087 H   0  0  0  0  0  0
  -20.5762  -26.2291   23.3527 H   0  0  0  0  0  0
  -19.6972  -25.6418   21.1167 H   0  0  0  0  0  0
  -19.6655  -27.3409   20.6837 H   0  0  0  0  0  0
  -17.4200  -26.6664   21.4189 H   0  0  0  0  0  0
  -18.0506  -26.0033   22.9154 H   0  0  0  0  0  0
  -19.7947  -30.7256   24.2242 H   0  0  0  0  0  0
  -17.5000  -31.6311   24.5169 H   0  0  0  0  0  0
  -15.5344  -30.2981   23.7819 H   0  0  0  0  0  0
  -15.8605  -28.0824   22.7154 H   0  0  0  0  0  0
  -24.5968  -30.7006   25.7796 H   0  0  0  0  0  0
  -24.8966  -32.2795   26.4974 H   0  0  0  0  0  0
  -25.8144  -30.8789   27.0212 H   0  0  0  0  0  0
  -26.2932  -29.6728   24.1285 H   0  0  0  0  0  0
  -27.4172  -29.7315   25.4653 H   0  0  0  0  0  0
  -27.8744  -30.4301   23.9316 H   0  0  0  0  0  0
  -27.2723  -33.3591   26.2095 H   0  0  0  0  0  0
  -28.3874  -32.6880   25.0284 H   0  0  0  0  0  0
  -28.0803  -31.8413   26.5380 H   0  0  0  0  0  0
  -28.2623  -38.0080   24.7522 H   0  0  0  0  0  0
  -28.1054  -36.2614   24.6311 H   0  0  0  0  0  0
  -27.2295  -37.1437   25.8891 H   0  0  0  0  0  0
  -20.9192  -29.8895   21.7182 H   0  0  0  0  0  0
  -26.0178  -38.2861   24.1457 H   0  0  0  0  0  0
  -30.0508  -17.9866   19.3482 H   0  0  0  0  0  0
  -29.2631  -15.8558   23.0146 H   0  0  0  0  0  0
  -27.7186  -25.2621   18.5414 H   0  0  0  0  0  0
  -29.4108  -25.4179   18.8056 H   0  0  0  0  0  0
  -28.6455  -21.8423   21.5597 H   0  0  0  0  0  0
  -27.8089  -21.3013   20.1341 H   0  0  0  0  0  0
  -27.7641  -23.4521   21.9123 H   0  0  0  0  0  0
  -28.5423  -21.0432   22.7579 H   0  0  0  0  0  0
  -28.6555  -20.1221   24.1401 H   0  0  0  0  0  0
  -28.7734  -15.0986   20.4818 H   0  0  0  0  0  0
  -30.6823  -20.7989   20.2291 H   0  0  0  0  0  0
  1 25  1  0  0  0
  1 30  2  0  0  0
  1 83  1  0  0  0
  2  3  1  0  0  0
  2 25  1  0  0  0
  2 87  1  0  0  0
  2 88  1  0  0  0
  3  4  1  0  0  0
  3 89  1  0  0  0
  3 90  1  0  0  0
  4  5  1  0  0  0
  4 91  1  0  0  0
  4 92  1  0  0  0
  5  6  1  0  0  0
  5 26  1  0  0  0
  5 93  1  0  0  0
  6 25  1  0  0  0
  6 94  1  0  0  0
  6 95  1  0  0  0
  7  8  2  0  0  0
  7 26  1  0  0  0
  7 29  1  0  0  0
  8  9  1  0  0  0
  8 22  1  0  0  0
  9 10  1  0  0  0
  9 27  2  0  0  0
 10 11  2  0  0  0
 10 15  1  0  0  0
 11 12  1  0  0  0
 11 96  1  0  0  0
 12 13  2  0  0  0
 12 97  1  0  0  0
 13 14  1  0  0  0
 13 31  1  0  0  0
 14 15  2  0  0  0
 14 98  1  0  0  0
 15 99  1  0  0  0
 16 17  2  0  0  0
 16 21  1  0  0  0
 16 31  1  0  0  0
 17 18  1  0  0  0
 17100  1  0  0  0
 18 19  2  0  0  0
 18101  1  0  0  0
 19 20  1  0  0  0
 19 24  1  0  0  0
 20 21  2  0  0  0
 20102  1  0  0  0
 21 23  1  0  0  0
 22 28  1  0  0  0
 22 32  2  0  0  0
 26 27  1  0  0  0
 28103  1  0  0  0
 28104  1  0  0  0
 29105  1  0  0  0
 29106  1  0  0  0
 33 34  1  0  0  0
 33 66  1  0  0  0
 33 70  2  0  0  0
 34 36  1  0  0  0
 34 59  1  0  0  0
 34107  1  0  0  0
 35 44  2  0  0  0
 35 45  1  0  0  0
 35 68  1  0  0  0
 36 56  1  0  0  0
 36108  1  0  0  0
 37 39  1  0  0  0
 37 47  1  0  0  0
 37 66  1  0  0  0
 37109  1  0  0  0
 38 43  2  0  0  0
 38 46  1  0  0  0
 38 47  1  0  0  0
 39 64  1  0  0  0
 39 67  2  0  0  0
 40 52  1  0  0  0
 40 53  2  0  0  0
 40 58  1  0  0  0
 41110  1  0  0  0
 41111  1  0  0  0
 41112  1  0  0  0
 41 48  1  0  0  0
 42 43  1  0  0  0
 42 66  1  0  0  0
 42113  1  0  0  0
 42114  1  0  0  0
 43 44  1  0  0  0
 44115  1  0  0  0
 45 46  2  0  0  0
 45116  1  0  0  0
 46117  1  0  0  0
 47118  1  0  0  0
 47119  1  0  0  0
 48 56  1  0  0  0
 48 65  1  0  0  0
 48120  1  0  0  0
 49 50  1  0  0  0
 49 53  1  0  0  0
 49 64  1  0  0  0
 49121  1  0  0  0
 50 51  1  0  0  0
 50122  1  0  0  0
 50123  1  0  0  0
 51 52  1  0  0  0
 51124  1  0  0  0
 51125  1  0  0  0
 52126  1  0  0  0
 52127  1  0  0  0
 53 54  1  0  0  0
 54 55  2  0  0  0
 54128  1  0  0  0
 55 57  1  0  0  0
 55129  1  0  0  0
 56 69  2  0  0  0
 57 58  2  0  0  0
 57130  1  0  0  0
 58131  1  0  0  0
 59 60  1  0  0  0
 59 61  1  0  0  0
 59 62  1  0  0  0
 60132  1  0  0  0
 60133  1  0  0  0
 60134  1  0  0  0
 61135  1  0  0  0
 61136  1  0  0  0
 61137  1  0  0  0
 62138  1  0  0  0
 62139  1  0  0  0
 62140  1  0  0  0
 63 65  1  0  0  0
 63141  1  0  0  0
 63142  1  0  0  0
 63143  1  0  0  0
 64144  1  0  0  0
 65145  1  0  0  0
 68 79  1  0  0  0
 71 73  2  0  0  0
 71 74  1  0  0  0
 71146  1  0  0  0
 72 73  1  0  0  0
 72 76  2  0  0  0
 72147  1  0  0  0
 73 83  1  0  0  0
 74 75  2  0  0  0
 74 84  1  0  0  0
 75 76  1  0  0  0
 75 82  1  0  0  0
 76 86  1  0  0  0
 77 78  1  0  0  0
 77 79  1  0  0  0
 77 81  2  0  0  0
 78 80  1  0  0  0
 78 85  2  0  0  0
 79148  1  0  0  0
 79149  1  0  0  0
 80 84  1  0  0  0
 80150  1  0  0  0
 80151  1  0  0  0
 81152  1  0  0  0
 82153  1  0  0  0
 82154  1  0  0  0
 83155  1  0  0  0
 84156  1  0  0  0
M  ISO  4   1 100  68 101  79 101  83 100
M  END
> <chiral flag>
0

> <version>
0

> <s_m_source_file>
/data/baiqing/PycharmProjects/Reinvent-master-3.2/result/LINK_invent/BTK/process_docking_weight1_custom_product_contain_oxygen_bond_distance_aromatic_linkinvent_7_9_3/rearranged_h_0163.sdf

> <i_m_source_file_index>
50

> <r_mmod_Potential_Energy-OPLS-2005>
148.016784667969

> <r_mmod_Stretch_Energy-OPLS-2005>
47.1229667663574

> <r_mmod_Bend_Energy-OPLS-2005>
126.259658813477

> <r_mmod_Torsional_Energy-OPLS-2005>
269.008056640625

> <r_mmod_Improper_Torsional_Energy-OPLS-2005>
24.1736450195312

> <r_mmod_Van_der_Waal_Energy-OPLS-2005>
167.149871826172

> <r_mmod_Electrostatic_Energy-OPLS-2005>
-251.555725097656

> <r_mmod_Solvation_Energy-OPLS-2005>
-259.690582275391

> <b_mmod_Minimization_Converged-OPLS-2005>
0

> <r_mmod_RMS_Derivative-OPLS-2005>
7.81402921676636

$$$$
50
                    3D
 Structure written by MMmdl.
156164  0  0  1  0            999 V2000
  -30.6152  -14.7139   20.4728 C   0  0  0  0  0  0
  -30.4357  -12.4360   19.4648 C   0  0  0  0  0  0
  -29.5087  -12.5047   18.2310 C   0  0  0  0  0  0
  -28.0339  -12.3330   18.6453 C   0  0  0  0  0  0
  -27.6453  -13.2258   19.8546 C   0  0  2  0  0  0
  -28.6914  -13.1378   20.9877 C   0  0  0  0  0  0
  -25.2531  -13.8187   20.5692 C   0  0  0  0  0  0
  -24.1817  -13.0442   20.9206 C   0  0  0  0  0  0
  -24.6401  -11.6915   20.8753 C   0  0  0  0  0  0
  -23.9076  -10.4293   21.0419 C   0  0  0  0  0  0
  -24.3626   -9.4203   21.9194 C   0  0  0  0  0  0
  -23.6299   -8.2235   22.0754 C   0  0  0  0  0  0
  -22.4278   -8.0280   21.3544 C   0  0  0  0  0  0
  -21.9918   -9.0259   20.4647 C   0  0  0  0  0  0
  -22.7250  -10.2137   20.3067 C   0  0  0  0  0  0
  -21.6855   -6.0744   22.5279 C   0  0  0  0  0  0
  -21.4013   -6.5642   23.8211 C   0  0  0  0  0  0
  -21.3655   -5.6794   24.9176 C   0  0  0  0  0  0
  -21.6046   -4.3064   24.7227 C   0  0  0  0  0  0
  -21.8817   -3.8156   23.4344 C   0  0  0  0  0  0
  -21.9188   -4.6970   22.3401 C   0  0  0  0  0  0
  -22.7840  -13.5228   21.1874 C   0  0  0  0  0  0
  -22.1662   -4.2158   21.0978 F   0  0  0  0  0  0
  -21.5627   -3.4549   25.7741 F   0  0  0  0  0  0
  -29.9958  -13.4873   20.4089 N   0  0  0  0  0  0
  -26.2952  -12.9383   20.3292 N   0  0  0  0  0  0
  -25.9332  -11.6532   20.5771 N   0  0  0  0  0  0
  -22.0483  -12.8211   22.0426 N   0  0  0  0  0  0
  -25.4228  -15.1914   20.4087 N   0  0  0  0  0  0
  -31.8038  -14.8155   20.1497 O   0  0  0  0  0  0
  -21.6637   -6.8887   21.4242 O   0  0  0  0  0  0
  -22.3523  -14.5536   20.6730 O   0  0  0  0  0  0
  -24.6311  -31.8570   23.1997 C   0  0  0  0  0  0
  -25.9139  -32.4758   23.8339 C   0  0  1  0  0  0
  -27.2178  -27.2713   20.1254 C   0  0  0  0  0  0
  -25.5939  -33.8559   24.2250 N   0  0  0  0  0  0
  -23.4257  -30.4815   21.5422 C   0  0  2  0  0  0
  -24.8731  -28.9341   20.1079 C   0  0  0  0  0  0
  -22.7500  -29.4620   22.4912 C   0  0  0  0  0  0
  -18.0287  -28.1389   22.8485 C   0  0  0  0  0  0
  -24.1482  -36.7272   23.2633 C   0  0  0  0  0  0
  -25.9726  -30.7707   21.3817 C   0  0  0  0  0  0
  -26.0448  -29.3968   20.7192 C   0  0  0  0  0  0
  -27.2206  -28.5788   20.7173 C   0  0  0  0  0  0
  -26.0215  -26.8787   19.4806 C   0  0  0  0  0  0
  -24.8666  -27.6820   19.4782 C   0  0  0  0  0  0
  -23.6419  -29.8173   20.1578 C   0  0  0  0  0  0
  -25.4104  -36.3061   24.0322 C   0  0  1  0  0  0
  -20.5897  -28.3700   23.1268 C   0  0  2  0  0  0
  -20.6776  -26.9414   22.5408 C   0  0  0  0  0  0
  -19.5749  -26.6370   21.5218 C   0  0  0  0  0  0
  -18.1919  -26.7933   22.1616 C   0  0  0  0  0  0
  -19.1547  -28.8859   23.2872 C   0  0  0  0  0  0
  -18.9477  -30.1461   23.8894 C   0  0  0  0  0  0
  -17.6478  -30.6592   24.0566 C   0  0  0  0  0  0
  -25.9060  -34.9441   23.5081 C   0  0  0  0  0  0
  -16.5367  -29.9087   23.6348 C   0  0  0  0  0  0
  -16.7279  -28.6503   23.0367 C   0  0  0  0  0  0
  -26.4516  -31.6605   25.0742 C   0  0  0  0  0  0
  -25.3729  -31.3789   26.1463 C   0  0  0  0  0  0
  -27.0366  -30.3009   24.6259 C   0  0  0  0  0  0
  -27.6053  -32.4380   25.7505 C   0  0  0  0  0  0
  -27.5594  -37.1749   24.8430 C   0  0  0  0  0  0
  -21.4208  -29.3055   22.3661 N   0  0  0  0  0  0
  -26.4254  -37.3785   23.9455 N   0  0  0  0  0  0
  -24.6946  -31.0539   22.0972 N   0  0  0  0  0  0
  -23.4205  -28.8153   23.3004 O   0  0  0  0  0  0
  -28.3050  -26.3690   20.1956 O   0  0  0  0  0  0
  -26.5631  -34.8916   22.4651 O   0  0  0  0  0  0
  -23.5462  -32.1399   23.7291 O   0  0  0  0  0  0
  -31.3572  -19.2190   20.7206 C   0  0  0  0  0  0
  -30.1232  -19.8841   20.6728 C   0  0  0  0  0  0
  -30.0738  -17.2745   20.6472 C   0  0  0  0  0  0
  -32.6706  -19.9296   20.8380 C   0  0  0  0  0  0
  -29.0918  -23.8214   20.4546 C   0  0  0  0  0  0
  -33.8336  -19.2548   20.1116 C   0  0  0  0  0  0
  -34.1073  -21.6509   21.6251 C   0  0  0  0  0  0
  -28.8181  -22.2438   20.3086 C   0  0  0  0  0  0
  -28.0004  -24.9052   20.0286 C   0  0  0  0  0  0
  -31.3012  -17.7988   20.6941 N   0  0  0  0  0  0
  -32.8079  -21.0157   21.5049 N   0  0  0  0  0  0
  -29.9263  -21.3283   20.7672 N   0  0  0  0  0  0
  -29.8097  -15.8195   20.6875 N   0  0  0  0  0  0
  -30.1813  -24.1934   20.9064 O   0  0  0  0  0  0
  -28.8573  -18.6195   20.5905 S   0  0  0  0  0  0
  -31.4759  -12.5628   19.1600 H   0  0  0  0  0  0
  -30.3805  -11.4542   19.9375 H   0  0  0  0  0  0
  -29.7845  -11.7348   17.5085 H   0  0  0  0  0  0
  -29.6390  -13.4615   17.7231 H   0  0  0  0  0  0
  -27.8850  -11.2830   18.8998 H   0  0  0  0  0  0
  -27.3768  -12.5370   17.7992 H   0  0  0  0  0  0
  -27.6451  -14.2507   19.4828 H   0  0  0  0  0  0
  -28.7209  -12.1333   21.4113 H   0  0  0  0  0  0
  -28.4324  -13.8055   21.8113 H   0  0  0  0  0  0
  -25.2772   -9.5681   22.4771 H   0  0  0  0  0  0
  -24.0007   -7.4634   22.7479 H   0  0  0  0  0  0
  -21.0847   -8.8796   19.8957 H   0  0  0  0  0  0
  -22.3721  -10.9690   19.6181 H   0  0  0  0  0  0
  -21.2002   -7.6151   23.9720 H   0  0  0  0  0  0
  -21.1477   -6.0529   25.9078 H   0  0  0  0  0  0
  -22.0596   -2.7616   23.2849 H   0  0  0  0  0  0
  -22.4099  -11.9859   22.4792 H   0  0  0  0  0  0
  -21.1106  -13.1235   22.2657 H   0  0  0  0  0  0
  -24.6491  -15.8398   20.5082 H   0  0  0  0  0  0
  -26.2556  -15.6285   20.0365 H   0  0  0  0  0  0
  -26.7205  -32.5405   23.1077 H   0  0  0  0  0  0
  -25.0107  -33.9702   25.0412 H   0  0  0  0  0  0
  -22.7200  -31.3025   21.3950 H   0  0  0  0  0  0
  -23.3777  -35.9558   23.3202 H   0  0  0  0  0  0
  -24.3603  -36.9006   22.2066 H   0  0  0  0  0  0
  -23.7170  -37.6407   23.6738 H   0  0  0  0  0  0
  -26.1142  -31.5351   20.6169 H   0  0  0  0  0  0
  -26.8479  -30.8115   22.0187 H   0  0  0  0  0  0
  -28.1140  -28.9266   21.2162 H   0  0  0  0  0  0
  -25.9410  -25.9249   18.9821 H   0  0  0  0  0  0
  -23.9699  -27.3241   18.9915 H   0  0  0  0  0  0
  -23.7584  -30.5931   19.4004 H   0  0  0  0  0  0
  -22.7610  -29.2471   19.8574 H   0  0  0  0  0  0
  -25.1266  -36.1875   25.0798 H   0  0  0  0  0  0
  -20.9984  -28.3285   24.1393 H   0  0  0  0  0  0
  -20.5674  -26.2317   23.3616 H   0  0  0  0  0  0
  -21.6647  -26.7427   22.1197 H   0  0  0  0  0  0
  -19.6911  -25.6275   21.1251 H   0  0  0  0  0  0
  -19.6689  -27.3181   20.6746 H   0  0  0  0  0  0
  -17.4194  -26.6712   21.4009 H   0  0  0  0  0  0
  -18.0301  -26.0061   22.8990 H   0  0  0  0  0  0
  -19.7959  -30.7278   24.2251 H   0  0  0  0  0  0
  -17.5031  -31.6278   24.5154 H   0  0  0  0  0  0
  -15.5364  -30.2986   23.7680 H   0  0  0  0  0  0
  -15.8678  -28.0812   22.7102 H   0  0  0  0  0  0
  -24.5863  -30.7186   25.7799 H   0  0  0  0  0  0
  -24.8974  -32.2977   26.4907 H   0  0  0  0  0  0
  -25.8022  -30.8938   27.0236 H   0  0  0  0  0  0
  -26.2965  -29.6743   24.1263 H   0  0  0  0  0  0
  -27.4011  -29.7297   25.4809 H   0  0  0  0  0  0
  -27.8861  -30.4267   23.9538 H   0  0  0  0  0  0
  -27.2637  -33.3692   26.2040 H   0  0  0  0  0  0
  -28.3880  -32.6939   25.0349 H   0  0  0  0  0  0
  -28.0702  -31.8543   26.5461 H   0  0  0  0  0  0
  -28.2482  -38.0174   24.7671 H   0  0  0  0  0  0
  -28.1223  -36.2724   24.5997 H   0  0  0  0  0  0
  -27.2352  -37.1071   25.8830 H   0  0  0  0  0  0
  -20.9388  -29.8790   21.6880 H   0  0  0  0  0  0
  -26.0117  -38.2817   24.1598 H   0  0  0  0  0  0
  -33.4772  -18.5221   19.3876 H   0  0  0  0  0  0
  -34.4761  -18.7380   20.8245 H   0  0  0  0  0  0
  -34.4315  -19.9758   19.5545 H   0  0  0  0  0  0
  -34.0502  -22.4880   22.3221 H   0  0  0  0  0  0
  -34.4503  -22.0538   20.6705 H   0  0  0  0  0  0
  -34.8670  -20.9682   22.0114 H   0  0  0  0  0  0
  -28.5978  -22.0391   19.2598 H   0  0  0  0  0  0
  -27.9118  -22.0066   20.8661 H   0  0  0  0  0  0
  -27.0989  -24.6752   20.5981 H   0  0  0  0  0  0
  -27.7650  -24.7167   18.9808 H   0  0  0  0  0  0
  -30.7757  -21.8380   21.0250 H   0  0  0  0  0  0
  -28.8444  -15.5825   20.8503 H   0  0  0  0  0  0
  1 25  1  0  0  0
  1 30  2  0  0  0
  1 83  1  0  0  0
  2  3  1  0  0  0
  2 25  1  0  0  0
  2 86  1  0  0  0
  2 87  1  0  0  0
  3  4  1  0  0  0
  3 88  1  0  0  0
  3 89  1  0  0  0
  4  5  1  0  0  0
  4 90  1  0  0  0
  4 91  1  0  0  0
  5  6  1  0  0  0
  5 26  1  0  0  0
  5 92  1  0  0  0
  6 25  1  0  0  0
  6 93  1  0  0  0
  6 94  1  0  0  0
  7  8  2  0  0  0
  7 26  1  0  0  0
  7 29  1  0  0  0
  8  9  1  0  0  0
  8 22  1  0  0  0
  9 10  1  0  0  0
  9 27  2  0  0  0
 10 11  2  0  0  0
 10 15  1  0  0  0
 11 12  1  0  0  0
 11 95  1  0  0  0
 12 13  2  0  0  0
 12 96  1  0  0  0
 13 14  1  0  0  0
 13 31  1  0  0  0
 14 15  2  0  0  0
 14 97  1  0  0  0
 15 98  1  0  0  0
 16 17  2  0  0  0
 16 21  1  0  0  0
 16 31  1  0  0  0
 17 18  1  0  0  0
 17 99  1  0  0  0
 18 19  2  0  0  0
 18100  1  0  0  0
 19 20  1  0  0  0
 19 24  1  0  0  0
 20 21  2  0  0  0
 20101  1  0  0  0
 21 23  1  0  0  0
 22 28  1  0  0  0
 22 32  2  0  0  0
 26 27  1  0  0  0
 28102  1  0  0  0
 28103  1  0  0  0
 29104  1  0  0  0
 29105  1  0  0  0
 33 34  1  0  0  0
 33 66  1  0  0  0
 33 70  2  0  0  0
 34 36  1  0  0  0
 34 59  1  0  0  0
 34106  1  0  0  0
 35 44  2  0  0  0
 35 45  1  0  0  0
 35 68  1  0  0  0
 36 56  1  0  0  0
 36107  1  0  0  0
 37 39  1  0  0  0
 37 47  1  0  0  0
 37 66  1  0  0  0
 37108  1  0  0  0
 38 43  2  0  0  0
 38 46  1  0  0  0
 38 47  1  0  0  0
 39 64  1  0  0  0
 39 67  2  0  0  0
 40 52  1  0  0  0
 40 53  2  0  0  0
 40 58  1  0  0  0
 41109  1  0  0  0
 41110  1  0  0  0
 41111  1  0  0  0
 41 48  1  0  0  0
 42 43  1  0  0  0
 42 66  1  0  0  0
 42112  1  0  0  0
 42113  1  0  0  0
 43 44  1  0  0  0
 44114  1  0  0  0
 45 46  2  0  0  0
 45115  1  0  0  0
 46116  1  0  0  0
 47117  1  0  0  0
 47118  1  0  0  0
 48 56  1  0  0  0
 48 65  1  0  0  0
 48119  1  0  0  0
 49 50  1  0  0  0
 49 53  1  0  0  0
 49 64  1  0  0  0
 49120  1  0  0  0
 50 51  1  0  0  0
 50121  1  0  0  0
 50122  1  0  0  0
 51 52  1  0  0  0
 51123  1  0  0  0
 51124  1  0  0  0
 52125  1  0  0  0
 52126  1  0  0  0
 53 54  1  0  0  0
 54 55  2  0  0  0
 54127  1  0  0  0
 55 57  1  0  0  0
 55128  1  0  0  0
 56 69  2  0  0  0
 57 58  2  0  0  0
 57129  1  0  0  0
 58130  1  0  0  0
 59 60  1  0  0  0
 59 61  1  0  0  0
 59 62  1  0  0  0
 60131  1  0  0  0
 60132  1  0  0  0
 60133  1  0  0  0
 61134  1  0  0  0
 61135  1  0  0  0
 61136  1  0  0  0
 62137  1  0  0  0
 62138  1  0  0  0
 62139  1  0  0  0
 63 65  1  0  0  0
 63140  1  0  0  0
 63141  1  0  0  0
 63142  1  0  0  0
 64143  1  0  0  0
 65144  1  0  0  0
 68 79  1  0  0  0
 71 72  2  0  0  0
 71 74  1  0  0  0
 71 80  1  0  0  0
 72 82  1  0  0  0
 72 85  1  0  0  0
 73 80  2  0  0  0
 73 83  1  0  0  0
 73 85  1  0  0  0
 74 76  1  0  0  0
 74 81  2  0  0  0
 75 78  1  0  0  0
 75 79  1  0  0  0
 75 84  2  0  0  0
 76145  1  0  0  0
 76146  1  0  0  0
 76147  1  0  0  0
 77 81  1  0  0  0
 77148  1  0  0  0
 77149  1  0  0  0
 77150  1  0  0  0
 78 82  1  0  0  0
 78151  1  0  0  0
 78152  1  0  0  0
 79153  1  0  0  0
 79154  1  0  0  0
 82155  1  0  0  0
 83156  1  0  0  0
M  ISO  4   1 100  68 101  79 101  83 100
M  END
> <chiral flag>
0

> <version>
0

> <s_m_source_file>
/data/baiqing/PycharmProjects/Reinvent-master-3.2/result/LINK_invent/BTK/process_docking_weight1_custom_product_contain_oxygen_bond_distance_aromatic_linkinvent_7_9_3/rearranged_h_0163.sdf

> <i_m_source_file_index>
51

> <r_mmod_Potential_Energy-OPLS-2005>
254.657211303711

> <r_mmod_Stretch_Energy-OPLS-2005>
112.300315856934

> <r_mmod_Bend_Energy-OPLS-2005>
177.408752441406

> <r_mmod_Torsional_Energy-OPLS-2005>
205.699920654297

> <r_mmod_Improper_Torsional_Energy-OPLS-2005>
5.83296966552734

> <r_mmod_Van_der_Waal_Energy-OPLS-2005>
133.106063842773

> <r_mmod_Electrostatic_Energy-OPLS-2005>
-191.836364746094

> <r_mmod_Solvation_Energy-OPLS-2005>
-264.869445800781

> <b_mmod_Minimization_Converged-OPLS-2005>
0

> <r_mmod_RMS_Derivative-OPLS-2005>
1.58691740036011

$$$$
51
                    3D
 Structure written by MMmdl.
154162  0  0  1  0            999 V2000
  -30.7106  -14.5147   20.5471 C   0  0  0  0  0  0
  -30.4167  -12.3268   19.4383 C   0  0  0  0  0  0
  -29.4954  -12.4996   18.2141 C   0  0  0  0  0  0
  -28.0180  -12.3559   18.6267 C   0  0  0  0  0  0
  -27.6563  -13.2149   19.8685 C   0  0  2  0  0  0
  -28.6996  -13.0437   20.9969 C   0  0  0  0  0  0
  -25.2566  -13.8176   20.5686 C   0  0  0  0  0  0
  -24.1829  -13.0443   20.9191 C   0  0  0  0  0  0
  -24.6393  -11.6912   20.8740 C   0  0  0  0  0  0
  -23.9062  -10.4294   21.0404 C   0  0  0  0  0  0
  -24.3615   -9.4210   21.9181 C   0  0  0  0  0  0
  -23.6292   -8.2245   22.0751 C   0  0  0  0  0  0
  -22.4275   -8.0281   21.3543 C   0  0  0  0  0  0
  -21.9908   -9.0254   20.4647 C   0  0  0  0  0  0
  -22.7234  -10.2135   20.3054 C   0  0  0  0  0  0
  -21.6854   -6.0734   22.5279 C   0  0  0  0  0  0
  -21.4014   -6.5637   23.8212 C   0  0  0  0  0  0
  -21.3659   -5.6790   24.9175 C   0  0  0  0  0  0
  -21.6044   -4.3053   24.7225 C   0  0  0  0  0  0
  -21.8820   -3.8145   23.4348 C   0  0  0  0  0  0
  -21.9195   -4.6962   22.3403 C   0  0  0  0  0  0
  -22.7851  -13.5235   21.1850 C   0  0  0  0  0  0
  -22.1664   -4.2147   21.0981 F   0  0  0  0  0  0
  -21.5629   -3.4538   25.7739 F   0  0  0  0  0  0
  -30.0260  -13.3405   20.4348 N   0  0  0  0  0  0
  -26.3001  -12.9358   20.3346 N   0  0  0  0  0  0
  -25.9322  -11.6513   20.5766 N   0  0  0  0  0  0
  -22.0491  -12.8227   22.0406 N   0  0  0  0  0  0
  -25.4280  -15.1894   20.4081 N   0  0  0  0  0  0
  -31.8494  -14.6387   20.0915 O   0  0  0  0  0  0
  -21.6640   -6.8876   21.4240 O   0  0  0  0  0  0
  -22.3538  -14.5542   20.6698 O   0  0  0  0  0  0
  -24.6179  -31.8664   23.2090 C   0  0  0  0  0  0
  -25.9060  -32.4816   23.8393 C   0  0  1  0  0  0
  -27.2260  -27.4078   20.1012 C   0  0  0  0  0  0
  -25.5906  -33.8614   24.2323 N   0  0  0  0  0  0
  -23.4080  -30.4912   21.5493 C   0  0  2  0  0  0
  -24.8562  -28.9611   20.1075 C   0  0  0  0  0  0
  -22.7433  -29.4651   22.4963 C   0  0  0  0  0  0
  -18.0278  -28.1380   22.8490 C   0  0  0  0  0  0
  -24.1487  -36.7309   23.2638 C   0  0  0  0  0  0
  -25.9412  -30.8247   21.3678 C   0  0  0  0  0  0
  -26.0196  -29.4597   20.7096 C   0  0  0  0  0  0
  -27.2118  -28.6906   20.7040 C   0  0  0  0  0  0
  -26.0497  -26.9419   19.4743 C   0  0  0  0  0  0
  -24.8677  -27.7031   19.4836 C   0  0  0  0  0  0
  -23.6184  -29.8290   20.1621 C   0  0  0  0  0  0
  -25.4108  -36.3108   24.0338 C   0  0  1  0  0  0
  -20.5872  -28.3672   23.1306 C   0  0  2  0  0  0
  -20.6767  -26.9403   22.5418 C   0  0  0  0  0  0
  -19.5748  -26.6387   21.5211 C   0  0  0  0  0  0
  -18.1925  -26.7926   22.1621 C   0  0  0  0  0  0
  -19.1528  -28.8841   23.2895 C   0  0  0  0  0  0
  -18.9455  -30.1446   23.8908 C   0  0  0  0  0  0
  -17.6457  -30.6585   24.0565 C   0  0  0  0  0  0
  -25.9036  -34.9473   23.5127 C   0  0  0  0  0  0
  -16.5348  -29.9088   23.6327 C   0  0  0  0  0  0
  -16.7266  -28.6504   23.0349 C   0  0  0  0  0  0
  -26.4477  -31.6598   25.0728 C   0  0  0  0  0  0
  -25.3738  -31.3713   26.1474 C   0  0  0  0  0  0
  -27.0304  -30.3033   24.6120 C   0  0  0  0  0  0
  -27.6055  -32.4315   25.7488 C   0  0  0  0  0  0
  -27.5582  -37.1808   24.8464 C   0  0  0  0  0  0
  -21.4156  -29.3036   22.3707 N   0  0  0  0  0  0
  -26.4293  -37.3793   23.9412 N   0  0  0  0  0  0
  -24.6739  -31.0747   22.1002 N   0  0  0  0  0  0
  -23.4192  -28.8185   23.3010 O   0  0  0  0  0  0
  -28.3262  -26.5688   20.1563 O   0  0  0  0  0  0
  -26.5597  -34.8924   22.4688 O   0  0  0  0  0  0
  -23.5363  -32.1424   23.7468 O   0  0  0  0  0  0
  -29.4761  -18.0167   21.1293 C   0  0  0  0  0  0
  -31.2319  -19.7037   21.3378 C   0  0  0  0  0  0
  -31.8094  -17.3332   21.2139 C   0  0  0  0  0  0
  -29.8595  -19.3893   21.2545 C   0  0  0  0  0  0
  -30.4427  -16.9669   21.1057 C   0  0  0  0  0  0
  -32.1969  -18.6827   21.3164 C   0  0  0  0  0  0
  -28.0671  -25.3264   20.7227 C   0  0  0  0  0  0
  -28.8647  -20.4816   21.4085 C   0  0  0  0  0  0
  -28.7289  -24.1641   20.4866 C   0  0  0  0  0  0
  -28.2639  -22.9323   21.1506 C   0  0  0  0  0  0
  -30.0186  -15.5831   21.0223 N   0  0  0  0  0  0
  -29.0684  -21.7434   20.9206 N   0  0  0  0  0  0
  -27.7650  -20.1818   22.1095 N   0  3  0  0  0  0
  -27.2591  -22.8692   21.8714 O   0  0  0  0  0  0
  -29.7819  -24.1209   19.6569 O   0  0  0  0  0  0
  -33.5099  -19.0013   21.4190 F   0  0  0  0  0  0
  -31.4626  -12.4095   19.1373 H   0  0  0  0  0  0
  -30.3099  -11.3263   19.8604 H   0  0  0  0  0  0
  -29.7424  -11.7625   17.4489 H   0  0  0  0  0  0
  -29.6599  -13.4786   17.7609 H   0  0  0  0  0  0
  -27.8377  -11.3020   18.8416 H   0  0  0  0  0  0
  -27.3662  -12.6101   17.7898 H   0  0  0  0  0  0
  -27.6866  -14.2553   19.5443 H   0  0  0  0  0  0
  -28.6830  -12.0227   21.3812 H   0  0  0  0  0  0
  -28.4608  -13.6831   21.8481 H   0  0  0  0  0  0
  -25.2762   -9.5689   22.4752 H   0  0  0  0  0  0
  -24.0005   -7.4637   22.7468 H   0  0  0  0  0  0
  -21.0839   -8.8772   19.8953 H   0  0  0  0  0  0
  -22.3691  -10.9672   19.6162 H   0  0  0  0  0  0
  -21.2004   -7.6144   23.9714 H   0  0  0  0  0  0
  -21.1479   -6.0521   25.9077 H   0  0  0  0  0  0
  -22.0598   -2.7607   23.2850 H   0  0  0  0  0  0
  -22.4101  -11.9885   22.4794 H   0  0  0  0  0  0
  -21.1109  -13.1254   22.2607 H   0  0  0  0  0  0
  -24.6570  -15.8415   20.5044 H   0  0  0  0  0  0
  -26.2698  -15.6236   20.0518 H   0  0  0  0  0  0
  -26.7134  -32.5522   23.1158 H   0  0  0  0  0  0
  -25.0062  -33.9776   25.0473 H   0  0  0  0  0  0
  -22.6977  -31.3091   21.4113 H   0  0  0  0  0  0
  -23.3749  -35.9643   23.3309 H   0  0  0  0  0  0
  -24.3583  -36.8915   22.2051 H   0  0  0  0  0  0
  -23.7238  -37.6517   23.6645 H   0  0  0  0  0  0
  -26.0600  -31.5929   20.6024 H   0  0  0  0  0  0
  -26.8262  -30.8747   21.9904 H   0  0  0  0  0  0
  -28.1052  -29.0606   21.1873 H   0  0  0  0  0  0
  -26.0404  -25.9711   18.9988 H   0  0  0  0  0  0
  -23.9752  -27.3151   19.0122 H   0  0  0  0  0  0
  -23.7272  -30.6070   19.4056 H   0  0  0  0  0  0
  -22.7418  -29.2511   19.8639 H   0  0  0  0  0  0
  -25.1281  -36.1974   25.0830 H   0  0  0  0  0  0
  -20.9964  -28.3242   24.1427 H   0  0  0  0  0  0
  -20.5671  -26.2277   23.3607 H   0  0  0  0  0  0
  -21.6639  -26.7447   22.1211 H   0  0  0  0  0  0
  -19.6910  -25.6301   21.1234 H   0  0  0  0  0  0
  -19.6688  -27.3203   20.6745 H   0  0  0  0  0  0
  -17.4196  -26.6677   21.4022 H   0  0  0  0  0  0
  -18.0324  -26.0065   22.9015 H   0  0  0  0  0  0
  -19.7932  -30.7257   24.2286 H   0  0  0  0  0  0
  -17.5015  -31.6266   24.5165 H   0  0  0  0  0  0
  -15.5349  -30.2994   23.7646 H   0  0  0  0  0  0
  -15.8665  -28.0827   22.7059 H   0  0  0  0  0  0
  -24.5909  -30.7060   25.7813 H   0  0  0  0  0  0
  -24.8930  -32.2873   26.4919 H   0  0  0  0  0  0
  -25.8089  -30.8886   27.0233 H   0  0  0  0  0  0
  -26.2851  -29.6801   24.1165 H   0  0  0  0  0  0
  -27.4052  -29.7266   25.4586 H   0  0  0  0  0  0
  -27.8699  -30.4340   23.9287 H   0  0  0  0  0  0
  -27.2677  -33.3607   26.2090 H   0  0  0  0  0  0
  -28.3849  -32.6889   25.0303 H   0  0  0  0  0  0
  -28.0739  -31.8424   26.5382 H   0  0  0  0  0  0
  -28.2603  -38.0103   24.7518 H   0  0  0  0  0  0
  -28.1073  -36.2636   24.6276 H   0  0  0  0  0  0
  -27.2305  -37.1448   25.8869 H   0  0  0  0  0  0
  -20.9314  -29.8762   21.6934 H   0  0  0  0  0  0
  -26.0182  -38.2872   24.1416 H   0  0  0  0  0  0
  -28.4260  -17.7654   21.0674 H   0  0  0  0  0  0
  -31.5640  -20.7247   21.4603 H   0  0  0  0  0  0
  -32.5955  -16.5962   21.2397 H   0  0  0  0  0  0
  -27.2263  -25.3677   21.4065 H   0  0  0  0  0  0
  -29.0593  -15.3899   21.2649 H   0  0  0  0  0  0
  -29.8798  -21.8183   20.3273 H   0  0  0  0  0  0
  -27.6619  -19.2841   22.5546 H   0  0  0  0  0  0
  -27.0994  -20.9204   22.3027 H   0  0  0  0  0  0
  -29.9115  -25.0042   19.3343 H   0  0  0  0  0  0
  1 25  1  0  0  0
  1 30  2  0  0  0
  1 81  1  0  0  0
  2  3  1  0  0  0
  2 25  1  0  0  0
  2 87  1  0  0  0
  2 88  1  0  0  0
  3  4  1  0  0  0
  3 89  1  0  0  0
  3 90  1  0  0  0
  4  5  1  0  0  0
  4 91  1  0  0  0
  4 92  1  0  0  0
  5  6  1  0  0  0
  5 26  1  0  0  0
  5 93  1  0  0  0
  6 25  1  0  0  0
  6 94  1  0  0  0
  6 95  1  0  0  0
  7  8  2  0  0  0
  7 26  1  0  0  0
  7 29  1  0  0  0
  8  9  1  0  0  0
  8 22  1  0  0  0
  9 10  1  0  0  0
  9 27  2  0  0  0
 10 11  2  0  0  0
 10 15  1  0  0  0
 11 12  1  0  0  0
 11 96  1  0  0  0
 12 13  2  0  0  0
 12 97  1  0  0  0
 13 14  1  0  0  0
 13 31  1  0  0  0
 14 15  2  0  0  0
 14 98  1  0  0  0
 15 99  1  0  0  0
 16 17  2  0  0  0
 16 21  1  0  0  0
 16 31  1  0  0  0
 17 18  1  0  0  0
 17100  1  0  0  0
 18 19  2  0  0  0
 18101  1  0  0  0
 19 20  1  0  0  0
 19 24  1  0  0  0
 20 21  2  0  0  0
 20102  1  0  0  0
 21 23  1  0  0  0
 22 28  1  0  0  0
 22 32  2  0  0  0
 26 27  1  0  0  0
 28103  1  0  0  0
 28104  1  0  0  0
 29105  1  0  0  0
 29106  1  0  0  0
 33 34  1  0  0  0
 33 66  1  0  0  0
 33 70  2  0  0  0
 34 36  1  0  0  0
 34 59  1  0  0  0
 34107  1  0  0  0
 35 44  2  0  0  0
 35 45  1  0  0  0
 35 68  1  0  0  0
 36 56  1  0  0  0
 36108  1  0  0  0
 37 39  1  0  0  0
 37 47  1  0  0  0
 37 66  1  0  0  0
 37109  1  0  0  0
 38 43  2  0  0  0
 38 46  1  0  0  0
 38 47  1  0  0  0
 39 64  1  0  0  0
 39 67  2  0  0  0
 40 52  1  0  0  0
 40 53  2  0  0  0
 40 58  1  0  0  0
 41110  1  0  0  0
 41111  1  0  0  0
 41112  1  0  0  0
 41 48  1  0  0  0
 42 43  1  0  0  0
 42 66  1  0  0  0
 42113  1  0  0  0
 42114  1  0  0  0
 43 44  1  0  0  0
 44115  1  0  0  0
 45 46  2  0  0  0
 45116  1  0  0  0
 46117  1  0  0  0
 47118  1  0  0  0
 47119  1  0  0  0
 48 56  1  0  0  0
 48 65  1  0  0  0
 48120  1  0  0  0
 49 50  1  0  0  0
 49 53  1  0  0  0
 49 64  1  0  0  0
 49121  1  0  0  0
 50 51  1  0  0  0
 50122  1  0  0  0
 50123  1  0  0  0
 51 52  1  0  0  0
 51124  1  0  0  0
 51125  1  0  0  0
 52126  1  0  0  0
 52127  1  0  0  0
 53 54  1  0  0  0
 54 55  2  0  0  0
 54128  1  0  0  0
 55 57  1  0  0  0
 55129  1  0  0  0
 56 69  2  0  0  0
 57 58  2  0  0  0
 57130  1  0  0  0
 58131  1  0  0  0
 59 60  1  0  0  0
 59 61  1  0  0  0
 59 62  1  0  0  0
 60132  1  0  0  0
 60133  1  0  0  0
 60134  1  0  0  0
 61135  1  0  0  0
 61136  1  0  0  0
 61137  1  0  0  0
 62138  1  0  0  0
 62139  1  0  0  0
 62140  1  0  0  0
 63 65  1  0  0  0
 63141  1  0  0  0
 63142  1  0  0  0
 63143  1  0  0  0
 64144  1  0  0  0
 65145  1  0  0  0
 68 77  1  0  0  0
 71 74  2  0  0  0
 71 75  1  0  0  0
 71146  1  0  0  0
 72 74  1  0  0  0
 72 76  2  0  0  0
 72147  1  0  0  0
 73 75  2  0  0  0
 73 76  1  0  0  0
 73148  1  0  0  0
 74 78  1  0  0  0
 75 81  1  0  0  0
 76 86  1  0  0  0
 77 79  2  0  0  0
 77149  1  0  0  0
 78 82  1  0  0  0
 78 83  2  0  0  0
 79 80  1  0  0  0
 79 85  1  0  0  0
 80 82  1  0  0  0
 80 84  2  0  0  0
 81150  1  0  0  0
 82151  1  0  0  0
 83152  1  0  0  0
 83153  1  0  0  0
 85154  1  0  0  0
M  CHG  1  83   1
M  ISO  4   1 100  68 101  77 101  81 100
M  END
> <chiral flag>
0

> <version>
0

> <s_m_source_file>
/data/baiqing/PycharmProjects/Reinvent-master-3.2/result/LINK_invent/BTK/process_docking_weight1_custom_product_contain_oxygen_bond_distance_aromatic_linkinvent_7_9_3/rearranged_h_0163.sdf

> <i_m_source_file_index>
52

> <r_mmod_Potential_Energy-OPLS-2005>
-408.953247070312

> <r_mmod_Stretch_Energy-OPLS-2005>
48.6685600280762

> <r_mmod_Bend_Energy-OPLS-2005>
108.268493652344

> <r_mmod_Torsional_Energy-OPLS-2005>
203.220993041992

> <r_mmod_Improper_Torsional_Energy-OPLS-2005>
4.78966283798218

> <r_mmod_Van_der_Waal_Energy-OPLS-2005>
176.813690185547

> <r_mmod_Electrostatic_Energy-OPLS-2005>
-533.11865234375

> <r_mmod_Solvation_Energy-OPLS-2005>
-440.193572998047

> <b_mmod_Minimization_Converged-OPLS-2005>
0

> <r_mmod_RMS_Derivative-OPLS-2005>
0.32960057258606

$$$$
52
                    3D
 Structure written by MMmdl.
159167  0  0  1  0            999 V2000
  -30.6446  -14.6185   20.5439 C   0  0  0  0  0  0
  -30.4455  -12.3883   19.4626 C   0  0  0  0  0  0
  -29.5173  -12.4945   18.2310 C   0  0  0  0  0  0
  -28.0455  -12.2903   18.6415 C   0  0  0  0  0  0
  -27.6532  -13.1628   19.8567 C   0  0  2  0  0  0
  -28.6948  -13.0577   20.9978 C   0  0  0  0  0  0
  -25.2558  -13.7968   20.5624 C   0  0  0  0  0  0
  -24.1822  -13.0327   20.9245 C   0  0  0  0  0  0
  -24.6339  -11.6800   20.8782 C   0  0  0  0  0  0
  -23.9010  -10.4239   21.0446 C   0  0  0  0  0  0
  -24.3576   -9.4162   21.9213 C   0  0  0  0  0  0
  -23.6263   -8.2204   22.0772 C   0  0  0  0  0  0
  -22.4245   -8.0258   21.3560 C   0  0  0  0  0  0
  -21.9863   -9.0235   20.4662 C   0  0  0  0  0  0
  -22.7201  -10.2105   20.3082 C   0  0  0  0  0  0
  -21.6835   -6.0717   22.5271 C   0  0  0  0  0  0
  -21.4004   -6.5624   23.8201 C   0  0  0  0  0  0
  -21.3664   -5.6778   24.9168 C   0  0  0  0  0  0
  -21.6047   -4.3042   24.7215 C   0  0  0  0  0  0
  -21.8830   -3.8136   23.4340 C   0  0  0  0  0  0
  -21.9194   -4.6957   22.3392 C   0  0  0  0  0  0
  -22.7864  -13.5198   21.1891 C   0  0  0  0  0  0
  -22.1666   -4.2150   21.0972 F   0  0  0  0  0  0
  -21.5632   -3.4526   25.7728 F   0  0  0  0  0  0
  -30.0211  -13.3997   20.4530 N   0  0  0  0  0  0
  -26.2947  -12.9073   20.3211 N   0  0  0  0  0  0
  -25.9233  -11.6294   20.5724 N   0  0  0  0  0  0
  -22.0444  -12.8248   22.0445 N   0  0  0  0  0  0
  -25.4126  -15.1659   20.3867 N   0  0  0  0  0  0
  -31.7604  -14.8130   20.0543 O   0  0  0  0  0  0
  -21.6630   -6.8855   21.4234 O   0  0  0  0  0  0
  -22.3622  -14.5528   20.6721 O   0  0  0  0  0  0
  -24.6180  -31.8636   23.2051 C   0  0  0  0  0  0
  -25.9051  -32.4806   23.8366 C   0  0  1  0  0  0
  -27.2513  -27.3976   20.1172 C   0  0  0  0  0  0
  -25.5889  -33.8602   24.2302 N   0  0  0  0  0  0
  -23.4082  -30.4850   21.5440 C   0  0  2  0  0  0
  -24.8593  -28.9377   20.1174 C   0  0  0  0  0  0
  -22.7423  -29.4633   22.4950 C   0  0  0  0  0  0
  -18.0269  -28.1391   22.8483 C   0  0  0  0  0  0
  -24.1478  -36.7318   23.2635 C   0  0  0  0  0  0
  -25.9375  -30.8238   21.3566 C   0  0  0  0  0  0
  -26.0186  -29.4507   20.7118 C   0  0  0  0  0  0
  -27.2142  -28.6915   20.6986 C   0  0  0  0  0  0
  -26.0715  -26.9008   19.5204 C   0  0  0  0  0  0
  -24.8838  -27.6651   19.5162 C   0  0  0  0  0  0
  -23.6234  -29.8124   20.1603 C   0  0  0  0  0  0
  -25.4095  -36.3101   24.0333 C   0  0  1  0  0  0
  -20.5861  -28.3678   23.1312 C   0  0  2  0  0  0
  -20.6759  -26.9409   22.5423 C   0  0  0  0  0  0
  -19.5742  -26.6390   21.5210 C   0  0  0  0  0  0
  -18.1917  -26.7935   22.1617 C   0  0  0  0  0  0
  -19.1522  -28.8843   23.2902 C   0  0  0  0  0  0
  -18.9452  -30.1442   23.8930 C   0  0  0  0  0  0
  -17.6460  -30.6589   24.0569 C   0  0  0  0  0  0
  -25.9025  -34.9469   23.5119 C   0  0  0  0  0  0
  -16.5351  -29.9106   23.6312 C   0  0  0  0  0  0
  -16.7261  -28.6522   23.0332 C   0  0  0  0  0  0
  -26.4466  -31.6589   25.0704 C   0  0  0  0  0  0
  -25.3737  -31.3700   26.1460 C   0  0  0  0  0  0
  -27.0291  -30.3035   24.6068 C   0  0  0  0  0  0
  -27.6035  -32.4297   25.7489 C   0  0  0  0  0  0
  -27.5568  -37.1819   24.8458 C   0  0  0  0  0  0
  -21.4140  -29.3045   22.3712 N   0  0  0  0  0  0
  -26.4276  -37.3794   23.9408 N   0  0  0  0  0  0
  -24.6729  -31.0720   22.0946 N   0  0  0  0  0  0
  -23.4183  -28.8158   23.2988 O   0  0  0  0  0  0
  -28.4439  -26.6884   20.1222 O   0  0  0  0  0  0
  -26.5597  -34.8921   22.4685 O   0  0  0  0  0  0
  -23.5365  -32.1391   23.7433 O   0  0  0  0  0  0
  -28.3453  -16.9616   19.9164 C   0  0  0  0  0  0
  -28.3949  -19.3835   19.7380 C   0  0  0  0  0  0
  -30.1848  -18.1793   20.9059 C   0  0  0  0  0  0
  -27.7626  -18.1602   19.4735 C   0  0  0  0  0  0
  -29.5634  -16.9159   20.6195 C   0  0  0  0  0  0
  -29.5980  -19.4257   20.4742 C   0  0  0  0  0  0
  -26.4730  -18.1280   18.7894 C   0  0  0  0  0  0
  -30.2979  -23.2553   20.8568 C   0  0  0  0  0  0
  -29.9088  -24.7408   20.4448 C   0  0  0  0  0  0
  -29.4691  -21.9967   20.4817 C   0  0  0  0  0  0
  -28.4536  -25.2321   20.1886 C   0  0  0  0  0  0
  -26.2146  -17.1909   17.8806 N   0  0  0  0  0  0
  -29.9497  -15.6177   21.1603 N   0  0  0  0  0  0
  -30.1563  -20.6980   20.7765 N   0  0  0  0  0  0
  -25.5252  -19.0116   19.0929 N   0  3  0  0  0  0
  -31.3422  -23.0807   21.5049 O   0  0  0  0  0  0
  -30.8335  -25.5600   20.3284 O   0  0  0  0  0  0
  -31.4881  -12.5134   19.1655 H   0  0  0  0  0  0
  -30.3828  -11.3914   19.8980 H   0  0  0  0  0  0
  -29.8012  -11.7549   17.4801 H   0  0  0  0  0  0
  -29.6396  -13.4702   17.7577 H   0  0  0  0  0  0
  -27.9060  -11.2365   18.8824 H   0  0  0  0  0  0
  -27.3903  -12.5010   17.7958 H   0  0  0  0  0  0
  -27.6599  -14.1595   19.4539 H   0  0  0  0  0  0
  -28.7127  -12.0435   21.3992 H   0  0  0  0  0  0
  -28.4113  -13.6964   21.8355 H   0  0  0  0  0  0
  -25.2716   -9.5655   22.4785 H   0  0  0  0  0  0
  -23.9981   -7.4593   22.7472 H   0  0  0  0  0  0
  -21.0797   -8.8764   19.8955 H   0  0  0  0  0  0
  -22.3673  -10.9658   19.6199 H   0  0  0  0  0  0
  -21.1990   -7.6128   23.9708 H   0  0  0  0  0  0
  -21.1473   -6.0503   25.9068 H   0  0  0  0  0  0
  -22.0604   -2.7601   23.2839 H   0  0  0  0  0  0
  -22.3969  -11.9897   22.4869 H   0  0  0  0  0  0
  -21.1091  -13.1367   22.2617 H   0  0  0  0  0  0
  -24.5662  -15.7238   20.4072 H   0  0  0  0  0  0
  -26.0513  -15.4878   19.6753 H   0  0  0  0  0  0
  -26.7124  -32.5511   23.1133 H   0  0  0  0  0  0
  -25.0046  -33.9756   25.0452 H   0  0  0  0  0  0
  -22.6973  -31.3015   21.4008 H   0  0  0  0  0  0
  -23.3729  -35.9662   23.3303 H   0  0  0  0  0  0
  -24.3578  -36.8935   22.2050 H   0  0  0  0  0  0
  -23.7250  -37.6527   23.6658 H   0  0  0  0  0  0
  -26.0400  -31.5831   20.5793 H   0  0  0  0  0  0
  -26.8285  -30.8916   21.9697 H   0  0  0  0  0  0
  -28.1110  -29.0920   21.1493 H   0  0  0  0  0  0
  -26.0626  -25.9304   19.0446 H   0  0  0  0  0  0
  -23.9931  -27.2667   19.0492 H   0  0  0  0  0  0
  -23.7449  -30.5877   19.4027 H   0  0  0  0  0  0
  -22.7444  -29.2421   19.8545 H   0  0  0  0  0  0
  -25.1273  -36.1960   25.0827 H   0  0  0  0  0  0
  -20.9955  -28.3255   24.1430 H   0  0  0  0  0  0
  -20.5638  -26.2286   23.3613 H   0  0  0  0  0  0
  -21.6636  -26.7436   22.1236 H   0  0  0  0  0  0
  -19.6898  -25.6298   21.1239 H   0  0  0  0  0  0
  -19.6680  -27.3194   20.6732 H   0  0  0  0  0  0
  -17.4181  -26.6672   21.4025 H   0  0  0  0  0  0
  -18.0320  -26.0083   22.9018 H   0  0  0  0  0  0
  -19.7928  -30.7238   24.2334 H   0  0  0  0  0  0
  -17.5018  -31.6271   24.5175 H   0  0  0  0  0  0
  -15.5356  -30.3028   23.7607 H   0  0  0  0  0  0
  -15.8655  -28.0854   22.7036 H   0  0  0  0  0  0
  -24.5912  -30.7031   25.7819 H   0  0  0  0  0  0
  -24.8924  -32.2857   26.4902 H   0  0  0  0  0  0
  -25.8105  -30.8891   27.0225 H   0  0  0  0  0  0
  -26.2836  -29.6814   24.1102 H   0  0  0  0  0  0
  -27.4049  -29.7240   25.4511 H   0  0  0  0  0  0
  -27.8667  -30.4351   23.9216 H   0  0  0  0  0  0
  -27.2653  -33.3587   26.2087 H   0  0  0  0  0  0
  -28.3858  -32.6869   25.0337 H   0  0  0  0  0  0
  -28.0688  -31.8406   26.5404 H   0  0  0  0  0  0
  -28.2588  -38.0113   24.7500 H   0  0  0  0  0  0
  -28.1063  -36.2650   24.6281 H   0  0  0  0  0  0
  -27.2297  -37.1470   25.8864 H   0  0  0  0  0  0
  -20.9283  -29.8829   21.6998 H   0  0  0  0  0  0
  -26.0158  -38.2864   24.1425 H   0  0  0  0  0  0
  -27.7916  -16.0682   19.7518 H   0  0  0  0  0  0
  -27.9225  -20.2878   19.3828 H   0  0  0  0  0  0
  -31.0893  -18.1983   21.4968 H   0  0  0  0  0  0
  -29.2340  -22.0664   19.4185 H   0  0  0  0  0  0
  -28.5283  -22.0445   21.0309 H   0  0  0  0  0  0
  -27.8064  -24.8871   20.9951 H   0  0  0  0  0  0
  -28.0891  -24.8068   19.2540 H   0  0  0  0  0  0
  -26.9701  -16.6101   17.5472 H   0  0  0  0  0  0
  -25.3224  -17.1115   17.4188 H   0  0  0  0  0  0
  -29.2046  -15.2040   21.6984 H   0  0  0  0  0  0
  -31.0078  -20.7665   21.3311 H   0  0  0  0  0  0
  -25.6877  -19.6660   19.8432 H   0  0  0  0  0  0
  -24.6222  -19.0157   18.6475 H   0  0  0  0  0  0
  1 25  1  0  0  0
  1 30  2  0  0  0
  1 83  1  0  0  0
  2  3  1  0  0  0
  2 25  1  0  0  0
  2 88  1  0  0  0
  2 89  1  0  0  0
  3  4  1  0  0  0
  3 90  1  0  0  0
  3 91  1  0  0  0
  4  5  1  0  0  0
  4 92  1  0  0  0
  4 93  1  0  0  0
  5  6  1  0  0  0
  5 26  1  0  0  0
  5 94  1  0  0  0
  6 25  1  0  0  0
  6 95  1  0  0  0
  6 96  1  0  0  0
  7  8  2  0  0  0
  7 26  1  0  0  0
  7 29  1  0  0  0
  8  9  1  0  0  0
  8 22  1  0  0  0
  9 10  1  0  0  0
  9 27  2  0  0  0
 10 11  2  0  0  0
 10 15  1  0  0  0
 11 12  1  0  0  0
 11 97  1  0  0  0
 12 13  2  0  0  0
 12 98  1  0  0  0
 13 14  1  0  0  0
 13 31  1  0  0  0
 14 15  2  0  0  0
 14 99  1  0  0  0
 15100  1  0  0  0
 16 17  2  0  0  0
 16 21  1  0  0  0
 16 31  1  0  0  0
 17 18  1  0  0  0
 17101  1  0  0  0
 18 19  2  0  0  0
 18102  1  0  0  0
 19 20  1  0  0  0
 19 24  1  0  0  0
 20 21  2  0  0  0
 20103  1  0  0  0
 21 23  1  0  0  0
 22 28  1  0  0  0
 22 32  2  0  0  0
 26 27  1  0  0  0
 28104  1  0  0  0
 28105  1  0  0  0
 29106  1  0  0  0
 29107  1  0  0  0
 33 34  1  0  0  0
 33 66  1  0  0  0
 33 70  2  0  0  0
 34 36  1  0  0  0
 34 59  1  0  0  0
 34108  1  0  0  0
 35 44  2  0  0  0
 35 45  1  0  0  0
 35 68  1  0  0  0
 36 56  1  0  0  0
 36109  1  0  0  0
 37 39  1  0  0  0
 37 47  1  0  0  0
 37 66  1  0  0  0
 37110  1  0  0  0
 38 43  2  0  0  0
 38 46  1  0  0  0
 38 47  1  0  0  0
 39 64  1  0  0  0
 39 67  2  0  0  0
 40 52  1  0  0  0
 40 53  2  0  0  0
 40 58  1  0  0  0
 41111  1  0  0  0
 41112  1  0  0  0
 41113  1  0  0  0
 41 48  1  0  0  0
 42 43  1  0  0  0
 42 66  1  0  0  0
 42114  1  0  0  0
 42115  1  0  0  0
 43 44  1  0  0  0
 44116  1  0  0  0
 45 46  2  0  0  0
 45117  1  0  0  0
 46118  1  0  0  0
 47119  1  0  0  0
 47120  1  0  0  0
 48 56  1  0  0  0
 48 65  1  0  0  0
 48121  1  0  0  0
 49 50  1  0  0  0
 49 53  1  0  0  0
 49 64  1  0  0  0
 49122  1  0  0  0
 50 51  1  0  0  0
 50123  1  0  0  0
 50124  1  0  0  0
 51 52  1  0  0  0
 51125  1  0  0  0
 51126  1  0  0  0
 52127  1  0  0  0
 52128  1  0  0  0
 53 54  1  0  0  0
 54 55  2  0  0  0
 54129  1  0  0  0
 55 57  1  0  0  0
 55130  1  0  0  0
 56 69  2  0  0  0
 57 58  2  0  0  0
 57131  1  0  0  0
 58132  1  0  0  0
 59 60  1  0  0  0
 59 61  1  0  0  0
 59 62  1  0  0  0
 60133  1  0  0  0
 60134  1  0  0  0
 60135  1  0  0  0
 61136  1  0  0  0
 61137  1  0  0  0
 61138  1  0  0  0
 62139  1  0  0  0
 62140  1  0  0  0
 62141  1  0  0  0
 63 65  1  0  0  0
 63142  1  0  0  0
 63143  1  0  0  0
 63144  1  0  0  0
 64145  1  0  0  0
 65146  1  0  0  0
 68 81  1  0  0  0
 71 74  2  0  0  0
 71 75  1  0  0  0
 71147  1  0  0  0
 72 74  1  0  0  0
 72 76  2  0  0  0
 72148  1  0  0  0
 73 75  2  0  0  0
 73 76  1  0  0  0
 73149  1  0  0  0
 74 77  1  0  0  0
 75 83  1  0  0  0
 76 84  1  0  0  0
 77 82  1  0  0  0
 77 85  2  0  0  0
 78 79  1  0  0  0
 78 80  1  0  0  0
 78 86  2  0  0  0
 79 81  1  0  0  0
 79 87  2  0  0  0
 80 84  1  0  0  0
 80150  1  0  0  0
 80151  1  0  0  0
 81152  1  0  0  0
 81153  1  0  0  0
 82154  1  0  0  0
 82155  1  0  0  0
 83156  1  0  0  0
 84157  1  0  0  0
 85158  1  0  0  0
 85159  1  0  0  0
M  CHG  1  85   1
M  ISO  4   1 100  68 101  81 101  83 100
M  END
> <chiral flag>
0

> <version>
0

> <s_m_source_file>
/data/baiqing/PycharmProjects/Reinvent-master-3.2/result/LINK_invent/BTK/process_docking_weight1_custom_product_contain_oxygen_bond_distance_aromatic_linkinvent_7_9_3/rearranged_h_0163.sdf

> <i_m_source_file_index>
53

> <r_mmod_Potential_Energy-OPLS-2005>
-161.171264648438

> <r_mmod_Stretch_Energy-OPLS-2005>
64.3355941772461

> <r_mmod_Bend_Energy-OPLS-2005>
139.893203735352

> <r_mmod_Torsional_Energy-OPLS-2005>
258.771240234375

> <r_mmod_Improper_Torsional_Energy-OPLS-2005>
11.3866968154907

> <r_mmod_Van_der_Waal_Energy-OPLS-2005>
146.50666809082

> <r_mmod_Electrostatic_Energy-OPLS-2005>
-277.615570068359

> <r_mmod_Solvation_Energy-OPLS-2005>
-536.5087890625

> <b_mmod_Minimization_Converged-OPLS-2005>
0

> <r_mmod_RMS_Derivative-OPLS-2005>
2.37085914611816

$$$$
53
                    3D
 Structure written by MMmdl.
156165  0  0  1  0            999 V2000
  -30.6244  -14.5744   20.5506 C   0  0  0  0  0  0
  -30.4436  -12.3664   19.4323 C   0  0  0  0  0  0
  -29.5056  -12.5173   18.2134 C   0  0  0  0  0  0
  -28.0263  -12.3594   18.6233 C   0  0  0  0  0  0
  -27.6591  -13.2043   19.8709 C   0  0  2  0  0  0
  -28.7026  -13.0003   20.9932 C   0  0  0  0  0  0
  -25.2578  -13.8139   20.5647 C   0  0  0  0  0  0
  -24.1835  -13.0428   20.9192 C   0  0  0  0  0  0
  -24.6386  -11.6895   20.8740 C   0  0  0  0  0  0
  -23.9050  -10.4286   21.0409 C   0  0  0  0  0  0
  -24.3604   -9.4202   21.9185 C   0  0  0  0  0  0
  -23.6282   -8.2240   22.0754 C   0  0  0  0  0  0
  -22.4264   -8.0277   21.3545 C   0  0  0  0  0  0
  -21.9892   -9.0256   20.4648 C   0  0  0  0  0  0
  -22.7223  -10.2132   20.3059 C   0  0  0  0  0  0
  -21.6850   -6.0725   22.5277 C   0  0  0  0  0  0
  -21.4015   -6.5630   23.8209 C   0  0  0  0  0  0
  -21.3659   -5.6785   24.9172 C   0  0  0  0  0  0
  -21.6043   -4.3049   24.7225 C   0  0  0  0  0  0
  -21.8820   -3.8138   23.4347 C   0  0  0  0  0  0
  -21.9192   -4.6955   22.3401 C   0  0  0  0  0  0
  -22.7861  -13.5244   21.1856 C   0  0  0  0  0  0
  -22.1660   -4.2138   21.0978 F   0  0  0  0  0  0
  -21.5629   -3.4533   25.7743 F   0  0  0  0  0  0
  -30.0256  -13.3508   20.4454 N   0  0  0  0  0  0
  -26.3006  -12.9299   20.3322 N   0  0  0  0  0  0
  -25.9311  -11.6470   20.5746 N   0  0  0  0  0  0
  -22.0486  -12.8254   22.0406 N   0  0  0  0  0  0
  -25.4292  -15.1853   20.3983 N   0  0  0  0  0  0
  -31.7584  -14.8031   20.1212 O   0  0  0  0  0  0
  -21.6635   -6.8871   21.4237 O   0  0  0  0  0  0
  -22.3570  -14.5558   20.6699 O   0  0  0  0  0  0
  -24.6230  -31.8617   23.2048 C   0  0  0  0  0  0
  -25.9090  -32.4786   23.8362 C   0  0  1  0  0  0
  -27.2322  -27.3544   20.0923 C   0  0  0  0  0  0
  -25.5919  -33.8585   24.2294 N   0  0  0  0  0  0
  -23.4144  -30.4861   21.5480 C   0  0  2  0  0  0
  -24.8588  -28.9458   20.1116 C   0  0  0  0  0  0
  -22.7457  -29.4627   22.4956 C   0  0  0  0  0  0
  -18.0285  -28.1377   22.8479 C   0  0  0  0  0  0
  -24.1492  -36.7303   23.2632 C   0  0  0  0  0  0
  -25.9522  -30.8013   21.3707 C   0  0  0  0  0  0
  -26.0260  -29.4316   20.7123 C   0  0  0  0  0  0
  -27.2105  -28.6435   20.7012 C   0  0  0  0  0  0
  -26.0275  -26.8975   19.5051 C   0  0  0  0  0  0
  -24.8587  -27.6807   19.5066 C   0  0  0  0  0  0
  -23.6252  -29.8220   20.1625 C   0  0  0  0  0  0
  -25.4109  -36.3086   24.0330 C   0  0  1  0  0  0
  -20.5878  -28.3676   23.1291 C   0  0  2  0  0  0
  -20.6773  -26.9403   22.5410 C   0  0  0  0  0  0
  -19.5750  -26.6380   21.5208 C   0  0  0  0  0  0
  -18.1929  -26.7921   22.1616 C   0  0  0  0  0  0
  -19.1535  -28.8843   23.2880 C   0  0  0  0  0  0
  -18.9460  -30.1448   23.8893 C   0  0  0  0  0  0
  -17.6457  -30.6576   24.0563 C   0  0  0  0  0  0
  -25.9044  -34.9455   23.5110 C   0  0  0  0  0  0
  -16.5351  -29.9074   23.6327 C   0  0  0  0  0  0
  -16.7272  -28.6497   23.0341 C   0  0  0  0  0  0
  -26.4483  -31.6585   25.0722 C   0  0  0  0  0  0
  -25.3731  -31.3720   26.1464 C   0  0  0  0  0  0
  -27.0314  -30.3012   24.6149 C   0  0  0  0  0  0
  -27.6055  -32.4308   25.7484 C   0  0  0  0  0  0
  -27.5584  -37.1795   24.8450 C   0  0  0  0  0  0
  -21.4175  -29.3034   22.3693 N   0  0  0  0  0  0
  -26.4285  -37.3783   23.9412 N   0  0  0  0  0  0
  -24.6820  -31.0653   22.0986 N   0  0  0  0  0  0
  -23.4196  -28.8156   23.3016 O   0  0  0  0  0  0
  -28.3840  -26.5603   20.1427 O   0  0  0  0  0  0
  -26.5615  -34.8918   22.4678 O   0  0  0  0  0  0
  -23.5408  -32.1399   23.7403 O   0  0  0  0  0  0
  -28.6697  -17.7449   20.9318 C   0  0  0  0  0  0
  -31.0249  -17.7813   20.7188 C   0  0  0  0  0  0
  -29.8630  -16.9987   20.8762 C   0  0  0  0  0  0
  -29.7832  -19.7528   20.7048 C   0  0  0  0  0  0
  -30.0890  -23.4177   19.1895 C   0  0  0  0  0  0
  -29.0207  -24.0611   19.7136 C   0  0  0  0  0  0
  -30.4850  -21.9660   19.4983 C   0  0  0  0  0  0
  -28.1352  -23.3081   20.7158 C   0  0  0  0  0  0
  -29.7331  -21.3202   20.6936 C   0  0  1  0  0  0
  -28.5923  -25.4706   19.1902 C   0  0  0  0  0  0
  -28.6285  -19.0959   20.8330 N   0  0  0  0  0  0
  -30.9734  -19.1402   20.6561 N   0  0  0  0  0  0
  -29.8105  -15.5560   21.0205 N   0  0  0  0  0  0
  -28.3333  -21.8181   20.6963 N   0  3  0  0  0  0
  -31.4823  -12.5054   19.1301 H   0  0  0  0  0  0
  -30.3832  -11.3571   19.8421 H   0  0  0  0  0  0
  -29.7611  -11.7830   17.4483 H   0  0  0  0  0  0
  -29.6558  -13.4971   17.7562 H   0  0  0  0  0  0
  -27.8512  -11.3031   18.8298 H   0  0  0  0  0  0
  -27.3755  -12.6170   17.7865 H   0  0  0  0  0  0
  -27.6947  -14.2486   19.5621 H   0  0  0  0  0  0
  -28.7024  -11.9597   21.3227 H   0  0  0  0  0  0
  -28.4474  -13.5817   21.8803 H   0  0  0  0  0  0
  -25.2744   -9.5679   22.4761 H   0  0  0  0  0  0
  -23.9991   -7.4628   22.7473 H   0  0  0  0  0  0
  -21.0820   -8.8777   19.8957 H   0  0  0  0  0  0
  -22.3681  -10.9674   19.6171 H   0  0  0  0  0  0
  -21.2006   -7.6138   23.9710 H   0  0  0  0  0  0
  -21.1478   -6.0514   25.9074 H   0  0  0  0  0  0
  -22.0598   -2.7600   23.2859 H   0  0  0  0  0  0
  -22.4074  -11.9912   22.4804 H   0  0  0  0  0  0
  -21.1104  -13.1305   22.2596 H   0  0  0  0  0  0
  -24.6423  -15.8229   20.4535 H   0  0  0  0  0  0
  -26.2377  -15.5949   19.9509 H   0  0  0  0  0  0
  -26.7154  -32.5463   23.1109 H   0  0  0  0  0  0
  -25.0067  -33.9732   25.0440 H   0  0  0  0  0  0
  -22.7063  -31.3055   21.4086 H   0  0  0  0  0  0
  -23.3748  -35.9640   23.3287 H   0  0  0  0  0  0
  -24.3596  -36.8928   22.2050 H   0  0  0  0  0  0
  -23.7251  -37.6506   23.6661 H   0  0  0  0  0  0
  -26.0793  -31.5659   20.6034 H   0  0  0  0  0  0
  -26.8348  -30.8500   21.9969 H   0  0  0  0  0  0
  -28.1080  -29.0149   21.1758 H   0  0  0  0  0  0
  -25.9338  -25.9145   19.0720 H   0  0  0  0  0  0
  -23.9558  -27.2918   19.0561 H   0  0  0  0  0  0
  -23.7397  -30.5988   19.4057 H   0  0  0  0  0  0
  -22.7454  -29.2496   19.8626 H   0  0  0  0  0  0
  -25.1282  -36.1939   25.0822 H   0  0  0  0  0  0
  -20.9966  -28.3252   24.1413 H   0  0  0  0  0  0
  -20.5670  -26.2285   23.3606 H   0  0  0  0  0  0
  -21.6647  -26.7430   22.1208 H   0  0  0  0  0  0
  -19.6914  -25.6292   21.1235 H   0  0  0  0  0  0
  -19.6685  -27.3196   20.6742 H   0  0  0  0  0  0
  -17.4196  -26.6661   21.4022 H   0  0  0  0  0  0
  -18.0329  -26.0063   22.9011 H   0  0  0  0  0  0
  -19.7937  -30.7270   24.2254 H   0  0  0  0  0  0
  -17.5012  -31.6253   24.5166 H   0  0  0  0  0  0
  -15.5354  -30.2971   23.7651 H   0  0  0  0  0  0
  -15.8673  -28.0818   22.7051 H   0  0  0  0  0  0
  -24.5903  -30.7063   25.7808 H   0  0  0  0  0  0
  -24.8930  -32.2889   26.4892 H   0  0  0  0  0  0
  -25.8072  -30.8903   27.0233 H   0  0  0  0  0  0
  -26.2875  -29.6773   24.1182 H   0  0  0  0  0  0
  -27.4032  -29.7253   25.4631 H   0  0  0  0  0  0
  -27.8736  -30.4307   23.9350 H   0  0  0  0  0  0
  -27.2675  -33.3602   26.2080 H   0  0  0  0  0  0
  -28.3853  -32.6871   25.0300 H   0  0  0  0  0  0
  -28.0734  -31.8420   26.5383 H   0  0  0  0  0  0
  -28.2569  -38.0123   24.7541 H   0  0  0  0  0  0
  -28.1112  -36.2659   24.6209 H   0  0  0  0  0  0
  -27.2316  -37.1364   25.8854 H   0  0  0  0  0  0
  -20.9350  -29.8773   21.6918 H   0  0  0  0  0  0
  -26.0165  -38.2852   24.1440 H   0  0  0  0  0  0
  -27.7195  -17.2470   21.0607 H   0  0  0  0  0  0
  -32.0082  -17.3369   20.6819 H   0  0  0  0  0  0
  -30.6879  -23.9098   18.4359 H   0  0  0  0  0  0
  -31.5603  -21.9034   19.6668 H   0  0  0  0  0  0
  -30.2853  -21.3874   18.5960 H   0  0  0  0  0  0
  -27.0877  -23.5178   20.4966 H   0  0  0  0  0  0
  -28.3319  -23.6969   21.7155 H   0  0  0  0  0  0
  -30.1941  -21.6629   21.6208 H   0  0  0  0  0  0
  -27.7734  -25.3139   18.4950 H   0  0  0  0  0  0
  -29.3949  -25.8269   18.5443 H   0  0  0  0  0  0
  -28.9240  -15.1926   21.3409 H   0  0  0  0  0  0
  -27.9038  -21.4194   19.8792 H   0  0  0  0  0  0
  -27.8788  -21.3789   21.4805 H   0  0  0  0  0  0
  1 25  1  0  0  0
  1 30  2  0  0  0
  1 83  1  0  0  0
  2  3  1  0  0  0
  2 25  1  0  0  0
  2 85  1  0  0  0
  2 86  1  0  0  0
  3  4  1  0  0  0
  3 87  1  0  0  0
  3 88  1  0  0  0
  4  5  1  0  0  0
  4 89  1  0  0  0
  4 90  1  0  0  0
  5  6  1  0  0  0
  5 26  1  0  0  0
  5 91  1  0  0  0
  6 25  1  0  0  0
  6 92  1  0  0  0
  6 93  1  0  0  0
  7  8  2  0  0  0
  7 26  1  0  0  0
  7 29  1  0  0  0
  8  9  1  0  0  0
  8 22  1  0  0  0
  9 10  1  0  0  0
  9 27  2  0  0  0
 10 11  2  0  0  0
 10 15  1  0  0  0
 11 12  1  0  0  0
 11 94  1  0  0  0
 12 13  2  0  0  0
 12 95  1  0  0  0
 13 14  1  0  0  0
 13 31  1  0  0  0
 14 15  2  0  0  0
 14 96  1  0  0  0
 15 97  1  0  0  0
 16 17  2  0  0  0
 16 21  1  0  0  0
 16 31  1  0  0  0
 17 18  1  0  0  0
 17 98  1  0  0  0
 18 19  2  0  0  0
 18 99  1  0  0  0
 19 20  1  0  0  0
 19 24  1  0  0  0
 20 21  2  0  0  0
 20100  1  0  0  0
 21 23  1  0  0  0
 22 28  1  0  0  0
 22 32  2  0  0  0
 26 27  1  0  0  0
 28101  1  0  0  0
 28102  1  0  0  0
 29103  1  0  0  0
 29104  1  0  0  0
 33 34  1  0  0  0
 33 66  1  0  0  0
 33 70  2  0  0  0
 34 36  1  0  0  0
 34 59  1  0  0  0
 34105  1  0  0  0
 35 44  2  0  0  0
 35 45  1  0  0  0
 35 68  1  0  0  0
 36 56  1  0  0  0
 36106  1  0  0  0
 37 39  1  0  0  0
 37 47  1  0  0  0
 37 66  1  0  0  0
 37107  1  0  0  0
 38 43  2  0  0  0
 38 46  1  0  0  0
 38 47  1  0  0  0
 39 64  1  0  0  0
 39 67  2  0  0  0
 40 52  1  0  0  0
 40 53  2  0  0  0
 40 58  1  0  0  0
 41108  1  0  0  0
 41109  1  0  0  0
 41110  1  0  0  0
 41 48  1  0  0  0
 42 43  1  0  0  0
 42 66  1  0  0  0
 42111  1  0  0  0
 42112  1  0  0  0
 43 44  1  0  0  0
 44113  1  0  0  0
 45 46  2  0  0  0
 45114  1  0  0  0
 46115  1  0  0  0
 47116  1  0  0  0
 47117  1  0  0  0
 48 56  1  0  0  0
 48 65  1  0  0  0
 48118  1  0  0  0
 49 50  1  0  0  0
 49 53  1  0  0  0
 49 64  1  0  0  0
 49119  1  0  0  0
 50 51  1  0  0  0
 50120  1  0  0  0
 50121  1  0  0  0
 51 52  1  0  0  0
 51122  1  0  0  0
 51123  1  0  0  0
 52124  1  0  0  0
 52125  1  0  0  0
 53 54  1  0  0  0
 54 55  2  0  0  0
 54126  1  0  0  0
 55 57  1  0  0  0
 55127  1  0  0  0
 56 69  2  0  0  0
 57 58  2  0  0  0
 57128  1  0  0  0
 58129  1  0  0  0
 59 60  1  0  0  0
 59 61  1  0  0  0
 59 62  1  0  0  0
 60130  1  0  0  0
 60131  1  0  0  0
 60132  1  0  0  0
 61133  1  0  0  0
 61134  1  0  0  0
 61135  1  0  0  0
 62136  1  0  0  0
 62137  1  0  0  0
 62138  1  0  0  0
 63 65  1  0  0  0
 63139  1  0  0  0
 63140  1  0  0  0
 63141  1  0  0  0
 64142  1  0  0  0
 65143  1  0  0  0
 68 80  1  0  0  0
 71 73  2  0  0  0
 71 81  1  0  0  0
 71144  1  0  0  0
 72 73  1  0  0  0
 72 82  2  0  0  0
 72145  1  0  0  0
 73 83  1  0  0  0
 74 81  2  0  0  0
 74 82  1  0  0  0
 74 79  1  0  0  0
 75 76  2  0  0  0
 75 77  1  0  0  0
 75146  1  0  0  0
 76 78  1  0  0  0
 76 80  1  0  0  0
 77 79  1  0  0  0
 77147  1  0  0  0
 77148  1  0  0  0
 78 84  1  0  0  0
 78149  1  0  0  0
 78150  1  0  0  0
 79 84  1  0  0  0
 79151  1  0  0  0
 80152  1  0  0  0
 80153  1  0  0  0
 83154  1  0  0  0
 84155  1  0  0  0
 84156  1  0  0  0
M  CHG  1  84   1
M  ISO  4   1 100  68 101  80 101  83 100
M  END
> <chiral flag>
0

> <version>
0

> <s_m_source_file>
/data/baiqing/PycharmProjects/Reinvent-master-3.2/result/LINK_invent/BTK/process_docking_weight1_custom_product_contain_oxygen_bond_distance_aromatic_linkinvent_7_9_3/rearranged_h_0163.sdf

> <i_m_source_file_index>
54

> <r_mmod_Potential_Energy-OPLS-2005>
-738.761291503906

> <r_mmod_Stretch_Energy-OPLS-2005>
58.607494354248

> <r_mmod_Bend_Energy-OPLS-2005>
134.421188354492

> <r_mmod_Torsional_Energy-OPLS-2005>
212.090530395508

> <r_mmod_Improper_Torsional_Energy-OPLS-2005>
5.49724960327148

> <r_mmod_Van_der_Waal_Energy-OPLS-2005>
167.023849487305

> <r_mmod_Electrostatic_Energy-OPLS-2005>
-888.945007324219

> <r_mmod_Solvation_Energy-OPLS-2005>
-459.133026123047

> <b_mmod_Minimization_Converged-OPLS-2005>
0

> <r_mmod_RMS_Derivative-OPLS-2005>
1.23903441429138

$$$$
54
                    3D
 Structure written by MMmdl.
162170  0  0  1  0            999 V2000
  -30.5206  -15.0747   20.3806 C   0  0  0  0  0  0
  -30.4434  -12.6687   19.5090 C   0  0  0  0  0  0
  -29.5356  -12.5526   18.2612 C   0  0  0  0  0  0
  -28.0676  -12.3332   18.6788 C   0  0  0  0  0  0
  -27.6309  -13.2696   19.8386 C   0  0  2  0  0  0
  -28.6773  -13.3555   20.9734 C   0  0  0  0  0  0
  -25.2489  -13.8258   20.5748 C   0  0  0  0  0  0
  -24.1817  -13.0457   20.9237 C   0  0  0  0  0  0
  -24.6458  -11.6941   20.8757 C   0  0  0  0  0  0
  -23.9117  -10.4311   21.0393 C   0  0  0  0  0  0
  -24.3659   -9.4219   21.9172 C   0  0  0  0  0  0
  -23.6331   -8.2252   22.0735 C   0  0  0  0  0  0
  -22.4310   -8.0293   21.3547 C   0  0  0  0  0  0
  -21.9946   -9.0264   20.4639 C   0  0  0  0  0  0
  -22.7281  -10.2143   20.3056 C   0  0  0  0  0  0
  -21.6857   -6.0729   22.5279 C   0  0  0  0  0  0
  -21.4007   -6.5624   23.8216 C   0  0  0  0  0  0
  -21.3666   -5.6781   24.9185 C   0  0  0  0  0  0
  -21.6068   -4.3044   24.7234 C   0  0  0  0  0  0
  -21.8809   -3.8132   23.4352 C   0  0  0  0  0  0
  -21.9207   -4.6954   22.3414 C   0  0  0  0  0  0
  -22.7834  -13.5216   21.1879 C   0  0  0  0  0  0
  -22.1671   -4.2128   21.0985 F   0  0  0  0  0  0
  -21.5643   -3.4534   25.7744 F   0  0  0  0  0  0
  -29.9355  -13.7959   20.3570 N   0  0  0  0  0  0
  -26.2928  -12.9534   20.3277 N   0  0  0  0  0  0
  -25.9396  -11.6639   20.5740 N   0  0  0  0  0  0
  -22.0485  -12.8223   22.0437 N   0  0  0  0  0  0
  -25.4103  -15.1987   20.4134 N   0  0  0  0  0  0
  -31.7261  -15.1056   20.1020 O   0  0  0  0  0  0
  -21.6671   -6.8885   21.4243 O   0  0  0  0  0  0
  -22.3487  -14.5541   20.6720 O   0  0  0  0  0  0
  -24.6516  -31.8363   23.1808 C   0  0  0  0  0  0
  -25.9248  -32.4636   23.8237 C   0  0  1  0  0  0
  -27.2252  -27.0456   20.1710 C   0  0  0  0  0  0
  -25.5995  -33.8450   24.2189 N   0  0  0  0  0  0
  -23.4599  -30.4551   21.5242 C   0  0  2  0  0  0
  -24.9149  -28.8503   20.1232 C   0  0  0  0  0  0
  -22.7597  -29.4549   22.4798 C   0  0  0  0  0  0
  -18.0345  -28.1352   22.8499 C   0  0  0  0  0  0
  -24.1492  -36.7218   23.2657 C   0  0  0  0  0  0
  -26.0253  -30.6720   21.4025 C   0  0  0  0  0  0
  -26.0984  -29.2730   20.7484 C   0  0  0  0  0  0
  -27.2547  -28.3889   20.7566 C   0  0  0  0  0  0
  -26.0181  -26.7483   19.5067 C   0  0  0  0  0  0
  -24.8909  -27.5995   19.4906 C   0  0  0  0  0  0
  -23.6986  -29.7702   20.1517 C   0  0  0  0  0  0
  -25.4123  -36.2998   24.0336 C   0  0  1  0  0  0
  -20.5952  -28.3713   23.1204 C   0  0  2  0  0  0
  -20.6792  -26.9406   22.5393 C   0  0  0  0  0  0
  -19.5760  -26.6346   21.5200 C   0  0  0  0  0  0
  -18.1957  -26.7902   22.1633 C   0  0  0  0  0  0
  -19.1596  -28.8856   23.2848 C   0  0  0  0  0  0
  -18.9514  -30.1457   23.8853 C   0  0  0  0  0  0
  -17.6501  -30.6565   24.0550 C   0  0  0  0  0  0
  -25.9085  -34.9365   23.5063 C   0  0  0  0  0  0
  -16.5396  -29.9045   23.6332 C   0  0  0  0  0  0
  -16.7328  -28.6457   23.0379 C   0  0  0  0  0  0
  -26.4504  -31.6555   25.0724 C   0  0  0  0  0  0
  -25.3664  -31.3796   26.1413 C   0  0  0  0  0  0
  -27.0434  -30.2962   24.6406 C   0  0  0  0  0  0
  -27.6030  -32.4333   25.7501 C   0  0  0  0  0  0
  -27.5577  -37.1775   24.8468 C   0  0  0  0  0  0
  -21.4288  -29.3065   22.3565 N   0  0  0  0  0  0
  -26.4275  -37.3725   23.9421 N   0  0  0  0  0  0
  -24.7320  -31.0119   22.0883 N   0  0  0  0  0  0
  -23.4222  -28.8145   23.3011 O   0  0  0  0  0  0
  -28.2316  -25.9846   20.1277 O   0  0  0  0  0  0
  -26.5656  -34.8871   22.4641 O   0  0  0  0  0  0
  -23.5617  -32.1321   23.6949 O   0  0  0  0  0  0
  -28.1377  -24.7550   20.9497 C   0  0  0  0  0  0
  -28.3882  -23.3176   21.0302 C   0  0  0  0  0  0
  -28.8040  -22.0575   20.1537 C   0  0  0  0  0  0
  -29.3300  -19.0792   22.3636 C   0  0  0  0  0  0
  -30.7541  -19.2944   22.9291 C   0  0  0  0  0  0
  -30.6783  -21.4179   21.5339 C   0  0  0  0  0  0
  -29.2748  -19.2974   20.8477 C   0  0  2  0  0  0
  -31.5979  -20.3699   22.1817 C   0  0  0  0  0  0
  -32.4791  -21.0899   23.2234 C   0  0  0  0  0  0
  -32.5455  -19.8092   21.0900 C   0  0  0  0  0  0
  -30.0786  -17.8702   20.2188 C   0  0  0  0  0  0
  -29.5456  -20.9205   20.7065 N   0  0  0  0  0  0
  -29.7626  -16.3032   20.5031 N   0  0  0  0  0  0
  -28.3414  -21.9272   19.0194 O   0  0  0  0  0  0
  -28.0732  -22.8811   22.2621 O   0  0  0  0  0  0
  -31.4778  -12.8282   19.1988 H   0  0  0  0  0  0
  -30.4463  -11.7301   20.0687 H   0  0  0  0  0  0
  -29.8726  -11.7277   17.6314 H   0  0  0  0  0  0
  -29.6247  -13.4555   17.6537 H   0  0  0  0  0  0
  -27.9690  -11.2951   18.9916 H   0  0  0  0  0  0
  -27.4076  -12.4520   17.8197 H   0  0  0  0  0  0
  -27.5776  -14.2639   19.3953 H   0  0  0  0  0  0
  -28.7971  -12.4008   21.4892 H   0  0  0  0  0  0
  -28.3681  -14.0768   21.7318 H   0  0  0  0  0  0
  -25.2796   -9.5703   22.4749 H   0  0  0  0  0  0
  -24.0048   -7.4647   22.7457 H   0  0  0  0  0  0
  -21.0861   -8.8789   19.8962 H   0  0  0  0  0  0
  -22.3726  -10.9682   19.6176 H   0  0  0  0  0  0
  -21.1971   -7.6124   23.9708 H   0  0  0  0  0  0
  -21.1508   -6.0510   25.9085 H   0  0  0  0  0  0
  -22.0591   -2.7583   23.2862 H   0  0  0  0  0  0
  -22.4096  -11.9903   22.4904 H   0  0  0  0  0  0
  -21.1085  -13.1208   22.2609 H   0  0  0  0  0  0
  -24.6353  -15.8472   20.5091 H   0  0  0  0  0  0
  -26.2484  -15.6343   20.0474 H   0  0  0  0  0  0
  -26.7297  -32.5190   23.0940 H   0  0  0  0  0  0
  -25.0097  -33.9539   25.0305 H   0  0  0  0  0  0
  -22.7681  -31.2852   21.3589 H   0  0  0  0  0  0
  -23.3759  -35.9535   23.3269 H   0  0  0  0  0  0
  -24.3597  -36.8876   22.2079 H   0  0  0  0  0  0
  -23.7224  -37.6400   23.6706 H   0  0  0  0  0  0
  -26.2022  -31.4199   20.6302 H   0  0  0  0  0  0
  -26.8840  -30.7222   22.0593 H   0  0  0  0  0  0
  -28.1544  -28.7181   21.2599 H   0  0  0  0  0  0
  -25.9363  -25.7925   19.0082 H   0  0  0  0  0  0
  -23.9886  -27.2621   18.9993 H   0  0  0  0  0  0
  -23.8530  -30.5378   19.3923 H   0  0  0  0  0  0
  -22.8066  -29.2253   19.8353 H   0  0  0  0  0  0
  -25.1308  -36.1799   25.0827 H   0  0  0  0  0  0
  -21.0081  -28.3257   24.1302 H   0  0  0  0  0  0
  -20.5616  -26.2336   23.3623 H   0  0  0  0  0  0
  -21.6662  -26.7326   22.1241 H   0  0  0  0  0  0
  -19.6890  -25.6235   21.1260 H   0  0  0  0  0  0
  -19.6659  -27.3116   20.6693 H   0  0  0  0  0  0
  -17.4232  -26.6685   21.4030 H   0  0  0  0  0  0
  -18.0345  -26.0023   22.9009 H   0  0  0  0  0  0
  -19.7994  -30.7312   24.2160 H   0  0  0  0  0  0
  -17.5058  -31.6240   24.5156 H   0  0  0  0  0  0
  -15.5387  -30.2937   23.7662 H   0  0  0  0  0  0
  -15.8744  -28.0748   22.7101 H   0  0  0  0  0  0
  -24.5771  -30.7233   25.7736 H   0  0  0  0  0  0
  -24.8915  -32.2998   26.4836 H   0  0  0  0  0  0
  -25.7895  -30.8936   27.0217 H   0  0  0  0  0  0
  -26.3125  -29.6628   24.1377 H   0  0  0  0  0  0
  -27.4009  -29.7313   25.5034 H   0  0  0  0  0  0
  -27.9023  -30.4224   23.9806 H   0  0  0  0  0  0
  -27.2629  -33.3640   26.2055 H   0  0  0  0  0  0
  -28.3842  -32.6902   25.0332 H   0  0  0  0  0  0
  -28.0706  -31.8483   26.5434 H   0  0  0  0  0  0
  -28.2586  -38.0088   24.7538 H   0  0  0  0  0  0
  -28.1089  -36.2627   24.6248 H   0  0  0  0  0  0
  -27.2316  -37.1356   25.8877 H   0  0  0  0  0  0
  -20.9487  -29.8803   21.6771 H   0  0  0  0  0  0
  -26.0124  -38.2786   24.1413 H   0  0  0  0  0  0
  -27.7490  -25.1514   21.8788 H   0  0  0  0  0  0
  -28.6468  -19.7860   22.8401 H   0  0  0  0  0  0
  -28.9713  -18.0852   22.6314 H   0  0  0  0  0  0
  -31.3026  -18.3514   22.9674 H   0  0  0  0  0  0
  -30.6301  -19.5784   23.9766 H   0  0  0  0  0  0
  -31.2976  -22.0766   20.9214 H   0  0  0  0  0  0
  -30.3149  -22.0422   22.3451 H   0  0  0  0  0  0
  -28.2368  -19.1927   20.5332 H   0  0  0  0  0  0
  -31.8568  -21.5684   23.9807 H   0  0  0  0  0  0
  -33.0808  -21.8786   22.7664 H   0  0  0  0  0  0
  -33.1524  -20.4011   23.7359 H   0  0  0  0  0  0
  -32.0677  -19.7768   20.1079 H   0  0  0  0  0  0
  -32.9142  -18.8110   21.3281 H   0  0  0  0  0  0
  -33.4272  -20.4317   20.9464 H   0  0  0  0  0  0
  -31.1051  -17.8850   20.5555 H   0  0  0  0  0  0
  -30.1421  -17.9735   19.1345 H   0  0  0  0  0  0
  -28.7907  -16.1355   20.7173 H   0  0  0  0  0  0
  -27.8387  -23.6318   22.7903 H   0  0  0  0  0  0
  1 25  1  0  0  0
  1 30  2  0  0  0
  1 83  1  0  0  0
  2  3  1  0  0  0
  2 25  1  0  0  0
  2 86  1  0  0  0
  2 87  1  0  0  0
  3  4  1  0  0  0
  3 88  1  0  0  0
  3 89  1  0  0  0
  4  5  1  0  0  0
  4 90  1  0  0  0
  4 91  1  0  0  0
  5  6  1  0  0  0
  5 26  1  0  0  0
  5 92  1  0  0  0
  6 25  1  0  0  0
  6 93  1  0  0  0
  6 94  1  0  0  0
  7  8  2  0  0  0
  7 26  1  0  0  0
  7 29  1  0  0  0
  8  9  1  0  0  0
  8 22  1  0  0  0
  9 10  1  0  0  0
  9 27  2  0  0  0
 10 11  2  0  0  0
 10 15  1  0  0  0
 11 12  1  0  0  0
 11 95  1  0  0  0
 12 13  2  0  0  0
 12 96  1  0  0  0
 13 14  1  0  0  0
 13 31  1  0  0  0
 14 15  2  0  0  0
 14 97  1  0  0  0
 15 98  1  0  0  0
 16 17  2  0  0  0
 16 21  1  0  0  0
 16 31  1  0  0  0
 17 18  1  0  0  0
 17 99  1  0  0  0
 18 19  2  0  0  0
 18100  1  0  0  0
 19 20  1  0  0  0
 19 24  1  0  0  0
 20 21  2  0  0  0
 20101  1  0  0  0
 21 23  1  0  0  0
 22 28  1  0  0  0
 22 32  2  0  0  0
 26 27  1  0  0  0
 28102  1  0  0  0
 28103  1  0  0  0
 29104  1  0  0  0
 29105  1  0  0  0
 33 34  1  0  0  0
 33 66  1  0  0  0
 33 70  2  0  0  0
 34 36  1  0  0  0
 34 59  1  0  0  0
 34106  1  0  0  0
 35 44  2  0  0  0
 35 45  1  0  0  0
 35 68  1  0  0  0
 36 56  1  0  0  0
 36107  1  0  0  0
 37 39  1  0  0  0
 37 47  1  0  0  0
 37 66  1  0  0  0
 37108  1  0  0  0
 38 43  2  0  0  0
 38 46  1  0  0  0
 38 47  1  0  0  0
 39 64  1  0  0  0
 39 67  2  0  0  0
 40 52  1  0  0  0
 40 53  2  0  0  0
 40 58  1  0  0  0
 41109  1  0  0  0
 41110  1  0  0  0
 41111  1  0  0  0
 41 48  1  0  0  0
 42 43  1  0  0  0
 42 66  1  0  0  0
 42112  1  0  0  0
 42113  1  0  0  0
 43 44  1  0  0  0
 44114  1  0  0  0
 45 46  2  0  0  0
 45115  1  0  0  0
 46116  1  0  0  0
 47117  1  0  0  0
 47118  1  0  0  0
 48 56  1  0  0  0
 48 65  1  0  0  0
 48119  1  0  0  0
 49 50  1  0  0  0
 49 53  1  0  0  0
 49 64  1  0  0  0
 49120  1  0  0  0
 50 51  1  0  0  0
 50121  1  0  0  0
 50122  1  0  0  0
 51 52  1  0  0  0
 51123  1  0  0  0
 51124  1  0  0  0
 52125  1  0  0  0
 52126  1  0  0  0
 53 54  1  0  0  0
 54 55  2  0  0  0
 54127  1  0  0  0
 55 57  1  0  0  0
 55128  1  0  0  0
 56 69  2  0  0  0
 57 58  2  0  0  0
 57129  1  0  0  0
 58130  1  0  0  0
 59 60  1  0  0  0
 59 61  1  0  0  0
 59 62  1  0  0  0
 60131  1  0  0  0
 60132  1  0  0  0
 60133  1  0  0  0
 61134  1  0  0  0
 61135  1  0  0  0
 61136  1  0  0  0
 62137  1  0  0  0
 62138  1  0  0  0
 62139  1  0  0  0
 63 65  1  0  0  0
 63140  1  0  0  0
 63141  1  0  0  0
 63142  1  0  0  0
 64143  1  0  0  0
 65144  1  0  0  0
 68 71  1  0  0  0
 71 72  2  0  0  0
 71145  1  0  0  0
 72 73  1  0  0  0
 72 85  1  0  0  0
 73 82  1  0  0  0
 73 84  2  0  0  0
 74 75  1  0  0  0
 74 77  1  0  0  0
 74146  1  0  0  0
 74147  1  0  0  0
 75 78  1  0  0  0
 75148  1  0  0  0
 75149  1  0  0  0
 76 78  1  0  0  0
 76 82  1  0  0  0
 76150  1  0  0  0
 76151  1  0  0  0
 77 81  1  0  0  0
 77 82  1  0  0  0
 77152  1  0  0  0
 78 79  1  0  0  0
 78 80  1  0  0  0
 79153  1  0  0  0
 79154  1  0  0  0
 79155  1  0  0  0
 80156  1  0  0  0
 80157  1  0  0  0
 80158  1  0  0  0
 81 83  1  0  0  0
 81159  1  0  0  0
 81160  1  0  0  0
 83161  1  0  0  0
 85162  1  0  0  0
M  ISO  4   1 100  68 101  71 101  83 100
M  END
> <chiral flag>
0

> <version>
0

> <s_m_source_file>
/data/baiqing/PycharmProjects/Reinvent-master-3.2/result/LINK_invent/BTK/process_docking_weight1_custom_product_contain_oxygen_bond_distance_aromatic_linkinvent_7_9_3/rearranged_h_0163.sdf

> <i_m_source_file_index>
55

> <r_mmod_Potential_Energy-OPLS-2005>
1090.15112304688

> <r_mmod_Stretch_Energy-OPLS-2005>
402.137725830078

> <r_mmod_Bend_Energy-OPLS-2005>
470.865234375

> <r_mmod_Torsional_Energy-OPLS-2005>
374.228973388672

> <r_mmod_Improper_Torsional_Energy-OPLS-2005>
8.40955924987793

> <r_mmod_Van_der_Waal_Energy-OPLS-2005>
138.450744628906

> <r_mmod_Electrostatic_Energy-OPLS-2005>
-362.968231201172

> <r_mmod_Solvation_Energy-OPLS-2005>
-228.693267822266

> <b_mmod_Minimization_Converged-OPLS-2005>
0

> <r_mmod_RMS_Derivative-OPLS-2005>
5.46385288238525

$$$$
55
                    3D
 Structure written by MMmdl.
157165  0  0  1  0            999 V2000
  -30.7086  -14.4722   20.6092 C   0  0  0  0  0  0
  -30.4287  -12.3194   19.4236 C   0  0  0  0  0  0
  -29.4975  -12.5227   18.2100 C   0  0  0  0  0  0
  -28.0188  -12.3762   18.6204 C   0  0  0  0  0  0
  -27.6643  -13.2080   19.8819 C   0  0  2  0  0  0
  -28.7058  -12.9794   21.0014 C   0  0  0  0  0  0
  -25.2584  -13.8153   20.5689 C   0  0  0  0  0  0
  -24.1830  -13.0432   20.9165 C   0  0  0  0  0  0
  -24.6386  -11.6900   20.8713 C   0  0  0  0  0  0
  -23.9047  -10.4288   21.0385 C   0  0  0  0  0  0
  -24.3598   -9.4217   21.9171 C   0  0  0  0  0  0
  -23.6284   -8.2252   22.0749 C   0  0  0  0  0  0
  -22.4268   -8.0272   21.3535 C   0  0  0  0  0  0
  -21.9891   -9.0242   20.4636 C   0  0  0  0  0  0
  -22.7214  -10.2128   20.3042 C   0  0  0  0  0  0
  -21.6855   -6.0727   22.5272 C   0  0  0  0  0  0
  -21.4010   -6.5633   23.8206 C   0  0  0  0  0  0
  -21.3664   -5.6786   24.9169 C   0  0  0  0  0  0
  -21.6053   -4.3049   24.7219 C   0  0  0  0  0  0
  -21.8819   -3.8135   23.4343 C   0  0  0  0  0  0
  -21.9196   -4.6952   22.3400 C   0  0  0  0  0  0
  -22.7855  -13.5241   21.1837 C   0  0  0  0  0  0
  -22.1662   -4.2137   21.0973 F   0  0  0  0  0  0
  -21.5639   -3.4538   25.7739 F   0  0  0  0  0  0
  -30.0415  -13.2929   20.4584 N   0  0  0  0  0  0
  -26.3037  -12.9334   20.3398 N   0  0  0  0  0  0
  -25.9318  -11.6491   20.5763 N   0  0  0  0  0  0
  -22.0488  -12.8222   22.0388 N   0  0  0  0  0  0
  -25.4303  -15.1873   20.4097 N   0  0  0  0  0  0
  -31.8084  -14.6777   20.0879 O   0  0  0  0  0  0
  -21.6637   -6.8864   21.4233 O   0  0  0  0  0  0
  -22.3542  -14.5557   20.6702 O   0  0  0  0  0  0
  -24.6138  -31.8675   23.2101 C   0  0  0  0  0  0
  -25.9034  -32.4822   23.8397 C   0  0  1  0  0  0
  -27.2377  -27.4346   20.1084 C   0  0  0  0  0  0
  -25.5892  -33.8620   24.2330 N   0  0  0  0  0  0
  -23.4029  -30.4880   21.5495 C   0  0  2  0  0  0
  -24.8534  -28.9498   20.1202 C   0  0  0  0  0  0
  -22.7415  -29.4639   22.4994 C   0  0  0  0  0  0
  -18.0264  -28.1372   22.8493 C   0  0  0  0  0  0
  -24.1481  -36.7310   23.2638 C   0  0  0  0  0  0
  -25.9301  -30.8326   21.3641 C   0  0  0  0  0  0
  -26.0110  -29.4633   20.7210 C   0  0  0  0  0  0
  -27.2079  -28.7100   20.7174 C   0  0  0  0  0  0
  -26.0695  -26.9341   19.5017 C   0  0  0  0  0  0
  -24.8762  -27.6823   19.5106 C   0  0  0  0  0  0
  -23.6138  -29.8162   20.1655 C   0  0  0  0  0  0
  -25.4103  -36.3113   24.0340 C   0  0  1  0  0  0
  -20.5856  -28.3645   23.1317 C   0  0  2  0  0  0
  -20.6752  -26.9378   22.5415 C   0  0  0  0  0  0
  -19.5732  -26.6376   21.5209 C   0  0  0  0  0  0
  -18.1909  -26.7928   22.1613 C   0  0  0  0  0  0
  -19.1513  -28.8831   23.2905 C   0  0  0  0  0  0
  -18.9450  -30.1444   23.8911 C   0  0  0  0  0  0
  -17.6450  -30.6579   24.0565 C   0  0  0  0  0  0
  -25.9029  -34.9478   23.5136 C   0  0  0  0  0  0
  -16.5338  -29.9079   23.6334 C   0  0  0  0  0  0
  -16.7254  -28.6498   23.0348 C   0  0  0  0  0  0
  -26.4469  -31.6601   25.0722 C   0  0  0  0  0  0
  -25.3743  -31.3707   26.1484 C   0  0  0  0  0  0
  -27.0286  -30.3036   24.6088 C   0  0  0  0  0  0
  -27.6059  -32.4306   25.7478 C   0  0  0  0  0  0
  -27.5580  -37.1812   24.8463 C   0  0  0  0  0  0
  -21.4141  -29.3022   22.3737 N   0  0  0  0  0  0
  -26.4290  -37.3800   23.9416 N   0  0  0  0  0  0
  -24.6666  -31.0780   22.0995 N   0  0  0  0  0  0
  -23.4186  -28.8170   23.3031 O   0  0  0  0  0  0
  -28.3889  -26.6856   20.0444 O   0  0  0  0  0  0
  -26.5596  -34.8931   22.4698 O   0  0  0  0  0  0
  -23.5328  -32.1414   23.7501 O   0  0  0  0  0  0
  -31.4374  -18.9485   21.0418 C   0  0  0  0  0  0
  -31.3590  -17.5445   20.8994 C   0  0  0  0  0  0
  -30.4078  -19.7005   21.6632 C   0  0  0  0  0  0
  -30.2327  -16.8371   21.3833 C   0  0  0  0  0  0
  -29.2646  -18.9923   22.1441 C   0  0  0  0  0  0
  -29.2004  -17.5801   22.0001 C   0  0  0  0  0  0
  -30.6299  -21.1646   21.8127 C   0  0  0  0  0  0
  -28.7622  -24.4046   20.9211 C   0  0  0  0  0  0
  -29.8050  -23.5755   21.6948 C   0  0  0  0  0  0
  -28.6946  -25.9214   21.2218 C   0  0  0  0  0  0
  -28.1831  -19.6153   22.7878 N   0  0  0  0  0  0
  -30.0456  -15.4155   21.3057 N   0  0  0  0  0  0
  -29.7053  -22.0984   21.5087 N   0  0  0  0  0  0
  -31.8109  -21.5883   22.2697 N   0  3  0  0  0  0
  -28.0038  -23.8630   20.1070 O   0  0  0  0  0  0
  -28.1167  -16.9161   22.4770 F   0  0  0  0  0  0
  -31.4727  -12.4252   19.1218 H   0  0  0  0  0  0
  -30.3370  -11.3033   19.8110 H   0  0  0  0  0  0
  -29.7399  -11.8067   17.4238 H   0  0  0  0  0  0
  -29.6611  -13.5137   17.7835 H   0  0  0  0  0  0
  -27.8306  -11.3184   18.8070 H   0  0  0  0  0  0
  -27.3693  -12.6578   17.7903 H   0  0  0  0  0  0
  -27.7089  -14.2587   19.5943 H   0  0  0  0  0  0
  -28.6822  -11.9397   21.3310 H   0  0  0  0  0  0
  -28.4556  -13.5622   21.8880 H   0  0  0  0  0  0
  -25.2741   -9.5720   22.4745 H   0  0  0  0  0  0
  -24.0000   -7.4654   22.7468 H   0  0  0  0  0  0
  -21.0828   -8.8740   19.8940 H   0  0  0  0  0  0
  -22.3650  -10.9659   19.6149 H   0  0  0  0  0  0
  -21.1980   -7.6140   23.9702 H   0  0  0  0  0  0
  -21.1495   -6.0515   25.9069 H   0  0  0  0  0  0
  -22.0593   -2.7597   23.2839 H   0  0  0  0  0  0
  -22.4088  -11.9877   22.4771 H   0  0  0  0  0  0
  -21.1103  -13.1253   22.2571 H   0  0  0  0  0  0
  -24.6688  -15.8454   20.5323 H   0  0  0  0  0  0
  -26.2941  -15.6320   20.1258 H   0  0  0  0  0  0
  -26.7114  -32.5535   23.1174 H   0  0  0  0  0  0
  -25.0073  -33.9786   25.0498 H   0  0  0  0  0  0
  -22.6916  -31.3044   21.4061 H   0  0  0  0  0  0
  -23.3762  -35.9620   23.3281 H   0  0  0  0  0  0
  -24.3589  -36.8949   22.2058 H   0  0  0  0  0  0
  -23.7202  -37.6496   23.6666 H   0  0  0  0  0  0
  -26.0371  -31.5939   20.5902 H   0  0  0  0  0  0
  -26.8187  -30.8933   21.9800 H   0  0  0  0  0  0
  -28.1062  -29.1057   21.1711 H   0  0  0  0  0  0
  -26.0845  -25.9644   19.0234 H   0  0  0  0  0  0
  -23.9871  -27.2827   19.0436 H   0  0  0  0  0  0
  -23.7216  -30.5883   19.4026 H   0  0  0  0  0  0
  -22.7388  -29.2339   19.8701 H   0  0  0  0  0  0
  -25.1276  -36.1990   25.0838 H   0  0  0  0  0  0
  -20.9932  -28.3199   24.1445 H   0  0  0  0  0  0
  -20.5627  -26.2252   23.3600 H   0  0  0  0  0  0
  -21.6617  -26.7408   22.1209 H   0  0  0  0  0  0
  -19.6883  -25.6291   21.1219 H   0  0  0  0  0  0
  -19.6685  -27.3200   20.6750 H   0  0  0  0  0  0
  -17.4176  -26.6699   21.4012 H   0  0  0  0  0  0
  -18.0295  -26.0049   22.8992 H   0  0  0  0  0  0
  -19.7925  -30.7259   24.2279 H   0  0  0  0  0  0
  -17.5000  -31.6267   24.5150 H   0  0  0  0  0  0
  -15.5338  -30.2978   23.7660 H   0  0  0  0  0  0
  -15.8656  -28.0818   22.7055 H   0  0  0  0  0  0
  -24.5880  -30.7102   25.7819 H   0  0  0  0  0  0
  -24.8985  -32.2863   26.5002 H   0  0  0  0  0  0
  -25.8095  -30.8812   27.0206 H   0  0  0  0  0  0
  -26.2814  -29.6796   24.1162 H   0  0  0  0  0  0
  -27.4079  -29.7281   25.4547 H   0  0  0  0  0  0
  -27.8646  -30.4358   23.9210 H   0  0  0  0  0  0
  -27.2713  -33.3639   26.2021 H   0  0  0  0  0  0
  -28.3892  -32.6800   25.0307 H   0  0  0  0  0  0
  -28.0679  -31.8427   26.5421 H   0  0  0  0  0  0
  -28.2585  -38.0123   24.7529 H   0  0  0  0  0  0
  -28.1091  -36.2658   24.6258 H   0  0  0  0  0  0
  -27.2310  -37.1417   25.8869 H   0  0  0  0  0  0
  -20.9305  -29.8784   21.6999 H   0  0  0  0  0  0
  -26.0179  -38.2875   24.1444 H   0  0  0  0  0  0
  -32.3157  -19.4549   20.6643 H   0  0  0  0  0  0
  -32.1826  -17.0372   20.4203 H   0  0  0  0  0  0
  -29.7138  -23.8127   22.7550 H   0  0  0  0  0  0
  -30.7881  -23.9203   21.3754 H   0  0  0  0  0  0
  -29.6554  -26.2540   21.6155 H   0  0  0  0  0  0
  -27.9504  -26.0886   22.0016 H   0  0  0  0  0  0
  -28.3643  -20.4511   23.3326 H   0  0  0  0  0  0
  -27.5537  -18.9814   23.2714 H   0  0  0  0  0  0
  -29.1824  -15.0970   21.7202 H   0  0  0  0  0  0
  -28.8248  -21.7725   21.1217 H   0  0  0  0  0  0
  -32.5023  -20.9081   22.5519 H   0  0  0  0  0  0
  -32.0306  -22.5614   22.3895 H   0  0  0  0  0  0
  1 25  1  0  0  0
  1 30  2  0  0  0
  1 82  1  0  0  0
  2  3  1  0  0  0
  2 25  1  0  0  0
  2 87  1  0  0  0
  2 88  1  0  0  0
  3  4  1  0  0  0
  3 89  1  0  0  0
  3 90  1  0  0  0
  4  5  1  0  0  0
  4 91  1  0  0  0
  4 92  1  0  0  0
  5  6  1  0  0  0
  5 26  1  0  0  0
  5 93  1  0  0  0
  6 25  1  0  0  0
  6 94  1  0  0  0
  6 95  1  0  0  0
  7  8  2  0  0  0
  7 26  1  0  0  0
  7 29  1  0  0  0
  8  9  1  0  0  0
  8 22  1  0  0  0
  9 10  1  0  0  0
  9 27  2  0  0  0
 10 11  2  0  0  0
 10 15  1  0  0  0
 11 12  1  0  0  0
 11 96  1  0  0  0
 12 13  2  0  0  0
 12 97  1  0  0  0
 13 14  1  0  0  0
 13 31  1  0  0  0
 14 15  2  0  0  0
 14 98  1  0  0  0
 15 99  1  0  0  0
 16 17  2  0  0  0
 16 21  1  0  0  0
 16 31  1  0  0  0
 17 18  1  0  0  0
 17100  1  0  0  0
 18 19  2  0  0  0
 18101  1  0  0  0
 19 20  1  0  0  0
 19 24  1  0  0  0
 20 21  2  0  0  0
 20102  1  0  0  0
 21 23  1  0  0  0
 22 28  1  0  0  0
 22 32  2  0  0  0
 26 27  1  0  0  0
 28103  1  0  0  0
 28104  1  0  0  0
 29105  1  0  0  0
 29106  1  0  0  0
 33 34  1  0  0  0
 33 66  1  0  0  0
 33 70  2  0  0  0
 34 36  1  0  0  0
 34 59  1  0  0  0
 34107  1  0  0  0
 35 44  2  0  0  0
 35 45  1  0  0  0
 35 68  1  0  0  0
 36 56  1  0  0  0
 36108  1  0  0  0
 37 39  1  0  0  0
 37 47  1  0  0  0
 37 66  1  0  0  0
 37109  1  0  0  0
 38 43  2  0  0  0
 38 46  1  0  0  0
 38 47  1  0  0  0
 39 64  1  0  0  0
 39 67  2  0  0  0
 40 52  1  0  0  0
 40 53  2  0  0  0
 40 58  1  0  0  0
 41110  1  0  0  0
 41111  1  0  0  0
 41112  1  0  0  0
 41 48  1  0  0  0
 42 43  1  0  0  0
 42 66  1  0  0  0
 42113  1  0  0  0
 42114  1  0  0  0
 43 44  1  0  0  0
 44115  1  0  0  0
 45 46  2  0  0  0
 45116  1  0  0  0
 46117  1  0  0  0
 47118  1  0  0  0
 47119  1  0  0  0
 48 56  1  0  0  0
 48 65  1  0  0  0
 48120  1  0  0  0
 49 50  1  0  0  0
 49 53  1  0  0  0
 49 64  1  0  0  0
 49121  1  0  0  0
 50 51  1  0  0  0
 50122  1  0  0  0
 50123  1  0  0  0
 51 52  1  0  0  0
 51124  1  0  0  0
 51125  1  0  0  0
 52126  1  0  0  0
 52127  1  0  0  0
 53 54  1  0  0  0
 54 55  2  0  0  0
 54128  1  0  0  0
 55 57  1  0  0  0
 55129  1  0  0  0
 56 69  2  0  0  0
 57 58  2  0  0  0
 57130  1  0  0  0
 58131  1  0  0  0
 59 60  1  0  0  0
 59 61  1  0  0  0
 59 62  1  0  0  0
 60132  1  0  0  0
 60133  1  0  0  0
 60134  1  0  0  0
 61135  1  0  0  0
 61136  1  0  0  0
 61137  1  0  0  0
 62138  1  0  0  0
 62139  1  0  0  0
 62140  1  0  0  0
 63 65  1  0  0  0
 63141  1  0  0  0
 63142  1  0  0  0
 63143  1  0  0  0
 64144  1  0  0  0
 65145  1  0  0  0
 68 80  1  0  0  0
 71 72  2  0  0  0
 71 73  1  0  0  0
 71146  1  0  0  0
 72 74  1  0  0  0
 72147  1  0  0  0
 73 75  2  0  0  0
 73 77  1  0  0  0
 74 76  2  0  0  0
 74 82  1  0  0  0
 75 76  1  0  0  0
 75 81  1  0  0  0
 76 86  1  0  0  0
 77 83  1  0  0  0
 77 84  2  0  0  0
 78 79  1  0  0  0
 78 80  1  0  0  0
 78 85  2  0  0  0
 79 83  1  0  0  0
 79148  1  0  0  0
 79149  1  0  0  0
 80150  1  0  0  0
 80151  1  0  0  0
 81152  1  0  0  0
 81153  1  0  0  0
 82154  1  0  0  0
 83155  1  0  0  0
 84156  1  0  0  0
 84157  1  0  0  0
M  CHG  1  84   1
M  ISO  4   1 100  68 101  80 101  82 100
M  END
> <chiral flag>
0

> <version>
0

> <s_m_source_file>
/data/baiqing/PycharmProjects/Reinvent-master-3.2/result/LINK_invent/BTK/process_docking_weight1_custom_product_contain_oxygen_bond_distance_aromatic_linkinvent_7_9_3/rearranged_h_0163.sdf

> <i_m_source_file_index>
56

> <r_mmod_Potential_Energy-OPLS-2005>
-168.828125

> <r_mmod_Stretch_Energy-OPLS-2005>
42.3317909240723

> <r_mmod_Bend_Energy-OPLS-2005>
108.26244354248

> <r_mmod_Torsional_Energy-OPLS-2005>
238.995498657227

> <r_mmod_Improper_Torsional_Energy-OPLS-2005>
6.78750133514404

> <r_mmod_Van_der_Waal_Energy-OPLS-2005>
154.286117553711

> <r_mmod_Electrostatic_Energy-OPLS-2005>
-288.510467529297

> <r_mmod_Solvation_Energy-OPLS-2005>
-441.686187744141

> <b_mmod_Minimization_Converged-OPLS-2005>
0

> <r_mmod_RMS_Derivative-OPLS-2005>
1.64931070804596

$$$$
56
                    3D
 Structure written by MMmdl.
156164  0  0  1  0            999 V2000
  -30.6250  -14.7620   20.4495 C   0  0  0  0  0  0
  -30.4386  -12.4700   19.4790 C   0  0  0  0  0  0
  -29.5164  -12.5157   18.2406 C   0  0  0  0  0  0
  -28.0439  -12.3366   18.6559 C   0  0  0  0  0  0
  -27.6477  -13.2367   19.8566 C   0  0  2  0  0  0
  -28.6953  -13.1837   20.9923 C   0  0  0  0  0  0
  -25.2529  -13.8206   20.5704 C   0  0  0  0  0  0
  -24.1832  -13.0444   20.9201 C   0  0  0  0  0  0
  -24.6427  -11.6920   20.8743 C   0  0  0  0  0  0
  -23.9093  -10.4296   21.0402 C   0  0  0  0  0  0
  -24.3637   -9.4217   21.9184 C   0  0  0  0  0  0
  -23.6310   -8.2251   22.0758 C   0  0  0  0  0  0
  -22.4289   -8.0287   21.3547 C   0  0  0  0  0  0
  -21.9932   -9.0263   20.4645 C   0  0  0  0  0  0
  -22.7261  -10.2143   20.3059 C   0  0  0  0  0  0
  -21.6850   -6.0736   22.5277 C   0  0  0  0  0  0
  -21.4020   -6.5639   23.8208 C   0  0  0  0  0  0
  -21.3664   -5.6795   24.9165 C   0  0  0  0  0  0
  -21.6036   -4.3057   24.7221 C   0  0  0  0  0  0
  -21.8827   -3.8150   23.4344 C   0  0  0  0  0  0
  -21.9205   -4.6967   22.3399 C   0  0  0  0  0  0
  -22.7843  -13.5226   21.1852 C   0  0  0  0  0  0
  -22.1664   -4.2158   21.0976 F   0  0  0  0  0  0
  -21.5633   -3.4537   25.7732 F   0  0  0  0  0  0
  -29.9952  -13.5367   20.4081 N   0  0  0  0  0  0
  -26.2983  -12.9429   20.3325 N   0  0  0  0  0  0
  -25.9369  -11.6559   20.5766 N   0  0  0  0  0  0
  -22.0495  -12.8209   22.0402 N   0  0  0  0  0  0
  -25.4212  -15.1931   20.4091 N   0  0  0  0  0  0
  -31.8071  -14.8480   20.1085 O   0  0  0  0  0  0
  -21.6649   -6.8891   21.4240 O   0  0  0  0  0  0
  -22.3528  -14.5531   20.6697 O   0  0  0  0  0  0
  -24.6349  -31.8529   23.1970 C   0  0  0  0  0  0
  -25.9156  -32.4740   23.8325 C   0  0  1  0  0  0
  -27.2157  -27.2340   20.1499 C   0  0  0  0  0  0
  -25.5941  -33.8548   24.2252 N   0  0  0  0  0  0
  -23.4344  -30.4745   21.5411 C   0  0  2  0  0  0
  -24.8824  -28.9182   20.1090 C   0  0  0  0  0  0
  -22.7531  -29.4586   22.4911 C   0  0  0  0  0  0
  -18.0306  -28.1389   22.8469 C   0  0  0  0  0  0
  -24.1501  -36.7289   23.2647 C   0  0  0  0  0  0
  -25.9810  -30.7594   21.3808 C   0  0  0  0  0  0
  -26.0533  -29.3776   20.7261 C   0  0  0  0  0  0
  -27.2250  -28.5494   20.7320 C   0  0  0  0  0  0
  -26.0288  -26.8561   19.4843 C   0  0  0  0  0  0
  -24.8783  -27.6684   19.4707 C   0  0  0  0  0  0
  -23.6538  -29.8071   20.1567 C   0  0  0  0  0  0
  -25.4119  -36.3073   24.0336 C   0  0  1  0  0  0
  -20.5915  -28.3694   23.1267 C   0  0  2  0  0  0
  -20.6793  -26.9405   22.5420 C   0  0  0  0  0  0
  -19.5768  -26.6382   21.5218 C   0  0  0  0  0  0
  -18.1939  -26.7929   22.1610 C   0  0  0  0  0  0
  -19.1565  -28.8856   23.2854 C   0  0  0  0  0  0
  -18.9469  -30.1452   23.8870 C   0  0  0  0  0  0
  -17.6467  -30.6577   24.0560 C   0  0  0  0  0  0
  -25.9052  -34.9436   23.5096 C   0  0  0  0  0  0
  -16.5357  -29.9067   23.6336 C   0  0  0  0  0  0
  -16.7291  -28.6501   23.0328 C   0  0  0  0  0  0
  -26.4500  -31.6576   25.0729 C   0  0  0  0  0  0
  -25.3696  -31.3729   26.1432 C   0  0  0  0  0  0
  -27.0336  -30.2995   24.6201 C   0  0  0  0  0  0
  -27.6061  -32.4307   25.7492 C   0  0  0  0  0  0
  -27.5580  -37.1797   24.8467 C   0  0  0  0  0  0
  -21.4238  -29.3030   22.3648 N   0  0  0  0  0  0
  -26.4297  -37.3771   23.9415 N   0  0  0  0  0  0
  -24.7023  -31.0472   22.0954 N   0  0  0  0  0  0
  -23.4207  -28.8122   23.3021 O   0  0  0  0  0  0
  -28.2881  -26.3067   20.1975 O   0  0  0  0  0  0
  -26.5639  -34.8908   22.4673 O   0  0  0  0  0  0
  -23.5489  -32.1359   23.7252 O   0  0  0  0  0  0
  -28.9285  -18.8988   21.9552 C   0  0  0  0  0  0
  -29.5848  -18.6651   20.7644 C   0  0  0  0  0  0
  -28.9628  -20.8518   20.9099 C   0  0  0  0  0  0
  -28.6276  -18.0129   23.0718 C   0  0  0  0  0  0
  -29.7921  -17.3805   23.8215 C   0  0  0  0  0  0
  -28.0744  -24.9736   22.2165 C   0  0  0  0  0  0
  -30.2483  -17.3351   20.1959 C   0  0  0  0  0  0
  -28.8868  -23.5979   20.1881 C   0  0  0  0  0  0
  -28.0168  -24.8939   20.6814 C   0  0  2  0  0  0
  -29.6156  -19.9574   20.1180 N   0  0  0  0  0  0
  -28.6411  -22.2642   20.8803 N   0  0  0  0  0  0
  -29.8725  -15.9146   20.6386 N   0  0  0  0  0  0
  -27.4741  -17.8398   23.4712 O   0  0  0  0  0  0
  -28.5175  -20.2268   22.0312 O   0  0  0  0  0  0
  -31.4783  -12.5945   19.1708 H   0  0  0  0  0  0
  -30.3892  -11.4963   19.9667 H   0  0  0  0  0  0
  -29.8013  -11.7436   17.5248 H   0  0  0  0  0  0
  -29.6404  -13.4692   17.7254 H   0  0  0  0  0  0
  -27.9003  -11.2876   18.9151 H   0  0  0  0  0  0
  -27.3884  -12.5346   17.8072 H   0  0  0  0  0  0
  -27.6374  -14.2573   19.4736 H   0  0  0  0  0  0
  -28.7368  -12.1897   21.4396 H   0  0  0  0  0  0
  -28.4322  -13.8727   21.7973 H   0  0  0  0  0  0
  -25.2788   -9.5684   22.4743 H   0  0  0  0  0  0
  -24.0013   -7.4650   22.7486 H   0  0  0  0  0  0
  -21.0860   -8.8784   19.8948 H   0  0  0  0  0  0
  -22.3727  -10.9676   19.6162 H   0  0  0  0  0  0
  -21.2001   -7.6146   23.9711 H   0  0  0  0  0  0
  -21.1473   -6.0519   25.9071 H   0  0  0  0  0  0
  -22.0605   -2.7615   23.2838 H   0  0  0  0  0  0
  -22.4130  -11.9868   22.4768 H   0  0  0  0  0  0
  -21.1124  -13.1219   22.2618 H   0  0  0  0  0  0
  -24.6459  -15.8406   20.5047 H   0  0  0  0  0  0
  -26.2550  -15.6295   20.0376 H   0  0  0  0  0  0
  -26.7214  -32.5382   23.1059 H   0  0  0  0  0  0
  -25.0064  -33.9664   25.0380 H   0  0  0  0  0  0
  -22.7340  -31.2982   21.3933 H   0  0  0  0  0  0
  -23.3760  -35.9625   23.3303 H   0  0  0  0  0  0
  -24.3597  -36.8916   22.2065 H   0  0  0  0  0  0
  -23.7251  -37.6483   23.6661 H   0  0  0  0  0  0
  -26.1192  -31.5150   20.6056 H   0  0  0  0  0  0
  -26.8604  -30.8147   22.0108 H   0  0  0  0  0  0
  -28.1215  -28.8930   21.2292 H   0  0  0  0  0  0
  -25.9741  -25.9044   18.9761 H   0  0  0  0  0  0
  -23.9882  -27.3181   18.9660 H   0  0  0  0  0  0
  -23.7780  -30.5844   19.4033 H   0  0  0  0  0  0
  -22.7715  -29.2419   19.8516 H   0  0  0  0  0  0
  -25.1296  -36.1938   25.0829 H   0  0  0  0  0  0
  -20.9980  -28.3278   24.1396 H   0  0  0  0  0  0
  -20.5733  -26.2279   23.3622 H   0  0  0  0  0  0
  -21.6651  -26.7453   22.1181 H   0  0  0  0  0  0
  -19.6945  -25.6296   21.1232 H   0  0  0  0  0  0
  -19.6724  -27.3201   20.6753 H   0  0  0  0  0  0
  -17.4224  -26.6685   21.3995 H   0  0  0  0  0  0
  -18.0308  -26.0080   22.9008 H   0  0  0  0  0  0
  -19.7948  -30.7273   24.2225 H   0  0  0  0  0  0
  -17.5019  -31.6256   24.5157 H   0  0  0  0  0  0
  -15.5349  -30.2949   23.7688 H   0  0  0  0  0  0
  -15.8687  -28.0823   22.7028 H   0  0  0  0  0  0
  -24.5976  -30.6941   25.7791 H   0  0  0  0  0  0
  -24.8736  -32.2864   26.4702 H   0  0  0  0  0  0
  -25.8010  -30.9067   27.0306 H   0  0  0  0  0  0
  -26.2905  -29.6750   24.1222 H   0  0  0  0  0  0
  -27.4023  -29.7253   25.4711 H   0  0  0  0  0  0
  -27.8785  -30.4275   23.9437 H   0  0  0  0  0  0
  -27.2722  -33.3702   26.1906 H   0  0  0  0  0  0
  -28.3939  -32.6698   25.0339 H   0  0  0  0  0  0
  -28.0618  -31.8506   26.5520 H   0  0  0  0  0  0
  -28.2583  -38.0107   24.7510 H   0  0  0  0  0  0
  -28.1083  -36.2631   24.6285 H   0  0  0  0  0  0
  -27.2293  -37.1434   25.8869 H   0  0  0  0  0  0
  -20.9444  -29.8749   21.6835 H   0  0  0  0  0  0
  -26.0185  -38.2852   24.1404 H   0  0  0  0  0  0
  -30.4355  -18.1621   24.2269 H   0  0  0  0  0  0
  -30.3857  -16.7507   23.1618 H   0  0  0  0  0  0
  -29.4348  -16.7708   24.6501 H   0  0  0  0  0  0
  -27.6161  -24.0972   22.6761 H   0  0  0  0  0  0
  -27.5420  -25.8435   22.6004 H   0  0  0  0  0  0
  -29.1048  -25.0318   22.5701 H   0  0  0  0  0  0
  -31.3290  -17.4302   20.3119 H   0  0  0  0  0  0
  -30.1028  -17.3338   19.1144 H   0  0  0  0  0  0
  -29.9457  -23.8315   20.3090 H   0  0  0  0  0  0
  -28.7341  -23.4586   19.1181 H   0  0  0  0  0  0
  -26.9853  -24.6431   20.4349 H   0  0  0  0  0  0
  -28.0812  -22.4454   21.7058 H   0  0  0  0  0  0
  -28.9090  -15.7704   20.8959 H   0  0  0  0  0  0
  1 25  1  0  0  0
  1 30  2  0  0  0
  1 82  1  0  0  0
  2  3  1  0  0  0
  2 25  1  0  0  0
  2 85  1  0  0  0
  2 86  1  0  0  0
  3  4  1  0  0  0
  3 87  1  0  0  0
  3 88  1  0  0  0
  4  5  1  0  0  0
  4 89  1  0  0  0
  4 90  1  0  0  0
  5  6  1  0  0  0
  5 26  1  0  0  0
  5 91  1  0  0  0
  6 25  1  0  0  0
  6 92  1  0  0  0
  6 93  1  0  0  0
  7  8  2  0  0  0
  7 26  1  0  0  0
  7 29  1  0  0  0
  8  9  1  0  0  0
  8 22  1  0  0  0
  9 10  1  0  0  0
  9 27  2  0  0  0
 10 11  2  0  0  0
 10 15  1  0  0  0
 11 12  1  0  0  0
 11 94  1  0  0  0
 12 13  2  0  0  0
 12 95  1  0  0  0
 13 14  1  0  0  0
 13 31  1  0  0  0
 14 15  2  0  0  0
 14 96  1  0  0  0
 15 97  1  0  0  0
 16 17  2  0  0  0
 16 21  1  0  0  0
 16 31  1  0  0  0
 17 18  1  0  0  0
 17 98  1  0  0  0
 18 19  2  0  0  0
 18 99  1  0  0  0
 19 20  1  0  0  0
 19 24  1  0  0  0
 20 21  2  0  0  0
 20100  1  0  0  0
 21 23  1  0  0  0
 22 28  1  0  0  0
 22 32  2  0  0  0
 26 27  1  0  0  0
 28101  1  0  0  0
 28102  1  0  0  0
 29103  1  0  0  0
 29104  1  0  0  0
 33 34  1  0  0  0
 33 66  1  0  0  0
 33 70  2  0  0  0
 34 36  1  0  0  0
 34 59  1  0  0  0
 34105  1  0  0  0
 35 44  2  0  0  0
 35 45  1  0  0  0
 35 68  1  0  0  0
 36 56  1  0  0  0
 36106  1  0  0  0
 37 39  1  0  0  0
 37 47  1  0  0  0
 37 66  1  0  0  0
 37107  1  0  0  0
 38 43  2  0  0  0
 38 46  1  0  0  0
 38 47  1  0  0  0
 39 64  1  0  0  0
 39 67  2  0  0  0
 40 52  1  0  0  0
 40 53  2  0  0  0
 40 58  1  0  0  0
 41108  1  0  0  0
 41109  1  0  0  0
 41110  1  0  0  0
 41 48  1  0  0  0
 42 43  1  0  0  0
 42 66  1  0  0  0
 42111  1  0  0  0
 42112  1  0  0  0
 43 44  1  0  0  0
 44113  1  0  0  0
 45 46  2  0  0  0
 45114  1  0  0  0
 46115  1  0  0  0
 47116  1  0  0  0
 47117  1  0  0  0
 48 56  1  0  0  0
 48 65  1  0  0  0
 48118  1  0  0  0
 49 50  1  0  0  0
 49 53  1  0  0  0
 49 64  1  0  0  0
 49119  1  0  0  0
 50 51  1  0  0  0
 50120  1  0  0  0
 50121  1  0  0  0
 51 52  1  0  0  0
 51122  1  0  0  0
 51123  1  0  0  0
 52124  1  0  0  0
 52125  1  0  0  0
 53 54  1  0  0  0
 54 55  2  0  0  0
 54126  1  0  0  0
 55 57  1  0  0  0
 55127  1  0  0  0
 56 69  2  0  0  0
 57 58  2  0  0  0
 57128  1  0  0  0
 58129  1  0  0  0
 59 60  1  0  0  0
 59 61  1  0  0  0
 59 62  1  0  0  0
 60130  1  0  0  0
 60131  1  0  0  0
 60132  1  0  0  0
 61133  1  0  0  0
 61134  1  0  0  0
 61135  1  0  0  0
 62136  1  0  0  0
 62137  1  0  0  0
 62138  1  0  0  0
 63 65  1  0  0  0
 63139  1  0  0  0
 63140  1  0  0  0
 63141  1  0  0  0
 64142  1  0  0  0
 65143  1  0  0  0
 68 79  1  0  0  0
 71 72  2  0  0  0
 71 74  1  0  0  0
 71 84  1  0  0  0
 72 77  1  0  0  0
 72 80  1  0  0  0
 73 80  2  0  0  0
 73 81  1  0  0  0
 73 84  1  0  0  0
 74 75  1  0  0  0
 74 83  2  0  0  0
 75144  1  0  0  0
 75145  1  0  0  0
 75146  1  0  0  0
 76147  1  0  0  0
 76148  1  0  0  0
 76149  1  0  0  0
 76 79  1  0  0  0
 77 82  1  0  0  0
 77150  1  0  0  0
 77151  1  0  0  0
 78 79  1  0  0  0
 78 81  1  0  0  0
 78152  1  0  0  0
 78153  1  0  0  0
 79154  1  0  0  0
 81155  1  0  0  0
 82156  1  0  0  0
M  ISO  4   1 100  68 101  79 101  82 100
M  END
> <chiral flag>
0

> <version>
0

> <s_m_source_file>
/data/baiqing/PycharmProjects/Reinvent-master-3.2/result/LINK_invent/BTK/process_docking_weight1_custom_product_contain_oxygen_bond_distance_aromatic_linkinvent_7_9_3/rearranged_h_0163.sdf

> <i_m_source_file_index>
57

> <r_mmod_Potential_Energy-OPLS-2005>
-68.4945373535156

> <r_mmod_Stretch_Energy-OPLS-2005>
125.414772033691

> <r_mmod_Bend_Energy-OPLS-2005>
184.913009643555

> <r_mmod_Torsional_Energy-OPLS-2005>
249.557067871094

> <r_mmod_Improper_Torsional_Energy-OPLS-2005>
6.86844444274902

> <r_mmod_Van_der_Waal_Energy-OPLS-2005>
109.664337158203

> <r_mmod_Electrostatic_Energy-OPLS-2005>
-607.09375

> <r_mmod_Solvation_Energy-OPLS-2005>
-236.621124267578

> <b_mmod_Minimization_Converged-OPLS-2005>
0

> <r_mmod_RMS_Derivative-OPLS-2005>
2.71463990211487

$$$$
57
                    3D
 Structure written by MMmdl.
162170  0  0  1  0            999 V2000
  -30.7424  -14.5001   20.5517 C   0  0  0  0  0  0
  -30.4101  -12.3206   19.4449 C   0  0  0  0  0  0
  -29.4909  -12.4962   18.2189 C   0  0  0  0  0  0
  -28.0157  -12.3585   18.6342 C   0  0  0  0  0  0
  -27.6562  -13.2223   19.8734 C   0  0  2  0  0  0
  -28.7021  -13.0594   21.0017 C   0  0  0  0  0  0
  -25.2521  -13.8169   20.5666 C   0  0  0  0  0  0
  -24.1813  -13.0426   20.9192 C   0  0  0  0  0  0
  -24.6410  -11.6911   20.8766 C   0  0  0  0  0  0
  -23.9079  -10.4291   21.0421 C   0  0  0  0  0  0
  -24.3626   -9.4202   21.9196 C   0  0  0  0  0  0
  -23.6300   -8.2236   22.0763 C   0  0  0  0  0  0
  -22.4285   -8.0274   21.3544 C   0  0  0  0  0  0
  -21.9919   -9.0256   20.4651 C   0  0  0  0  0  0
  -22.7253  -10.2134   20.3068 C   0  0  0  0  0  0
  -21.6843   -6.0735   22.5278 C   0  0  0  0  0  0
  -21.4005   -6.5644   23.8207 C   0  0  0  0  0  0
  -21.3661   -5.6800   24.9173 C   0  0  0  0  0  0
  -21.6048   -4.3063   24.7222 C   0  0  0  0  0  0
  -21.8818   -3.8153   23.4344 C   0  0  0  0  0  0
  -21.9190   -4.6966   22.3403 C   0  0  0  0  0  0
  -22.7827  -13.5216   21.1852 C   0  0  0  0  0  0
  -22.1662   -4.2155   21.0972 F   0  0  0  0  0  0
  -21.5636   -3.4543   25.7736 F   0  0  0  0  0  0
  -30.0319  -13.3407   20.4399 N   0  0  0  0  0  0
  -26.3012  -12.9404   20.3405 N   0  0  0  0  0  0
  -25.9351  -11.6540   20.5829 N   0  0  0  0  0  0
  -22.0481  -12.8207   22.0416 N   0  0  0  0  0  0
  -25.4043  -15.1871   20.3999 N   0  0  0  0  0  0
  -31.8702  -14.6043   20.0672 O   0  0  0  0  0  0
  -21.6634   -6.8878   21.4244 O   0  0  0  0  0  0
  -22.3493  -14.5521   20.6703 O   0  0  0  0  0  0
  -24.6172  -31.8636   23.2062 C   0  0  0  0  0  0
  -25.9055  -32.4805   23.8360 C   0  0  1  0  0  0
  -27.2334  -27.4087   20.1085 C   0  0  0  0  0  0
  -25.5897  -33.8604   24.2301 N   0  0  0  0  0  0
  -23.4064  -30.4854   21.5475 C   0  0  2  0  0  0
  -24.8529  -28.9431   20.1162 C   0  0  0  0  0  0
  -22.7413  -29.4639   22.4989 C   0  0  0  0  0  0
  -18.0256  -28.1367   22.8478 C   0  0  0  0  0  0
  -24.1487  -36.7304   23.2647 C   0  0  0  0  0  0
  -25.9361  -30.8240   21.3586 C   0  0  0  0  0  0
  -26.0139  -29.4551   20.7091 C   0  0  0  0  0  0
  -27.2099  -28.6985   20.6947 C   0  0  0  0  0  0
  -26.0550  -26.9134   19.5105 C   0  0  0  0  0  0
  -24.8682  -27.6728   19.5125 C   0  0  0  0  0  0
  -23.6154  -29.8144   20.1626 C   0  0  0  0  0  0
  -25.4108  -36.3096   24.0346 C   0  0  1  0  0  0
  -20.5856  -28.3648   23.1310 C   0  0  2  0  0  0
  -20.6746  -26.9386   22.5410 C   0  0  0  0  0  0
  -19.5732  -26.6374   21.5193 C   0  0  0  0  0  0
  -18.1903  -26.7906   22.1609 C   0  0  0  0  0  0
  -19.1512  -28.8822   23.2879 C   0  0  0  0  0  0
  -18.9453  -30.1422   23.8904 C   0  0  0  0  0  0
  -17.6463  -30.6575   24.0559 C   0  0  0  0  0  0
  -25.9043  -34.9467   23.5125 C   0  0  0  0  0  0
  -16.5343  -29.9081   23.6341 C   0  0  0  0  0  0
  -16.7248  -28.6498   23.0359 C   0  0  0  0  0  0
  -26.4472  -31.6586   25.0697 C   0  0  0  0  0  0
  -25.3750  -31.3700   26.1463 C   0  0  0  0  0  0
  -27.0302  -30.3040   24.6062 C   0  0  0  0  0  0
  -27.6043  -32.4304   25.7470 C   0  0  0  0  0  0
  -27.5577  -37.1791   24.8468 C   0  0  0  0  0  0
  -21.4140  -29.3011   22.3726 N   0  0  0  0  0  0
  -26.4285  -37.3788   23.9425 N   0  0  0  0  0  0
  -24.6722  -31.0727   22.0964 N   0  0  0  0  0  0
  -23.4176  -28.8180   23.3043 O   0  0  0  0  0  0
  -28.3875  -26.6514   20.1010 O   0  0  0  0  0  0
  -26.5609  -34.8928   22.4688 O   0  0  0  0  0  0
  -23.5365  -32.1377   23.7464 O   0  0  0  0  0  0
  -32.3652  -18.6040   21.0727 C   0  0  0  0  0  0
  -31.4584  -19.6569   20.8915 C   0  0  0  0  0  0
  -31.9110  -17.2817   21.1656 C   0  0  0  0  0  0
  -29.6004  -18.0604   20.9700 C   0  0  0  0  0  0
  -30.0625  -19.4238   20.8538 C   0  0  0  0  0  0
  -30.5343  -16.9662   21.0618 C   0  0  0  0  0  0
  -28.1429  -17.7641   20.9814 C   0  0  0  0  0  0
  -27.4228  -18.0186   22.2903 C   0  0  0  0  0  0
  -28.3533  -24.1467   19.8888 C   0  0  0  0  0  0
  -29.2932  -21.8723   20.7816 C   0  0  0  0  0  0
  -28.2452  -18.5227   23.4650 C   0  0  0  0  0  0
  -28.0502  -22.7587   20.5154 C   0  0  0  0  0  0
  -28.3144  -25.3905   20.8116 C   0  0  0  0  0  0
  -27.5295  -17.3183   19.9644 N   0  0  0  0  0  0
  -26.1807  -17.8121   22.4117 N   0  0  0  0  0  0
  -29.1319  -20.5247   20.6556 N   0  0  0  0  0  0
  -30.1052  -15.5736   21.0867 N   0  0  0  0  0  0
  -28.5572  -24.2627   18.6738 O   0  0  0  0  0  0
  -30.3435  -22.4024   21.1529 O   0  0  0  0  0  0
  -31.4579  -12.3838   19.1444 H   0  0  0  0  0  0
  -30.2913  -11.3240   19.8733 H   0  0  0  0  0  0
  -29.7347  -11.7545   17.4572 H   0  0  0  0  0  0
  -29.6559  -13.4724   17.7602 H   0  0  0  0  0  0
  -27.8363  -11.3054   18.8533 H   0  0  0  0  0  0
  -27.3629  -12.6089   17.7980 H   0  0  0  0  0  0
  -27.6827  -14.2618   19.5482 H   0  0  0  0  0  0
  -28.6810  -12.0430   21.3973 H   0  0  0  0  0  0
  -28.4650  -13.7073   21.8464 H   0  0  0  0  0  0
  -25.2762   -9.5672   22.4777 H   0  0  0  0  0  0
  -24.0000   -7.4619   22.7475 H   0  0  0  0  0  0
  -21.0844   -8.8783   19.8941 H   0  0  0  0  0  0
  -22.3716  -10.9685   19.6182 H   0  0  0  0  0  0
  -21.1990   -7.6145   23.9716 H   0  0  0  0  0  0
  -21.1489   -6.0522   25.9071 H   0  0  0  0  0  0
  -22.0596   -2.7616   23.2839 H   0  0  0  0  0  0
  -22.4090  -11.9860   22.4799 H   0  0  0  0  0  0
  -21.1113  -13.1240   22.2659 H   0  0  0  0  0  0
  -24.6115  -15.8126   20.4805 H   0  0  0  0  0  0
  -26.2502  -15.6722   20.1069 H   0  0  0  0  0  0
  -26.7131  -32.5499   23.1130 H   0  0  0  0  0  0
  -25.0063  -33.9749   25.0453 H   0  0  0  0  0  0
  -22.6980  -31.3032   21.4042 H   0  0  0  0  0  0
  -23.3746  -35.9638   23.3310 H   0  0  0  0  0  0
  -24.3589  -36.8914   22.2062 H   0  0  0  0  0  0
  -23.7223  -37.6507   23.6654 H   0  0  0  0  0  0
  -26.0458  -31.5865   20.5857 H   0  0  0  0  0  0
  -26.8258  -30.8808   21.9738 H   0  0  0  0  0  0
  -28.1086  -29.0910   21.1493 H   0  0  0  0  0  0
  -26.0536  -25.9415   19.0380 H   0  0  0  0  0  0
  -23.9774  -27.2721   19.0487 H   0  0  0  0  0  0
  -23.7238  -30.5871   19.4001 H   0  0  0  0  0  0
  -22.7390  -29.2341   19.8695 H   0  0  0  0  0  0
  -25.1265  -36.1971   25.0840 H   0  0  0  0  0  0
  -20.9913  -28.3209   24.1445 H   0  0  0  0  0  0
  -20.5634  -26.2261   23.3595 H   0  0  0  0  0  0
  -21.6613  -26.7409   22.1211 H   0  0  0  0  0  0
  -19.6918  -25.6290   21.1211 H   0  0  0  0  0  0
  -19.6701  -27.3195   20.6740 H   0  0  0  0  0  0
  -17.4173  -26.6644   21.4012 H   0  0  0  0  0  0
  -18.0306  -26.0042   22.9007 H   0  0  0  0  0  0
  -19.7951  -30.7190   24.2293 H   0  0  0  0  0  0
  -17.5049  -31.6275   24.5125 H   0  0  0  0  0  0
  -15.5365  -30.2995   23.7668 H   0  0  0  0  0  0
  -15.8642  -28.0824   22.7095 H   0  0  0  0  0  0
  -24.5919  -30.7052   25.7812 H   0  0  0  0  0  0
  -24.8965  -32.2863   26.4925 H   0  0  0  0  0  0
  -25.8120  -30.8865   27.0211 H   0  0  0  0  0  0
  -26.2828  -29.6800   24.1162 H   0  0  0  0  0  0
  -27.4134  -29.7283   25.4496 H   0  0  0  0  0  0
  -27.8632  -30.4370   23.9158 H   0  0  0  0  0  0
  -27.2642  -33.3594   26.2050 H   0  0  0  0  0  0
  -28.3844  -32.6866   25.0291 H   0  0  0  0  0  0
  -28.0705  -31.8424   26.5383 H   0  0  0  0  0  0
  -28.2566  -38.0108   24.7520 H   0  0  0  0  0  0
  -28.1077  -36.2637   24.6259 H   0  0  0  0  0  0
  -27.2301  -37.1400   25.8869 H   0  0  0  0  0  0
  -20.9301  -29.8775   21.6981 H   0  0  0  0  0  0
  -26.0184  -38.2860   24.1456 H   0  0  0  0  0  0
  -33.4254  -18.8127   21.1234 H   0  0  0  0  0  0
  -31.8773  -20.6451   20.7839 H   0  0  0  0  0  0
  -32.6546  -16.5113   21.3060 H   0  0  0  0  0  0
  -29.1406  -17.9168   23.6049 H   0  0  0  0  0  0
  -27.6696  -18.4658   24.3888 H   0  0  0  0  0  0
  -28.5391  -19.5612   23.3150 H   0  0  0  0  0  0
  -27.3554  -22.2307   19.8626 H   0  0  0  0  0  0
  -27.5341  -22.9095   21.4636 H   0  0  0  0  0  0
  -29.1711  -25.3315   21.4835 H   0  0  0  0  0  0
  -27.4227  -25.3495   21.4401 H   0  0  0  0  0  0
  -28.1568  -17.2164   19.1746 H   0  0  0  0  0  0
  -25.8325  -17.4537   21.5264 H   0  0  0  0  0  0
  -28.1955  -20.2525   20.3894 H   0  0  0  0  0  0
  -29.1514  -15.3905   21.3587 H   0  0  0  0  0  0
  1 25  1  0  0  0
  1 30  2  0  0  0
  1 87  1  0  0  0
  2  3  1  0  0  0
  2 25  1  0  0  0
  2 90  1  0  0  0
  2 91  1  0  0  0
  3  4  1  0  0  0
  3 92  1  0  0  0
  3 93  1  0  0  0
  4  5  1  0  0  0
  4 94  1  0  0  0
  4 95  1  0  0  0
  5  6  1  0  0  0
  5 26  1  0  0  0
  5 96  1  0  0  0
  6 25  1  0  0  0
  6 97  1  0  0  0
  6 98  1  0  0  0
  7  8  2  0  0  0
  7 26  1  0  0  0
  7 29  1  0  0  0
  8  9  1  0  0  0
  8 22  1  0  0  0
  9 10  1  0  0  0
  9 27  2  0  0  0
 10 11  2  0  0  0
 10 15  1  0  0  0
 11 12  1  0  0  0
 11 99  1  0  0  0
 12 13  2  0  0  0
 12100  1  0  0  0
 13 14  1  0  0  0
 13 31  1  0  0  0
 14 15  2  0  0  0
 14101  1  0  0  0
 15102  1  0  0  0
 16 17  2  0  0  0
 16 21  1  0  0  0
 16 31  1  0  0  0
 17 18  1  0  0  0
 17103  1  0  0  0
 18 19  2  0  0  0
 18104  1  0  0  0
 19 20  1  0  0  0
 19 24  1  0  0  0
 20 21  2  0  0  0
 20105  1  0  0  0
 21 23  1  0  0  0
 22 28  1  0  0  0
 22 32  2  0  0  0
 26 27  1  0  0  0
 28106  1  0  0  0
 28107  1  0  0  0
 29108  1  0  0  0
 29109  1  0  0  0
 33 34  1  0  0  0
 33 66  1  0  0  0
 33 70  2  0  0  0
 34 36  1  0  0  0
 34 59  1  0  0  0
 34110  1  0  0  0
 35 44  2  0  0  0
 35 45  1  0  0  0
 35 68  1  0  0  0
 36 56  1  0  0  0
 36111  1  0  0  0
 37 39  1  0  0  0
 37 47  1  0  0  0
 37 66  1  0  0  0
 37112  1  0  0  0
 38 43  2  0  0  0
 38 46  1  0  0  0
 38 47  1  0  0  0
 39 64  1  0  0  0
 39 67  2  0  0  0
 40 52  1  0  0  0
 40 53  2  0  0  0
 40 58  1  0  0  0
 41113  1  0  0  0
 41114  1  0  0  0
 41115  1  0  0  0
 41 48  1  0  0  0
 42 43  1  0  0  0
 42 66  1  0  0  0
 42116  1  0  0  0
 42117  1  0  0  0
 43 44  1  0  0  0
 44118  1  0  0  0
 45 46  2  0  0  0
 45119  1  0  0  0
 46120  1  0  0  0
 47121  1  0  0  0
 47122  1  0  0  0
 48 56  1  0  0  0
 48 65  1  0  0  0
 48123  1  0  0  0
 49 50  1  0  0  0
 49 53  1  0  0  0
 49 64  1  0  0  0
 49124  1  0  0  0
 50 51  1  0  0  0
 50125  1  0  0  0
 50126  1  0  0  0
 51 52  1  0  0  0
 51127  1  0  0  0
 51128  1  0  0  0
 52129  1  0  0  0
 52130  1  0  0  0
 53 54  1  0  0  0
 54 55  2  0  0  0
 54131  1  0  0  0
 55 57  1  0  0  0
 55132  1  0  0  0
 56 69  2  0  0  0
 57 58  2  0  0  0
 57133  1  0  0  0
 58134  1  0  0  0
 59 60  1  0  0  0
 59 61  1  0  0  0
 59 62  1  0  0  0
 60135  1  0  0  0
 60136  1  0  0  0
 60137  1  0  0  0
 61138  1  0  0  0
 61139  1  0  0  0
 61140  1  0  0  0
 62141  1  0  0  0
 62142  1  0  0  0
 62143  1  0  0  0
 63 65  1  0  0  0
 63144  1  0  0  0
 63145  1  0  0  0
 63146  1  0  0  0
 64147  1  0  0  0
 65148  1  0  0  0
 68 83  1  0  0  0
 71 72  2  0  0  0
 71 73  1  0  0  0
 71149  1  0  0  0
 72 75  1  0  0  0
 72150  1  0  0  0
 73 76  2  0  0  0
 73151  1  0  0  0
 74 75  2  0  0  0
 74 76  1  0  0  0
 74 77  1  0  0  0
 75 86  1  0  0  0
 76 87  1  0  0  0
 77 78  1  0  0  0
 77 84  2  0  0  0
 78 81  1  0  0  0
 78 85  2  0  0  0
 79 82  1  0  0  0
 79 83  1  0  0  0
 79 88  2  0  0  0
 80 82  1  0  0  0
 80 86  1  0  0  0
 80 89  2  0  0  0
 81152  1  0  0  0
 81153  1  0  0  0
 81154  1  0  0  0
 82155  1  0  0  0
 82156  1  0  0  0
 83157  1  0  0  0
 83158  1  0  0  0
 84159  1  0  0  0
 85160  1  0  0  0
 86161  1  0  0  0
 87162  1  0  0  0
M  ISO  4   1 100  68 101  83 101  87 100
M  END
> <chiral flag>
0

> <version>
0

> <s_m_source_file>
/data/baiqing/PycharmProjects/Reinvent-master-3.2/result/LINK_invent/BTK/process_docking_weight1_custom_product_contain_oxygen_bond_distance_aromatic_linkinvent_7_9_3/rearranged_h_0163.sdf

> <i_m_source_file_index>
58

> <r_mmod_Potential_Energy-OPLS-2005>
41.6934928894043

> <r_mmod_Stretch_Energy-OPLS-2005>
58.1643333435059

> <r_mmod_Bend_Energy-OPLS-2005>
114.270332336426

> <r_mmod_Torsional_Energy-OPLS-2005>
290.403778076172

> <r_mmod_Improper_Torsional_Energy-OPLS-2005>
4.2325644493103

> <r_mmod_Van_der_Waal_Energy-OPLS-2005>
160.537673950195

> <r_mmod_Electrostatic_Energy-OPLS-2005>
-351.440246582031

> <r_mmod_Solvation_Energy-OPLS-2005>
-252.929183959961

> <b_mmod_Minimization_Converged-OPLS-2005>
0

> <r_mmod_RMS_Derivative-OPLS-2005>
2.39230298995972

$$$$
58
                    3D
 Structure written by MMmdl.
152160  0  0  1  0            999 V2000
  -30.6762  -14.6034   20.4527 C   0  0  0  0  0  0
  -30.4152  -12.3609   19.4597 C   0  0  0  0  0  0
  -29.4999  -12.4871   18.2241 C   0  0  0  0  0  0
  -28.0220  -12.3412   18.6344 C   0  0  0  0  0  0
  -27.6459  -13.2262   19.8542 C   0  0  2  0  0  0
  -28.6901  -13.1192   20.9875 C   0  0  0  0  0  0
  -25.2522  -13.8201   20.5691 C   0  0  0  0  0  0
  -24.1806  -13.0449   20.9204 C   0  0  0  0  0  0
  -24.6394  -11.6927   20.8753 C   0  0  0  0  0  0
  -23.9072  -10.4302   21.0414 C   0  0  0  0  0  0
  -24.3623   -9.4215   21.9189 C   0  0  0  0  0  0
  -23.6300   -8.2250   22.0755 C   0  0  0  0  0  0
  -22.4280   -8.0289   21.3546 C   0  0  0  0  0  0
  -21.9920   -9.0262   20.4644 C   0  0  0  0  0  0
  -22.7248  -10.2142   20.3058 C   0  0  0  0  0  0
  -21.6854   -6.0744   22.5284 C   0  0  0  0  0  0
  -21.4012   -6.5644   23.8220 C   0  0  0  0  0  0
  -21.3659   -5.6794   24.9179 C   0  0  0  0  0  0
  -21.6044   -4.3059   24.7228 C   0  0  0  0  0  0
  -21.8818   -3.8152   23.4348 C   0  0  0  0  0  0
  -21.9193   -4.6971   22.3406 C   0  0  0  0  0  0
  -22.7827  -13.5230   21.1868 C   0  0  0  0  0  0
  -22.1661   -4.2158   21.0983 F   0  0  0  0  0  0
  -21.5629   -3.4539   25.7738 F   0  0  0  0  0  0
  -30.0061  -13.4134   20.4097 N   0  0  0  0  0  0
  -26.2953  -12.9402   20.3298 N   0  0  0  0  0  0
  -25.9322  -11.6549   20.5763 N   0  0  0  0  0  0
  -22.0469  -12.8215   22.0417 N   0  0  0  0  0  0
  -25.4211  -15.1924   20.4110 N   0  0  0  0  0  0
  -31.8798  -14.6464   20.1932 O   0  0  0  0  0  0
  -21.6643   -6.8889   21.4246 O   0  0  0  0  0  0
  -22.3515  -14.5543   20.6728 O   0  0  0  0  0  0
  -24.6207  -31.8627   23.2063 C   0  0  0  0  0  0
  -25.9079  -32.4793   23.8374 C   0  0  1  0  0  0
  -27.2230  -27.3664   20.1181 C   0  0  0  0  0  0
  -25.5918  -33.8592   24.2309 N   0  0  0  0  0  0
  -23.4128  -30.4858   21.5476 C   0  0  2  0  0  0
  -24.8616  -28.9440   20.1147 C   0  0  0  0  0  0
  -22.7444  -29.4631   22.4960 C   0  0  0  0  0  0
  -18.0277  -28.1366   22.8492 C   0  0  0  0  0  0
  -24.1488  -36.7297   23.2637 C   0  0  0  0  0  0
  -25.9487  -30.8073   21.3723 C   0  0  0  0  0  0
  -26.0260  -29.4359   20.7213 C   0  0  0  0  0  0
  -27.2142  -28.6542   20.7228 C   0  0  0  0  0  0
  -26.0469  -26.9103   19.4947 C   0  0  0  0  0  0
  -24.8699  -27.6827   19.4954 C   0  0  0  0  0  0
  -23.6264  -29.8188   20.1629 C   0  0  0  0  0  0
  -25.4111  -36.3092   24.0333 C   0  0  1  0  0  0
  -20.5874  -28.3664   23.1298 C   0  0  2  0  0  0
  -20.6770  -26.9394   22.5408 C   0  0  0  0  0  0
  -19.5747  -26.6376   21.5208 C   0  0  0  0  0  0
  -18.1924  -26.7913   22.1618 C   0  0  0  0  0  0
  -19.1528  -28.8832   23.2890 C   0  0  0  0  0  0
  -18.9454  -30.1438   23.8900 C   0  0  0  0  0  0
  -17.6456  -30.6579   24.0556 C   0  0  0  0  0  0
  -25.9041  -34.9458   23.5120 C   0  0  0  0  0  0
  -16.5348  -29.9076   23.6324 C   0  0  0  0  0  0
  -16.7264  -28.6487   23.0355 C   0  0  0  0  0  0
  -26.4489  -31.6580   25.0718 C   0  0  0  0  0  0
  -25.3740  -31.3697   26.1454 C   0  0  0  0  0  0
  -27.0334  -30.3015   24.6136 C   0  0  0  0  0  0
  -27.6055  -32.4304   25.7489 C   0  0  0  0  0  0
  -27.5584  -37.1804   24.8465 C   0  0  0  0  0  0
  -21.4162  -29.3032   22.3704 N   0  0  0  0  0  0
  -26.4294  -37.3781   23.9409 N   0  0  0  0  0  0
  -24.6788  -31.0678   22.0994 N   0  0  0  0  0  0
  -23.4187  -28.8171   23.3023 O   0  0  0  0  0  0
  -28.3140  -26.5095   20.0980 O   0  0  0  0  0  0
  -26.5603  -34.8916   22.4680 O   0  0  0  0  0  0
  -23.5384  -32.1407   23.7420 O   0  0  0  0  0  0
  -31.6001  -18.5363   18.5899 C   0  0  0  0  0  0
  -30.9233  -19.6802   19.0351 C   0  0  0  0  0  0
  -31.2700  -17.2693   19.0943 C   0  0  0  0  0  0
  -29.8869  -19.5912   19.9919 C   0  0  0  0  0  0
  -30.2631  -17.0953   20.0786 C   0  0  0  0  0  0
  -29.5521  -18.2801   20.4955 C   0  0  0  0  0  0
  -28.5433  -25.7583   21.2406 C   0  0  0  0  0  0
  -28.7913  -24.4156   21.3875 C   0  0  0  0  0  0
  -28.7909  -23.3451   20.3169 C   0  0  0  0  0  0
  -29.7350  -22.0594   20.4863 C   0  0  0  0  0  0
  -29.1745  -20.8201   20.3260 N   0  0  0  0  0  0
  -29.9385  -15.7529   20.5766 N   0  0  0  0  0  0
  -28.0959  -23.4454   19.2996 O   0  0  0  0  0  0
  -30.9382  -22.2061   20.7348 O   0  0  0  0  0  0
  -29.0444  -23.9711   22.6300 O   0  0  0  0  0  0
  -28.5385  -18.1536   21.3862 F   0  0  0  0  0  0
  -31.4619  -12.4448   19.1612 H   0  0  0  0  0  0
  -30.3140  -11.3764   19.9192 H   0  0  0  0  0  0
  -29.7583  -11.7292   17.4833 H   0  0  0  0  0  0
  -29.6557  -13.4538   17.7422 H   0  0  0  0  0  0
  -27.8517  -11.2908   18.8726 H   0  0  0  0  0  0
  -27.3718  -12.5690   17.7885 H   0  0  0  0  0  0
  -27.6544  -14.2552   19.4945 H   0  0  0  0  0  0
  -28.6870  -12.1194   21.4238 H   0  0  0  0  0  0
  -28.4541  -13.8086   21.7996 H   0  0  0  0  0  0
  -25.2767   -9.5693   22.4767 H   0  0  0  0  0  0
  -24.0012   -7.4640   22.7471 H   0  0  0  0  0  0
  -21.0858   -8.8785   19.8945 H   0  0  0  0  0  0
  -22.3713  -10.9685   19.6170 H   0  0  0  0  0  0
  -21.1999   -7.6150   23.9727 H   0  0  0  0  0  0
  -21.1482   -6.0521   25.9084 H   0  0  0  0  0  0
  -22.0594   -2.7615   23.2847 H   0  0  0  0  0  0
  -22.4083  -11.9874   22.4803 H   0  0  0  0  0  0
  -21.1087  -13.1242   22.2621 H   0  0  0  0  0  0
  -24.6528  -15.8447   20.5255 H   0  0  0  0  0  0
  -26.2707  -15.6376   20.0882 H   0  0  0  0  0  0
  -26.7145  -32.5492   23.1127 H   0  0  0  0  0  0
  -25.0091  -33.9738   25.0471 H   0  0  0  0  0  0
  -22.7047  -31.3049   21.4063 H   0  0  0  0  0  0
  -23.3753  -35.9628   23.3294 H   0  0  0  0  0  0
  -24.3585  -36.8917   22.2053 H   0  0  0  0  0  0
  -23.7235  -37.6496   23.6659 H   0  0  0  0  0  0
  -26.0724  -31.5705   20.6027 H   0  0  0  0  0  0
  -26.8318  -30.8592   21.9971 H   0  0  0  0  0  0
  -28.1121  -29.0255   21.1964 H   0  0  0  0  0  0
  -26.0407  -25.9374   19.0230 H   0  0  0  0  0  0
  -23.9769  -27.2983   19.0219 H   0  0  0  0  0  0
  -23.7396  -30.5942   19.4045 H   0  0  0  0  0  0
  -22.7485  -29.2428   19.8645 H   0  0  0  0  0  0
  -25.1291  -36.1951   25.0826 H   0  0  0  0  0  0
  -20.9961  -28.3226   24.1419 H   0  0  0  0  0  0
  -20.5661  -26.2274   23.3598 H   0  0  0  0  0  0
  -21.6643  -26.7421   22.1214 H   0  0  0  0  0  0
  -19.6907  -25.6286   21.1236 H   0  0  0  0  0  0
  -19.6687  -27.3186   20.6737 H   0  0  0  0  0  0
  -17.4197  -26.6658   21.4016 H   0  0  0  0  0  0
  -18.0319  -26.0045   22.9003 H   0  0  0  0  0  0
  -19.7931  -30.7251   24.2273 H   0  0  0  0  0  0
  -17.5011  -31.6262   24.5151 H   0  0  0  0  0  0
  -15.5347  -30.2981   23.7642 H   0  0  0  0  0  0
  -15.8663  -28.0804   22.7077 H   0  0  0  0  0  0
  -24.5917  -30.7041   25.7785 H   0  0  0  0  0  0
  -24.8928  -32.2856   26.4896 H   0  0  0  0  0  0
  -25.8080  -30.8867   27.0217 H   0  0  0  0  0  0
  -26.2896  -29.6761   24.1183 H   0  0  0  0  0  0
  -27.4078  -29.7269   25.4618 H   0  0  0  0  0  0
  -27.8745  -30.4321   23.9320 H   0  0  0  0  0  0
  -27.2672  -33.3604   26.2075 H   0  0  0  0  0  0
  -28.3867  -32.6859   25.0315 H   0  0  0  0  0  0
  -28.0719  -31.8416   26.5399 H   0  0  0  0  0  0
  -28.2599  -38.0106   24.7532 H   0  0  0  0  0  0
  -28.1084  -36.2640   24.6273 H   0  0  0  0  0  0
  -27.2305  -37.1437   25.8868 H   0  0  0  0  0  0
  -20.9318  -29.8763   21.6937 H   0  0  0  0  0  0
  -26.0177  -38.2858   24.1413 H   0  0  0  0  0  0
  -32.3729  -18.6288   17.8394 H   0  0  0  0  0  0
  -31.1961  -20.6314   18.6002 H   0  0  0  0  0  0
  -31.8114  -16.4352   18.6761 H   0  0  0  0  0  0
  -28.5346  -26.4089   22.1048 H   0  0  0  0  0  0
  -28.1644  -20.7814   20.3128 H   0  0  0  0  0  0
  -29.0050  -15.6407   20.9413 H   0  0  0  0  0  0
  -29.0148  -24.7165   23.2153 H   0  0  0  0  0  0
  1 25  1  0  0  0
  1 30  2  0  0  0
  1 82  1  0  0  0
  2  3  1  0  0  0
  2 25  1  0  0  0
  2 87  1  0  0  0
  2 88  1  0  0  0
  3  4  1  0  0  0
  3 89  1  0  0  0
  3 90  1  0  0  0
  4  5  1  0  0  0
  4 91  1  0  0  0
  4 92  1  0  0  0
  5  6  1  0  0  0
  5 26  1  0  0  0
  5 93  1  0  0  0
  6 25  1  0  0  0
  6 94  1  0  0  0
  6 95  1  0  0  0
  7  8  2  0  0  0
  7 26  1  0  0  0
  7 29  1  0  0  0
  8  9  1  0  0  0
  8 22  1  0  0  0
  9 10  1  0  0  0
  9 27  2  0  0  0
 10 11  2  0  0  0
 10 15  1  0  0  0
 11 12  1  0  0  0
 11 96  1  0  0  0
 12 13  2  0  0  0
 12 97  1  0  0  0
 13 14  1  0  0  0
 13 31  1  0  0  0
 14 15  2  0  0  0
 14 98  1  0  0  0
 15 99  1  0  0  0
 16 17  2  0  0  0
 16 21  1  0  0  0
 16 31  1  0  0  0
 17 18  1  0  0  0
 17100  1  0  0  0
 18 19  2  0  0  0
 18101  1  0  0  0
 19 20  1  0  0  0
 19 24  1  0  0  0
 20 21  2  0  0  0
 20102  1  0  0  0
 21 23  1  0  0  0
 22 28  1  0  0  0
 22 32  2  0  0  0
 26 27  1  0  0  0
 28103  1  0  0  0
 28104  1  0  0  0
 29105  1  0  0  0
 29106  1  0  0  0
 33 34  1  0  0  0
 33 66  1  0  0  0
 33 70  2  0  0  0
 34 36  1  0  0  0
 34 59  1  0  0  0
 34107  1  0  0  0
 35 44  2  0  0  0
 35 45  1  0  0  0
 35 68  1  0  0  0
 36 56  1  0  0  0
 36108  1  0  0  0
 37 39  1  0  0  0
 37 47  1  0  0  0
 37 66  1  0  0  0
 37109  1  0  0  0
 38 43  2  0  0  0
 38 46  1  0  0  0
 38 47  1  0  0  0
 39 64  1  0  0  0
 39 67  2  0  0  0
 40 52  1  0  0  0
 40 53  2  0  0  0
 40 58  1  0  0  0
 41110  1  0  0  0
 41111  1  0  0  0
 41112  1  0  0  0
 41 48  1  0  0  0
 42 43  1  0  0  0
 42 66  1  0  0  0
 42113  1  0  0  0
 42114  1  0  0  0
 43 44  1  0  0  0
 44115  1  0  0  0
 45 46  2  0  0  0
 45116  1  0  0  0
 46117  1  0  0  0
 47118  1  0  0  0
 47119  1  0  0  0
 48 56  1  0  0  0
 48 65  1  0  0  0
 48120  1  0  0  0
 49 50  1  0  0  0
 49 53  1  0  0  0
 49 64  1  0  0  0
 49121  1  0  0  0
 50 51  1  0  0  0
 50122  1  0  0  0
 50123  1  0  0  0
 51 52  1  0  0  0
 51124  1  0  0  0
 51125  1  0  0  0
 52126  1  0  0  0
 52127  1  0  0  0
 53 54  1  0  0  0
 54 55  2  0  0  0
 54128  1  0  0  0
 55 57  1  0  0  0
 55129  1  0  0  0
 56 69  2  0  0  0
 57 58  2  0  0  0
 57130  1  0  0  0
 58131  1  0  0  0
 59 60  1  0  0  0
 59 61  1  0  0  0
 59 62  1  0  0  0
 60132  1  0  0  0
 60133  1  0  0  0
 60134  1  0  0  0
 61135  1  0  0  0
 61136  1  0  0  0
 61137  1  0  0  0
 62138  1  0  0  0
 62139  1  0  0  0
 62140  1  0  0  0
 63 65  1  0  0  0
 63141  1  0  0  0
 63142  1  0  0  0
 63143  1  0  0  0
 64144  1  0  0  0
 65145  1  0  0  0
 68 77  1  0  0  0
 71 72  2  0  0  0
 71 73  1  0  0  0
 71146  1  0  0  0
 72 74  1  0  0  0
 72147  1  0  0  0
 73 75  2  0  0  0
 73148  1  0  0  0
 74 76  2  0  0  0
 74 81  1  0  0  0
 75 76  1  0  0  0
 75 82  1  0  0  0
 76 86  1  0  0  0
 77 78  2  0  0  0
 77149  1  0  0  0
 78 79  1  0  0  0
 78 85  1  0  0  0
 79 80  1  0  0  0
 79 83  2  0  0  0
 80 81  1  0  0  0
 80 84  2  0  0  0
 81150  1  0  0  0
 82151  1  0  0  0
 85152  1  0  0  0
M  ISO  4   1 100  68 101  77 101  82 100
M  END
> <chiral flag>
0

> <version>
0

> <s_m_source_file>
/data/baiqing/PycharmProjects/Reinvent-master-3.2/result/LINK_invent/BTK/process_docking_weight1_custom_product_contain_oxygen_bond_distance_aromatic_linkinvent_7_9_3/rearranged_h_0163.sdf

> <i_m_source_file_index>
59

> <r_mmod_Potential_Energy-OPLS-2005>
139.595764160156

> <r_mmod_Stretch_Energy-OPLS-2005>
71.4299926757812

> <r_mmod_Bend_Energy-OPLS-2005>
127.220161437988

> <r_mmod_Torsional_Energy-OPLS-2005>
272.980590820312

> <r_mmod_Improper_Torsional_Energy-OPLS-2005>
5.60485887527466

> <r_mmod_Van_der_Waal_Energy-OPLS-2005>
148.7705078125

> <r_mmod_Electrostatic_Energy-OPLS-2005>
-291.779144287109

> <r_mmod_Solvation_Energy-OPLS-2005>
-236.270462036133

> <b_mmod_Minimization_Converged-OPLS-2005>
0

> <r_mmod_RMS_Derivative-OPLS-2005>
0.569816112518311

$$$$
59
                    3D
 Structure written by MMmdl.
164172  0  0  1  0            999 V2000
  -30.6148  -14.7693   20.4293 C   0  0  0  0  0  0
  -30.4293  -12.4712   19.4599 C   0  0  0  0  0  0
  -29.5033  -12.5016   18.2254 C   0  0  0  0  0  0
  -28.0312  -12.3229   18.6452 C   0  0  0  0  0  0
  -27.6351  -13.2274   19.8426 C   0  0  2  0  0  0
  -28.6863  -13.1947   20.9710 C   0  0  0  0  0  0
  -25.2495  -13.8178   20.5721 C   0  0  0  0  0  0
  -24.1789  -13.0422   20.9214 C   0  0  0  0  0  0
  -24.6382  -11.6904   20.8755 C   0  0  0  0  0  0
  -23.9062  -10.4285   21.0415 C   0  0  0  0  0  0
  -24.3618   -9.4201   21.9188 C   0  0  0  0  0  0
  -23.6294   -8.2238   22.0751 C   0  0  0  0  0  0
  -22.4275   -8.0277   21.3544 C   0  0  0  0  0  0
  -21.9911   -9.0248   20.4643 C   0  0  0  0  0  0
  -22.7238  -10.2129   20.3055 C   0  0  0  0  0  0
  -21.6852   -6.0733   22.5279 C   0  0  0  0  0  0
  -21.4012   -6.5639   23.8210 C   0  0  0  0  0  0
  -21.3660   -5.6794   24.9173 C   0  0  0  0  0  0
  -21.6043   -4.3055   24.7226 C   0  0  0  0  0  0
  -21.8821   -3.8145   23.4348 C   0  0  0  0  0  0
  -21.9192   -4.6961   22.3404 C   0  0  0  0  0  0
  -22.7812  -13.5212   21.1873 C   0  0  0  0  0  0
  -22.1661   -4.2149   21.0981 F   0  0  0  0  0  0
  -21.5630   -3.4538   25.7739 F   0  0  0  0  0  0
  -29.9764  -13.5488   20.3686 N   0  0  0  0  0  0
  -26.2910  -12.9378   20.3276 N   0  0  0  0  0  0
  -25.9310  -11.6525   20.5757 N   0  0  0  0  0  0
  -22.0462  -12.8198   22.0428 N   0  0  0  0  0  0
  -25.4156  -15.1911   20.4182 N   0  0  0  0  0  0
  -31.8297  -14.8078   20.2150 O   0  0  0  0  0  0
  -21.6636   -6.8878   21.4242 O   0  0  0  0  0  0
  -22.3505  -14.5522   20.6725 O   0  0  0  0  0  0
  -24.6309  -31.8542   23.1955 C   0  0  0  0  0  0
  -25.9133  -32.4749   23.8314 C   0  0  1  0  0  0
  -27.2242  -27.2609   20.1389 C   0  0  0  0  0  0
  -25.5941  -33.8553   24.2250 N   0  0  0  0  0  0
  -23.4284  -30.4732   21.5390 C   0  0  2  0  0  0
  -24.8768  -28.9137   20.1118 C   0  0  0  0  0  0
  -22.7504  -29.4588   22.4913 C   0  0  0  0  0  0
  -18.0289  -28.1386   22.8481 C   0  0  0  0  0  0
  -24.1487  -36.7279   23.2641 C   0  0  0  0  0  0
  -25.9714  -30.7671   21.3735 C   0  0  0  0  0  0
  -26.0457  -29.3872   20.7211 C   0  0  0  0  0  0
  -27.2232  -28.5738   20.7201 C   0  0  0  0  0  0
  -26.0394  -26.8531   19.4935 C   0  0  0  0  0  0
  -24.8788  -27.6550   19.4860 C   0  0  0  0  0  0
  -23.6462  -29.8002   20.1571 C   0  0  0  0  0  0
  -25.4114  -36.3064   24.0324 C   0  0  1  0  0  0
  -20.5892  -28.3696   23.1273 C   0  0  2  0  0  0
  -20.6776  -26.9412   22.5413 C   0  0  0  0  0  0
  -19.5754  -26.6380   21.5216 C   0  0  0  0  0  0
  -18.1934  -26.7931   22.1622 C   0  0  0  0  0  0
  -19.1543  -28.8860   23.2873 C   0  0  0  0  0  0
  -18.9462  -30.1462   23.8888 C   0  0  0  0  0  0
  -17.6462  -30.6586   24.0563 C   0  0  0  0  0  0
  -25.9055  -34.9439   23.5087 C   0  0  0  0  0  0
  -16.5355  -29.9081   23.6329 C   0  0  0  0  0  0
  -16.7275  -28.6499   23.0353 C   0  0  0  0  0  0
  -26.4496  -31.6574   25.0706 C   0  0  0  0  0  0
  -25.3717  -31.3732   26.1430 C   0  0  0  0  0  0
  -27.0337  -30.2989   24.6186 C   0  0  0  0  0  0
  -27.6061  -32.4308   25.7475 C   0  0  0  0  0  0
  -27.5574  -37.1795   24.8466 C   0  0  0  0  0  0
  -21.4209  -29.3041   22.3663 N   0  0  0  0  0  0
  -26.4284  -37.3767   23.9409 N   0  0  0  0  0  0
  -24.6957  -31.0509   22.0926 N   0  0  0  0  0  0
  -23.4204  -28.8143   23.3025 O   0  0  0  0  0  0
  -28.3381  -26.3917   20.1519 O   0  0  0  0  0  0
  -26.5622  -34.8921   22.4652 O   0  0  0  0  0  0
  -23.5461  -32.1363   23.7248 O   0  0  0  0  0  0
  -29.3991  -19.8054   20.4297 C   0  0  0  0  0  0
  -27.6558  -19.3229   18.3463 C   0  0  0  0  0  0
  -29.3119  -18.4306   19.9310 C   0  0  0  0  0  0
  -28.4416  -18.2501   18.8170 C   0  0  0  0  0  0
  -28.6474  -20.9491   19.9149 C   0  0  0  0  0  0
  -27.7385  -20.6346   18.8694 C   0  0  0  0  0  0
  -30.2310  -17.2647   20.4472 C   0  0  0  0  0  0
  -26.3759  -21.8761   17.1931 C   0  0  0  0  0  0
  -28.3208  -16.9446   18.0400 C   0  0  0  0  0  0
  -25.5431  -23.1418   17.0367 C   0  0  0  0  0  0
  -27.0908  -24.7586   21.6453 C   0  0  0  0  0  0
  -28.5510  -23.6772   19.7861 C   0  0  0  0  0  0
  -28.2950  -24.9862   20.7123 C   0  0  1  0  0  0
  -26.8379  -21.6310   18.4276 N   0  0  0  0  0  0
  -28.7566  -22.3076   20.4544 N   0  0  0  0  0  0
  -29.8360  -15.9266   20.4429 N   0  0  0  0  0  0
  -31.3399  -17.6016   20.8740 O   0  0  0  0  0  0
  -26.5874  -21.1638   16.2094 O   0  0  0  0  0  0
  -31.4677  -12.5981   19.1486 H   0  0  0  0  0  0
  -30.3814  -11.5021   19.9585 H   0  0  0  0  0  0
  -29.7882  -11.7195   17.5202 H   0  0  0  0  0  0
  -29.6230  -13.4488   17.6967 H   0  0  0  0  0  0
  -27.8913  -11.2751   18.9119 H   0  0  0  0  0  0
  -27.3715  -12.5097   17.7966 H   0  0  0  0  0  0
  -27.6166  -14.2397   19.4480 H   0  0  0  0  0  0
  -28.7347  -12.2076   21.4328 H   0  0  0  0  0  0
  -28.4236  -13.8960   21.7646 H   0  0  0  0  0  0
  -25.2767   -9.5678   22.4758 H   0  0  0  0  0  0
  -24.0003   -7.4629   22.7467 H   0  0  0  0  0  0
  -21.0843   -8.8763   19.8947 H   0  0  0  0  0  0
  -22.3696  -10.9667   19.6160 H   0  0  0  0  0  0
  -21.2002   -7.6147   23.9716 H   0  0  0  0  0  0
  -21.1480   -6.0522   25.9078 H   0  0  0  0  0  0
  -22.0601   -2.7606   23.2847 H   0  0  0  0  0  0
  -22.4085  -11.9861   22.4818 H   0  0  0  0  0  0
  -21.1073  -13.1212   22.2629 H   0  0  0  0  0  0
  -24.6440  -15.8374   20.5410 H   0  0  0  0  0  0
  -26.2621  -15.6463   20.1100 H   0  0  0  0  0  0
  -26.7203  -32.5398   23.1060 H   0  0  0  0  0  0
  -25.0109  -33.9691   25.0413 H   0  0  0  0  0  0
  -22.7255  -31.2947   21.3887 H   0  0  0  0  0  0
  -23.3753  -35.9608   23.3293 H   0  0  0  0  0  0
  -24.3577  -36.8909   22.2057 H   0  0  0  0  0  0
  -23.7241  -37.6477   23.6672 H   0  0  0  0  0  0
  -26.1075  -31.5240   20.6003 H   0  0  0  0  0  0
  -26.8510  -30.8213   22.0030 H   0  0  0  0  0  0
  -28.1220  -28.9319   21.2024 H   0  0  0  0  0  0
  -26.0056  -25.8875   19.0093 H   0  0  0  0  0  0
  -23.9854  -27.2875   19.0003 H   0  0  0  0  0  0
  -23.7699  -30.5725   19.3980 H   0  0  0  0  0  0
  -22.7656  -29.2310   19.8546 H   0  0  0  0  0  0
  -25.1301  -36.1905   25.0816 H   0  0  0  0  0  0
  -20.9984  -28.3269   24.1397 H   0  0  0  0  0  0
  -20.5685  -26.2302   23.3615 H   0  0  0  0  0  0
  -21.6641  -26.7444   22.1203 H   0  0  0  0  0  0
  -19.6922  -25.6292   21.1248 H   0  0  0  0  0  0
  -19.6695  -27.3187   20.6745 H   0  0  0  0  0  0
  -17.4206  -26.6680   21.4019 H   0  0  0  0  0  0
  -18.0321  -26.0080   22.9021 H   0  0  0  0  0  0
  -19.7943  -30.7279   24.2253 H   0  0  0  0  0  0
  -17.5018  -31.6270   24.5161 H   0  0  0  0  0  0
  -15.5355  -30.2984   23.7664 H   0  0  0  0  0  0
  -15.8673  -28.0820   22.7074 H   0  0  0  0  0  0
  -24.5881  -30.7106   25.7744 H   0  0  0  0  0  0
  -24.8932  -32.2908   26.4864 H   0  0  0  0  0  0
  -25.8019  -30.8887   27.0206 H   0  0  0  0  0  0
  -26.2916  -29.6736   24.1205 H   0  0  0  0  0  0
  -27.4019  -29.7250   25.4704 H   0  0  0  0  0  0
  -27.8792  -30.4260   23.9419 H   0  0  0  0  0  0
  -27.2695  -33.3636   26.2008 H   0  0  0  0  0  0
  -28.3883  -32.6816   25.0298 H   0  0  0  0  0  0
  -28.0706  -31.8456   26.5421 H   0  0  0  0  0  0
  -28.2591  -38.0094   24.7507 H   0  0  0  0  0  0
  -28.1067  -36.2625   24.6287 H   0  0  0  0  0  0
  -27.2292  -37.1435   25.8870 H   0  0  0  0  0  0
  -20.9397  -29.8747   21.6849 H   0  0  0  0  0  0
  -26.0157  -38.2840   24.1412 H   0  0  0  0  0  0
  -30.0934  -19.9866   21.2374 H   0  0  0  0  0  0
  -26.9588  -19.1197   17.5463 H   0  0  0  0  0  0
  -27.9440  -17.1250   17.0323 H   0  0  0  0  0  0
  -27.6186  -16.2717   18.5267 H   0  0  0  0  0  0
  -29.2803  -16.4439   17.9102 H   0  0  0  0  0  0
  -24.9122  -23.3107   17.9098 H   0  0  0  0  0  0
  -24.8977  -23.0725   16.1612 H   0  0  0  0  0  0
  -26.1963  -24.0058   16.9117 H   0  0  0  0  0  0
  -27.2143  -23.8418   22.2216 H   0  0  0  0  0  0
  -26.1583  -24.6582   21.0919 H   0  0  0  0  0  0
  -26.9796  -25.5735   22.3606 H   0  0  0  0  0  0
  -29.4470  -23.8667   19.1933 H   0  0  0  0  0  0
  -27.7475  -23.6822   19.0612 H   0  0  0  0  0  0
  -29.1575  -24.9994   21.3795 H   0  0  0  0  0  0
  -26.6716  -22.3500   19.1175 H   0  0  0  0  0  0
  -29.3306  -22.3692   21.2906 H   0  0  0  0  0  0
  -28.8485  -15.7791   20.3386 H   0  0  0  0  0  0
  1 25  1  0  0  0
  1 30  2  0  0  0
  1 86  1  0  0  0
  2  3  1  0  0  0
  2 25  1  0  0  0
  2 89  1  0  0  0
  2 90  1  0  0  0
  3  4  1  0  0  0
  3 91  1  0  0  0
  3 92  1  0  0  0
  4  5  1  0  0  0
  4 93  1  0  0  0
  4 94  1  0  0  0
  5  6  1  0  0  0
  5 26  1  0  0  0
  5 95  1  0  0  0
  6 25  1  0  0  0
  6 96  1  0  0  0
  6 97  1  0  0  0
  7  8  2  0  0  0
  7 26  1  0  0  0
  7 29  1  0  0  0
  8  9  1  0  0  0
  8 22  1  0  0  0
  9 10  1  0  0  0
  9 27  2  0  0  0
 10 11  2  0  0  0
 10 15  1  0  0  0
 11 12  1  0  0  0
 11 98  1  0  0  0
 12 13  2  0  0  0
 12 99  1  0  0  0
 13 14  1  0  0  0
 13 31  1  0  0  0
 14 15  2  0  0  0
 14100  1  0  0  0
 15101  1  0  0  0
 16 17  2  0  0  0
 16 21  1  0  0  0
 16 31  1  0  0  0
 17 18  1  0  0  0
 17102  1  0  0  0
 18 19  2  0  0  0
 18103  1  0  0  0
 19 20  1  0  0  0
 19 24  1  0  0  0
 20 21  2  0  0  0
 20104  1  0  0  0
 21 23  1  0  0  0
 22 28  1  0  0  0
 22 32  2  0  0  0
 26 27  1  0  0  0
 28105  1  0  0  0
 28106  1  0  0  0
 29107  1  0  0  0
 29108  1  0  0  0
 33 34  1  0  0  0
 33 66  1  0  0  0
 33 70  2  0  0  0
 34 36  1  0  0  0
 34 59  1  0  0  0
 34109  1  0  0  0
 35 44  2  0  0  0
 35 45  1  0  0  0
 35 68  1  0  0  0
 36 56  1  0  0  0
 36110  1  0  0  0
 37 39  1  0  0  0
 37 47  1  0  0  0
 37 66  1  0  0  0
 37111  1  0  0  0
 38 43  2  0  0  0
 38 46  1  0  0  0
 38 47  1  0  0  0
 39 64  1  0  0  0
 39 67  2  0  0  0
 40 52  1  0  0  0
 40 53  2  0  0  0
 40 58  1  0  0  0
 41112  1  0  0  0
 41113  1  0  0  0
 41114  1  0  0  0
 41 48  1  0  0  0
 42 43  1  0  0  0
 42 66  1  0  0  0
 42115  1  0  0  0
 42116  1  0  0  0
 43 44  1  0  0  0
 44117  1  0  0  0
 45 46  2  0  0  0
 45118  1  0  0  0
 46119  1  0  0  0
 47120  1  0  0  0
 47121  1  0  0  0
 48 56  1  0  0  0
 48 65  1  0  0  0
 48122  1  0  0  0
 49 50  1  0  0  0
 49 53  1  0  0  0
 49 64  1  0  0  0
 49123  1  0  0  0
 50 51  1  0  0  0
 50124  1  0  0  0
 50125  1  0  0  0
 51 52  1  0  0  0
 51126  1  0  0  0
 51127  1  0  0  0
 52128  1  0  0  0
 52129  1  0  0  0
 53 54  1  0  0  0
 54 55  2  0  0  0
 54130  1  0  0  0
 55 57  1  0  0  0
 55131  1  0  0  0
 56 69  2  0  0  0
 57 58  2  0  0  0
 57132  1  0  0  0
 58133  1  0  0  0
 59 60  1  0  0  0
 59 61  1  0  0  0
 59 62  1  0  0  0
 60134  1  0  0  0
 60135  1  0  0  0
 60136  1  0  0  0
 61137  1  0  0  0
 61138  1  0  0  0
 61139  1  0  0  0
 62140  1  0  0  0
 62141  1  0  0  0
 62142  1  0  0  0
 63 65  1  0  0  0
 63143  1  0  0  0
 63144  1  0  0  0
 63145  1  0  0  0
 64146  1  0  0  0
 65147  1  0  0  0
 68 83  1  0  0  0
 71 73  2  0  0  0
 71 75  1  0  0  0
 71148  1  0  0  0
 72 74  2  0  0  0
 72 76  1  0  0  0
 72149  1  0  0  0
 73 74  1  0  0  0
 73 77  1  0  0  0
 74 79  1  0  0  0
 75 76  2  0  0  0
 75 85  1  0  0  0
 76 84  1  0  0  0
 77 86  1  0  0  0
 77 87  2  0  0  0
 78 80  1  0  0  0
 78 84  1  0  0  0
 78 88  2  0  0  0
 79150  1  0  0  0
 79151  1  0  0  0
 79152  1  0  0  0
 80153  1  0  0  0
 80154  1  0  0  0
 80155  1  0  0  0
 81156  1  0  0  0
 81157  1  0  0  0
 81158  1  0  0  0
 81 83  1  0  0  0
 82 83  1  0  0  0
 82 85  1  0  0  0
 82159  1  0  0  0
 82160  1  0  0  0
 83161  1  0  0  0
 84162  1  0  0  0
 85163  1  0  0  0
 86164  1  0  0  0
M  ISO  4   1 100  68 101  83 101  86 100
M  END
> <chiral flag>
0

> <version>
0

> <s_m_source_file>
/data/baiqing/PycharmProjects/Reinvent-master-3.2/result/LINK_invent/BTK/process_docking_weight1_custom_product_contain_oxygen_bond_distance_aromatic_linkinvent_7_9_3/rearranged_h_0163.sdf

> <i_m_source_file_index>
60

> <r_mmod_Potential_Energy-OPLS-2005>
33.6289138793945

> <r_mmod_Stretch_Energy-OPLS-2005>
135.687133789062

> <r_mmod_Bend_Energy-OPLS-2005>
201.020355224609

> <r_mmod_Torsional_Energy-OPLS-2005>
269.964935302734

> <r_mmod_Improper_Torsional_Energy-OPLS-2005>
9.35440540313721

> <r_mmod_Van_der_Waal_Energy-OPLS-2005>
148.818176269531

> <r_mmod_Electrostatic_Energy-OPLS-2005>
-573.359436035156

> <r_mmod_Solvation_Energy-OPLS-2005>
-249.094177246094

> <b_mmod_Minimization_Converged-OPLS-2005>
0

> <r_mmod_RMS_Derivative-OPLS-2005>
1.27398228645325

$$$$
60
                    3D
 Structure written by MMmdl.
154163  0  0  1  0            999 V2000
  -30.5913  -14.7557   20.4888 C   0  0  0  0  0  0
  -30.4442  -12.4576   19.5145 C   0  0  0  0  0  0
  -29.5362  -12.5172   18.2649 C   0  0  0  0  0  0
  -28.0501  -12.3586   18.6517 C   0  0  0  0  0  0
  -27.6502  -13.2394   19.8688 C   0  0  2  0  0  0
  -28.6847  -13.1417   21.0100 C   0  0  0  0  0  0
  -25.2510  -13.8228   20.5721 C   0  0  0  0  0  0
  -24.1799  -13.0472   20.9219 C   0  0  0  0  0  0
  -24.6405  -11.6959   20.8790 C   0  0  0  0  0  0
  -23.9099  -10.4323   21.0416 C   0  0  0  0  0  0
  -24.3644   -9.4220   21.9171 C   0  0  0  0  0  0
  -23.6311   -8.2256   22.0743 C   0  0  0  0  0  0
  -22.4289   -8.0300   21.3555 C   0  0  0  0  0  0
  -21.9920   -9.0269   20.4676 C   0  0  0  0  0  0
  -22.7259  -10.2153   20.3078 C   0  0  0  0  0  0
  -21.6855   -6.0755   22.5278 C   0  0  0  0  0  0
  -21.4026   -6.5639   23.8223 C   0  0  0  0  0  0
  -21.3675   -5.6783   24.9172 C   0  0  0  0  0  0
  -21.6028   -4.3043   24.7220 C   0  0  0  0  0  0
  -21.8813   -3.8156   23.4320 C   0  0  0  0  0  0
  -21.9190   -4.6987   22.3391 C   0  0  0  0  0  0
  -22.7783  -13.5236   21.1811 C   0  0  0  0  0  0
  -22.1632   -4.2186   21.0967 F   0  0  0  0  0  0
  -21.5637   -3.4518   25.7714 F   0  0  0  0  0  0
  -29.9945  -13.5111   20.4565 N   0  0  0  0  0  0
  -26.2955  -12.9451   20.3318 N   0  0  0  0  0  0
  -25.9332  -11.6597   20.5774 N   0  0  0  0  0  0
  -22.0395  -12.8325   22.0412 N   0  0  0  0  0  0
  -25.4185  -15.1967   20.4177 N   0  0  0  0  0  0
  -31.7485  -14.8841   20.0753 O   0  0  0  0  0  0
  -21.6639   -6.8905   21.4247 O   0  0  0  0  0  0
  -22.3487  -14.5497   20.6556 O   0  0  0  0  0  0
  -24.6357  -31.8495   23.1969 C   0  0  0  0  0  0
  -25.9187  -32.4702   23.8298 C   0  0  1  0  0  0
  -27.1908  -27.2115   20.1278 C   0  0  0  0  0  0
  -25.5963  -33.8514   24.2225 N   0  0  0  0  0  0
  -23.4321  -30.4803   21.5393 C   0  0  2  0  0  0
  -24.8744  -28.9329   20.1030 C   0  0  0  0  0  0
  -22.7527  -29.4564   22.4861 C   0  0  0  0  0  0
  -18.0279  -28.1371   22.8422 C   0  0  0  0  0  0
  -24.1504  -36.7290   23.2643 C   0  0  0  0  0  0
  -25.9842  -30.7485   21.3861 C   0  0  0  0  0  0
  -26.0495  -29.3685   20.7275 C   0  0  0  0  0  0
  -27.2080  -28.5188   20.7354 C   0  0  0  0  0  0
  -26.0054  -26.8917   19.4200 C   0  0  0  0  0  0
  -24.8625  -27.7075   19.4321 C   0  0  0  0  0  0
  -23.6528  -29.8277   20.1515 C   0  0  0  0  0  0
  -25.4127  -36.3038   24.0318 C   0  0  1  0  0  0
  -20.5887  -28.3697   23.1225 C   0  0  2  0  0  0
  -20.6777  -26.9408   22.5401 C   0  0  0  0  0  0
  -19.5760  -26.6345   21.5187 C   0  0  0  0  0  0
  -18.1928  -26.7902   22.1588 C   0  0  0  0  0  0
  -19.1532  -28.8839   23.2810 C   0  0  0  0  0  0
  -18.9463  -30.1432   23.8840 C   0  0  0  0  0  0
  -17.6472  -30.6580   24.0523 C   0  0  0  0  0  0
  -25.9058  -34.9414   23.5068 C   0  0  0  0  0  0
  -16.5355  -29.9080   23.6303 C   0  0  0  0  0  0
  -16.7268  -28.6493   23.0314 C   0  0  0  0  0  0
  -26.4522  -31.6543   25.0706 C   0  0  0  0  0  0
  -25.3753  -31.3677   26.1430 C   0  0  0  0  0  0
  -27.0396  -30.2963   24.6240 C   0  0  0  0  0  0
  -27.6064  -32.4273   25.7500 C   0  0  0  0  0  0
  -27.5573  -37.1811   24.8453 C   0  0  0  0  0  0
  -21.4223  -29.3041   22.3637 N   0  0  0  0  0  0
  -26.4274  -37.3756   23.9388 N   0  0  0  0  0  0
  -24.7044  -31.0449   22.0966 N   0  0  0  0  0  0
  -23.4234  -28.8076   23.2943 O   0  0  0  0  0  0
  -28.2414  -26.2517   20.2571 O   0  0  0  0  0  0
  -26.5644  -34.8890   22.4644 O   0  0  0  0  0  0
  -23.5506  -32.1317   23.7272 O   0  0  0  0  0  0
  -29.4295  -18.4859   18.1742 C   0  0  0  0  0  0
  -29.3699  -19.7161   18.8571 C   0  0  0  0  0  0
  -29.6196  -17.2704   18.8607 C   0  0  0  0  0  0
  -29.6681  -18.5123   20.9534 C   0  0  0  0  0  0
  -29.4847  -19.7942   20.2622 C   0  0  0  0  0  0
  -29.7610  -17.2221   20.2646 C   0  0  0  0  0  0
  -28.5063  -23.4848   20.4561 C   0  0  0  0  0  0
  -28.2822  -21.5901   21.8742 C   0  0  0  0  0  0
  -29.4455  -21.2665   20.9111 C   0  0  2  0  0  0
  -28.1059  -24.8368   19.7100 C   0  0  0  0  0  0
  -29.3960  -22.5174   20.0472 N   0  0  0  0  0  0
  -27.8625  -22.9774   21.5225 N   0  3  0  0  0  0
  -29.8450  -15.8661   20.8819 N   0  0  0  0  0  0
  -31.4970  -12.5704   19.2360 H   0  0  0  0  0  0
  -30.3808  -11.4764   19.9902 H   0  0  0  0  0  0
  -29.8223  -11.7379   17.5578 H   0  0  0  0  0  0
  -29.6862  -13.4715   17.7609 H   0  0  0  0  0  0
  -27.8788  -11.3079   18.8839 H   0  0  0  0  0  0
  -27.4133  -12.5823   17.7950 H   0  0  0  0  0  0
  -27.6544  -14.2711   19.5115 H   0  0  0  0  0  0
  -28.7163  -12.1254   21.4056 H   0  0  0  0  0  0
  -28.4131  -13.7837   21.8476 H   0  0  0  0  0  0
  -25.2803   -9.5656   22.4719 H   0  0  0  0  0  0
  -24.0020   -7.4637   22.7445 H   0  0  0  0  0  0
  -21.0854   -8.8824   19.9004 H   0  0  0  0  0  0
  -22.3725  -10.9696   19.6179 H   0  0  0  0  0  0
  -21.2014   -7.6147   23.9750 H   0  0  0  0  0  0
  -21.1494   -6.0491   25.9079 H   0  0  0  0  0  0
  -22.0582   -2.7624   23.2800 H   0  0  0  0  0  0
  -22.3982  -12.0072   22.4974 H   0  0  0  0  0  0
  -21.0977  -13.1370   22.2474 H   0  0  0  0  0  0
  -24.6519  -15.8461   20.5460 H   0  0  0  0  0  0
  -26.2643  -15.6436   20.0885 H   0  0  0  0  0  0
  -26.7254  -32.5339   23.1022 H   0  0  0  0  0  0
  -25.0075  -33.9588   25.0349 H   0  0  0  0  0  0
  -22.7305  -31.3068   21.3989 H   0  0  0  0  0  0
  -23.3735  -35.9653   23.3277 H   0  0  0  0  0  0
  -24.3598  -36.8942   22.2060 H   0  0  0  0  0  0
  -23.7292  -37.6504   23.6681 H   0  0  0  0  0  0
  -26.1397  -31.5058   20.6160 H   0  0  0  0  0  0
  -26.8590  -30.7893   22.0225 H   0  0  0  0  0  0
  -28.1027  -28.8388   21.2493 H   0  0  0  0  0  0
  -25.8860  -25.9991   18.8308 H   0  0  0  0  0  0
  -23.9755  -27.3916   18.9026 H   0  0  0  0  0  0
  -23.7981  -30.6091   19.4058 H   0  0  0  0  0  0
  -22.7664  -29.2773   19.8315 H   0  0  0  0  0  0
  -25.1318  -36.1855   25.0814 H   0  0  0  0  0  0
  -20.9941  -28.3275   24.1361 H   0  0  0  0  0  0
  -20.5599  -26.2319   23.3629 H   0  0  0  0  0  0
  -21.6653  -26.7387   22.1235 H   0  0  0  0  0  0
  -19.6939  -25.6230   21.1244 H   0  0  0  0  0  0
  -19.6713  -27.3120   20.6687 H   0  0  0  0  0  0
  -17.4208  -26.6564   21.3994 H   0  0  0  0  0  0
  -18.0368  -26.0056   22.9002 H   0  0  0  0  0  0
  -19.7951  -30.7225   24.2217 H   0  0  0  0  0  0
  -17.5042  -31.6250   24.5150 H   0  0  0  0  0  0
  -15.5350  -30.2989   23.7659 H   0  0  0  0  0  0
  -15.8645  -28.0822   22.7063 H   0  0  0  0  0  0
  -24.5922  -30.7032   25.7744 H   0  0  0  0  0  0
  -24.8962  -32.2847   26.4884 H   0  0  0  0  0  0
  -25.8086  -30.8817   27.0182 H   0  0  0  0  0  0
  -26.3004  -29.6659   24.1285 H   0  0  0  0  0  0
  -27.4088  -29.7262   25.4768 H   0  0  0  0  0  0
  -27.8863  -30.4203   23.9488 H   0  0  0  0  0  0
  -27.2666  -33.3558   26.2083 H   0  0  0  0  0  0
  -28.3897  -32.6845   25.0361 H   0  0  0  0  0  0
  -28.0710  -31.8394   26.5411 H   0  0  0  0  0  0
  -28.2582  -38.0119   24.7494 H   0  0  0  0  0  0
  -28.1071  -36.2646   24.6268 H   0  0  0  0  0  0
  -27.2280  -37.1454   25.8855 H   0  0  0  0  0  0
  -20.9445  -29.8861   21.6916 H   0  0  0  0  0  0
  -26.0133  -38.2813   24.1414 H   0  0  0  0  0  0
  -29.3219  -18.4821   17.0976 H   0  0  0  0  0  0
  -29.2318  -20.6123   18.2712 H   0  0  0  0  0  0
  -29.6178  -16.3580   18.2830 H   0  0  0  0  0  0
  -29.7334  -18.5208   22.0349 H   0  0  0  0  0  0
  -28.5841  -21.5197   22.9201 H   0  0  0  0  0  0
  -27.4540  -20.8991   21.7236 H   0  0  0  0  0  0
  -30.3702  -21.3456   21.4863 H   0  0  0  0  0  0
  -27.0668  -24.6110   19.4990 H   0  0  0  0  0  0
  -28.5899  -24.8369   18.7330 H   0  0  0  0  0  0
  -30.0280  -22.6523   19.2743 H   0  0  0  0  0  0
  -27.0490  -23.4076   21.9375 H   0  0  0  0  0  0
  -29.0344  -15.6180   21.4280 H   0  0  0  0  0  0
  1 25  1  0  0  0
  1 30  2  0  0  0
  1 83  1  0  0  0
  2  3  1  0  0  0
  2 25  1  0  0  0
  2 84  1  0  0  0
  2 85  1  0  0  0
  3  4  1  0  0  0
  3 86  1  0  0  0
  3 87  1  0  0  0
  4  5  1  0  0  0
  4 88  1  0  0  0
  4 89  1  0  0  0
  5  6  1  0  0  0
  5 26  1  0  0  0
  5 90  1  0  0  0
  6 25  1  0  0  0
  6 91  1  0  0  0
  6 92  1  0  0  0
  7  8  2  0  0  0
  7 26  1  0  0  0
  7 29  1  0  0  0
  8  9  1  0  0  0
  8 22  1  0  0  0
  9 10  1  0  0  0
  9 27  2  0  0  0
 10 11  2  0  0  0
 10 15  1  0  0  0
 11 12  1  0  0  0
 11 93  1  0  0  0
 12 13  2  0  0  0
 12 94  1  0  0  0
 13 14  1  0  0  0
 13 31  1  0  0  0
 14 15  2  0  0  0
 14 95  1  0  0  0
 15 96  1  0  0  0
 16 17  2  0  0  0
 16 21  1  0  0  0
 16 31  1  0  0  0
 17 18  1  0  0  0
 17 97  1  0  0  0
 18 19  2  0  0  0
 18 98  1  0  0  0
 19 20  1  0  0  0
 19 24  1  0  0  0
 20 21  2  0  0  0
 20 99  1  0  0  0
 21 23  1  0  0  0
 22 28  1  0  0  0
 22 32  2  0  0  0
 26 27  1  0  0  0
 28100  1  0  0  0
 28101  1  0  0  0
 29102  1  0  0  0
 29103  1  0  0  0
 33 34  1  0  0  0
 33 66  1  0  0  0
 33 70  2  0  0  0
 34 36  1  0  0  0
 34 59  1  0  0  0
 34104  1  0  0  0
 35 44  2  0  0  0
 35 45  1  0  0  0
 35 68  1  0  0  0
 36 56  1  0  0  0
 36105  1  0  0  0
 37 39  1  0  0  0
 37 47  1  0  0  0
 37 66  1  0  0  0
 37106  1  0  0  0
 38 43  2  0  0  0
 38 46  1  0  0  0
 38 47  1  0  0  0
 39 64  1  0  0  0
 39 67  2  0  0  0
 40 52  1  0  0  0
 40 53  2  0  0  0
 40 58  1  0  0  0
 41107  1  0  0  0
 41108  1  0  0  0
 41109  1  0  0  0
 41 48  1  0  0  0
 42 43  1  0  0  0
 42 66  1  0  0  0
 42110  1  0  0  0
 42111  1  0  0  0
 43 44  1  0  0  0
 44112  1  0  0  0
 45 46  2  0  0  0
 45113  1  0  0  0
 46114  1  0  0  0
 47115  1  0  0  0
 47116  1  0  0  0
 48 56  1  0  0  0
 48 65  1  0  0  0
 48117  1  0  0  0
 49 50  1  0  0  0
 49 53  1  0  0  0
 49 64  1  0  0  0
 49118  1  0  0  0
 50 51  1  0  0  0
 50119  1  0  0  0
 50120  1  0  0  0
 51 52  1  0  0  0
 51121  1  0  0  0
 51122  1  0  0  0
 52123  1  0  0  0
 52124  1  0  0  0
 53 54  1  0  0  0
 54 55  2  0  0  0
 54125  1  0  0  0
 55 57  1  0  0  0
 55126  1  0  0  0
 56 69  2  0  0  0
 57 58  2  0  0  0
 57127  1  0  0  0
 58128  1  0  0  0
 59 60  1  0  0  0
 59 61  1  0  0  0
 59 62  1  0  0  0
 60129  1  0  0  0
 60130  1  0  0  0
 60131  1  0  0  0
 61132  1  0  0  0
 61133  1  0  0  0
 61134  1  0  0  0
 62135  1  0  0  0
 62136  1  0  0  0
 62137  1  0  0  0
 63 65  1  0  0  0
 63138  1  0  0  0
 63139  1  0  0  0
 63140  1  0  0  0
 64141  1  0  0  0
 65142  1  0  0  0
 68 80  1  0  0  0
 71 72  2  0  0  0
 71 73  1  0  0  0
 71143  1  0  0  0
 72 75  1  0  0  0
 72144  1  0  0  0
 73 76  2  0  0  0
 73145  1  0  0  0
 74 75  2  0  0  0
 74 76  1  0  0  0
 74146  1  0  0  0
 75 79  1  0  0  0
 76 83  1  0  0  0
 77 80  1  0  0  0
 77 81  1  0  0  0
 77 82  2  0  0  0
 78 79  1  0  0  0
 78 82  1  0  0  0
 78147  1  0  0  0
 78148  1  0  0  0
 79 81  1  0  0  0
 79149  1  0  0  0
 80150  1  0  0  0
 80151  1  0  0  0
 81152  1  0  0  0
 82153  1  0  0  0
 83154  1  0  0  0
M  CHG  1  82   1
M  ISO  4   1 100  68 101  80 101  83 100
M  END
> <chiral flag>
0

> <version>
0

> <s_m_source_file>
/data/baiqing/PycharmProjects/Reinvent-master-3.2/result/LINK_invent/BTK/process_docking_weight1_custom_product_contain_oxygen_bond_distance_aromatic_linkinvent_7_9_3/rearranged_h_0163.sdf

> <i_m_source_file_index>
61

> <r_mmod_Potential_Energy-OPLS-2005>
116.603988647461

> <r_mmod_Stretch_Energy-OPLS-2005>
139.446517944336

> <r_mmod_Bend_Energy-OPLS-2005>
235.992492675781

> <r_mmod_Torsional_Energy-OPLS-2005>
258.043670654297

> <r_mmod_Improper_Torsional_Energy-OPLS-2005>
8.62326622009277

> <r_mmod_Van_der_Waal_Energy-OPLS-2005>
141.099075317383

> <r_mmod_Electrostatic_Energy-OPLS-2005>
-307.8955078125

> <r_mmod_Solvation_Energy-OPLS-2005>
-467.96337890625

> <b_mmod_Minimization_Converged-OPLS-2005>
0

> <r_mmod_RMS_Derivative-OPLS-2005>
5.20109462738037

$$$$
61
                    3D
 Structure written by MMmdl.
155163  0  0  1  0            999 V2000
  -30.7151  -14.4719   20.4717 C   0  0  0  0  0  0
  -30.4127  -12.2787   19.4389 C   0  0  0  0  0  0
  -29.4952  -12.4676   18.2134 C   0  0  0  0  0  0
  -28.0159  -12.3421   18.6259 C   0  0  0  0  0  0
  -27.6564  -13.2100   19.8626 C   0  0  2  0  0  0
  -28.7008  -13.0431   20.9915 C   0  0  0  0  0  0
  -25.2562  -13.8166   20.5667 C   0  0  0  0  0  0
  -24.1829  -13.0439   20.9177 C   0  0  0  0  0  0
  -24.6391  -11.6910   20.8730 C   0  0  0  0  0  0
  -23.9059  -10.4295   21.0403 C   0  0  0  0  0  0
  -24.3607   -9.4208   21.9184 C   0  0  0  0  0  0
  -23.6288   -8.2240   22.0757 C   0  0  0  0  0  0
  -22.4272   -8.0275   21.3545 C   0  0  0  0  0  0
  -21.9905   -9.0243   20.4642 C   0  0  0  0  0  0
  -22.7229  -10.2125   20.3056 C   0  0  0  0  0  0
  -21.6845   -6.0731   22.5275 C   0  0  0  0  0  0
  -21.4012   -6.5635   23.8208 C   0  0  0  0  0  0
  -21.3657   -5.6788   24.9169 C   0  0  0  0  0  0
  -21.6047   -4.3052   24.7221 C   0  0  0  0  0  0
  -21.8817   -3.8141   23.4344 C   0  0  0  0  0  0
  -21.9193   -4.6959   22.3401 C   0  0  0  0  0  0
  -22.7851  -13.5221   21.1850 C   0  0  0  0  0  0
  -22.1661   -4.2147   21.0979 F   0  0  0  0  0  0
  -21.5628   -3.4538   25.7736 F   0  0  0  0  0  0
  -30.0336  -13.2989   20.4264 N   0  0  0  0  0  0
  -26.3003  -12.9348   20.3329 N   0  0  0  0  0  0
  -25.9316  -11.6508   20.5771 N   0  0  0  0  0  0
  -22.0490  -12.8219   22.0405 N   0  0  0  0  0  0
  -25.4277  -15.1890   20.4056 N   0  0  0  0  0  0
  -31.9038  -14.5651   20.1589 O   0  0  0  0  0  0
  -21.6633   -6.8875   21.4241 O   0  0  0  0  0  0
  -22.3533  -14.5527   20.6699 O   0  0  0  0  0  0
  -24.6135  -31.8691   23.2122 C   0  0  0  0  0  0
  -25.9044  -32.4824   23.8395 C   0  0  1  0  0  0
  -27.2314  -27.4474   20.0969 C   0  0  0  0  0  0
  -25.5917  -33.8626   24.2337 N   0  0  0  0  0  0
  -23.3988  -30.4921   21.5520 C   0  0  2  0  0  0
  -24.8470  -28.9601   20.1151 C   0  0  0  0  0  0
  -22.7403  -29.4655   22.5009 C   0  0  0  0  0  0
  -18.0262  -28.1374   22.8475 C   0  0  0  0  0  0
  -24.1496  -36.7303   23.2645 C   0  0  0  0  0  0
  -25.9269  -30.8404   21.3608 C   0  0  0  0  0  0
  -26.0068  -29.4752   20.7093 C   0  0  0  0  0  0
  -27.2062  -28.7280   20.6912 C   0  0  0  0  0  0
  -26.0573  -26.9435   19.4963 C   0  0  0  0  0  0
  -24.8666  -27.6933   19.5056 C   0  0  0  0  0  0
  -23.6071  -29.8243   20.1655 C   0  0  0  0  0  0
  -25.4125  -36.3108   24.0341 C   0  0  1  0  0  0
  -20.5846  -28.3656   23.1331 C   0  0  2  0  0  0
  -20.6749  -26.9394   22.5417 C   0  0  0  0  0  0
  -19.5736  -26.6386   21.5201 C   0  0  0  0  0  0
  -18.1913  -26.7926   22.1604 C   0  0  0  0  0  0
  -19.1511  -28.8831   23.2891 C   0  0  0  0  0  0
  -18.9452  -30.1434   23.8907 C   0  0  0  0  0  0
  -17.6458  -30.6583   24.0563 C   0  0  0  0  0  0
  -25.9040  -34.9476   23.5129 C   0  0  0  0  0  0
  -16.5345  -29.9083   23.6330 C   0  0  0  0  0  0
  -16.7256  -28.6500   23.0351 C   0  0  0  0  0  0
  -26.4483  -31.6604   25.0713 C   0  0  0  0  0  0
  -25.3764  -31.3716   26.1472 C   0  0  0  0  0  0
  -27.0306  -30.3049   24.6064 C   0  0  0  0  0  0
  -27.6057  -32.4327   25.7474 C   0  0  0  0  0  0
  -27.5570  -37.1830   24.8491 C   0  0  0  0  0  0
  -21.4136  -29.3026   22.3748 N   0  0  0  0  0  0
  -26.4329  -37.3777   23.9378 N   0  0  0  0  0  0
  -24.6641  -31.0809   22.1001 N   0  0  0  0  0  0
  -23.4196  -28.8194   23.3032 O   0  0  0  0  0  0
  -28.3879  -26.7051   20.0946 O   0  0  0  0  0  0
  -26.5582  -34.8921   22.4674 O   0  0  0  0  0  0
  -23.5334  -32.1447   23.7522 O   0  0  0  0  0  0
  -30.7592  -16.8422   18.6222 C   0  0  0  0  0  0
  -30.7085  -19.2804   18.5964 C   0  0  0  0  0  0
  -30.2217  -16.8210   19.9334 C   0  0  0  0  0  0
  -30.1256  -19.2914   19.8831 C   0  0  0  0  0  0
  -29.8944  -18.0558   20.5476 C   0  0  0  0  0  0
  -31.0159  -18.0608   17.9693 C   0  0  0  0  0  0
  -29.0213  -22.8953   20.5625 C   0  0  0  0  0  0
  -29.0350  -24.3279   19.9550 C   0  0  0  0  0  0
  -29.7234  -21.7606   19.7913 C   0  0  0  0  0  0
  -28.2593  -25.4132   20.7171 C   0  0  0  0  0  0
  -29.3760  -18.0661   21.8425 N   0  0  0  0  0  0
  -29.9693  -15.5829   20.6174 N   0  0  0  0  0  0
  -29.7695  -20.4882   20.5340 N   0  0  0  0  0  0
  -28.4519  -22.6601   21.6375 O   0  0  0  0  0  0
  -29.6396  -24.5761   18.9029 O   0  0  0  0  0  0
  -31.5575  -18.0598   16.7267 F   0  0  0  0  0  0
  -31.4608  -12.3476   19.1423 H   0  0  0  0  0  0
  -30.2893  -11.2814   19.8636 H   0  0  0  0  0  0
  -29.7313  -11.7226   17.4517 H   0  0  0  0  0  0
  -29.6725  -13.4422   17.7553 H   0  0  0  0  0  0
  -27.8293  -11.2913   18.8490 H   0  0  0  0  0  0
  -27.3664  -12.5929   17.7873 H   0  0  0  0  0  0
  -27.6865  -14.2478   19.5311 H   0  0  0  0  0  0
  -28.6630  -12.0319   21.3985 H   0  0  0  0  0  0
  -28.4832  -13.7122   21.8265 H   0  0  0  0  0  0
  -25.2754   -9.5677   22.4764 H   0  0  0  0  0  0
  -23.9987   -7.4634   22.7480 H   0  0  0  0  0  0
  -21.0834   -8.8754   19.8951 H   0  0  0  0  0  0
  -22.3682  -10.9662   19.6162 H   0  0  0  0  0  0
  -21.2002   -7.6141   23.9710 H   0  0  0  0  0  0
  -21.1483   -6.0520   25.9072 H   0  0  0  0  0  0
  -22.0602   -2.7607   23.2841 H   0  0  0  0  0  0
  -22.4090  -11.9861   22.4778 H   0  0  0  0  0  0
  -21.1116  -13.1260   22.2630 H   0  0  0  0  0  0
  -24.6590  -15.8425   20.5075 H   0  0  0  0  0  0
  -26.2805  -15.6307   20.0839 H   0  0  0  0  0  0
  -26.7119  -32.5552   23.1165 H   0  0  0  0  0  0
  -25.0108  -33.9791   25.0503 H   0  0  0  0  0  0
  -22.6849  -31.3063   21.4122 H   0  0  0  0  0  0
  -23.3720  -35.9683   23.3440 H   0  0  0  0  0  0
  -24.3548  -36.8776   22.2029 H   0  0  0  0  0  0
  -23.7323  -37.6581   23.6571 H   0  0  0  0  0  0
  -26.0373  -31.6084   20.5951 H   0  0  0  0  0  0
  -26.8149  -30.8921   21.9797 H   0  0  0  0  0  0
  -28.1043  -29.1202   21.1475 H   0  0  0  0  0  0
  -26.0613  -25.9743   19.0175 H   0  0  0  0  0  0
  -23.9752  -27.2927   19.0427 H   0  0  0  0  0  0
  -23.7110  -30.6002   19.4063 H   0  0  0  0  0  0
  -22.7333  -29.2403   19.8699 H   0  0  0  0  0  0
  -25.1317  -36.1997   25.0846 H   0  0  0  0  0  0
  -20.9905  -28.3215   24.1467 H   0  0  0  0  0  0
  -20.5644  -26.2260   23.3600 H   0  0  0  0  0  0
  -21.6624  -26.7439   22.1213 H   0  0  0  0  0  0
  -19.6903  -25.6302   21.1227 H   0  0  0  0  0  0
  -19.6701  -27.3200   20.6738 H   0  0  0  0  0  0
  -17.4180  -26.6688   21.4001 H   0  0  0  0  0  0
  -18.0297  -26.0053   22.8985 H   0  0  0  0  0  0
  -19.7937  -30.7225   24.2303 H   0  0  0  0  0  0
  -17.5022  -31.6272   24.5149 H   0  0  0  0  0  0
  -15.5349  -30.2984   23.7666 H   0  0  0  0  0  0
  -15.8655  -28.0831   22.7076 H   0  0  0  0  0  0
  -24.5937  -30.7059   25.7814 H   0  0  0  0  0  0
  -24.8951  -32.2870   26.4921 H   0  0  0  0  0  0
  -25.8111  -30.8890   27.0230 H   0  0  0  0  0  0
  -26.2816  -29.6816   24.1158 H   0  0  0  0  0  0
  -27.4130  -29.7297   25.4505 H   0  0  0  0  0  0
  -27.8638  -30.4378   23.9162 H   0  0  0  0  0  0
  -27.2672  -33.3621   26.2074 H   0  0  0  0  0  0
  -28.3844  -32.6909   25.0287 H   0  0  0  0  0  0
  -28.0746  -31.8448   26.5375 H   0  0  0  0  0  0
  -28.2693  -38.0009   24.7361 H   0  0  0  0  0  0
  -28.0947  -36.2538   24.6548 H   0  0  0  0  0  0
  -27.2251  -37.1772   25.8885 H   0  0  0  0  0  0
  -20.9306  -29.8755   21.6976 H   0  0  0  0  0  0
  -26.0234  -38.2888   24.1260 H   0  0  0  0  0  0
  -30.9902  -15.9252   18.1000 H   0  0  0  0  0  0
  -30.9208  -20.1948   18.0643 H   0  0  0  0  0  0
  -30.7359  -22.0872   19.5494 H   0  0  0  0  0  0
  -29.1966  -21.6249   18.8451 H   0  0  0  0  0  0
  -28.6438  -25.4720   21.7357 H   0  0  0  0  0  0
  -27.2209  -25.0924   20.7979 H   0  0  0  0  0  0
  -29.6224  -17.2471   22.3858 H   0  0  0  0  0  0
  -29.6132  -18.9089   22.3516 H   0  0  0  0  0  0
  -29.0597  -15.4898   21.0439 H   0  0  0  0  0  0
  -29.0724  -20.3895   21.2673 H   0  0  0  0  0  0
  1 25  1  0  0  0
  1 30  2  0  0  0
  1 82  1  0  0  0
  2  3  1  0  0  0
  2 25  1  0  0  0
  2 87  1  0  0  0
  2 88  1  0  0  0
  3  4  1  0  0  0
  3 89  1  0  0  0
  3 90  1  0  0  0
  4  5  1  0  0  0
  4 91  1  0  0  0
  4 92  1  0  0  0
  5  6  1  0  0  0
  5 26  1  0  0  0
  5 93  1  0  0  0
  6 25  1  0  0  0
  6 94  1  0  0  0
  6 95  1  0  0  0
  7  8  2  0  0  0
  7 26  1  0  0  0
  7 29  1  0  0  0
  8  9  1  0  0  0
  8 22  1  0  0  0
  9 10  1  0  0  0
  9 27  2  0  0  0
 10 11  2  0  0  0
 10 15  1  0  0  0
 11 12  1  0  0  0
 11 96  1  0  0  0
 12 13  2  0  0  0
 12 97  1  0  0  0
 13 14  1  0  0  0
 13 31  1  0  0  0
 14 15  2  0  0  0
 14 98  1  0  0  0
 15 99  1  0  0  0
 16 17  2  0  0  0
 16 21  1  0  0  0
 16 31  1  0  0  0
 17 18  1  0  0  0
 17100  1  0  0  0
 18 19  2  0  0  0
 18101  1  0  0  0
 19 20  1  0  0  0
 19 24  1  0  0  0
 20 21  2  0  0  0
 20102  1  0  0  0
 21 23  1  0  0  0
 22 28  1  0  0  0
 22 32  2  0  0  0
 26 27  1  0  0  0
 28103  1  0  0  0
 28104  1  0  0  0
 29105  1  0  0  0
 29106  1  0  0  0
 33 34  1  0  0  0
 33 66  1  0  0  0
 33 70  2  0  0  0
 34 36  1  0  0  0
 34 59  1  0  0  0
 34107  1  0  0  0
 35 44  2  0  0  0
 35 45  1  0  0  0
 35 68  1  0  0  0
 36 56  1  0  0  0
 36108  1  0  0  0
 37 39  1  0  0  0
 37 47  1  0  0  0
 37 66  1  0  0  0
 37109  1  0  0  0
 38 43  2  0  0  0
 38 46  1  0  0  0
 38 47  1  0  0  0
 39 64  1  0  0  0
 39 67  2  0  0  0
 40 52  1  0  0  0
 40 53  2  0  0  0
 40 58  1  0  0  0
 41110  1  0  0  0
 41111  1  0  0  0
 41112  1  0  0  0
 41 48  1  0  0  0
 42 43  1  0  0  0
 42 66  1  0  0  0
 42113  1  0  0  0
 42114  1  0  0  0
 43 44  1  0  0  0
 44115  1  0  0  0
 45 46  2  0  0  0
 45116  1  0  0  0
 46117  1  0  0  0
 47118  1  0  0  0
 47119  1  0  0  0
 48 56  1  0  0  0
 48 65  1  0  0  0
 48120  1  0  0  0
 49 50  1  0  0  0
 49 53  1  0  0  0
 49 64  1  0  0  0
 49121  1  0  0  0
 50 51  1  0  0  0
 50122  1  0  0  0
 50123  1  0  0  0
 51 52  1  0  0  0
 51124  1  0  0  0
 51125  1  0  0  0
 52126  1  0  0  0
 52127  1  0  0  0
 53 54  1  0  0  0
 54 55  2  0  0  0
 54128  1  0  0  0
 55 57  1  0  0  0
 55129  1  0  0  0
 56 69  2  0  0  0
 57 58  2  0  0  0
 57130  1  0  0  0
 58131  1  0  0  0
 59 60  1  0  0  0
 59 61  1  0  0  0
 59 62  1  0  0  0
 60132  1  0  0  0
 60133  1  0  0  0
 60134  1  0  0  0
 61135  1  0  0  0
 61136  1  0  0  0
 61137  1  0  0  0
 62138  1  0  0  0
 62139  1  0  0  0
 62140  1  0  0  0
 63 65  1  0  0  0
 63141  1  0  0  0
 63142  1  0  0  0
 63143  1  0  0  0
 64144  1  0  0  0
 65145  1  0  0  0
 68 80  1  0  0  0
 71 73  2  0  0  0
 71 76  1  0  0  0
 71146  1  0  0  0
 72 74  1  0  0  0
 72 76  2  0  0  0
 72147  1  0  0  0
 73 75  1  0  0  0
 73 82  1  0  0  0
 74 75  2  0  0  0
 74 83  1  0  0  0
 75 81  1  0  0  0
 76 86  1  0  0  0
 77 78  1  0  0  0
 77 79  1  0  0  0
 77 84  2  0  0  0
 78 80  1  0  0  0
 78 85  2  0  0  0
 79 83  1  0  0  0
 79148  1  0  0  0
 79149  1  0  0  0
 80150  1  0  0  0
 80151  1  0  0  0
 81152  1  0  0  0
 81153  1  0  0  0
 82154  1  0  0  0
 83155  1  0  0  0
M  ISO  4   1 100  68 101  80 101  82 100
M  END
> <chiral flag>
0

> <version>
0

> <s_m_source_file>
/data/baiqing/PycharmProjects/Reinvent-master-3.2/result/LINK_invent/BTK/process_docking_weight1_custom_product_contain_oxygen_bond_distance_aromatic_linkinvent_7_9_3/rearranged_h_0163.sdf

> <i_m_source_file_index>
62

> <r_mmod_Potential_Energy-OPLS-2005>
-68.3796691894531

> <r_mmod_Stretch_Energy-OPLS-2005>
38.2610778808594

> <r_mmod_Bend_Energy-OPLS-2005>
92.8501892089844

> <r_mmod_Torsional_Energy-OPLS-2005>
253.407638549805

> <r_mmod_Improper_Torsional_Energy-OPLS-2005>
15.0334053039551

> <r_mmod_Van_der_Waal_Energy-OPLS-2005>
164.332504272461

> <r_mmod_Electrostatic_Energy-OPLS-2005>
-410.732116699219

> <r_mmod_Solvation_Energy-OPLS-2005>
-240.608795166016

> <b_mmod_Minimization_Converged-OPLS-2005>
0

> <r_mmod_RMS_Derivative-OPLS-2005>
2.02458620071411

$$$$
62
                    3D
 Structure written by MMmdl.
167176  0  0  1  0            999 V2000
  -30.7286  -14.4429   20.6012 C   0  0  0  0  0  0
  -30.4230  -12.3003   19.4158 C   0  0  0  0  0  0
  -29.4931  -12.5098   18.2037 C   0  0  0  0  0  0
  -28.0158  -12.3705   18.6185 C   0  0  0  0  0  0
  -27.6651  -13.2054   19.8795 C   0  0  2  0  0  0
  -28.7076  -12.9755   20.9979 C   0  0  0  0  0  0
  -25.2604  -13.8161   20.5697 C   0  0  0  0  0  0
  -24.1849  -13.0444   20.9186 C   0  0  0  0  0  0
  -24.6399  -11.6908   20.8736 C   0  0  0  0  0  0
  -23.9069  -10.4299   21.0405 C   0  0  0  0  0  0
  -24.3621   -9.4211   21.9183 C   0  0  0  0  0  0
  -23.6291   -8.2249   22.0754 C   0  0  0  0  0  0
  -22.4276   -8.0284   21.3544 C   0  0  0  0  0  0
  -21.9910   -9.0261   20.4652 C   0  0  0  0  0  0
  -22.7239  -10.2141   20.3057 C   0  0  0  0  0  0
  -21.6848   -6.0739   22.5280 C   0  0  0  0  0  0
  -21.4014   -6.5645   23.8215 C   0  0  0  0  0  0
  -21.3656   -5.6797   24.9175 C   0  0  0  0  0  0
  -21.6047   -4.3061   24.7229 C   0  0  0  0  0  0
  -21.8812   -3.8152   23.4348 C   0  0  0  0  0  0
  -21.9189   -4.6967   22.3404 C   0  0  0  0  0  0
  -22.7871  -13.5246   21.1843 C   0  0  0  0  0  0
  -22.1657   -4.2161   21.0981 F   0  0  0  0  0  0
  -21.5627   -3.4539   25.7738 F   0  0  0  0  0  0
  -30.0434  -13.2759   20.4488 N   0  0  0  0  0  0
  -26.3042  -12.9329   20.3382 N   0  0  0  0  0  0
  -25.9327  -11.6492   20.5768 N   0  0  0  0  0  0
  -22.0501  -12.8245   22.0395 N   0  0  0  0  0  0
  -25.4331  -15.1878   20.4095 N   0  0  0  0  0  0
  -31.8342  -14.6356   20.0880 O   0  0  0  0  0  0
  -21.6629   -6.8883   21.4250 O   0  0  0  0  0  0
  -22.3573  -14.5563   20.6693 O   0  0  0  0  0  0
  -24.6160  -31.8685   23.2113 C   0  0  0  0  0  0
  -25.9069  -32.4811   23.8399 C   0  0  1  0  0  0
  -27.2299  -27.4210   20.0902 C   0  0  0  0  0  0
  -25.5935  -33.8606   24.2336 N   0  0  0  0  0  0
  -23.4033  -30.4949   21.5531 C   0  0  2  0  0  0
  -24.8475  -28.9620   20.1167 C   0  0  0  0  0  0
  -22.7422  -29.4670   22.4996 C   0  0  0  0  0  0
  -18.0276  -28.1373   22.8488 C   0  0  0  0  0  0
  -24.1493  -36.7307   23.2635 C   0  0  0  0  0  0
  -25.9355  -30.8262   21.3705 C   0  0  0  0  0  0
  -26.0109  -29.4610   20.7160 C   0  0  0  0  0  0
  -27.2040  -28.6990   20.6995 C   0  0  0  0  0  0
  -26.0459  -26.9531   19.4691 C   0  0  0  0  0  0
  -24.8607  -27.7059   19.4929 C   0  0  0  0  0  0
  -23.6126  -29.8319   20.1663 C   0  0  0  0  0  0
  -25.4112  -36.3103   24.0333 C   0  0  1  0  0  0
  -20.5864  -28.3677   23.1313 C   0  0  2  0  0  0
  -20.6772  -26.9413   22.5420 C   0  0  0  0  0  0
  -19.5752  -26.6385   21.5216 C   0  0  0  0  0  0
  -18.1928  -26.7919   22.1623 C   0  0  0  0  0  0
  -19.1524  -28.8841   23.2892 C   0  0  0  0  0  0
  -18.9455  -30.1447   23.8898 C   0  0  0  0  0  0
  -17.6457  -30.6583   24.0563 C   0  0  0  0  0  0
  -25.9033  -34.9467   23.5122 C   0  0  0  0  0  0
  -16.5346  -29.9083   23.6326 C   0  0  0  0  0  0
  -16.7264  -28.6500   23.0344 C   0  0  0  0  0  0
  -26.4493  -31.6582   25.0723 C   0  0  0  0  0  0
  -25.3762  -31.3702   26.1478 C   0  0  0  0  0  0
  -27.0326  -30.3010   24.6114 C   0  0  0  0  0  0
  -27.6060  -32.4306   25.7495 C   0  0  0  0  0  0
  -27.5579  -37.1812   24.8468 C   0  0  0  0  0  0
  -21.4153  -29.3040   22.3722 N   0  0  0  0  0  0
  -26.4294  -37.3788   23.9406 N   0  0  0  0  0  0
  -24.6695  -31.0784   22.1020 N   0  0  0  0  0  0
  -23.4195  -28.8200   23.3032 O   0  0  0  0  0  0
  -28.3969  -26.6725   20.0802 O   0  0  0  0  0  0
  -26.5595  -34.8914   22.4679 O   0  0  0  0  0  0
  -23.5359  -32.1468   23.7507 O   0  0  0  0  0  0
  -31.9607  -18.6721   21.6030 C   0  0  0  0  0  0
  -31.7104  -17.2901   21.4462 C   0  0  0  0  0  0
  -29.3193  -17.7245   21.4869 C   0  0  0  0  0  0
  -30.8941  -19.5971   21.6954 C   0  0  0  0  0  0
  -30.3823  -16.7993   21.3757 C   0  0  0  0  0  0
  -29.5664  -19.1056   21.6447 C   0  0  0  0  0  0
  -31.1878  -21.0262   21.9370 C   0  0  0  0  0  0
  -28.8707  -22.8457   19.7551 C   0  0  0  0  0  0
  -30.7221  -24.4681   20.3554 C   0  0  0  0  0  0
  -30.0385  -21.8514   19.8704 C   0  0  0  0  0  0
  -30.9507  -23.4926   21.5361 C   0  0  0  0  0  0
  -29.3308  -24.3341   19.6803 C   0  0  0  0  0  0
  -28.4446  -24.9274   17.4615 C   0  0  0  0  0  0
  -28.2622  -25.2587   20.3481 C   0  0  0  0  0  0
  -30.7549  -22.0595   21.1562 N   0  0  0  0  0  0
  -30.0599  -15.4116   21.2529 N   0  0  0  0  0  0
  -31.9419  -21.3157   22.9997 N   0  3  0  0  0  0
  -29.5670  -24.6669   18.3020 O   0  0  0  0  0  0
  -28.5137  -19.9514   21.7723 F   0  0  0  0  0  0
  -31.4672  -12.3928   19.1122 H   0  0  0  0  0  0
  -30.3168  -11.2867   19.8065 H   0  0  0  0  0  0
  -29.7301  -11.7939   17.4165 H   0  0  0  0  0  0
  -29.6644  -13.4985   17.7732 H   0  0  0  0  0  0
  -27.8257  -11.3139   18.8095 H   0  0  0  0  0  0
  -27.3632  -12.6489   17.7900 H   0  0  0  0  0  0
  -27.7125  -14.2552   19.5878 H   0  0  0  0  0  0
  -28.6810  -11.9373   21.3327 H   0  0  0  0  0  0
  -28.4669  -13.5652   21.8833 H   0  0  0  0  0  0
  -25.2765   -9.5681   22.4761 H   0  0  0  0  0  0
  -23.9993   -7.4638   22.7469 H   0  0  0  0  0  0
  -21.0834   -8.8782   19.8959 H   0  0  0  0  0  0
  -22.3690  -10.9684   19.6168 H   0  0  0  0  0  0
  -21.2004   -7.6154   23.9729 H   0  0  0  0  0  0
  -21.1487   -6.0522   25.9081 H   0  0  0  0  0  0
  -22.0591   -2.7616   23.2841 H   0  0  0  0  0  0
  -22.4101  -11.9906   22.4804 H   0  0  0  0  0  0
  -21.1130  -13.1299   22.2597 H   0  0  0  0  0  0
  -24.6613  -15.8386   20.5081 H   0  0  0  0  0  0
  -26.2737  -15.6235   20.0542 H   0  0  0  0  0  0
  -26.7134  -32.5533   23.1156 H   0  0  0  0  0  0
  -25.0118  -33.9760   25.0507 H   0  0  0  0  0  0
  -22.6921  -31.3124   21.4171 H   0  0  0  0  0  0
  -23.3735  -35.9657   23.3314 H   0  0  0  0  0  0
  -24.3585  -36.8903   22.2043 H   0  0  0  0  0  0
  -23.7258  -37.6521   23.6639 H   0  0  0  0  0  0
  -26.0573  -31.5921   20.6036 H   0  0  0  0  0  0
  -26.8185  -30.8739   21.9945 H   0  0  0  0  0  0
  -28.1006  -29.0815   21.1676 H   0  0  0  0  0  0
  -26.0145  -26.0133   18.9395 H   0  0  0  0  0  0
  -23.9698  -27.3218   19.0149 H   0  0  0  0  0  0
  -23.7274  -30.6106   19.4113 H   0  0  0  0  0  0
  -22.7347  -29.2583   19.8658 H   0  0  0  0  0  0
  -25.1282  -36.1957   25.0820 H   0  0  0  0  0  0
  -20.9951  -28.3237   24.1433 H   0  0  0  0  0  0
  -20.5685  -26.2282   23.3601 H   0  0  0  0  0  0
  -21.6642  -26.7461   22.1202 H   0  0  0  0  0  0
  -19.6912  -25.6301   21.1229 H   0  0  0  0  0  0
  -19.6676  -27.3209   20.6752 H   0  0  0  0  0  0
  -17.4200  -26.6675   21.4019 H   0  0  0  0  0  0
  -18.0324  -26.0052   22.9010 H   0  0  0  0  0  0
  -19.7932  -30.7269   24.2259 H   0  0  0  0  0  0
  -17.5010  -31.6258   24.5184 H   0  0  0  0  0  0
  -15.5348  -30.2985   23.7643 H   0  0  0  0  0  0
  -15.8666  -28.0820   22.7048 H   0  0  0  0  0  0
  -24.5921  -30.7054   25.7838 H   0  0  0  0  0  0
  -24.8975  -32.2870   26.4927 H   0  0  0  0  0  0
  -25.8118  -30.8880   27.0238 H   0  0  0  0  0  0
  -26.2881  -29.6762   24.1156 H   0  0  0  0  0  0
  -27.4083  -29.7241   25.4578 H   0  0  0  0  0  0
  -27.8727  -30.4309   23.9279 H   0  0  0  0  0  0
  -27.2655  -33.3580   26.2106 H   0  0  0  0  0  0
  -28.3855  -32.6903   25.0323 H   0  0  0  0  0  0
  -28.0747  -31.8417   26.5389 H   0  0  0  0  0  0
  -28.2609  -38.0098   24.7493 H   0  0  0  0  0  0
  -28.1060  -36.2625   24.6317 H   0  0  0  0  0  0
  -27.2298  -37.1494   25.8873 H   0  0  0  0  0  0
  -20.9320  -29.8770   21.6941 H   0  0  0  0  0  0
  -26.0177  -38.2863   24.1389 H   0  0  0  0  0  0
  -32.9840  -19.0192   21.6614 H   0  0  0  0  0  0
  -32.5552  -16.6178   21.3950 H   0  0  0  0  0  0
  -28.2947  -17.3821   21.4568 H   0  0  0  0  0  0
  -28.2378  -22.6996   20.6325 H   0  0  0  0  0  0
  -28.2409  -22.5695   18.9111 H   0  0  0  0  0  0
  -31.5051  -24.2804   19.6189 H   0  0  0  0  0  0
  -30.8850  -25.4959   20.6808 H   0  0  0  0  0  0
  -30.7358  -21.9884   19.0413 H   0  0  0  0  0  0
  -29.6507  -20.8411   19.7597 H   0  0  0  0  0  0
  -30.2797  -23.7402   22.3608 H   0  0  0  0  0  0
  -31.9673  -23.6456   21.9018 H   0  0  0  0  0  0
  -27.6341  -24.2106   17.5851 H   0  0  0  0  0  0
  -28.7595  -24.8850   16.4193 H   0  0  0  0  0  0
  -28.0521  -25.9280   17.6311 H   0  0  0  0  0  0
  -28.3113  -25.1307   21.4291 H   0  0  0  0  0  0
  -27.2851  -24.8628   20.0820 H   0  0  0  0  0  0
  -29.1349  -15.1443   21.5482 H   0  0  0  0  0  0
  -32.2368  -20.5701   23.6127 H   0  0  0  0  0  0
  -32.2208  -22.2554   23.2240 H   0  0  0  0  0  0
  1 25  1  0  0  0
  1 30  2  0  0  0
  1 86  1  0  0  0
  2  3  1  0  0  0
  2 25  1  0  0  0
  2 90  1  0  0  0
  2 91  1  0  0  0
  3  4  1  0  0  0
  3 92  1  0  0  0
  3 93  1  0  0  0
  4  5  1  0  0  0
  4 94  1  0  0  0
  4 95  1  0  0  0
  5  6  1  0  0  0
  5 26  1  0  0  0
  5 96  1  0  0  0
  6 25  1  0  0  0
  6 97  1  0  0  0
  6 98  1  0  0  0
  7  8  2  0  0  0
  7 26  1  0  0  0
  7 29  1  0  0  0
  8  9  1  0  0  0
  8 22  1  0  0  0
  9 10  1  0  0  0
  9 27  2  0  0  0
 10 11  2  0  0  0
 10 15  1  0  0  0
 11 12  1  0  0  0
 11 99  1  0  0  0
 12 13  2  0  0  0
 12100  1  0  0  0
 13 14  1  0  0  0
 13 31  1  0  0  0
 14 15  2  0  0  0
 14101  1  0  0  0
 15102  1  0  0  0
 16 17  2  0  0  0
 16 21  1  0  0  0
 16 31  1  0  0  0
 17 18  1  0  0  0
 17103  1  0  0  0
 18 19  2  0  0  0
 18104  1  0  0  0
 19 20  1  0  0  0
 19 24  1  0  0  0
 20 21  2  0  0  0
 20105  1  0  0  0
 21 23  1  0  0  0
 22 28  1  0  0  0
 22 32  2  0  0  0
 26 27  1  0  0  0
 28106  1  0  0  0
 28107  1  0  0  0
 29108  1  0  0  0
 29109  1  0  0  0
 33 34  1  0  0  0
 33 66  1  0  0  0
 33 70  2  0  0  0
 34 36  1  0  0  0
 34 59  1  0  0  0
 34110  1  0  0  0
 35 44  2  0  0  0
 35 45  1  0  0  0
 35 68  1  0  0  0
 36 56  1  0  0  0
 36111  1  0  0  0
 37 39  1  0  0  0
 37 47  1  0  0  0
 37 66  1  0  0  0
 37112  1  0  0  0
 38 43  2  0  0  0
 38 46  1  0  0  0
 38 47  1  0  0  0
 39 64  1  0  0  0
 39 67  2  0  0  0
 40 52  1  0  0  0
 40 53  2  0  0  0
 40 58  1  0  0  0
 41113  1  0  0  0
 41114  1  0  0  0
 41115  1  0  0  0
 41 48  1  0  0  0
 42 43  1  0  0  0
 42 66  1  0  0  0
 42116  1  0  0  0
 42117  1  0  0  0
 43 44  1  0  0  0
 44118  1  0  0  0
 45 46  2  0  0  0
 45119  1  0  0  0
 46120  1  0  0  0
 47121  1  0  0  0
 47122  1  0  0  0
 48 56  1  0  0  0
 48 65  1  0  0  0
 48123  1  0  0  0
 49 50  1  0  0  0
 49 53  1  0  0  0
 49 64  1  0  0  0
 49124  1  0  0  0
 50 51  1  0  0  0
 50125  1  0  0  0
 50126  1  0  0  0
 51 52  1  0  0  0
 51127  1  0  0  0
 51128  1  0  0  0
 52129  1  0  0  0
 52130  1  0  0  0
 53 54  1  0  0  0
 54 55  2  0  0  0
 54131  1  0  0  0
 55 57  1  0  0  0
 55132  1  0  0  0
 56 69  2  0  0  0
 57 58  2  0  0  0
 57133  1  0  0  0
 58134  1  0  0  0
 59 60  1  0  0  0
 59 61  1  0  0  0
 59 62  1  0  0  0
 60135  1  0  0  0
 60136  1  0  0  0
 60137  1  0  0  0
 61138  1  0  0  0
 61139  1  0  0  0
 61140  1  0  0  0
 62141  1  0  0  0
 62142  1  0  0  0
 62143  1  0  0  0
 63 65  1  0  0  0
 63144  1  0  0  0
 63145  1  0  0  0
 63146  1  0  0  0
 64147  1  0  0  0
 65148  1  0  0  0
 68 84  1  0  0  0
 71 72  2  0  0  0
 71 74  1  0  0  0
 71149  1  0  0  0
 72 75  1  0  0  0
 72150  1  0  0  0
 73 75  2  0  0  0
 73 76  1  0  0  0
 73151  1  0  0  0
 74 76  2  0  0  0
 74 77  1  0  0  0
 75 86  1  0  0  0
 76 89  1  0  0  0
 77 85  1  0  0  0
 77 87  2  0  0  0
 78 80  1  0  0  0
 78 82  1  0  0  0
 78152  1  0  0  0
 78153  1  0  0  0
 79 81  1  0  0  0
 79 82  1  0  0  0
 79154  1  0  0  0
 79155  1  0  0  0
 80 85  1  0  0  0
 80156  1  0  0  0
 80157  1  0  0  0
 81 85  1  0  0  0
 81158  1  0  0  0
 81159  1  0  0  0
 82 84  1  0  0  0
 82 88  1  0  0  0
 83 88  1  0  0  0
 83160  1  0  0  0
 83161  1  0  0  0
 83162  1  0  0  0
 84163  1  0  0  0
 84164  1  0  0  0
 86165  1  0  0  0
 87166  1  0  0  0
 87167  1  0  0  0
M  CHG  1  87   1
M  ISO  4   1 100  68 101  84 101  86 100
M  END
> <chiral flag>
0

> <version>
0

> <s_m_source_file>
/data/baiqing/PycharmProjects/Reinvent-master-3.2/result/LINK_invent/BTK/process_docking_weight1_custom_product_contain_oxygen_bond_distance_aromatic_linkinvent_7_9_3/rearranged_h_0163.sdf

> <i_m_source_file_index>
63

> <r_mmod_Potential_Energy-OPLS-2005>
-88.6454925537109

> <r_mmod_Stretch_Energy-OPLS-2005>
45.6891403198242

> <r_mmod_Bend_Energy-OPLS-2005>
115.850715637207

> <r_mmod_Torsional_Energy-OPLS-2005>
290.546752929688

> <r_mmod_Improper_Torsional_Energy-OPLS-2005>
3.49434375762939

> <r_mmod_Van_der_Waal_Energy-OPLS-2005>
183.053497314453

> <r_mmod_Electrostatic_Energy-OPLS-2005>
-333.575653076172

> <r_mmod_Solvation_Energy-OPLS-2005>
-405.256652832031

> <b_mmod_Minimization_Converged-OPLS-2005>
0

> <r_mmod_RMS_Derivative-OPLS-2005>
2.06208109855652

$$$$
63
                    3D
 Structure written by MMmdl.
158167  0  0  1  0            999 V2000
  -29.8874  -14.3305   21.0928 C   0  0  0  0  0  0
  -30.7884  -12.6507   19.2853 C   0  0  0  0  0  0
  -29.8683  -12.5794   17.9882 C   0  0  0  0  0  0
  -28.3519  -12.3510   18.2038 C   0  0  0  0  0  0
  -28.0536  -13.1468   19.4211 C   0  0  2  0  0  0
  -28.9815  -12.3698   20.5150 C   0  0  0  0  0  0
  -25.8112  -13.9300   19.9257 C   0  0  0  0  0  0
  -24.4360  -13.4831   21.1723 C   0  0  0  0  0  0
  -24.4529  -12.2561   21.6694 C   0  0  0  0  0  0
  -23.8180  -10.7763   21.4328 C   0  0  0  0  0  0
  -24.3260   -9.6334   22.1225 C   0  0  0  0  0  0
  -23.6831   -8.3582   22.1146 C   0  0  0  0  0  0
  -22.4974   -8.1380   21.3771 C   0  0  0  0  0  0
  -22.0711   -9.1927   20.5416 C   0  0  0  0  0  0
  -22.7171  -10.4645   20.5623 C   0  0  0  0  0  0
  -21.7309   -6.1219   22.5048 C   0  0  0  0  0  0
  -21.4309   -6.5982   23.8036 C   0  0  0  0  0  0
  -21.3713   -5.7048   24.8965 C   0  0  0  0  0  0
  -21.6002   -4.3302   24.7015 C   0  0  0  0  0  0
  -21.8727   -3.8451   23.4108 C   0  0  0  0  0  0
  -21.9304   -4.7337   22.3200 C   0  0  0  0  0  0
  -22.7855  -13.7899   21.4750 C   0  0  0  0  0  0
  -22.1735   -4.2427   21.0813 F   0  0  0  0  0  0
  -21.5540   -3.4745   25.7519 F   0  0  0  0  0  0
  -30.0713  -13.1303   20.4918 N   0  0  0  0  0  0
  -26.5492  -13.4264   19.5062 N   0  0  0  0  0  0
  -25.1163  -13.3666   20.8191 N   0  0  0  0  0  0
  -22.0998  -13.0416   22.3498 N   0  0  0  0  0  0
  -26.3198  -14.9500   18.9676 N   0  0  0  0  0  0
  -30.8602  -15.0891   20.8387 O   0  0  0  0  0  0
  -21.7675   -6.9560   21.4007 O   0  0  0  0  0  0
  -22.0434  -14.5611   20.8667 O   0  0  0  0  0  0
  -24.6816  -31.8062   23.1660 C   0  0  0  0  0  0
  -25.9438  -32.4472   23.8128 C   0  0  1  0  0  0
  -26.8552  -26.5800   20.3335 C   0  0  0  0  0  0
  -25.6043  -33.8318   24.1982 N   0  0  0  0  0  0
  -23.4888  -30.4395   21.5196 C   0  0  2  0  0  0
  -24.8875  -28.8003   20.0905 C   0  0  0  0  0  0
  -22.7701  -29.4392   22.4667 C   0  0  0  0  0  0
  -18.0326  -28.1421   22.8454 C   0  0  0  0  0  0
  -24.1466  -36.7152   23.2636 C   0  0  0  0  0  0
  -26.0678  -30.4978   21.4482 C   0  0  0  0  0  0
  -26.0658  -29.0659   20.7970 C   0  0  0  0  0  0
  -27.0645  -27.9688   20.8962 C   0  0  0  0  0  0
  -25.7623  -26.5830   19.4585 C   0  0  0  0  0  0
  -24.7922  -27.6040   19.3740 C   0  0  0  0  0  0
  -23.7287  -29.7925   20.1298 C   0  0  0  0  0  0
  -25.4117  -36.2918   24.0282 C   0  0  1  0  0  0
  -20.5954  -28.3776   23.1117 C   0  0  2  0  0  0
  -20.6791  -26.9435   22.5378 C   0  0  0  0  0  0
  -19.5762  -26.6355   21.5205 C   0  0  0  0  0  0
  -18.1954  -26.7944   22.1623 C   0  0  0  0  0  0
  -19.1594  -28.8925   23.2766 C   0  0  0  0  0  0
  -18.9508  -30.1508   23.8815 C   0  0  0  0  0  0
  -17.6502  -30.6605   24.0554 C   0  0  0  0  0  0
  -25.9134  -34.9305   23.4958 C   0  0  0  0  0  0
  -16.5386  -29.9090   23.6356 C   0  0  0  0  0  0
  -16.7308  -28.6510   23.0373 C   0  0  0  0  0  0
  -26.4592  -31.6556   25.0791 C   0  0  0  0  0  0
  -25.3623  -31.3907   26.1388 C   0  0  0  0  0  0
  -27.0570  -30.2895   24.6775 C   0  0  0  0  0  0
  -27.6022  -32.4450   25.7616 C   0  0  0  0  0  0
  -27.5573  -37.1705   24.8427 C   0  0  0  0  0  0
  -21.4362  -29.3044   22.3428 N   0  0  0  0  0  0
  -26.4216  -37.3715   23.9470 N   0  0  0  0  0  0
  -24.7718  -30.9518   22.0929 N   0  0  0  0  0  0
  -23.4201  -28.7930   23.2925 O   0  0  0  0  0  0
  -27.4514  -25.1784   20.5570 O   0  0  0  0  0  0
  -26.5756  -34.8886   22.4566 O   0  0  0  0  0  0
  -23.5856  -32.1189   23.6632 O   0  0  0  0  0  0
  -23.9495  -13.3870   18.8249 C   0  0  0  0  0  0
  -25.1919  -11.6440   19.4210 C   0  0  0  0  0  0
  -25.6386  -15.7069   21.2426 C   0  0  0  0  0  0
  -27.0318  -13.9838   21.8270 C   0  0  0  0  0  0
  -26.5009  -18.7809   22.1941 C   0  0  0  0  0  0
  -25.5248  -18.7524   20.1411 C   0  0  0  0  0  0
  -27.0832  -20.4331   21.9076 C   0  0  0  0  0  0
  -26.1357  -20.3597   19.8070 C   0  0  0  0  0  0
  -26.1948  -17.5174   21.0852 C   0  0  2  0  0  0
  -26.4667  -21.6375   20.8688 C   0  0  2  0  0  0
  -26.6241  -23.5962   20.5249 C   0  0  0  0  0  0
  -24.1308  -15.3348   19.7650 N   0  0  0  0  0  0
  -26.6761  -11.8828   21.0863 N   0  0  0  0  0  0
  -28.5729  -14.5622   21.8017 N   0  0  0  0  0  0
  -31.6426  -13.3033   19.0930 H   0  0  0  0  0  0
  -31.2207  -11.6693   19.4911 H   0  0  0  0  0  0
  -30.2661  -11.8558   17.2740 H   0  0  0  0  0  0
  -29.9743  -13.5412   17.4812 H   0  0  0  0  0  0
  -28.1072  -11.2933   18.3208 H   0  0  0  0  0  0
  -27.7936  -12.7138   17.3397 H   0  0  0  0  0  0
  -28.4725  -14.1117   19.1253 H   0  0  0  0  0  0
  -29.1554  -11.3224   20.2443 H   0  0  0  0  0  0
  -28.8184  -12.2234   21.5891 H   0  0  0  0  0  0
  -25.1981   -9.7642   22.7498 H   0  0  0  0  0  0
  -24.0927   -7.5636   22.7205 H   0  0  0  0  0  0
  -21.2008   -9.0557   19.9184 H   0  0  0  0  0  0
  -22.2936  -11.2571   19.9636 H   0  0  0  0  0  0
  -21.2491   -7.6508   23.9669 H   0  0  0  0  0  0
  -21.1526   -6.0759   25.8876 H   0  0  0  0  0  0
  -22.0366   -2.7909   23.2532 H   0  0  0  0  0  0
  -22.5397  -12.3464   22.9330 H   0  0  0  0  0  0
  -21.1101  -13.2095   22.4603 H   0  0  0  0  0  0
  -25.4256  -15.4527   19.0615 H   0  0  0  0  0  0
  -27.0280  -15.5481   19.3590 H   0  0  0  0  0  0
  -26.7487  -32.4860   23.0795 H   0  0  0  0  0  0
  -25.0131  -33.9370   25.0090 H   0  0  0  0  0  0
  -22.8112  -31.2824   21.3655 H   0  0  0  0  0  0
  -23.3832  -35.9367   23.3107 H   0  0  0  0  0  0
  -24.3565  -36.9021   22.2092 H   0  0  0  0  0  0
  -23.7070  -37.6207   23.6836 H   0  0  0  0  0  0
  -26.3043  -31.2148   20.6610 H   0  0  0  0  0  0
  -26.9147  -30.5317   22.1198 H   0  0  0  0  0  0
  -27.9199  -28.1300   21.5377 H   0  0  0  0  0  0
  -25.5434  -25.6801   18.9093 H   0  0  0  0  0  0
  -23.9139  -27.4268   18.7671 H   0  0  0  0  0  0
  -23.9467  -30.5737   19.4022 H   0  0  0  0  0  0
  -22.8161  -29.3111   19.7783 H   0  0  0  0  0  0
  -25.1287  -36.1668   25.0762 H   0  0  0  0  0  0
  -21.0041  -28.3430   24.1243 H   0  0  0  0  0  0
  -20.5691  -26.2403   23.3647 H   0  0  0  0  0  0
  -21.6646  -26.7407   22.1169 H   0  0  0  0  0  0
  -19.6914  -25.6245   21.1292 H   0  0  0  0  0  0
  -19.6695  -27.3114   20.6696 H   0  0  0  0  0  0
  -17.4204  -26.6674   21.4045 H   0  0  0  0  0  0
  -18.0362  -26.0118   22.9056 H   0  0  0  0  0  0
  -19.7987  -30.7339   24.2150 H   0  0  0  0  0  0
  -17.5062  -31.6289   24.5158 H   0  0  0  0  0  0
  -15.5385  -30.2971   23.7732 H   0  0  0  0  0  0
  -15.8708  -28.0804   22.7135 H   0  0  0  0  0  0
  -24.5730  -30.7366   25.7660 H   0  0  0  0  0  0
  -24.8915  -32.3172   26.4697 H   0  0  0  0  0  0
  -25.7739  -30.9085   27.0261 H   0  0  0  0  0  0
  -26.3303  -29.6430   24.1851 H   0  0  0  0  0  0
  -27.4044  -29.7446   25.5565 H   0  0  0  0  0  0
  -27.9269  -30.4035   24.0303 H   0  0  0  0  0  0
  -27.2533  -33.3822   26.1966 H   0  0  0  0  0  0
  -28.3962  -32.6901   25.0551 H   0  0  0  0  0  0
  -28.0547  -31.8748   26.5738 H   0  0  0  0  0  0
  -28.2381  -38.0205   24.7774 H   0  0  0  0  0  0
  -28.1280  -36.2766   24.5872 H   0  0  0  0  0  0
  -27.2355  -37.0861   25.8823 H   0  0  0  0  0  0
  -20.9628  -29.8798   21.6602 H   0  0  0  0  0  0
  -26.0034  -38.2716   24.1673 H   0  0  0  0  0  0
  -23.1964  -13.2866   18.0606 H   0  0  0  0  0  0
  -25.0738  -10.6733   18.9653 H   0  0  0  0  0  0
  -25.5856  -18.8940   22.7781 H   0  0  0  0  0  0
  -27.2047  -18.3532   22.9104 H   0  0  0  0  0  0
  -25.3762  -18.2972   19.1613 H   0  0  0  0  0  0
  -24.5075  -18.8952   20.5124 H   0  0  0  0  0  0
  -28.1329  -20.3231   21.6305 H   0  0  0  0  0  0
  -27.1305  -20.8948   22.8961 H   0  0  0  0  0  0
  -25.4452  -20.7764   19.0739 H   0  0  0  0  0  0
  -27.0519  -20.2119   19.2332 H   0  0  0  0  0  0
  -27.1728  -17.3419   20.6340 H   0  0  0  0  0  0
  -25.4822  -21.7345   21.3285 H   0  0  0  0  0  0
  -25.7304  -23.9192   21.0674 H   0  0  0  0  0  0
  -26.2902  -23.6141   19.4861 H   0  0  0  0  0  0
  -28.6104  -15.4745   22.2329 H   0  0  0  0  0  0
  1 25  1  0  0  0
  1 30  2  0  0  0
  1 84  1  0  0  0
  2  3  1  0  0  0
  2 25  1  0  0  0
  2 85  1  0  0  0
  2 86  1  0  0  0
  3  4  1  0  0  0
  3 87  1  0  0  0
  3 88  1  0  0  0
  4  5  1  0  0  0
  4 89  1  0  0  0
  4 90  1  0  0  0
  5  6  1  0  0  0
  5 26  1  0  0  0
  5 91  1  0  0  0
  6 25  1  0  0  0
  6 92  1  0  0  0
  6 93  1  0  0  0
  7  8  2  0  0  0
  7 26  1  0  0  0
  7 29  1  0  0  0
  8  9  1  0  0  0
  8 22  1  0  0  0
  9 10  1  0  0  0
  9 27  2  0  0  0
 10 11  2  0  0  0
 10 15  1  0  0  0
 11 12  1  0  0  0
 11 94  1  0  0  0
 12 13  2  0  0  0
 12 95  1  0  0  0
 13 14  1  0  0  0
 13 31  1  0  0  0
 14 15  2  0  0  0
 14 96  1  0  0  0
 15 97  1  0  0  0
 16 17  2  0  0  0
 16 21  1  0  0  0
 16 31  1  0  0  0
 17 18  1  0  0  0
 17 98  1  0  0  0
 18 19  2  0  0  0
 18 99  1  0  0  0
 19 20  1  0  0  0
 19 24  1  0  0  0
 20 21  2  0  0  0
 20100  1  0  0  0
 21 23  1  0  0  0
 22 28  1  0  0  0
 22 32  2  0  0  0
 26 27  1  0  0  0
 28101  1  0  0  0
 28102  1  0  0  0
 29103  1  0  0  0
 29104  1  0  0  0
 33 34  1  0  0  0
 33 66  1  0  0  0
 33 70  2  0  0  0
 34 36  1  0  0  0
 34 59  1  0  0  0
 34105  1  0  0  0
 35 44  2  0  0  0
 35 45  1  0  0  0
 35 68  1  0  0  0
 36 56  1  0  0  0
 36106  1  0  0  0
 37 39  1  0  0  0
 37 47  1  0  0  0
 37 66  1  0  0  0
 37107  1  0  0  0
 38 43  2  0  0  0
 38 46  1  0  0  0
 38 47  1  0  0  0
 39 64  1  0  0  0
 39 67  2  0  0  0
 40 52  1  0  0  0
 40 53  2  0  0  0
 40 58  1  0  0  0
 41108  1  0  0  0
 41109  1  0  0  0
 41110  1  0  0  0
 41 48  1  0  0  0
 42 43  1  0  0  0
 42 66  1  0  0  0
 42111  1  0  0  0
 42112  1  0  0  0
 43 44  1  0  0  0
 44113  1  0  0  0
 45 46  2  0  0  0
 45114  1  0  0  0
 46115  1  0  0  0
 47116  1  0  0  0
 47117  1  0  0  0
 48 56  1  0  0  0
 48 65  1  0  0  0
 48118  1  0  0  0
 49 50  1  0  0  0
 49 53  1  0  0  0
 49 64  1  0  0  0
 49119  1  0  0  0
 50 51  1  0  0  0
 50120  1  0  0  0
 50121  1  0  0  0
 51 52  1  0  0  0
 51122  1  0  0  0
 51123  1  0  0  0
 52124  1  0  0  0
 52125  1  0  0  0
 53 54  1  0  0  0
 54 55  2  0  0  0
 54126  1  0  0  0
 55 57  1  0  0  0
 55127  1  0  0  0
 56 69  2  0  0  0
 57 58  2  0  0  0
 57128  1  0  0  0
 58129  1  0  0  0
 59 60  1  0  0  0
 59 61  1  0  0  0
 59 62  1  0  0  0
 60130  1  0  0  0
 60131  1  0  0  0
 60132  1  0  0  0
 61133  1  0  0  0
 61134  1  0  0  0
 61135  1  0  0  0
 62136  1  0  0  0
 62137  1  0  0  0
 62138  1  0  0  0
 63 65  1  0  0  0
 63139  1  0  0  0
 63140  1  0  0  0
 63141  1  0  0  0
 64142  1  0  0  0
 65143  1  0  0  0
 68 81  1  0  0  0
 71 72  2  0  0  0
 71 82  1  0  0  0
 71144  1  0  0  0
 72 83  1  0  0  0
 72145  1  0  0  0
 73 74  1  0  0  0
 73 82  2  0  0  0
 73 79  1  0  0  0
 74 83  2  0  0  0
 74 84  1  0  0  0
 75 77  1  0  0  0
 75 79  1  0  0  0
 75146  1  0  0  0
 75147  1  0  0  0
 76 78  1  0  0  0
 76 79  1  0  0  0
 76148  1  0  0  0
 76149  1  0  0  0
 77 80  1  0  0  0
 77150  1  0  0  0
 77151  1  0  0  0
 78 80  1  0  0  0
 78152  1  0  0  0
 78153  1  0  0  0
 79154  1  0  0  0
 80 81  1  0  0  0
 80155  1  0  0  0
 81156  1  0  0  0
 81157  1  0  0  0
 84158  1  0  0  0
M  ISO  4   1 100  68 101  81 101  84 100
M  END
> <chiral flag>
0

> <version>
0

> <s_m_source_file>
/data/baiqing/PycharmProjects/Reinvent-master-3.2/result/LINK_invent/BTK/process_docking_weight1_custom_product_contain_oxygen_bond_distance_aromatic_linkinvent_7_9_3/rearranged_h_0163.sdf

> <i_m_source_file_index>
64

> <r_mmod_Potential_Energy-OPLS-2005>
21331.44140625

> <r_mmod_Stretch_Energy-OPLS-2005>
11971.439453125

> <r_mmod_Bend_Energy-OPLS-2005>
2555.51342773438

> <r_mmod_Torsional_Energy-OPLS-2005>
565.80615234375

> <r_mmod_Improper_Torsional_Energy-OPLS-2005>
97.6078033447266

> <r_mmod_Van_der_Waal_Energy-OPLS-2005>
4590.345703125

> <r_mmod_Electrostatic_Energy-OPLS-2005>
-362.925476074219

> <r_mmod_Solvation_Energy-OPLS-2005>
-228.437393188477

> <b_mmod_Minimization_Converged-OPLS-2005>
0

> <r_mmod_RMS_Derivative-OPLS-2005>
5.41121387481689

$$$$
64
                    3D
 Structure written by MMmdl.
156164  0  0  1  0            999 V2000
  -30.7027  -14.6369   20.5000 C   0  0  0  0  0  0
  -30.4307  -12.4025   19.4420 C   0  0  0  0  0  0
  -29.5066  -12.4899   18.2096 C   0  0  0  0  0  0
  -28.0246  -12.3631   18.6178 C   0  0  0  0  0  0
  -27.6472  -13.2402   19.8451 C   0  0  2  0  0  0
  -28.6984  -13.1443   20.9707 C   0  0  0  0  0  0
  -25.2543  -13.8226   20.5727 C   0  0  0  0  0  0
  -24.1825  -13.0459   20.9228 C   0  0  0  0  0  0
  -24.6425  -11.6921   20.8732 C   0  0  0  0  0  0
  -23.9089  -10.4296   21.0378 C   0  0  0  0  0  0
  -24.3620   -9.4210   21.9161 C   0  0  0  0  0  0
  -23.6288   -8.2245   22.0732 C   0  0  0  0  0  0
  -22.4270   -8.0287   21.3532 C   0  0  0  0  0  0
  -21.9928   -9.0260   20.4621 C   0  0  0  0  0  0
  -22.7263  -10.2135   20.3033 C   0  0  0  0  0  0
  -21.6850   -6.0746   22.5287 C   0  0  0  0  0  0
  -21.4013   -6.5628   23.8241 C   0  0  0  0  0  0
  -21.3655   -5.6759   24.9190 C   0  0  0  0  0  0
  -21.6053   -4.3026   24.7214 C   0  0  0  0  0  0
  -21.8818   -3.8133   23.4326 C   0  0  0  0  0  0
  -21.9198   -4.6970   22.3397 C   0  0  0  0  0  0
  -22.7834  -13.5243   21.1819 C   0  0  0  0  0  0
  -22.1657   -4.2162   21.0973 F   0  0  0  0  0  0
  -21.5626   -3.4504   25.7717 F   0  0  0  0  0  0
  -30.0096  -13.4606   20.3843 N   0  0  0  0  0  0
  -26.2982  -12.9456   20.3263 N   0  0  0  0  0  0
  -25.9359  -11.6583   20.5713 N   0  0  0  0  0  0
  -22.0389  -12.8286   22.0348 N   0  0  0  0  0  0
  -25.4206  -15.1942   20.4178 N   0  0  0  0  0  0
  -31.8954  -14.6848   20.1921 O   0  0  0  0  0  0
  -21.6628   -6.8884   21.4249 O   0  0  0  0  0  0
  -22.3556  -14.5543   20.6608 O   0  0  0  0  0  0
  -24.6273  -31.8632   23.2027 C   0  0  0  0  0  0
  -25.9116  -32.4812   23.8376 C   0  0  1  0  0  0
  -27.2410  -27.3726   20.1080 C   0  0  0  0  0  0
  -25.5959  -33.8621   24.2304 N   0  0  0  0  0  0
  -23.4200  -30.4846   21.5450 C   0  0  2  0  0  0
  -24.8725  -28.9447   20.1075 C   0  0  0  0  0  0
  -22.7506  -29.4681   22.4985 C   0  0  0  0  0  0
  -18.0308  -28.1340   22.8437 C   0  0  0  0  0  0
  -24.1490  -36.7324   23.2629 C   0  0  0  0  0  0
  -25.9575  -30.8073   21.3662 C   0  0  0  0  0  0
  -26.0368  -29.4404   20.7076 C   0  0  0  0  0  0
  -27.2297  -28.6646   20.6983 C   0  0  0  0  0  0
  -26.0555  -26.9065   19.5001 C   0  0  0  0  0  0
  -24.8808  -27.6796   19.4948 C   0  0  0  0  0  0
  -23.6314  -29.8091   20.1625 C   0  0  0  0  0  0
  -25.4116  -36.3123   24.0324 C   0  0  1  0  0  0
  -20.5926  -28.3672   23.1201 C   0  0  2  0  0  0
  -20.6926  -26.9452   22.5199 C   0  0  0  0  0  0
  -19.5769  -26.6176   21.5211 C   0  0  0  0  0  0
  -18.1916  -26.7918   22.1493 C   0  0  0  0  0  0
  -19.1566  -28.8796   23.2825 C   0  0  0  0  0  0
  -18.9486  -30.1362   23.8895 C   0  0  0  0  0  0
  -17.6483  -30.6490   24.0622 C   0  0  0  0  0  0
  -25.9046  -34.9484   23.5107 C   0  0  0  0  0  0
  -16.5377  -29.9008   23.6350 C   0  0  0  0  0  0
  -16.7287  -28.6465   23.0323 C   0  0  0  0  0  0
  -26.4496  -31.6619   25.0731 C   0  0  0  0  0  0
  -25.3731  -31.3771   26.1454 C   0  0  0  0  0  0
  -27.0352  -30.3060   24.6149 C   0  0  0  0  0  0
  -27.6063  -32.4371   25.7500 C   0  0  0  0  0  0
  -27.5591  -37.1814   24.8451 C   0  0  0  0  0  0
  -21.4224  -29.3095   22.3695 N   0  0  0  0  0  0
  -26.4308  -37.3800   23.9395 N   0  0  0  0  0  0
  -24.6870  -31.0674   22.0962 N   0  0  0  0  0  0
  -23.4232  -28.8203   23.3055 O   0  0  0  0  0  0
  -28.3175  -26.4946   20.1755 O   0  0  0  0  0  0
  -26.5572  -34.8954   22.4642 O   0  0  0  0  0  0
  -23.5437  -32.1446   23.7352 O   0  0  0  0  0  0
  -32.3146  -18.7071   21.5518 C   0  0  0  0  0  0
  -31.5068  -19.8327   21.3034 C   0  0  0  0  0  0
  -31.8183  -17.4024   21.3532 C   0  0  0  0  0  0
  -29.6764  -18.3381   20.6809 C   0  0  0  0  0  0
  -30.1741  -19.6806   20.8651 C   0  0  0  0  0  0
  -30.4960  -17.1696   20.8964 C   0  0  0  0  0  0
  -28.1219  -25.4473   21.0799 C   0  0  0  0  0  0
  -29.3562  -20.9354   20.6963 C   0  0  0  0  0  0
  -28.6031  -24.1601   21.1259 C   0  0  0  0  0  0
  -29.5342  -23.5315   20.1592 C   0  0  0  0  0  0
  -29.9945  -15.7982   20.7086 N   0  0  0  0  0  0
  -29.9034  -22.0995   20.2118 N   0  0  0  0  0  0
  -28.0771  -20.8869   21.0839 N   0  3  0  0  0  0
  -28.1604  -23.4170   22.3230 N   0  3  0  0  0  0
  -30.1660  -24.1898   19.3293 O   0  0  0  0  0  0
  -31.4706  -12.5181   19.1295 H   0  0  0  0  0  0
  -30.3698  -11.4207   19.9143 H   0  0  0  0  0  0
  -29.7611  -11.7097   17.4923 H   0  0  0  0  0  0
  -29.6747  -13.4381   17.6944 H   0  0  0  0  0  0
  -27.8285  -11.3158   18.8401 H   0  0  0  0  0  0
  -27.3882  -12.6196   17.7690 H   0  0  0  0  0  0
  -27.6466  -14.2712   19.4894 H   0  0  0  0  0  0
  -28.7099  -12.1427   21.4024 H   0  0  0  0  0  0
  -28.4583  -13.8272   21.7870 H   0  0  0  0  0  0
  -25.2761   -9.5692   22.4745 H   0  0  0  0  0  0
  -23.9992   -7.4651   22.7463 H   0  0  0  0  0  0
  -21.0860   -8.8782   19.8932 H   0  0  0  0  0  0
  -22.3717  -10.9666   19.6124 H   0  0  0  0  0  0
  -21.1997   -7.6131   23.9758 H   0  0  0  0  0  0
  -21.1473   -6.0468   25.9106 H   0  0  0  0  0  0
  -22.0600   -2.7597   23.2812 H   0  0  0  0  0  0
  -22.3915  -12.0013   22.4913 H   0  0  0  0  0  0
  -21.0962  -13.1317   22.2320 H   0  0  0  0  0  0
  -24.6486  -15.8392   20.5451 H   0  0  0  0  0  0
  -26.2558  -15.6423   20.0623 H   0  0  0  0  0  0
  -26.7203  -32.5479   23.1165 H   0  0  0  0  0  0
  -25.0270  -33.9806   25.0559 H   0  0  0  0  0  0
  -22.7155  -31.3064   21.3988 H   0  0  0  0  0  0
  -23.3770  -35.9632   23.3280 H   0  0  0  0  0  0
  -24.3611  -36.8949   22.2047 H   0  0  0  0  0  0
  -23.7229  -37.6522   23.6652 H   0  0  0  0  0  0
  -26.0750  -31.5672   20.5935 H   0  0  0  0  0  0
  -26.8452  -30.8705   21.9846 H   0  0  0  0  0  0
  -28.1239  -29.0371   21.1788 H   0  0  0  0  0  0
  -26.0342  -25.9217   19.0599 H   0  0  0  0  0  0
  -23.9855  -27.2903   19.0330 H   0  0  0  0  0  0
  -23.7372  -30.5801   19.4011 H   0  0  0  0  0  0
  -22.7581  -29.2212   19.8707 H   0  0  0  0  0  0
  -25.1305  -36.1991   25.0817 H   0  0  0  0  0  0
  -20.9978  -28.3098   24.1341 H   0  0  0  0  0  0
  -20.6274  -26.2262   23.3373 H   0  0  0  0  0  0
  -21.6721  -26.7745   22.0723 H   0  0  0  0  0  0
  -19.6702  -27.2664   20.6504 H   0  0  0  0  0  0
  -19.6863  -25.5948   21.1565 H   0  0  0  0  0  0
  -17.4328  -26.6916   21.3692 H   0  0  0  0  0  0
  -18.0040  -25.9967   22.8733 H   0  0  0  0  0  0
  -19.7984  -30.7130   24.2275 H   0  0  0  0  0  0
  -17.5024  -31.6137   24.5268 H   0  0  0  0  0  0
  -15.5377  -30.2891   23.7681 H   0  0  0  0  0  0
  -15.8676  -28.0822   22.6989 H   0  0  0  0  0  0
  -24.5882  -30.7159   25.7759 H   0  0  0  0  0  0
  -24.8966  -32.2967   26.4873 H   0  0  0  0  0  0
  -25.8042  -30.8931   27.0229 H   0  0  0  0  0  0
  -26.2913  -29.6806   24.1201 H   0  0  0  0  0  0
  -27.4136  -29.7315   25.4615 H   0  0  0  0  0  0
  -27.8736  -30.4396   23.9310 H   0  0  0  0  0  0
  -27.2665  -33.3676   26.2076 H   0  0  0  0  0  0
  -28.3866  -32.6947   25.0319 H   0  0  0  0  0  0
  -28.0747  -31.8514   26.5428 H   0  0  0  0  0  0
  -28.2594  -38.0127   24.7564 H   0  0  0  0  0  0
  -28.1125  -36.2687   24.6219 H   0  0  0  0  0  0
  -27.2332  -37.1371   25.8855 H   0  0  0  0  0  0
  -20.9390  -29.8887   21.6953 H   0  0  0  0  0  0
  -26.0204  -38.2877   24.1409 H   0  0  0  0  0  0
  -33.3231  -18.8438   21.9139 H   0  0  0  0  0  0
  -31.9142  -20.8173   21.4863 H   0  0  0  0  0  0
  -32.4800  -16.5841   21.5838 H   0  0  0  0  0  0
  -28.6474  -18.2008   20.3774 H   0  0  0  0  0  0
  -27.4667  -25.7913   21.8686 H   0  0  0  0  0  0
  -28.9918  -15.6931   20.6769 H   0  0  0  0  0  0
  -30.7137  -21.8413   19.6716 H   0  0  0  0  0  0
  -27.8099  -20.0283   21.5496 H   0  0  0  0  0  0
  -27.3841  -21.2099   20.4201 H   0  0  0  0  0  0
  -28.7151  -23.6599   23.1239 H   0  0  0  0  0  0
  -27.1994  -23.6119   22.5317 H   0  0  0  0  0  0
  -28.2410  -22.4241   22.1598 H   0  0  0  0  0  0
  1 25  1  0  0  0
  1 30  2  0  0  0
  1 81  1  0  0  0
  2  3  1  0  0  0
  2 25  1  0  0  0
  2 86  1  0  0  0
  2 87  1  0  0  0
  3  4  1  0  0  0
  3 88  1  0  0  0
  3 89  1  0  0  0
  4  5  1  0  0  0
  4 90  1  0  0  0
  4 91  1  0  0  0
  5  6  1  0  0  0
  5 26  1  0  0  0
  5 92  1  0  0  0
  6 25  1  0  0  0
  6 93  1  0  0  0
  6 94  1  0  0  0
  7  8  2  0  0  0
  7 26  1  0  0  0
  7 29  1  0  0  0
  8  9  1  0  0  0
  8 22  1  0  0  0
  9 10  1  0  0  0
  9 27  2  0  0  0
 10 11  2  0  0  0
 10 15  1  0  0  0
 11 12  1  0  0  0
 11 95  1  0  0  0
 12 13  2  0  0  0
 12 96  1  0  0  0
 13 14  1  0  0  0
 13 31  1  0  0  0
 14 15  2  0  0  0
 14 97  1  0  0  0
 15 98  1  0  0  0
 16 17  2  0  0  0
 16 21  1  0  0  0
 16 31  1  0  0  0
 17 18  1  0  0  0
 17 99  1  0  0  0
 18 19  2  0  0  0
 18100  1  0  0  0
 19 20  1  0  0  0
 19 24  1  0  0  0
 20 21  2  0  0  0
 20101  1  0  0  0
 21 23  1  0  0  0
 22 28  1  0  0  0
 22 32  2  0  0  0
 26 27  1  0  0  0
 28102  1  0  0  0
 28103  1  0  0  0
 29104  1  0  0  0
 29105  1  0  0  0
 33 34  1  0  0  0
 33 66  1  0  0  0
 33 70  2  0  0  0
 34 36  1  0  0  0
 34 59  1  0  0  0
 34106  1  0  0  0
 35 44  2  0  0  0
 35 45  1  0  0  0
 35 68  1  0  0  0
 36 56  1  0  0  0
 36107  1  0  0  0
 37 39  1  0  0  0
 37 47  1  0  0  0
 37 66  1  0  0  0
 37108  1  0  0  0
 38 43  2  0  0  0
 38 46  1  0  0  0
 38 47  1  0  0  0
 39 64  1  0  0  0
 39 67  2  0  0  0
 40 52  1  0  0  0
 40 53  2  0  0  0
 40 58  1  0  0  0
 41109  1  0  0  0
 41110  1  0  0  0
 41111  1  0  0  0
 41 48  1  0  0  0
 42 43  1  0  0  0
 42 66  1  0  0  0
 42112  1  0  0  0
 42113  1  0  0  0
 43 44  1  0  0  0
 44114  1  0  0  0
 45 46  2  0  0  0
 45115  1  0  0  0
 46116  1  0  0  0
 47117  1  0  0  0
 47118  1  0  0  0
 48 56  1  0  0  0
 48 65  1  0  0  0
 48119  1  0  0  0
 49 50  1  0  0  0
 49 53  1  0  0  0
 49 64  1  0  0  0
 49120  1  0  0  0
 50 51  1  0  0  0
 50121  1  0  0  0
 50122  1  0  0  0
 51 52  1  0  0  0
 51123  1  0  0  0
 51124  1  0  0  0
 52125  1  0  0  0
 52126  1  0  0  0
 53 54  1  0  0  0
 54 55  2  0  0  0
 54127  1  0  0  0
 55 57  1  0  0  0
 55128  1  0  0  0
 56 69  2  0  0  0
 57 58  2  0  0  0
 57129  1  0  0  0
 58130  1  0  0  0
 59 60  1  0  0  0
 59 61  1  0  0  0
 59 62  1  0  0  0
 60131  1  0  0  0
 60132  1  0  0  0
 60133  1  0  0  0
 61134  1  0  0  0
 61135  1  0  0  0
 61136  1  0  0  0
 62137  1  0  0  0
 62138  1  0  0  0
 62139  1  0  0  0
 63 65  1  0  0  0
 63140  1  0  0  0
 63141  1  0  0  0
 63142  1  0  0  0
 64143  1  0  0  0
 65144  1  0  0  0
 68 77  1  0  0  0
 71 72  2  0  0  0
 71 73  1  0  0  0
 71145  1  0  0  0
 72 75  1  0  0  0
 72146  1  0  0  0
 73 76  2  0  0  0
 73147  1  0  0  0
 74 75  2  0  0  0
 74 76  1  0  0  0
 74148  1  0  0  0
 75 78  1  0  0  0
 76 81  1  0  0  0
 77 79  2  0  0  0
 77149  1  0  0  0
 78 82  1  0  0  0
 78 83  2  0  0  0
 79 80  1  0  0  0
 79 84  1  0  0  0
 80 82  1  0  0  0
 80 85  2  0  0  0
 81150  1  0  0  0
 82151  1  0  0  0
 83152  1  0  0  0
 83153  1  0  0  0
 84154  1  0  0  0
 84155  1  0  0  0
 84156  1  0  0  0
M  CHG  2  83   1  84   1
M  ISO  4   1 100  68 101  77 101  81 100
M  END
> <chiral flag>
0

> <version>
0

> <s_m_source_file>
/data/baiqing/PycharmProjects/Reinvent-master-3.2/result/LINK_invent/BTK/process_docking_weight1_custom_product_contain_oxygen_bond_distance_aromatic_linkinvent_7_9_3/rearranged_h_0163.sdf

> <i_m_source_file_index>
65

> <r_mmod_Potential_Energy-OPLS-2005>
-578.890075683594

> <r_mmod_Stretch_Energy-OPLS-2005>
73.2186126708984

> <r_mmod_Bend_Energy-OPLS-2005>
180.567443847656

> <r_mmod_Torsional_Energy-OPLS-2005>
251.170745849609

> <r_mmod_Improper_Torsional_Energy-OPLS-2005>
12.2121095657349

> <r_mmod_Van_der_Waal_Energy-OPLS-2005>
159.312103271484

> <r_mmod_Electrostatic_Energy-OPLS-2005>
-207.331039428711

> <r_mmod_Solvation_Energy-OPLS-2005>
-1096.66137695312

> <b_mmod_Minimization_Converged-OPLS-2005>
0

> <r_mmod_RMS_Derivative-OPLS-2005>
5.40816783905029

$$$$
65
                    3D
 Structure written by MMmdl.
163172  0  0  1  0            999 V2000
  -30.6930  -14.5367   20.6852 C   0  0  0  0  0  0
  -30.4225  -12.3853   19.4440 C   0  0  0  0  0  0
  -29.4974  -12.5308   18.2190 C   0  0  0  0  0  0
  -28.0242  -12.3496   18.6259 C   0  0  0  0  0  0
  -27.6493  -13.2118   19.8544 C   0  0  2  0  0  0
  -28.6736  -13.0470   20.9883 C   0  0  0  0  0  0
  -25.2559  -13.8163   20.5670 C   0  0  0  0  0  0
  -24.1826  -13.0430   20.9185 C   0  0  0  0  0  0
  -24.6385  -11.6896   20.8739 C   0  0  0  0  0  0
  -23.9069  -10.4291   21.0430 C   0  0  0  0  0  0
  -24.3624   -9.4197   21.9197 C   0  0  0  0  0  0
  -23.6297   -8.2236   22.0755 C   0  0  0  0  0  0
  -22.4279   -8.0286   21.3548 C   0  0  0  0  0  0
  -21.9917   -9.0259   20.4644 C   0  0  0  0  0  0
  -22.7256  -10.2134   20.3059 C   0  0  0  0  0  0
  -21.6850   -6.0731   22.5278 C   0  0  0  0  0  0
  -21.4013   -6.5648   23.8207 C   0  0  0  0  0  0
  -21.3660   -5.6799   24.9179 C   0  0  0  0  0  0
  -21.6042   -4.3057   24.7222 C   0  0  0  0  0  0
  -21.8825   -3.8154   23.4342 C   0  0  0  0  0  0
  -21.9196   -4.6965   22.3406 C   0  0  0  0  0  0
  -22.7850  -13.5232   21.1870 C   0  0  0  0  0  0
  -22.1668   -4.2150   21.0971 F   0  0  0  0  0  0
  -21.5623   -3.4545   25.7733 F   0  0  0  0  0  0
  -30.0116  -13.3686   20.4664 N   0  0  0  0  0  0
  -26.2942  -12.9331   20.3213 N   0  0  0  0  0  0
  -25.9298  -11.6494   20.5688 N   0  0  0  0  0  0
  -22.0510  -12.8206   22.0419 N   0  0  0  0  0  0
  -25.4305  -15.1887   20.4149 N   0  0  0  0  0  0
  -31.7198  -14.8149   20.0537 O   0  0  0  0  0  0
  -21.6646   -6.8879   21.4237 O   0  0  0  0  0  0
  -22.3527  -14.5549   20.6734 O   0  0  0  0  0  0
  -24.6251  -31.8581   23.2017 C   0  0  0  0  0  0
  -25.9113  -32.4770   23.8330 C   0  0  1  0  0  0
  -27.2307  -27.3438   20.1174 C   0  0  0  0  0  0
  -25.5982  -33.8576   24.2296 N   0  0  0  0  0  0
  -23.4165  -30.4821   21.5418 C   0  0  2  0  0  0
  -24.8618  -28.9286   20.1183 C   0  0  0  0  0  0
  -22.7472  -29.4636   22.4955 C   0  0  0  0  0  0
  -18.0288  -28.1388   22.8479 C   0  0  0  0  0  0
  -24.1481  -36.7293   23.2643 C   0  0  0  0  0  0
  -25.9541  -30.8016   21.3592 C   0  0  0  0  0  0
  -26.0298  -29.4274   20.7105 C   0  0  0  0  0  0
  -27.2188  -28.6483   20.6915 C   0  0  0  0  0  0
  -26.0429  -26.8736   19.5248 C   0  0  0  0  0  0
  -24.8705  -27.6555   19.5194 C   0  0  0  0  0  0
  -23.6283  -29.8047   20.1612 C   0  0  0  0  0  0
  -25.4102  -36.3077   24.0338 C   0  0  1  0  0  0
  -20.5896  -28.3682   23.1312 C   0  0  2  0  0  0
  -20.6785  -26.9402   22.5435 C   0  0  0  0  0  0
  -19.5771  -26.6382   21.5223 C   0  0  0  0  0  0
  -18.1930  -26.7951   22.1609 C   0  0  0  0  0  0
  -19.1542  -28.8848   23.2895 C   0  0  0  0  0  0
  -18.9463  -30.1453   23.8890 C   0  0  0  0  0  0
  -17.6460  -30.6582   24.0562 C   0  0  0  0  0  0
  -25.9047  -34.9444   23.5102 C   0  0  0  0  0  0
  -16.5349  -29.9065   23.6351 C   0  0  0  0  0  0
  -16.7278  -28.6501   23.0350 C   0  0  0  0  0  0
  -26.4494  -31.6600   25.0712 C   0  0  0  0  0  0
  -25.3738  -31.3752   26.1469 C   0  0  0  0  0  0
  -27.0315  -30.3013   24.6140 C   0  0  0  0  0  0
  -27.6053  -32.4347   25.7489 C   0  0  0  0  0  0
  -27.5565  -37.1785   24.8465 C   0  0  0  0  0  0
  -21.4195  -29.3026   22.3697 N   0  0  0  0  0  0
  -26.4267  -37.3794   23.9439 N   0  0  0  0  0  0
  -24.6855  -31.0632   22.0922 N   0  0  0  0  0  0
  -23.4226  -28.8176   23.3009 O   0  0  0  0  0  0
  -28.3795  -26.5566   20.0719 O   0  0  0  0  0  0
  -26.5593  -34.8924   22.4643 O   0  0  0  0  0  0
  -23.5430  -32.1348   23.7383 O   0  0  0  0  0  0
  -29.6578  -17.5930   20.7952 C   0  0  0  0  0  0
  -28.1931  -19.0552   22.0856 C   0  0  0  0  0  0
  -28.8205  -16.8519   22.9729 C   0  0  0  0  0  0
  -29.5767  -16.5604   21.7956 C   0  0  0  0  0  0
  -29.0111  -18.8708   20.9514 C   0  0  0  0  0  0
  -28.1048  -18.0714   23.0893 C   0  0  0  0  0  0
  -28.9238  -22.5698   20.4024 C   0  0  0  0  0  0
  -28.8121  -15.9062   24.1813 C   0  0  0  0  0  0
  -29.6960  -14.6574   24.0698 C   0  0  0  0  0  0
  -30.8311  -14.8281   23.0571 C   0  0  0  0  0  0
  -28.3588  -21.1850   19.9073 C   0  0  0  0  0  0
  -28.3559  -25.2049   20.6574 C   0  0  0  0  0  0
  -28.4426  -23.9197   19.7277 C   0  0  1  0  0  0
  -30.3023  -15.2864   21.7636 N   0  0  0  0  0  0
  -27.3393  -18.3455   24.2290 N   0  0  0  0  0  0
  -29.2152  -19.9543   20.0433 N   0  0  0  0  0  0
  -29.7709  -22.5802   21.3041 O   0  0  0  0  0  0
  -29.2790  -24.2068   18.7249 F   0  0  0  0  0  0
  -31.4658  -12.5081   19.1484 H   0  0  0  0  0  0
  -30.3511  -11.3768   19.8553 H   0  0  0  0  0  0
  -29.7671  -11.8037   17.4515 H   0  0  0  0  0  0
  -29.6355  -13.5161   17.7709 H   0  0  0  0  0  0
  -27.8677  -11.2938   18.8522 H   0  0  0  0  0  0
  -27.3686  -12.5797   17.7864 H   0  0  0  0  0  0
  -27.6822  -14.2520   19.5294 H   0  0  0  0  0  0
  -28.6632  -12.0327   21.3876 H   0  0  0  0  0  0
  -28.3591  -13.6991   21.7970 H   0  0  0  0  0  0
  -25.2765   -9.5671   22.4777 H   0  0  0  0  0  0
  -24.0005   -7.4620   22.7476 H   0  0  0  0  0  0
  -21.0852   -8.8790   19.8949 H   0  0  0  0  0  0
  -22.3736  -10.9676   19.6173 H   0  0  0  0  0  0
  -21.2006   -7.6153   23.9713 H   0  0  0  0  0  0
  -21.1475   -6.0526   25.9071 H   0  0  0  0  0  0
  -22.0604   -2.7609   23.2842 H   0  0  0  0  0  0
  -22.4129  -11.9847   22.4767 H   0  0  0  0  0  0
  -21.1126  -13.1217   22.2643 H   0  0  0  0  0  0
  -24.6787  -15.8515   20.5673 H   0  0  0  0  0  0
  -26.2953  -15.6302   20.1273 H   0  0  0  0  0  0
  -26.7168  -32.5412   23.1076 H   0  0  0  0  0  0
  -25.0152  -33.9738   25.0456 H   0  0  0  0  0  0
  -22.7083  -31.3001   21.3933 H   0  0  0  0  0  0
  -23.3734  -35.9626   23.3298 H   0  0  0  0  0  0
  -24.3554  -36.8909   22.2055 H   0  0  0  0  0  0
  -23.7210  -37.6486   23.6654 H   0  0  0  0  0  0
  -26.0705  -31.5590   20.5826 H   0  0  0  0  0  0
  -26.8464  -30.8599   21.9739 H   0  0  0  0  0  0
  -28.1253  -29.0406   21.1307 H   0  0  0  0  0  0
  -26.0215  -25.8976   19.0565 H   0  0  0  0  0  0
  -23.9735  -27.2615   19.0608 H   0  0  0  0  0  0
  -23.7436  -30.5766   19.4004 H   0  0  0  0  0  0
  -22.7489  -29.2282   19.8633 H   0  0  0  0  0  0
  -25.1247  -36.1926   25.0821 H   0  0  0  0  0  0
  -20.9957  -28.3229   24.1442 H   0  0  0  0  0  0
  -20.5693  -26.2262   23.3626 H   0  0  0  0  0  0
  -21.6643  -26.7440   22.1176 H   0  0  0  0  0  0
  -19.6919  -25.6284   21.1229 H   0  0  0  0  0  0
  -19.6705  -27.3230   20.6779 H   0  0  0  0  0  0
  -17.4217  -26.6724   21.4004 H   0  0  0  0  0  0
  -18.0269  -26.0087   22.8986 H   0  0  0  0  0  0
  -19.7930  -30.7281   24.2227 H   0  0  0  0  0  0
  -17.5017  -31.6266   24.5162 H   0  0  0  0  0  0
  -15.5348  -30.2964   23.7701 H   0  0  0  0  0  0
  -15.8685  -28.0826   22.7059 H   0  0  0  0  0  0
  -24.5980  -30.6991   25.7894 H   0  0  0  0  0  0
  -24.8848  -32.2900   26.4815 H   0  0  0  0  0  0
  -25.8119  -30.9058   27.0286 H   0  0  0  0  0  0
  -26.2836  -29.6809   24.1187 H   0  0  0  0  0  0
  -27.4025  -29.7246   25.4631 H   0  0  0  0  0  0
  -27.8725  -30.4307   23.9320 H   0  0  0  0  0  0
  -27.2642  -33.3686   26.1978 H   0  0  0  0  0  0
  -28.3921  -32.6847   25.0362 H   0  0  0  0  0  0
  -28.0641  -31.8496   26.5482 H   0  0  0  0  0  0
  -28.2564  -38.0106   24.7536 H   0  0  0  0  0  0
  -28.1049  -36.2622   24.6207 H   0  0  0  0  0  0
  -27.2288  -37.1368   25.8872 H   0  0  0  0  0  0
  -20.9382  -29.8729   21.6887 H   0  0  0  0  0  0
  -26.0130  -38.2848   24.1485 H   0  0  0  0  0  0
  -30.2739  -17.4246   19.9243 H   0  0  0  0  0  0
  -27.6701  -19.9895   22.2257 H   0  0  0  0  0  0
  -27.7889  -15.6153   24.4235 H   0  0  0  0  0  0
  -29.1709  -16.4862   25.0331 H   0  0  0  0  0  0
  -29.0832  -13.8068   23.7807 H   0  0  0  0  0  0
  -30.0863  -14.3846   25.0514 H   0  0  0  0  0  0
  -31.3861  -13.8916   22.9769 H   0  0  0  0  0  0
  -31.5428  -15.5685   23.4225 H   0  0  0  0  0  0
  -28.1570  -21.3087   18.8398 H   0  0  0  0  0  0
  -27.3797  -21.0333   20.3629 H   0  0  0  0  0  0
  -29.2175  -25.1888   21.3248 H   0  0  0  0  0  0
  -27.4929  -25.1012   21.3152 H   0  0  0  0  0  0
  -27.4741  -23.7455   19.2571 H   0  0  0  0  0  0
  -26.7385  -19.1617   24.2872 H   0  0  0  0  0  0
  -27.1049  -17.6087   24.8861 H   0  0  0  0  0  0
  -29.9292  -19.8423   19.3294 H   0  0  0  0  0  0
  1 25  1  0  0  0
  1 30  2  0  0  0
  1 84  1  0  0  0
  2  3  1  0  0  0
  2 25  1  0  0  0
  2 89  1  0  0  0
  2 90  1  0  0  0
  3  4  1  0  0  0
  3 91  1  0  0  0
  3 92  1  0  0  0
  4  5  1  0  0  0
  4 93  1  0  0  0
  4 94  1  0  0  0
  5  6  1  0  0  0
  5 26  1  0  0  0
  5 95  1  0  0  0
  6 25  1  0  0  0
  6 96  1  0  0  0
  6 97  1  0  0  0
  7  8  2  0  0  0
  7 26  1  0  0  0
  7 29  1  0  0  0
  8  9  1  0  0  0
  8 22  1  0  0  0
  9 10  1  0  0  0
  9 27  2  0  0  0
 10 11  2  0  0  0
 10 15  1  0  0  0
 11 12  1  0  0  0
 11 98  1  0  0  0
 12 13  2  0  0  0
 12 99  1  0  0  0
 13 14  1  0  0  0
 13 31  1  0  0  0
 14 15  2  0  0  0
 14100  1  0  0  0
 15101  1  0  0  0
 16 17  2  0  0  0
 16 21  1  0  0  0
 16 31  1  0  0  0
 17 18  1  0  0  0
 17102  1  0  0  0
 18 19  2  0  0  0
 18103  1  0  0  0
 19 20  1  0  0  0
 19 24  1  0  0  0
 20 21  2  0  0  0
 20104  1  0  0  0
 21 23  1  0  0  0
 22 28  1  0  0  0
 22 32  2  0  0  0
 26 27  1  0  0  0
 28105  1  0  0  0
 28106  1  0  0  0
 29107  1  0  0  0
 29108  1  0  0  0
 33 34  1  0  0  0
 33 66  1  0  0  0
 33 70  2  0  0  0
 34 36  1  0  0  0
 34 59  1  0  0  0
 34109  1  0  0  0
 35 44  2  0  0  0
 35 45  1  0  0  0
 35 68  1  0  0  0
 36 56  1  0  0  0
 36110  1  0  0  0
 37 39  1  0  0  0
 37 47  1  0  0  0
 37 66  1  0  0  0
 37111  1  0  0  0
 38 43  2  0  0  0
 38 46  1  0  0  0
 38 47  1  0  0  0
 39 64  1  0  0  0
 39 67  2  0  0  0
 40 52  1  0  0  0
 40 53  2  0  0  0
 40 58  1  0  0  0
 41112  1  0  0  0
 41113  1  0  0  0
 41114  1  0  0  0
 41 48  1  0  0  0
 42 43  1  0  0  0
 42 66  1  0  0  0
 42115  1  0  0  0
 42116  1  0  0  0
 43 44  1  0  0  0
 44117  1  0  0  0
 45 46  2  0  0  0
 45118  1  0  0  0
 46119  1  0  0  0
 47120  1  0  0  0
 47121  1  0  0  0
 48 56  1  0  0  0
 48 65  1  0  0  0
 48122  1  0  0  0
 49 50  1  0  0  0
 49 53  1  0  0  0
 49 64  1  0  0  0
 49123  1  0  0  0
 50 51  1  0  0  0
 50124  1  0  0  0
 50125  1  0  0  0
 51 52  1  0  0  0
 51126  1  0  0  0
 51127  1  0  0  0
 52128  1  0  0  0
 52129  1  0  0  0
 53 54  1  0  0  0
 54 55  2  0  0  0
 54130  1  0  0  0
 55 57  1  0  0  0
 55131  1  0  0  0
 56 69  2  0  0  0
 57 58  2  0  0  0
 57132  1  0  0  0
 58133  1  0  0  0
 59 60  1  0  0  0
 59 61  1  0  0  0
 59 62  1  0  0  0
 60134  1  0  0  0
 60135  1  0  0  0
 60136  1  0  0  0
 61137  1  0  0  0
 61138  1  0  0  0
 61139  1  0  0  0
 62140  1  0  0  0
 62141  1  0  0  0
 62142  1  0  0  0
 63 65  1  0  0  0
 63143  1  0  0  0
 63144  1  0  0  0
 63145  1  0  0  0
 64146  1  0  0  0
 65147  1  0  0  0
 68 82  1  0  0  0
 71 74  2  0  0  0
 71 75  1  0  0  0
 71148  1  0  0  0
 72 75  2  0  0  0
 72 76  1  0  0  0
 72149  1  0  0  0
 73 74  1  0  0  0
 73 76  2  0  0  0
 73 78  1  0  0  0
 74 84  1  0  0  0
 75 86  1  0  0  0
 76 85  1  0  0  0
 77 81  1  0  0  0
 77 83  1  0  0  0
 77 87  2  0  0  0
 78 79  1  0  0  0
 78150  1  0  0  0
 78151  1  0  0  0
 79 80  1  0  0  0
 79152  1  0  0  0
 79153  1  0  0  0
 80 84  1  0  0  0
 80154  1  0  0  0
 80155  1  0  0  0
 81 86  1  0  0  0
 81156  1  0  0  0
 81157  1  0  0  0
 82 83  1  0  0  0
 82158  1  0  0  0
 82159  1  0  0  0
 83 88  1  0  0  0
 83160  1  0  0  0
 85161  1  0  0  0
 85162  1  0  0  0
 86163  1  0  0  0
M  ISO  4   1 100  68 101  82 101  84 100
M  END
> <chiral flag>
0

> <version>
0

> <s_m_source_file>
/data/baiqing/PycharmProjects/Reinvent-master-3.2/result/LINK_invent/BTK/process_docking_weight1_custom_product_contain_oxygen_bond_distance_aromatic_linkinvent_7_9_3/rearranged_h_0163.sdf

> <i_m_source_file_index>
66

> <r_mmod_Potential_Energy-OPLS-2005>
314.293090820312

> <r_mmod_Stretch_Energy-OPLS-2005>
80.2898254394531

> <r_mmod_Bend_Energy-OPLS-2005>
156.161239624023

> <r_mmod_Torsional_Energy-OPLS-2005>
325.683990478516

> <r_mmod_Improper_Torsional_Energy-OPLS-2005>
6.15934753417969

> <r_mmod_Van_der_Waal_Energy-OPLS-2005>
143.265762329102

> <r_mmod_Electrostatic_Energy-OPLS-2005>
-189.899551391602

> <r_mmod_Solvation_Energy-OPLS-2005>
-236.794555664062

> <b_mmod_Minimization_Converged-OPLS-2005>
0

> <r_mmod_RMS_Derivative-OPLS-2005>
4.05934524536133

$$$$
66
                    3D
 Structure written by MMmdl.
165174  0  0  1  0            999 V2000
  -30.6639  -14.6338   20.5323 C   0  0  0  0  0  0
  -30.4263  -12.3955   19.4569 C   0  0  0  0  0  0
  -29.5035  -12.5054   18.2264 C   0  0  0  0  0  0
  -28.0273  -12.3420   18.6402 C   0  0  0  0  0  0
  -27.6462  -13.2260   19.8592 C   0  0  2  0  0  0
  -28.6911  -13.1150   20.9953 C   0  0  0  0  0  0
  -25.2520  -13.8200   20.5708 C   0  0  0  0  0  0
  -24.1822  -13.0446   20.9190 C   0  0  0  0  0  0
  -24.6387  -11.6908   20.8741 C   0  0  0  0  0  0
  -23.9070  -10.4297   21.0407 C   0  0  0  0  0  0
  -24.3621   -9.4208   21.9191 C   0  0  0  0  0  0
  -23.6287   -8.2243   22.0760 C   0  0  0  0  0  0
  -22.4268   -8.0292   21.3551 C   0  0  0  0  0  0
  -21.9928   -9.0269   20.4645 C   0  0  0  0  0  0
  -22.7252  -10.2141   20.3056 C   0  0  0  0  0  0
  -21.6851   -6.0739   22.5272 C   0  0  0  0  0  0
  -21.4014   -6.5633   23.8208 C   0  0  0  0  0  0
  -21.3660   -5.6800   24.9175 C   0  0  0  0  0  0
  -21.6035   -4.3065   24.7228 C   0  0  0  0  0  0
  -21.8822   -3.8152   23.4350 C   0  0  0  0  0  0
  -21.9189   -4.6969   22.3401 C   0  0  0  0  0  0
  -22.7839  -13.5217   21.1856 C   0  0  0  0  0  0
  -22.1653   -4.2151   21.0981 F   0  0  0  0  0  0
  -21.5627   -3.4547   25.7742 F   0  0  0  0  0  0
  -30.0026  -13.4379   20.4168 N   0  0  0  0  0  0
  -26.2946  -12.9397   20.3303 N   0  0  0  0  0  0
  -25.9318  -11.6534   20.5762 N   0  0  0  0  0  0
  -22.0476  -12.8218   22.0406 N   0  0  0  0  0  0
  -25.4209  -15.1946   20.4135 N   0  0  0  0  0  0
  -31.8464  -14.7261   20.1789 O   0  0  0  0  0  0
  -21.6643   -6.8888   21.4232 O   0  0  0  0  0  0
  -22.3525  -14.5527   20.6710 O   0  0  0  0  0  0
  -24.6301  -31.8602   23.1997 C   0  0  0  0  0  0
  -25.9170  -32.4777   23.8303 C   0  0  1  0  0  0
  -27.1947  -27.2993   20.1356 C   0  0  0  0  0  0
  -25.5965  -33.8561   24.2246 N   0  0  0  0  0  0
  -23.4208  -30.4852   21.5446 C   0  0  2  0  0  0
  -24.8637  -28.9318   20.1123 C   0  0  0  0  0  0
  -22.7459  -29.4627   22.4911 C   0  0  0  0  0  0
  -18.0276  -28.1355   22.8487 C   0  0  0  0  0  0
  -24.1473  -36.7273   23.2616 C   0  0  0  0  0  0
  -25.9602  -30.7851   21.3711 C   0  0  0  0  0  0
  -26.0328  -29.4094   20.7182 C   0  0  0  0  0  0
  -27.2123  -28.6047   20.7187 C   0  0  0  0  0  0
  -26.0117  -26.8735   19.5063 C   0  0  0  0  0  0
  -24.8516  -27.6705   19.4994 C   0  0  0  0  0  0
  -23.6346  -29.8184   20.1622 C   0  0  0  0  0  0
  -25.4095  -36.3060   24.0313 C   0  0  1  0  0  0
  -20.5866  -28.3711   23.1264 C   0  0  2  0  0  0
  -20.6775  -26.9432   22.5400 C   0  0  0  0  0  0
  -19.5754  -26.6396   21.5187 C   0  0  0  0  0  0
  -18.1931  -26.7921   22.1601 C   0  0  0  0  0  0
  -19.1518  -28.8854   23.2869 C   0  0  0  0  0  0
  -18.9460  -30.1452   23.8918 C   0  0  0  0  0  0
  -17.6473  -30.6603   24.0590 C   0  0  0  0  0  0
  -25.9078  -34.9450   23.5100 C   0  0  0  0  0  0
  -16.5363  -29.9101   23.6332 C   0  0  0  0  0  0
  -16.7272  -28.6483   23.0392 C   0  0  0  0  0  0
  -26.4510  -31.6594   25.0695 C   0  0  0  0  0  0
  -25.3712  -31.3736   26.1419 C   0  0  0  0  0  0
  -27.0338  -30.3003   24.6157 C   0  0  0  0  0  0
  -27.6110  -32.4287   25.7462 C   0  0  0  0  0  0
  -27.5611  -37.1706   24.8403 C   0  0  0  0  0  0
  -21.4178  -29.3071   22.3663 N   0  0  0  0  0  0
  -26.4229  -37.3815   23.9472 N   0  0  0  0  0  0
  -24.6904  -31.0557   22.0980 N   0  0  0  0  0  0
  -23.4188  -28.8155   23.2982 O   0  0  0  0  0  0
  -28.2711  -26.4103   20.1298 O   0  0  0  0  0  0
  -26.5646  -34.8970   22.4654 O   0  0  0  0  0  0
  -23.5459  -32.1407   23.7315 O   0  0  0  0  0  0
  -29.6750  -18.2964   20.8916 C   0  0  0  0  0  0
  -30.0912  -19.5777   21.4101 C   0  0  0  0  0  0
  -31.1717  -19.5304   22.3342 C   0  0  0  0  0  0
  -30.3570  -17.0708   21.2528 C   0  0  0  0  0  0
  -31.7787  -18.2961   22.6346 C   0  0  0  0  0  0
  -28.2472  -21.3515   22.0031 C   0  0  0  0  0  0
  -29.0787  -21.4655   19.6931 C   0  0  0  0  0  0
  -28.0022  -22.8975   22.0582 C   0  0  0  0  0  0
  -28.7898  -23.0307   19.6118 C   0  0  0  0  0  0
  -29.4466  -20.9981   21.1200 C   0  0  2  0  0  0
  -27.8803  -23.7155   20.7115 C   0  0  2  0  0  0
  -25.7672  -22.5182   20.2590 C   0  0  0  0  0  0
  -28.2163  -25.2615   21.0616 C   0  0  0  0  0  0
  -31.3944  -17.1236   22.1097 N   0  0  0  0  0  0
  -31.6466  -20.6676   23.0001 N   0  0  0  0  0  0
  -29.9133  -15.7568   20.8004 N   0  0  0  0  0  0
  -26.5091  -23.7423   20.2853 O   0  0  0  0  0  0
  -32.7976  -18.2794   23.5290 F   0  0  0  0  0  0
  -31.4681  -12.5063   19.1515 H   0  0  0  0  0  0
  -30.3504  -11.4035   19.9044 H   0  0  0  0  0  0
  -29.7650  -11.7532   17.4808 H   0  0  0  0  0  0
  -29.6504  -13.4773   17.7491 H   0  0  0  0  0  0
  -27.8626  -11.2895   18.8775 H   0  0  0  0  0  0
  -27.3765  -12.5660   17.7948 H   0  0  0  0  0  0
  -27.6545  -14.2557   19.5011 H   0  0  0  0  0  0
  -28.6985  -12.1078   21.4152 H   0  0  0  0  0  0
  -28.4459  -13.7867   21.8223 H   0  0  0  0  0  0
  -25.2762   -9.5690   22.4780 H   0  0  0  0  0  0
  -23.9992   -7.4655   22.7490 H   0  0  0  0  0  0
  -21.0860   -8.8788   19.8961 H   0  0  0  0  0  0
  -22.3706  -10.9686   19.6174 H   0  0  0  0  0  0
  -21.2007   -7.6151   23.9700 H   0  0  0  0  0  0
  -21.1476   -6.0536   25.9073 H   0  0  0  0  0  0
  -22.0606   -2.7610   23.2849 H   0  0  0  0  0  0
  -22.4065  -11.9847   22.4780 H   0  0  0  0  0  0
  -21.1093  -13.1231   22.2603 H   0  0  0  0  0  0
  -24.6523  -15.8438   20.5346 H   0  0  0  0  0  0
  -26.2659  -15.6409   20.0854 H   0  0  0  0  0  0
  -26.7222  -32.5447   23.1028 H   0  0  0  0  0  0
  -25.0064  -33.9617   25.0362 H   0  0  0  0  0  0
  -22.7171  -31.3092   21.3965 H   0  0  0  0  0  0
  -23.3839  -35.9496   23.3104 H   0  0  0  0  0  0
  -24.3620  -36.9109   22.2074 H   0  0  0  0  0  0
  -23.7103  -37.6347   23.6795 H   0  0  0  0  0  0
  -26.0828  -31.5462   20.5938 H   0  0  0  0  0  0
  -26.8399  -30.8374   21.9987 H   0  0  0  0  0  0
  -28.1175  -28.9716   21.1833 H   0  0  0  0  0  0
  -25.9785  -25.9016   19.0364 H   0  0  0  0  0  0
  -23.9462  -27.3025   19.0381 H   0  0  0  0  0  0
  -23.7665  -30.5932   19.4065 H   0  0  0  0  0  0
  -22.7488  -29.2534   19.8660 H   0  0  0  0  0  0
  -25.1218  -36.1875   25.0785 H   0  0  0  0  0  0
  -20.9929  -28.3380   24.1395 H   0  0  0  0  0  0
  -20.5664  -26.2311   23.3581 H   0  0  0  0  0  0
  -21.6633  -26.7464   22.1170 H   0  0  0  0  0  0
  -19.6920  -25.6290   21.1256 H   0  0  0  0  0  0
  -19.6731  -27.3169   20.6681 H   0  0  0  0  0  0
  -17.4165  -26.6679   21.4041 H   0  0  0  0  0  0
  -18.0363  -26.0037   22.8943 H   0  0  0  0  0  0
  -19.7958  -30.7213   24.2341 H   0  0  0  0  0  0
  -17.5067  -31.6292   24.5164 H   0  0  0  0  0  0
  -15.5375  -30.3037   23.7646 H   0  0  0  0  0  0
  -15.8655  -28.0823   22.7147 H   0  0  0  0  0  0
  -24.5865  -30.7137   25.7706 H   0  0  0  0  0  0
  -24.8937  -32.2897   26.4896 H   0  0  0  0  0  0
  -25.8004  -30.8842   27.0173 H   0  0  0  0  0  0
  -26.2881  -29.6717   24.1269 H   0  0  0  0  0  0
  -27.4104  -29.7315   25.4674 H   0  0  0  0  0  0
  -27.8742  -30.4258   23.9334 H   0  0  0  0  0  0
  -27.2822  -33.3683   26.1906 H   0  0  0  0  0  0
  -28.3999  -32.6646   25.0309 H   0  0  0  0  0  0
  -28.0662  -31.8446   26.5455 H   0  0  0  0  0  0
  -28.2380  -38.0246   24.7882 H   0  0  0  0  0  0
  -28.1354  -36.2830   24.5694 H   0  0  0  0  0  0
  -27.2396  -37.0710   25.8791 H   0  0  0  0  0  0
  -20.9379  -29.8796   21.6851 H   0  0  0  0  0  0
  -26.0116  -38.2813   24.1785 H   0  0  0  0  0  0
  -28.8313  -18.2628   20.2192 H   0  0  0  0  0  0
  -27.3785  -20.7885   21.6651 H   0  0  0  0  0  0
  -28.4505  -20.9993   23.0168 H   0  0  0  0  0  0
  -29.9136  -21.2311   19.0274 H   0  0  0  0  0  0
  -28.2300  -20.8856   19.3293 H   0  0  0  0  0  0
  -28.8365  -23.3088   22.6223 H   0  0  0  0  0  0
  -27.1218  -23.0862   22.6761 H   0  0  0  0  0  0
  -28.3498  -23.2441   18.6373 H   0  0  0  0  0  0
  -29.7510  -23.5434   19.6020 H   0  0  0  0  0  0
  -30.2164  -21.7241   21.3806 H   0  0  0  0  0  0
  -25.6174  -22.0987   21.2556 H   0  0  0  0  0  0
  -26.2244  -21.7610   19.6257 H   0  0  0  0  0  0
  -24.7626  -22.7009   19.8755 H   0  0  0  0  0  0
  -29.2117  -25.2584   21.5020 H   0  0  0  0  0  0
  -27.5721  -25.5567   21.8925 H   0  0  0  0  0  0
  -30.9453  -21.3284   23.3150 H   0  0  0  0  0  0
  -32.3508  -20.4969   23.7132 H   0  0  0  0  0  0
  -28.9159  -15.6197   20.8027 H   0  0  0  0  0  0
  1 25  1  0  0  0
  1 30  2  0  0  0
  1 86  1  0  0  0
  2  3  1  0  0  0
  2 25  1  0  0  0
  2 89  1  0  0  0
  2 90  1  0  0  0
  3  4  1  0  0  0
  3 91  1  0  0  0
  3 92  1  0  0  0
  4  5  1  0  0  0
  4 93  1  0  0  0
  4 94  1  0  0  0
  5  6  1  0  0  0
  5 26  1  0  0  0
  5 95  1  0  0  0
  6 25  1  0  0  0
  6 96  1  0  0  0
  6 97  1  0  0  0
  7  8  2  0  0  0
  7 26  1  0  0  0
  7 29  1  0  0  0
  8  9  1  0  0  0
  8 22  1  0  0  0
  9 10  1  0  0  0
  9 27  2  0  0  0
 10 11  2  0  0  0
 10 15  1  0  0  0
 11 12  1  0  0  0
 11 98  1  0  0  0
 12 13  2  0  0  0
 12 99  1  0  0  0
 13 14  1  0  0  0
 13 31  1  0  0  0
 14 15  2  0  0  0
 14100  1  0  0  0
 15101  1  0  0  0
 16 17  2  0  0  0
 16 21  1  0  0  0
 16 31  1  0  0  0
 17 18  1  0  0  0
 17102  1  0  0  0
 18 19  2  0  0  0
 18103  1  0  0  0
 19 20  1  0  0  0
 19 24  1  0  0  0
 20 21  2  0  0  0
 20104  1  0  0  0
 21 23  1  0  0  0
 22 28  1  0  0  0
 22 32  2  0  0  0
 26 27  1  0  0  0
 28105  1  0  0  0
 28106  1  0  0  0
 29107  1  0  0  0
 29108  1  0  0  0
 33 34  1  0  0  0
 33 66  1  0  0  0
 33 70  2  0  0  0
 34 36  1  0  0  0
 34 59  1  0  0  0
 34109  1  0  0  0
 35 44  2  0  0  0
 35 45  1  0  0  0
 35 68  1  0  0  0
 36 56  1  0  0  0
 36110  1  0  0  0
 37 39  1  0  0  0
 37 47  1  0  0  0
 37 66  1  0  0  0
 37111  1  0  0  0
 38 43  2  0  0  0
 38 46  1  0  0  0
 38 47  1  0  0  0
 39 64  1  0  0  0
 39 67  2  0  0  0
 40 52  1  0  0  0
 40 53  2  0  0  0
 40 58  1  0  0  0
 41112  1  0  0  0
 41113  1  0  0  0
 41114  1  0  0  0
 41 48  1  0  0  0
 42 43  1  0  0  0
 42 66  1  0  0  0
 42115  1  0  0  0
 42116  1  0  0  0
 43 44  1  0  0  0
 44117  1  0  0  0
 45 46  2  0  0  0
 45118  1  0  0  0
 46119  1  0  0  0
 47120  1  0  0  0
 47121  1  0  0  0
 48 56  1  0  0  0
 48 65  1  0  0  0
 48122  1  0  0  0
 49 50  1  0  0  0
 49 53  1  0  0  0
 49 64  1  0  0  0
 49123  1  0  0  0
 50 51  1  0  0  0
 50124  1  0  0  0
 50125  1  0  0  0
 51 52  1  0  0  0
 51126  1  0  0  0
 51127  1  0  0  0
 52128  1  0  0  0
 52129  1  0  0  0
 53 54  1  0  0  0
 54 55  2  0  0  0
 54130  1  0  0  0
 55 57  1  0  0  0
 55131  1  0  0  0
 56 69  2  0  0  0
 57 58  2  0  0  0
 57132  1  0  0  0
 58133  1  0  0  0
 59 60  1  0  0  0
 59 61  1  0  0  0
 59 62  1  0  0  0
 60134  1  0  0  0
 60135  1  0  0  0
 60136  1  0  0  0
 61137  1  0  0  0
 61138  1  0  0  0
 61139  1  0  0  0
 62140  1  0  0  0
 62141  1  0  0  0
 62142  1  0  0  0
 63 65  1  0  0  0
 63143  1  0  0  0
 63144  1  0  0  0
 63145  1  0  0  0
 64146  1  0  0  0
 65147  1  0  0  0
 68 83  1  0  0  0
 71 72  2  0  0  0
 71 74  1  0  0  0
 71148  1  0  0  0
 72 73  1  0  0  0
 72 80  1  0  0  0
 73 75  2  0  0  0
 73 85  1  0  0  0
 74 84  2  0  0  0
 74 86  1  0  0  0
 75 84  1  0  0  0
 75 88  1  0  0  0
 76 78  1  0  0  0
 76 80  1  0  0  0
 76149  1  0  0  0
 76150  1  0  0  0
 77 79  1  0  0  0
 77 80  1  0  0  0
 77151  1  0  0  0
 77152  1  0  0  0
 78 81  1  0  0  0
 78153  1  0  0  0
 78154  1  0  0  0
 79 81  1  0  0  0
 79155  1  0  0  0
 79156  1  0  0  0
 80157  1  0  0  0
 81 83  1  0  0  0
 81 87  1  0  0  0
 82 87  1  0  0  0
 82158  1  0  0  0
 82159  1  0  0  0
 82160  1  0  0  0
 83161  1  0  0  0
 83162  1  0  0  0
 85163  1  0  0  0
 85164  1  0  0  0
 86165  1  0  0  0
M  ISO  4   1 100  68 101  83 101  86 100
M  END
> <chiral flag>
0

> <version>
0

> <s_m_source_file>
/data/baiqing/PycharmProjects/Reinvent-master-3.2/result/LINK_invent/BTK/process_docking_weight1_custom_product_contain_oxygen_bond_distance_aromatic_linkinvent_7_9_3/rearranged_h_0163.sdf

> <i_m_source_file_index>
67

> <r_mmod_Potential_Energy-OPLS-2005>
102.351623535156

> <r_mmod_Stretch_Energy-OPLS-2005>
92.7541351318359

> <r_mmod_Bend_Energy-OPLS-2005>
184.619842529297

> <r_mmod_Torsional_Energy-OPLS-2005>
285.955505371094

> <r_mmod_Improper_Torsional_Energy-OPLS-2005>
10.4683799743652

> <r_mmod_Van_der_Waal_Energy-OPLS-2005>
155.35676574707

> <r_mmod_Electrostatic_Energy-OPLS-2005>
-447.456787109375

> <r_mmod_Solvation_Energy-OPLS-2005>
-234.986312866211

> <b_mmod_Minimization_Converged-OPLS-2005>
0

> <r_mmod_RMS_Derivative-OPLS-2005>
5.99861717224121

$$$$
67
                    3D
 Structure written by MMmdl.
169177  0  0  1  0            999 V2000
  -30.7252  -14.4101   20.6632 C   0  0  0  0  0  0
  -30.4347  -12.3064   19.4021 C   0  0  0  0  0  0
  -29.4921  -12.5150   18.1996 C   0  0  0  0  0  0
  -28.0172  -12.3677   18.6197 C   0  0  0  0  0  0
  -27.6707  -13.1955   19.8834 C   0  0  2  0  0  0
  -28.7070  -12.9357   20.9974 C   0  0  0  0  0  0
  -25.2646  -13.8155   20.5685 C   0  0  0  0  0  0
  -24.1872  -13.0454   20.9162 C   0  0  0  0  0  0
  -24.6405  -11.6906   20.8747 C   0  0  0  0  0  0
  -23.9073  -10.4286   21.0416 C   0  0  0  0  0  0
  -24.3619   -9.4204   21.9203 C   0  0  0  0  0  0
  -23.6280   -8.2255   22.0767 C   0  0  0  0  0  0
  -22.4282   -8.0289   21.3549 C   0  0  0  0  0  0
  -21.9930   -9.0273   20.4647 C   0  0  0  0  0  0
  -22.7266  -10.2135   20.3060 C   0  0  0  0  0  0
  -21.6857   -6.0750   22.5277 C   0  0  0  0  0  0
  -21.4013   -6.5642   23.8212 C   0  0  0  0  0  0
  -21.3653   -5.6790   24.9164 C   0  0  0  0  0  0
  -21.6038   -4.3050   24.7215 C   0  0  0  0  0  0
  -21.8825   -3.8157   23.4332 C   0  0  0  0  0  0
  -21.9190   -4.6979   22.3396 C   0  0  0  0  0  0
  -22.7886  -13.5261   21.1823 C   0  0  0  0  0  0
  -22.1659   -4.2170   21.0970 F   0  0  0  0  0  0
  -21.5628   -3.4538   25.7721 F   0  0  0  0  0  0
  -30.0521  -13.2455   20.4667 N   0  0  0  0  0  0
  -26.3062  -12.9296   20.3388 N   0  0  0  0  0  0
  -25.9327  -11.6473   20.5796 N   0  0  0  0  0  0
  -22.0498  -12.8219   22.0342 N   0  0  0  0  0  0
  -25.4406  -15.1860   20.4075 N   0  0  0  0  0  0
  -31.7600  -14.7073   20.0542 O   0  0  0  0  0  0
  -21.6640   -6.8896   21.4247 O   0  0  0  0  0  0
  -22.3575  -14.5593   20.6715 O   0  0  0  0  0  0
  -24.6094  -31.8686   23.2120 C   0  0  0  0  0  0
  -25.8991  -32.4834   23.8396 C   0  0  1  0  0  0
  -27.2274  -27.4472   20.1051 C   0  0  0  0  0  0
  -25.5875  -33.8641   24.2332 N   0  0  0  0  0  0
  -23.4001  -30.4926   21.5502 C   0  0  2  0  0  0
  -24.8504  -28.9735   20.1035 C   0  0  0  0  0  0
  -22.7427  -29.4621   22.4974 C   0  0  0  0  0  0
  -18.0277  -28.1336   22.8483 C   0  0  0  0  0  0
  -24.1490  -36.7305   23.2646 C   0  0  0  0  0  0
  -25.9254  -30.8399   21.3680 C   0  0  0  0  0  0
  -26.0051  -29.4787   20.7135 C   0  0  0  0  0  0
  -27.1988  -28.7212   20.7167 C   0  0  0  0  0  0
  -26.0706  -26.9798   19.4483 C   0  0  0  0  0  0
  -24.8773  -27.7219   19.4659 C   0  0  0  0  0  0
  -23.6078  -29.8345   20.1604 C   0  0  0  0  0  0
  -25.4110  -36.3106   24.0335 C   0  0  1  0  0  0
  -20.5887  -28.3610   23.1342 C   0  0  2  0  0  0
  -20.6789  -26.9352   22.5405 C   0  0  0  0  0  0
  -19.5748  -26.6365   21.5196 C   0  0  0  0  0  0
  -18.1925  -26.7888   22.1607 C   0  0  0  0  0  0
  -19.1534  -28.8793   23.2911 C   0  0  0  0  0  0
  -18.9463  -30.1421   23.8888 C   0  0  0  0  0  0
  -17.6472  -30.6564   24.0584 C   0  0  0  0  0  0
  -25.9037  -34.9487   23.5124 C   0  0  0  0  0  0
  -16.5366  -29.9066   23.6347 C   0  0  0  0  0  0
  -16.7274  -28.6498   23.0323 C   0  0  0  0  0  0
  -26.4440  -31.6619   25.0720 C   0  0  0  0  0  0
  -25.3748  -31.3676   26.1492 C   0  0  0  0  0  0
  -27.0325  -30.3108   24.6025 C   0  0  0  0  0  0
  -27.5997  -32.4375   25.7493 C   0  0  0  0  0  0
  -27.5571  -37.1813   24.8468 C   0  0  0  0  0  0
  -21.4156  -29.3008   22.3765 N   0  0  0  0  0  0
  -26.4285  -37.3792   23.9399 N   0  0  0  0  0  0
  -24.6621  -31.0824   22.1022 N   0  0  0  0  0  0
  -23.4237  -28.8136   23.2972 O   0  0  0  0  0  0
  -28.3688  -26.6724   20.1193 O   0  0  0  0  0  0
  -26.5622  -34.8929   22.4694 O   0  0  0  0  0  0
  -23.5296  -32.1425   23.7530 O   0  0  0  0  0  0
  -30.8230  -17.5756   20.9010 C   0  0  0  0  0  0
  -30.0690  -17.1975   23.0065 C   0  0  0  0  0  0
  -30.3794  -16.5913   21.8282 C   0  0  0  0  0  0
  -30.7986  -18.7991   21.5382 C   0  0  0  0  0  0
  -30.7407  -22.4695   21.0170 C   0  0  0  0  0  0
  -31.0803  -20.1314   20.9854 C   0  0  0  0  0  0
  -30.2529  -19.4470   24.0091 C   0  0  0  0  0  0
  -29.3369  -19.0804   25.1780 C   0  0  0  0  0  0
  -27.2465  -24.6097   20.9514 C   0  0  0  0  0  0
  -28.4680  -26.2011   22.5120 C   0  0  0  0  0  0
  -29.7666  -24.8495   20.7529 C   0  0  0  0  0  0
  -30.1808  -23.6979   21.7252 C   0  0  2  0  0  0
  -28.4387  -25.5947   21.0875 C   0  0  0  0  0  0
  -30.5272  -21.2896   21.4569 N   0  0  0  0  0  0
  -30.3713  -18.5487   22.8679 N   0  0  0  0  0  0
  -30.1891  -15.2023   21.6082 N   0  0  0  0  0  0
  -31.8896  -20.1201   19.9819 N   0  3  0  0  0  0
  -31.1598  -24.1213   22.7444 N   0  3  0  0  0  0
  -30.9375  -20.4715   24.0621 O   0  0  0  0  0  0
  -31.4732  -12.4368   19.0900 H   0  0  0  0  0  0
  -30.3706  -11.2811   19.7722 H   0  0  0  0  0  0
  -29.7285  -11.7947   17.4155 H   0  0  0  0  0  0
  -29.6556  -13.5022   17.7690 H   0  0  0  0  0  0
  -27.8333  -11.3102   18.8098 H   0  0  0  0  0  0
  -27.3613  -12.6451   17.7949 H   0  0  0  0  0  0
  -27.7318  -14.2486   19.6102 H   0  0  0  0  0  0
  -28.6749  -11.8909   21.3100 H   0  0  0  0  0  0
  -28.4375  -13.4999   21.8904 H   0  0  0  0  0  0
  -25.2762   -9.5684   22.4780 H   0  0  0  0  0  0
  -23.9992   -7.4648   22.7484 H   0  0  0  0  0  0
  -21.0877   -8.8796   19.8922 H   0  0  0  0  0  0
  -22.3758  -10.9686   19.6157 H   0  0  0  0  0  0
  -21.2016   -7.6147   23.9733 H   0  0  0  0  0  0
  -21.1461   -6.0503   25.9064 H   0  0  0  0  0  0
  -22.0613   -2.7628   23.2825 H   0  0  0  0  0  0
  -22.4066  -11.9844   22.4686 H   0  0  0  0  0  0
  -21.1113  -13.1254   22.2537 H   0  0  0  0  0  0
  -24.6838  -15.8525   20.5226 H   0  0  0  0  0  0
  -26.3031  -15.6194   20.0972 H   0  0  0  0  0  0
  -26.7066  -32.5571   23.1165 H   0  0  0  0  0  0
  -25.0058  -33.9820   25.0499 H   0  0  0  0  0  0
  -22.6840  -31.3073   21.4169 H   0  0  0  0  0  0
  -23.3771  -35.9626   23.3303 H   0  0  0  0  0  0
  -24.3565  -36.8898   22.2065 H   0  0  0  0  0  0
  -23.7226  -37.6493   23.6674 H   0  0  0  0  0  0
  -26.0399  -31.6106   20.6032 H   0  0  0  0  0  0
  -26.8133  -30.8919   21.9874 H   0  0  0  0  0  0
  -28.0872  -29.0994   21.2001 H   0  0  0  0  0  0
  -26.0874  -26.0288   18.9380 H   0  0  0  0  0  0
  -23.9972  -27.3301   18.9760 H   0  0  0  0  0  0
  -23.7140  -30.6158   19.4076 H   0  0  0  0  0  0
  -22.7340  -29.2546   19.8598 H   0  0  0  0  0  0
  -25.1285  -36.1965   25.0833 H   0  0  0  0  0  0
  -20.9986  -28.3123   24.1450 H   0  0  0  0  0  0
  -20.5693  -26.2193   23.3554 H   0  0  0  0  0  0
  -21.6640  -26.7363   22.1169 H   0  0  0  0  0  0
  -19.6914  -25.6283   21.1176 H   0  0  0  0  0  0
  -19.6689  -27.3255   20.6788 H   0  0  0  0  0  0
  -17.4195  -26.6665   21.4003 H   0  0  0  0  0  0
  -18.0285  -25.9996   22.8953 H   0  0  0  0  0  0
  -19.7962  -30.7263   24.2198 H   0  0  0  0  0  0
  -17.5029  -31.6227   24.5189 H   0  0  0  0  0  0
  -15.5365  -30.2977   23.7666 H   0  0  0  0  0  0
  -15.8662  -28.0863   22.6981 H   0  0  0  0  0  0
  -24.5925  -30.6999   25.7845 H   0  0  0  0  0  0
  -24.8951  -32.2826   26.5001 H   0  0  0  0  0  0
  -25.8124  -30.8821   27.0229 H   0  0  0  0  0  0
  -26.2879  -29.6840   24.1106 H   0  0  0  0  0  0
  -27.4236  -29.7307   25.4398 H   0  0  0  0  0  0
  -27.8610  -30.4509   23.9079 H   0  0  0  0  0  0
  -27.2569  -33.3680   26.2034 H   0  0  0  0  0  0
  -28.3809  -32.6923   25.0327 H   0  0  0  0  0  0
  -28.0655  -31.8551   26.5439 H   0  0  0  0  0  0
  -28.2566  -38.0149   24.7539 H   0  0  0  0  0  0
  -28.1088  -36.2656   24.6269 H   0  0  0  0  0  0
  -27.2281  -37.1417   25.8878 H   0  0  0  0  0  0
  -20.9299  -29.8790   21.7046 H   0  0  0  0  0  0
  -26.0173  -38.2845   24.1454 H   0  0  0  0  0  0
  -31.0875  -17.4109   19.8651 H   0  0  0  0  0  0
  -29.7073  -16.7789   23.9367 H   0  0  0  0  0  0
  -31.3558  -22.6889   20.1389 H   0  0  0  0  0  0
  -28.4671  -18.5159   24.8420 H   0  0  0  0  0  0
  -28.9656  -19.9872   25.6547 H   0  0  0  0  0  0
  -29.8744  -18.4945   25.9231 H   0  0  0  0  0  0
  -27.3126  -23.7608   21.6284 H   0  0  0  0  0  0
  -27.1791  -24.1987   19.9440 H   0  0  0  0  0  0
  -26.2948  -25.0801   21.1928 H   0  0  0  0  0  0
  -28.4992  -25.4298   23.2825 H   0  0  0  0  0  0
  -27.5706  -26.7853   22.7184 H   0  0  0  0  0  0
  -29.3220  -26.8625   22.6537 H   0  0  0  0  0  0
  -29.6490  -24.4405   19.7481 H   0  0  0  0  0  0
  -30.5847  -25.5659   20.6604 H   0  0  0  0  0  0
  -29.3084  -23.3609   22.2794 H   0  0  0  0  0  0
  -29.4779  -14.7592   22.1700 H   0  0  0  0  0  0
  -32.2819  -19.2450   19.6629 H   0  0  0  0  0  0
  -32.1228  -20.9394   19.4445 H   0  0  0  0  0  0
  -32.0243  -24.4180   22.3259 H   0  0  0  0  0  0
  -31.3566  -23.3377   23.3448 H   0  0  0  0  0  0
  -30.8122  -24.8674   23.3193 H   0  0  0  0  0  0
  1 25  1  0  0  0
  1 30  2  0  0  0
  1 86  1  0  0  0
  2  3  1  0  0  0
  2 25  1  0  0  0
  2 90  1  0  0  0
  2 91  1  0  0  0
  3  4  1  0  0  0
  3 92  1  0  0  0
  3 93  1  0  0  0
  4  5  1  0  0  0
  4 94  1  0  0  0
  4 95  1  0  0  0
  5  6  1  0  0  0
  5 26  1  0  0  0
  5 96  1  0  0  0
  6 25  1  0  0  0
  6 97  1  0  0  0
  6 98  1  0  0  0
  7  8  2  0  0  0
  7 26  1  0  0  0
  7 29  1  0  0  0
  8  9  1  0  0  0
  8 22  1  0  0  0
  9 10  1  0  0  0
  9 27  2  0  0  0
 10 11  2  0  0  0
 10 15  1  0  0  0
 11 12  1  0  0  0
 11 99  1  0  0  0
 12 13  2  0  0  0
 12100  1  0  0  0
 13 14  1  0  0  0
 13 31  1  0  0  0
 14 15  2  0  0  0
 14101  1  0  0  0
 15102  1  0  0  0
 16 17  2  0  0  0
 16 21  1  0  0  0
 16 31  1  0  0  0
 17 18  1  0  0  0
 17103  1  0  0  0
 18 19  2  0  0  0
 18104  1  0  0  0
 19 20  1  0  0  0
 19 24  1  0  0  0
 20 21  2  0  0  0
 20105  1  0  0  0
 21 23  1  0  0  0
 22 28  1  0  0  0
 22 32  2  0  0  0
 26 27  1  0  0  0
 28106  1  0  0  0
 28107  1  0  0  0
 29108  1  0  0  0
 29109  1  0  0  0
 33 34  1  0  0  0
 33 66  1  0  0  0
 33 70  2  0  0  0
 34 36  1  0  0  0
 34 59  1  0  0  0
 34110  1  0  0  0
 35 44  2  0  0  0
 35 45  1  0  0  0
 35 68  1  0  0  0
 36 56  1  0  0  0
 36111  1  0  0  0
 37 39  1  0  0  0
 37 47  1  0  0  0
 37 66  1  0  0  0
 37112  1  0  0  0
 38 43  2  0  0  0
 38 46  1  0  0  0
 38 47  1  0  0  0
 39 64  1  0  0  0
 39 67  2  0  0  0
 40 52  1  0  0  0
 40 53  2  0  0  0
 40 58  1  0  0  0
 41113  1  0  0  0
 41114  1  0  0  0
 41115  1  0  0  0
 41 48  1  0  0  0
 42 43  1  0  0  0
 42 66  1  0  0  0
 42116  1  0  0  0
 42117  1  0  0  0
 43 44  1  0  0  0
 44118  1  0  0  0
 45 46  2  0  0  0
 45119  1  0  0  0
 46120  1  0  0  0
 47121  1  0  0  0
 47122  1  0  0  0
 48 56  1  0  0  0
 48 65  1  0  0  0
 48123  1  0  0  0
 49 50  1  0  0  0
 49 53  1  0  0  0
 49 64  1  0  0  0
 49124  1  0  0  0
 50 51  1  0  0  0
 50125  1  0  0  0
 50126  1  0  0  0
 51 52  1  0  0  0
 51127  1  0  0  0
 51128  1  0  0  0
 52129  1  0  0  0
 52130  1  0  0  0
 53 54  1  0  0  0
 54 55  2  0  0  0
 54131  1  0  0  0
 55 57  1  0  0  0
 55132  1  0  0  0
 56 69  2  0  0  0
 57 58  2  0  0  0
 57133  1  0  0  0
 58134  1  0  0  0
 59 60  1  0  0  0
 59 61  1  0  0  0
 59 62  1  0  0  0
 60135  1  0  0  0
 60136  1  0  0  0
 60137  1  0  0  0
 61138  1  0  0  0
 61139  1  0  0  0
 61140  1  0  0  0
 62141  1  0  0  0
 62142  1  0  0  0
 62143  1  0  0  0
 63 65  1  0  0  0
 63144  1  0  0  0
 63145  1  0  0  0
 63146  1  0  0  0
 64147  1  0  0  0
 65148  1  0  0  0
 68 83  1  0  0  0
 71 73  1  0  0  0
 71 74  2  0  0  0
 71149  1  0  0  0
 72 73  2  0  0  0
 72 85  1  0  0  0
 72150  1  0  0  0
 73 86  1  0  0  0
 74 76  1  0  0  0
 74 85  1  0  0  0
 75 82  1  0  0  0
 75 84  2  0  0  0
 75151  1  0  0  0
 76 84  1  0  0  0
 76 87  2  0  0  0
 77 78  1  0  0  0
 77 85  1  0  0  0
 77 89  2  0  0  0
 78152  1  0  0  0
 78153  1  0  0  0
 78154  1  0  0  0
 79155  1  0  0  0
 79156  1  0  0  0
 79157  1  0  0  0
 79 83  1  0  0  0
 80 83  1  0  0  0
 80158  1  0  0  0
 80159  1  0  0  0
 80160  1  0  0  0
 81 82  1  0  0  0
 81 83  1  0  0  0
 81161  1  0  0  0
 81162  1  0  0  0
 82 88  1  0  0  0
 82163  1  0  0  0
 86164  1  0  0  0
 87165  1  0  0  0
 87166  1  0  0  0
 88167  1  0  0  0
 88168  1  0  0  0
 88169  1  0  0  0
M  CHG  2  87   1  88   1
M  ISO  4   1 100  68 101  83 101  86 100
M  END
> <chiral flag>
0

> <version>
0

> <s_m_source_file>
/data/baiqing/PycharmProjects/Reinvent-master-3.2/result/LINK_invent/BTK/process_docking_weight1_custom_product_contain_oxygen_bond_distance_aromatic_linkinvent_7_9_3/rearranged_h_0163.sdf

> <i_m_source_file_index>
68

> <r_mmod_Potential_Energy-OPLS-2005>
-645.664489746094

> <r_mmod_Stretch_Energy-OPLS-2005>
45.0615310668945

> <r_mmod_Bend_Energy-OPLS-2005>
136.168716430664

> <r_mmod_Torsional_Energy-OPLS-2005>
263.587799072266

> <r_mmod_Improper_Torsional_Energy-OPLS-2005>
2.89599895477295

> <r_mmod_Van_der_Waal_Energy-OPLS-2005>
163.020553588867

> <r_mmod_Electrostatic_Energy-OPLS-2005>
-256.680816650391

> <r_mmod_Solvation_Energy-OPLS-2005>
-1009.60565185547

> <b_mmod_Minimization_Converged-OPLS-2005>
0

> <r_mmod_RMS_Derivative-OPLS-2005>
4.14973068237305

$$$$
68
                    3D
 Structure written by MMmdl.
165174  0  0  1  0            999 V2000
  -30.5786  -14.6118   20.5570 C   0  0  0  0  0  0
  -30.4584  -12.3920   19.4259 C   0  0  0  0  0  0
  -29.5097  -12.5237   18.2112 C   0  0  0  0  0  0
  -28.0310  -12.3529   18.6227 C   0  0  0  0  0  0
  -27.6614  -13.1958   19.8712 C   0  0  2  0  0  0
  -28.7066  -12.9748   20.9878 C   0  0  0  0  0  0
  -25.2611  -13.8123   20.5676 C   0  0  0  0  0  0
  -24.1848  -13.0422   20.9177 C   0  0  0  0  0  0
  -24.6380  -11.6883   20.8720 C   0  0  0  0  0  0
  -23.9035  -10.4286   21.0394 C   0  0  0  0  0  0
  -24.3595   -9.4209   21.9174 C   0  0  0  0  0  0
  -23.6282   -8.2239   22.0744 C   0  0  0  0  0  0
  -22.4263   -8.0271   21.3539 C   0  0  0  0  0  0
  -21.9892   -9.0240   20.4641 C   0  0  0  0  0  0
  -22.7207  -10.2125   20.3047 C   0  0  0  0  0  0
  -21.6850   -6.0722   22.5277 C   0  0  0  0  0  0
  -21.4010   -6.5629   23.8210 C   0  0  0  0  0  0
  -21.3661   -5.6784   24.9175 C   0  0  0  0  0  0
  -21.6046   -4.3047   24.7226 C   0  0  0  0  0  0
  -21.8821   -3.8135   23.4348 C   0  0  0  0  0  0
  -21.9192   -4.6952   22.3403 C   0  0  0  0  0  0
  -22.7877  -13.5240   21.1843 C   0  0  0  0  0  0
  -22.1663   -4.2134   21.0982 F   0  0  0  0  0  0
  -21.5635   -3.4535   25.7742 F   0  0  0  0  0  0
  -30.0239  -13.3635   20.4449 N   0  0  0  0  0  0
  -26.3019  -12.9257   20.3330 N   0  0  0  0  0  0
  -25.9298  -11.6433   20.5730 N   0  0  0  0  0  0
  -22.0503  -12.8247   22.0402 N   0  0  0  0  0  0
  -25.4367  -15.1844   20.4109 N   0  0  0  0  0  0
  -31.7067  -14.8769   20.1266 O   0  0  0  0  0  0
  -21.6632   -6.8867   21.4239 O   0  0  0  0  0  0
  -22.3574  -14.5548   20.6685 O   0  0  0  0  0  0
  -24.6230  -31.8615   23.2024 C   0  0  0  0  0  0
  -25.9083  -32.4793   23.8353 C   0  0  1  0  0  0
  -27.2373  -27.3519   20.1200 C   0  0  0  0  0  0
  -25.5907  -33.8590   24.2285 N   0  0  0  0  0  0
  -23.4163  -30.4818   21.5450 C   0  0  2  0  0  0
  -24.8663  -28.9335   20.1168 C   0  0  0  0  0  0
  -22.7460  -29.4625   22.4956 C   0  0  0  0  0  0
  -18.0282  -28.1385   22.8492 C   0  0  0  0  0  0
  -24.1487  -36.7301   23.2637 C   0  0  0  0  0  0
  -25.9528  -30.8037   21.3662 C   0  0  0  0  0  0
  -26.0319  -29.4304   20.7144 C   0  0  0  0  0  0
  -27.2233  -28.6521   20.7020 C   0  0  0  0  0  0
  -26.0519  -26.8902   19.5100 C   0  0  0  0  0  0
  -24.8756  -27.6674   19.5066 C   0  0  0  0  0  0
  -23.6309  -29.8098   20.1623 C   0  0  0  0  0  0
  -25.4108  -36.3093   24.0333 C   0  0  1  0  0  0
  -20.5882  -28.3681   23.1299 C   0  0  2  0  0  0
  -20.6772  -26.9408   22.5417 C   0  0  0  0  0  0
  -19.5748  -26.6386   21.5218 C   0  0  0  0  0  0
  -18.1927  -26.7930   22.1628 C   0  0  0  0  0  0
  -19.1533  -28.8850   23.2893 C   0  0  0  0  0  0
  -18.9457  -30.1455   23.8903 C   0  0  0  0  0  0
  -17.6459  -30.6589   24.0563 C   0  0  0  0  0  0
  -25.9043  -34.9462   23.5110 C   0  0  0  0  0  0
  -16.5351  -29.9087   23.6329 C   0  0  0  0  0  0
  -16.7271  -28.6505   23.0348 C   0  0  0  0  0  0
  -26.4479  -31.6597   25.0713 C   0  0  0  0  0  0
  -25.3721  -31.3728   26.1446 C   0  0  0  0  0  0
  -27.0314  -30.3029   24.6136 C   0  0  0  0  0  0
  -27.6049  -32.4323   25.7480 C   0  0  0  0  0  0
  -27.5584  -37.1797   24.8457 C   0  0  0  0  0  0
  -21.4178  -29.3037   22.3698 N   0  0  0  0  0  0
  -26.4285  -37.3787   23.9420 N   0  0  0  0  0  0
  -24.6828  -31.0648   22.0961 N   0  0  0  0  0  0
  -23.4195  -28.8170   23.3026 O   0  0  0  0  0  0
  -28.3742  -26.5439   20.1080 O   0  0  0  0  0  0
  -26.5616  -34.8927   22.4678 O   0  0  0  0  0  0
  -23.5400  -32.1396   23.7370 O   0  0  0  0  0  0
  -28.2949  -18.6537   22.4801 C   0  0  0  0  0  0
  -29.0584  -19.6898   21.9177 C   0  0  0  0  0  0
  -28.5581  -17.3130   22.1554 C   0  0  0  0  0  0
  -30.3187  -18.0278   20.6442 C   0  0  0  0  0  0
  -30.0715  -19.4241   20.9706 C   0  0  0  0  0  0
  -29.5890  -16.9584   21.2611 C   0  0  0  0  0  0
  -28.8759  -24.0248   19.8783 C   0  0  0  0  0  0
  -33.3053  -21.0233   19.4047 C   0  0  0  0  0  0
  -32.6831  -22.1820   18.6496 C   0  0  0  0  0  0
  -32.2001  -20.0264   19.7261 C   0  0  0  0  0  0
  -31.5879  -22.8232   19.5064 C   0  0  0  0  0  0
  -30.9992  -20.6190   20.5225 C   0  0  1  0  0  0
  -29.3916  -22.7163   20.6109 C   0  0  0  0  0  0
  -28.2540  -25.2048   20.7108 C   0  0  0  0  0  0
  -29.7059  -15.5224   21.0739 N   0  0  0  0  0  0
  -30.4460  -21.9052   19.8592 N   0  3  1  0  0  0
  -28.8925  -24.0931   18.6439 O   0  0  0  0  0  0
  -31.4916  -12.5628   19.1192 H   0  0  0  0  0  0
  -30.4290  -11.3791   19.8315 H   0  0  0  0  0  0
  -29.7749  -11.7907   17.4486 H   0  0  0  0  0  0
  -29.6436  -13.5032   17.7497 H   0  0  0  0  0  0
  -27.8640  -11.2953   18.8302 H   0  0  0  0  0  0
  -27.3749  -12.6048   17.7887 H   0  0  0  0  0  0
  -27.6986  -14.2415   19.5658 H   0  0  0  0  0  0
  -28.7239  -11.9246   21.2844 H   0  0  0  0  0  0
  -28.4396  -13.5183   21.8951 H   0  0  0  0  0  0
  -25.2740   -9.5695   22.4744 H   0  0  0  0  0  0
  -23.9995   -7.4633   22.7460 H   0  0  0  0  0  0
  -21.0821   -8.8752   19.8951 H   0  0  0  0  0  0
  -22.3657  -10.9660   19.6155 H   0  0  0  0  0  0
  -21.1996   -7.6136   23.9713 H   0  0  0  0  0  0
  -21.1486   -6.0513   25.9081 H   0  0  0  0  0  0
  -22.0598   -2.7596   23.2852 H   0  0  0  0  0  0
  -22.4100  -11.9909   22.4808 H   0  0  0  0  0  0
  -21.1118  -13.1280   22.2580 H   0  0  0  0  0  0
  -24.6712  -15.8406   20.5220 H   0  0  0  0  0  0
  -26.2889  -15.6239   20.0864 H   0  0  0  0  0  0
  -26.7152  -32.5483   23.1110 H   0  0  0  0  0  0
  -25.0046  -33.9735   25.0424 H   0  0  0  0  0  0
  -22.7091  -31.3010   21.3996 H   0  0  0  0  0  0
  -23.3753  -35.9627   23.3286 H   0  0  0  0  0  0
  -24.3584  -36.8932   22.2054 H   0  0  0  0  0  0
  -23.7229  -37.6496   23.6663 H   0  0  0  0  0  0
  -26.0726  -31.5658   20.5951 H   0  0  0  0  0  0
  -26.8371  -30.8598   21.9891 H   0  0  0  0  0  0
  -28.1245  -29.0352   21.1603 H   0  0  0  0  0  0
  -26.0353  -25.9209   19.0316 H   0  0  0  0  0  0
  -23.9817  -27.2815   19.0362 H   0  0  0  0  0  0
  -23.7465  -30.5830   19.4018 H   0  0  0  0  0  0
  -22.7529  -29.2341   19.8637 H   0  0  0  0  0  0
  -25.1284  -36.1944   25.0824 H   0  0  0  0  0  0
  -20.9975  -28.3249   24.1420 H   0  0  0  0  0  0
  -20.5675  -26.2288   23.3610 H   0  0  0  0  0  0
  -21.6639  -26.7443   22.1207 H   0  0  0  0  0  0
  -19.6905  -25.6296   21.1244 H   0  0  0  0  0  0
  -19.6687  -27.3199   20.6748 H   0  0  0  0  0  0
  -17.4200  -26.6684   21.4027 H   0  0  0  0  0  0
  -18.0324  -26.0073   22.9022 H   0  0  0  0  0  0
  -19.7931  -30.7271   24.2276 H   0  0  0  0  0  0
  -17.5010  -31.6269   24.5162 H   0  0  0  0  0  0
  -15.5348  -30.2988   23.7648 H   0  0  0  0  0  0
  -15.8673  -28.0825   22.7056 H   0  0  0  0  0  0
  -24.5888  -30.7087   25.7773 H   0  0  0  0  0  0
  -24.8916  -32.2894   26.4881 H   0  0  0  0  0  0
  -25.8047  -30.8897   27.0216 H   0  0  0  0  0  0
  -26.2875  -29.6791   24.1165 H   0  0  0  0  0  0
  -27.4036  -29.7270   25.4619 H   0  0  0  0  0  0
  -27.8732  -30.4330   23.9329 H   0  0  0  0  0  0
  -27.2667  -33.3615   26.2076 H   0  0  0  0  0  0
  -28.3848  -32.6897   25.0303 H   0  0  0  0  0  0
  -28.0731  -31.8437   26.5379 H   0  0  0  0  0  0
  -28.2580  -38.0117   24.7546 H   0  0  0  0  0  0
  -28.1104  -36.2653   24.6229 H   0  0  0  0  0  0
  -27.2315  -37.1378   25.8862 H   0  0  0  0  0  0
  -20.9352  -29.8756   21.6909 H   0  0  0  0  0  0
  -26.0171  -38.2858   24.1445 H   0  0  0  0  0  0
  -27.5207  -18.8861   23.1985 H   0  0  0  0  0  0
  -28.8751  -20.6911   22.2753 H   0  0  0  0  0  0
  -27.9586  -16.5474   22.6298 H   0  0  0  0  0  0
  -31.0945  -17.7445   19.9495 H   0  0  0  0  0  0
  -33.7841  -21.3719   20.3213 H   0  0  0  0  0  0
  -34.0827  -20.5492   18.8039 H   0  0  0  0  0  0
  -32.2766  -21.8487   17.6937 H   0  0  0  0  0  0
  -33.4506  -22.9214   18.4165 H   0  0  0  0  0  0
  -32.6696  -19.2290   20.3036 H   0  0  0  0  0  0
  -31.8434  -19.5778   18.7975 H   0  0  0  0  0  0
  -31.2764  -23.7004   18.9458 H   0  0  0  0  0  0
  -32.0316  -23.2066   20.4273 H   0  0  0  0  0  0
  -31.4234  -20.9700   21.4655 H   0  0  0  0  0  0
  -28.5116  -22.0949   20.7650 H   0  0  0  0  0  0
  -29.7725  -22.9912   21.5944 H   0  0  0  0  0  0
  -28.7469  -25.2318   21.6824 H   0  0  0  0  0  0
  -27.2100  -24.9626   20.9086 H   0  0  0  0  0  0
  -28.8954  -15.0300   21.4158 H   0  0  0  0  0  0
  -30.0117  -21.6293   18.9913 H   0  0  0  0  0  0
  1 25  1  0  0  0
  1 30  2  0  0  0
  1 85  1  0  0  0
  2  3  1  0  0  0
  2 25  1  0  0  0
  2 88  1  0  0  0
  2 89  1  0  0  0
  3  4  1  0  0  0
  3 90  1  0  0  0
  3 91  1  0  0  0
  4  5  1  0  0  0
  4 92  1  0  0  0
  4 93  1  0  0  0
  5  6  1  0  0  0
  5 26  1  0  0  0
  5 94  1  0  0  0
  6 25  1  0  0  0
  6 95  1  0  0  0
  6 96  1  0  0  0
  7  8  2  0  0  0
  7 26  1  0  0  0
  7 29  1  0  0  0
  8  9  1  0  0  0
  8 22  1  0  0  0
  9 10  1  0  0  0
  9 27  2  0  0  0
 10 11  2  0  0  0
 10 15  1  0  0  0
 11 12  1  0  0  0
 11 97  1  0  0  0
 12 13  2  0  0  0
 12 98  1  0  0  0
 13 14  1  0  0  0
 13 31  1  0  0  0
 14 15  2  0  0  0
 14 99  1  0  0  0
 15100  1  0  0  0
 16 17  2  0  0  0
 16 21  1  0  0  0
 16 31  1  0  0  0
 17 18  1  0  0  0
 17101  1  0  0  0
 18 19  2  0  0  0
 18102  1  0  0  0
 19 20  1  0  0  0
 19 24  1  0  0  0
 20 21  2  0  0  0
 20103  1  0  0  0
 21 23  1  0  0  0
 22 28  1  0  0  0
 22 32  2  0  0  0
 26 27  1  0  0  0
 28104  1  0  0  0
 28105  1  0  0  0
 29106  1  0  0  0
 29107  1  0  0  0
 33 34  1  0  0  0
 33 66  1  0  0  0
 33 70  2  0  0  0
 34 36  1  0  0  0
 34 59  1  0  0  0
 34108  1  0  0  0
 35 44  2  0  0  0
 35 45  1  0  0  0
 35 68  1  0  0  0
 36 56  1  0  0  0
 36109  1  0  0  0
 37 39  1  0  0  0
 37 47  1  0  0  0
 37 66  1  0  0  0
 37110  1  0  0  0
 38 43  2  0  0  0
 38 46  1  0  0  0
 38 47  1  0  0  0
 39 64  1  0  0  0
 39 67  2  0  0  0
 40 52  1  0  0  0
 40 53  2  0  0  0
 40 58  1  0  0  0
 41111  1  0  0  0
 41112  1  0  0  0
 41113  1  0  0  0
 41 48  1  0  0  0
 42 43  1  0  0  0
 42 66  1  0  0  0
 42114  1  0  0  0
 42115  1  0  0  0
 43 44  1  0  0  0
 44116  1  0  0  0
 45 46  2  0  0  0
 45117  1  0  0  0
 46118  1  0  0  0
 47119  1  0  0  0
 47120  1  0  0  0
 48 56  1  0  0  0
 48 65  1  0  0  0
 48121  1  0  0  0
 49 50  1  0  0  0
 49 53  1  0  0  0
 49 64  1  0  0  0
 49122  1  0  0  0
 50 51  1  0  0  0
 50123  1  0  0  0
 50124  1  0  0  0
 51 52  1  0  0  0
 51125  1  0  0  0
 51126  1  0  0  0
 52127  1  0  0  0
 52128  1  0  0  0
 53 54  1  0  0  0
 54 55  2  0  0  0
 54129  1  0  0  0
 55 57  1  0  0  0
 55130  1  0  0  0
 56 69  2  0  0  0
 57 58  2  0  0  0
 57131  1  0  0  0
 58132  1  0  0  0
 59 60  1  0  0  0
 59 61  1  0  0  0
 59 62  1  0  0  0
 60133  1  0  0  0
 60134  1  0  0  0
 60135  1  0  0  0
 61136  1  0  0  0
 61137  1  0  0  0
 61138  1  0  0  0
 62139  1  0  0  0
 62140  1  0  0  0
 62141  1  0  0  0
 63 65  1  0  0  0
 63142  1  0  0  0
 63143  1  0  0  0
 63144  1  0  0  0
 64145  1  0  0  0
 65146  1  0  0  0
 68 84  1  0  0  0
 71 72  2  0  0  0
 71 73  1  0  0  0
 71147  1  0  0  0
 72 75  1  0  0  0
 72148  1  0  0  0
 73 76  2  0  0  0
 73149  1  0  0  0
 74 75  2  0  0  0
 74 76  1  0  0  0
 74150  1  0  0  0
 75 82  1  0  0  0
 76 85  1  0  0  0
 77 83  1  0  0  0
 77 84  1  0  0  0
 77 87  2  0  0  0
 78 79  1  0  0  0
 78 80  1  0  0  0
 78151  1  0  0  0
 78152  1  0  0  0
 79 81  1  0  0  0
 79153  1  0  0  0
 79154  1  0  0  0
 80 82  1  0  0  0
 80155  1  0  0  0
 80156  1  0  0  0
 81 86  1  0  0  0
 81157  1  0  0  0
 81158  1  0  0  0
 82 86  1  0  0  0
 82159  1  0  0  0
 83160  1  0  0  0
 83161  1  0  0  0
 83 86  1  0  0  0
 84162  1  0  0  0
 84163  1  0  0  0
 85164  1  0  0  0
 86165  1  0  0  0
M  CHG  1  86   1
M  ISO  4   1 100  68 101  84 101  85 100
M  END
> <chiral flag>
0

> <version>
0

> <s_m_source_file>
/data/baiqing/PycharmProjects/Reinvent-master-3.2/result/LINK_invent/BTK/process_docking_weight1_custom_product_contain_oxygen_bond_distance_aromatic_linkinvent_7_9_3/rearranged_h_0163.sdf

> <i_m_source_file_index>
69

> <r_mmod_Potential_Energy-OPLS-2005>
-47.1508140563965

> <r_mmod_Stretch_Energy-OPLS-2005>
87.2167892456055

> <r_mmod_Bend_Energy-OPLS-2005>
183.872543334961

> <r_mmod_Torsional_Energy-OPLS-2005>
261.496063232422

> <r_mmod_Improper_Torsional_Energy-OPLS-2005>
4.70354604721069

> <r_mmod_Van_der_Waal_Energy-OPLS-2005>
159.899597167969

> <r_mmod_Electrostatic_Energy-OPLS-2005>
-333.326934814453

> <r_mmod_Solvation_Energy-OPLS-2005>
-449.573059082031

> <b_mmod_Minimization_Converged-OPLS-2005>
0

> <r_mmod_RMS_Derivative-OPLS-2005>
0.834653437137604

$$$$
69
                    3D
 Structure written by MMmdl.
159167  0  0  1  0            999 V2000
  -30.5917  -14.6308   20.5487 C   0  0  0  0  0  0
  -30.4289  -12.3995   19.4522 C   0  0  0  0  0  0
  -29.5044  -12.5512   18.2249 C   0  0  0  0  0  0
  -28.0280  -12.3749   18.6314 C   0  0  0  0  0  0
  -27.6545  -13.2157   19.8824 C   0  0  2  0  0  0
  -28.6940  -13.0306   21.0125 C   0  0  0  0  0  0
  -25.2558  -13.8160   20.5713 C   0  0  0  0  0  0
  -24.1815  -13.0427   20.9192 C   0  0  0  0  0  0
  -24.6371  -11.6890   20.8727 C   0  0  0  0  0  0
  -23.9040  -10.4265   21.0361 C   0  0  0  0  0  0
  -24.3600   -9.4195   21.9156 C   0  0  0  0  0  0
  -23.6279   -8.2234   22.0721 C   0  0  0  0  0  0
  -22.4265   -8.0258   21.3533 C   0  0  0  0  0  0
  -21.9909   -9.0226   20.4635 C   0  0  0  0  0  0
  -22.7207  -10.2109   20.3040 C   0  0  0  0  0  0
  -21.6870   -6.0717   22.5268 C   0  0  0  0  0  0
  -21.4015   -6.5621   23.8199 C   0  0  0  0  0  0
  -21.3668   -5.6775   24.9164 C   0  0  0  0  0  0
  -21.6065   -4.3036   24.7220 C   0  0  0  0  0  0
  -21.8828   -3.8131   23.4335 C   0  0  0  0  0  0
  -21.9193   -4.6944   22.3395 C   0  0  0  0  0  0
  -22.7852  -13.5237   21.1890 C   0  0  0  0  0  0
  -22.1662   -4.2129   21.0965 F   0  0  0  0  0  0
  -21.5643   -3.4529   25.7731 F   0  0  0  0  0  0
  -30.0096  -13.3923   20.4642 N   0  0  0  0  0  0
  -26.2986  -12.9332   20.3392 N   0  0  0  0  0  0
  -25.9309  -11.6489   20.5787 N   0  0  0  0  0  0
  -22.0502  -12.8194   22.0432 N   0  0  0  0  0  0
  -25.4324  -15.1879   20.4107 N   0  0  0  0  0  0
  -31.7220  -14.8383   20.0894 O   0  0  0  0  0  0
  -21.6652   -6.8847   21.4221 O   0  0  0  0  0  0
  -22.3525  -14.5526   20.6711 O   0  0  0  0  0  0
  -24.6235  -31.8574   23.2025 C   0  0  0  0  0  0
  -25.9075  -32.4773   23.8353 C   0  0  1  0  0  0
  -27.2179  -27.3165   20.1436 C   0  0  0  0  0  0
  -25.5880  -33.8589   24.2263 N   0  0  0  0  0  0
  -23.4178  -30.4771   21.5459 C   0  0  2  0  0  0
  -24.8646  -28.9264   20.1137 C   0  0  0  0  0  0
  -22.7460  -29.4599   22.4991 C   0  0  0  0  0  0
  -18.0277  -28.1345   22.8518 C   0  0  0  0  0  0
  -24.1479  -36.7291   23.2636 C   0  0  0  0  0  0
  -25.9561  -30.7919   21.3689 C   0  0  0  0  0  0
  -26.0292  -29.4161   20.7174 C   0  0  0  0  0  0
  -27.2134  -28.6238   20.7152 C   0  0  0  0  0  0
  -26.0392  -26.8720   19.5119 C   0  0  0  0  0  0
  -24.8709  -27.6608   19.4982 C   0  0  0  0  0  0
  -23.6274  -29.7995   20.1641 C   0  0  0  0  0  0
  -25.4129  -36.3101   24.0299 C   0  0  1  0  0  0
  -20.5877  -28.3635   23.1305 C   0  0  2  0  0  0
  -20.6782  -26.9379   22.5414 C   0  0  0  0  0  0
  -19.5757  -26.6358   21.5214 C   0  0  0  0  0  0
  -18.1919  -26.7903   22.1621 C   0  0  0  0  0  0
  -19.1535  -28.8809   23.2905 C   0  0  0  0  0  0
  -18.9464  -30.1417   23.8897 C   0  0  0  0  0  0
  -17.6467  -30.6551   24.0562 C   0  0  0  0  0  0
  -25.9047  -34.9448   23.5091 C   0  0  0  0  0  0
  -16.5348  -29.9045   23.6359 C   0  0  0  0  0  0
  -16.7264  -28.6454   23.0397 C   0  0  0  0  0  0
  -26.4461  -31.6595   25.0718 C   0  0  0  0  0  0
  -25.3722  -31.3695   26.1465 C   0  0  0  0  0  0
  -27.0288  -30.3018   24.6162 C   0  0  0  0  0  0
  -27.6040  -32.4323   25.7468 C   0  0  0  0  0  0
  -27.5591  -37.1811   24.8471 C   0  0  0  0  0  0
  -21.4176  -29.2990   22.3721 N   0  0  0  0  0  0
  -26.4308  -37.3802   23.9396 N   0  0  0  0  0  0
  -24.6850  -31.0585   22.0954 N   0  0  0  0  0  0
  -23.4171  -28.8156   23.3078 O   0  0  0  0  0  0
  -28.3459  -26.4892   20.1594 O   0  0  0  0  0  0
  -26.5640  -34.8911   22.4669 O   0  0  0  0  0  0
  -23.5414  -32.1355   23.7355 O   0  0  0  0  0  0
  -30.3219  -19.1880   19.7022 C   0  0  0  0  0  0
  -30.5531  -17.8043   19.9699 C   0  0  0  0  0  0
  -28.6755  -17.8208   21.4709 C   0  0  0  0  0  0
  -29.2470  -19.9292   20.2789 C   0  0  0  0  0  0
  -29.7108  -17.0665   20.8432 C   0  0  0  0  0  0
  -28.4415  -19.2083   21.2047 C   0  0  0  0  0  0
  -28.9382  -21.3292   19.7614 C   0  0  0  0  0  0
  -27.2398  -25.0310   21.8889 C   0  0  0  0  0  0
  -29.7069  -25.2035   21.5564 C   0  0  0  0  0  0
  -28.3650  -23.8737   19.8654 C   0  0  0  0  0  0
  -28.3566  -25.1516   20.8264 C   0  0  0  0  0  0
  -28.9439  -21.4477   18.4318 N   0  0  0  0  0  0
  -29.8040  -15.6208   21.0792 N   0  0  0  0  0  0
  -28.6628  -22.4886   20.4558 N   0  3  0  0  0  0
  -27.3925  -19.8236   21.8062 F   0  0  0  0  0  0
  -31.4709  -12.5266   19.1544 H   0  0  0  0  0  0
  -30.3485  -11.3883   19.8551 H   0  0  0  0  0  0
  -29.7712  -11.8342   17.4469 H   0  0  0  0  0  0
  -29.6440  -13.5414   17.7856 H   0  0  0  0  0  0
  -27.8612  -11.3151   18.8310 H   0  0  0  0  0  0
  -27.3724  -12.6355   17.8003 H   0  0  0  0  0  0
  -27.6847  -14.2620   19.5785 H   0  0  0  0  0  0
  -28.7050  -11.9973   21.3614 H   0  0  0  0  0  0
  -28.4307  -13.6278   21.8871 H   0  0  0  0  0  0
  -25.2744   -9.5694   22.4736 H   0  0  0  0  0  0
  -24.0015   -7.4627   22.7449 H   0  0  0  0  0  0
  -21.0850   -8.8713   19.8950 H   0  0  0  0  0  0
  -22.3631  -10.9639   19.6161 H   0  0  0  0  0  0
  -21.1990   -7.6133   23.9688 H   0  0  0  0  0  0
  -21.1510   -6.0513   25.9061 H   0  0  0  0  0  0
  -22.0606   -2.7602   23.2844 H   0  0  0  0  0  0
  -22.4125  -11.9834   22.4791 H   0  0  0  0  0  0
  -21.1114  -13.1199   22.2638 H   0  0  0  0  0  0
  -24.6687  -15.8475   20.5001 H   0  0  0  0  0  0
  -26.2928  -15.6205   20.0974 H   0  0  0  0  0  0
  -26.7150  -32.5423   23.1109 H   0  0  0  0  0  0
  -25.0032  -33.9786   25.0404 H   0  0  0  0  0  0
  -22.7090  -31.2937   21.3991 H   0  0  0  0  0  0
  -23.3764  -35.9610   23.3305 H   0  0  0  0  0  0
  -24.3595  -36.8933   22.2066 H   0  0  0  0  0  0
  -23.7194  -37.6465   23.6667 H   0  0  0  0  0  0
  -26.0857  -31.5566   20.5995 H   0  0  0  0  0  0
  -26.8378  -30.8398   21.9971 H   0  0  0  0  0  0
  -28.1110  -29.0046   21.1838 H   0  0  0  0  0  0
  -26.0147  -25.8974   19.0439 H   0  0  0  0  0  0
  -23.9759  -27.2804   19.0222 H   0  0  0  0  0  0
  -23.7260  -30.5642   19.3936 H   0  0  0  0  0  0
  -22.7496  -29.2101   19.8858 H   0  0  0  0  0  0
  -25.1326  -36.1968   25.0798 H   0  0  0  0  0  0
  -20.9974  -28.3190   24.1414 H   0  0  0  0  0  0
  -20.5698  -26.2241   23.3605 H   0  0  0  0  0  0
  -21.6654  -26.7424   22.1193 H   0  0  0  0  0  0
  -19.6915  -25.6259   21.1235 H   0  0  0  0  0  0
  -19.6680  -27.3179   20.6754 H   0  0  0  0  0  0
  -17.4223  -26.6688   21.3980 H   0  0  0  0  0  0
  -18.0299  -26.0016   22.8977 H   0  0  0  0  0  0
  -19.7938  -30.7262   24.2236 H   0  0  0  0  0  0
  -17.5004  -31.6243   24.5145 H   0  0  0  0  0  0
  -15.5341  -30.2936   23.7675 H   0  0  0  0  0  0
  -15.8674  -28.0745   22.7139 H   0  0  0  0  0  0
  -24.5926  -30.6987   25.7801 H   0  0  0  0  0  0
  -24.8858  -32.2839   26.4872 H   0  0  0  0  0  0
  -25.8094  -30.8904   27.0239 H   0  0  0  0  0  0
  -26.2840  -29.6786   24.1187 H   0  0  0  0  0  0
  -27.3969  -29.7244   25.4657 H   0  0  0  0  0  0
  -27.8716  -30.4286   23.9372 H   0  0  0  0  0  0
  -27.2662  -33.3651   26.1998 H   0  0  0  0  0  0
  -28.3855  -32.6858   25.0284 H   0  0  0  0  0  0
  -28.0689  -31.8472   26.5416 H   0  0  0  0  0  0
  -28.2624  -38.0108   24.7585 H   0  0  0  0  0  0
  -28.1078  -36.2642   24.6236 H   0  0  0  0  0  0
  -27.2303  -37.1399   25.8877 H   0  0  0  0  0  0
  -20.9336  -29.8695   21.6937 H   0  0  0  0  0  0
  -26.0179  -38.2864   24.1439 H   0  0  0  0  0  0
  -30.9673  -19.6839   18.9894 H   0  0  0  0  0  0
  -31.3704  -17.3063   19.4660 H   0  0  0  0  0  0
  -28.0005  -17.3206   22.1525 H   0  0  0  0  0  0
  -27.3808  -24.1584   22.5246 H   0  0  0  0  0  0
  -26.2574  -24.9283   21.4321 H   0  0  0  0  0  0
  -27.2130  -25.9017   22.5452 H   0  0  0  0  0  0
  -29.8731  -24.3182   22.1699 H   0  0  0  0  0  0
  -29.7563  -26.0699   22.2169 H   0  0  0  0  0  0
  -30.5337  -25.2836   20.8483 H   0  0  0  0  0  0
  -29.1190  -24.0664   19.1001 H   0  0  0  0  0  0
  -27.4108  -23.8238   19.3362 H   0  0  0  0  0  0
  -29.0435  -20.6093   17.8792 H   0  0  0  0  0  0
  -28.7941  -22.3166   17.9511 H   0  0  0  0  0  0
  -29.0116  -15.2382   21.5721 H   0  0  0  0  0  0
  -28.5768  -22.3960   21.4596 H   0  0  0  0  0  0
  1 25  1  0  0  0
  1 30  2  0  0  0
  1 83  1  0  0  0
  2  3  1  0  0  0
  2 25  1  0  0  0
  2 86  1  0  0  0
  2 87  1  0  0  0
  3  4  1  0  0  0
  3 88  1  0  0  0
  3 89  1  0  0  0
  4  5  1  0  0  0
  4 90  1  0  0  0
  4 91  1  0  0  0
  5  6  1  0  0  0
  5 26  1  0  0  0
  5 92  1  0  0  0
  6 25  1  0  0  0
  6 93  1  0  0  0
  6 94  1  0  0  0
  7  8  2  0  0  0
  7 26  1  0  0  0
  7 29  1  0  0  0
  8  9  1  0  0  0
  8 22  1  0  0  0
  9 10  1  0  0  0
  9 27  2  0  0  0
 10 11  2  0  0  0
 10 15  1  0  0  0
 11 12  1  0  0  0
 11 95  1  0  0  0
 12 13  2  0  0  0
 12 96  1  0  0  0
 13 14  1  0  0  0
 13 31  1  0  0  0
 14 15  2  0  0  0
 14 97  1  0  0  0
 15 98  1  0  0  0
 16 17  2  0  0  0
 16 21  1  0  0  0
 16 31  1  0  0  0
 17 18  1  0  0  0
 17 99  1  0  0  0
 18 19  2  0  0  0
 18100  1  0  0  0
 19 20  1  0  0  0
 19 24  1  0  0  0
 20 21  2  0  0  0
 20101  1  0  0  0
 21 23  1  0  0  0
 22 28  1  0  0  0
 22 32  2  0  0  0
 26 27  1  0  0  0
 28102  1  0  0  0
 28103  1  0  0  0
 29104  1  0  0  0
 29105  1  0  0  0
 33 34  1  0  0  0
 33 66  1  0  0  0
 33 70  2  0  0  0
 34 36  1  0  0  0
 34 59  1  0  0  0
 34106  1  0  0  0
 35 44  2  0  0  0
 35 45  1  0  0  0
 35 68  1  0  0  0
 36 56  1  0  0  0
 36107  1  0  0  0
 37 39  1  0  0  0
 37 47  1  0  0  0
 37 66  1  0  0  0
 37108  1  0  0  0
 38 43  2  0  0  0
 38 46  1  0  0  0
 38 47  1  0  0  0
 39 64  1  0  0  0
 39 67  2  0  0  0
 40 52  1  0  0  0
 40 53  2  0  0  0
 40 58  1  0  0  0
 41109  1  0  0  0
 41110  1  0  0  0
 41111  1  0  0  0
 41 48  1  0  0  0
 42 43  1  0  0  0
 42 66  1  0  0  0
 42112  1  0  0  0
 42113  1  0  0  0
 43 44  1  0  0  0
 44114  1  0  0  0
 45 46  2  0  0  0
 45115  1  0  0  0
 46116  1  0  0  0
 47117  1  0  0  0
 47118  1  0  0  0
 48 56  1  0  0  0
 48 65  1  0  0  0
 48119  1  0  0  0
 49 50  1  0  0  0
 49 53  1  0  0  0
 49 64  1  0  0  0
 49120  1  0  0  0
 50 51  1  0  0  0
 50121  1  0  0  0
 50122  1  0  0  0
 51 52  1  0  0  0
 51123  1  0  0  0
 51124  1  0  0  0
 52125  1  0  0  0
 52126  1  0  0  0
 53 54  1  0  0  0
 54 55  2  0  0  0
 54127  1  0  0  0
 55 57  1  0  0  0
 55128  1  0  0  0
 56 69  2  0  0  0
 57 58  2  0  0  0
 57129  1  0  0  0
 58130  1  0  0  0
 59 60  1  0  0  0
 59 61  1  0  0  0
 59 62  1  0  0  0
 60131  1  0  0  0
 60132  1  0  0  0
 60133  1  0  0  0
 61134  1  0  0  0
 61135  1  0  0  0
 61136  1  0  0  0
 62137  1  0  0  0
 62138  1  0  0  0
 62139  1  0  0  0
 63 65  1  0  0  0
 63140  1  0  0  0
 63141  1  0  0  0
 63142  1  0  0  0
 64143  1  0  0  0
 65144  1  0  0  0
 68 81  1  0  0  0
 71 72  2  0  0  0
 71 74  1  0  0  0
 71145  1  0  0  0
 72 75  1  0  0  0
 72146  1  0  0  0
 73 75  2  0  0  0
 73 76  1  0  0  0
 73147  1  0  0  0
 74 76  2  0  0  0
 74 77  1  0  0  0
 75 83  1  0  0  0
 76 85  1  0  0  0
 77 82  1  0  0  0
 77 84  2  0  0  0
 78148  1  0  0  0
 78149  1  0  0  0
 78150  1  0  0  0
 78 81  1  0  0  0
 79 81  1  0  0  0
 79151  1  0  0  0
 79152  1  0  0  0
 79153  1  0  0  0
 80 81  1  0  0  0
 80 84  1  0  0  0
 80154  1  0  0  0
 80155  1  0  0  0
 82156  1  0  0  0
 82157  1  0  0  0
 83158  1  0  0  0
 84159  1  0  0  0
M  CHG  1  84   1
M  ISO  4   1 100  68 101  81 101  83 100
M  END
> <chiral flag>
0

> <version>
0

> <s_m_source_file>
/data/baiqing/PycharmProjects/Reinvent-master-3.2/result/LINK_invent/BTK/process_docking_weight1_custom_product_contain_oxygen_bond_distance_aromatic_linkinvent_7_9_3/rearranged_h_0163.sdf

> <i_m_source_file_index>
70

> <r_mmod_Potential_Energy-OPLS-2005>
-132.072387695312

> <r_mmod_Stretch_Energy-OPLS-2005>
86.7758407592773

> <r_mmod_Bend_Energy-OPLS-2005>
153.826370239258

> <r_mmod_Torsional_Energy-OPLS-2005>
248.643142700195

> <r_mmod_Improper_Torsional_Energy-OPLS-2005>
4.31761598587036

> <r_mmod_Van_der_Waal_Energy-OPLS-2005>
142.553939819336

> <r_mmod_Electrostatic_Energy-OPLS-2005>
-401.722686767578

> <r_mmod_Solvation_Energy-OPLS-2005>
-412.335601806641

> <b_mmod_Minimization_Converged-OPLS-2005>
0

> <r_mmod_RMS_Derivative-OPLS-2005>
4.1786093711853

$$$$
70
                    3D
 Structure written by MMmdl.
155163  0  0  1  0            999 V2000
  -30.6675  -14.4792   20.6034 C   0  0  0  0  0  0
  -30.4331  -12.3064   19.4501 C   0  0  0  0  0  0
  -29.5088  -12.4934   18.2283 C   0  0  0  0  0  0
  -28.0273  -12.3590   18.6285 C   0  0  0  0  0  0
  -27.6658  -13.2011   19.8795 C   0  0  2  0  0  0
  -28.6953  -12.9699   21.0100 C   0  0  0  0  0  0
  -25.2598  -13.8153   20.5641 C   0  0  0  0  0  0
  -24.1840  -13.0444   20.9160 C   0  0  0  0  0  0
  -24.6381  -11.6908   20.8727 C   0  0  0  0  0  0
  -23.9026  -10.4308   21.0416 C   0  0  0  0  0  0
  -24.3595   -9.4229   21.9196 C   0  0  0  0  0  0
  -23.6283   -8.2255   22.0762 C   0  0  0  0  0  0
  -22.4266   -8.0287   21.3544 C   0  0  0  0  0  0
  -21.9878   -9.0252   20.4647 C   0  0  0  0  0  0
  -22.7201  -10.2145   20.3066 C   0  0  0  0  0  0
  -21.6846   -6.0733   22.5270 C   0  0  0  0  0  0
  -21.4002   -6.5638   23.8208 C   0  0  0  0  0  0
  -21.3654   -5.6795   24.9163 C   0  0  0  0  0  0
  -21.6051   -4.3051   24.7214 C   0  0  0  0  0  0
  -21.8826   -3.8145   23.4335 C   0  0  0  0  0  0
  -21.9200   -4.6959   22.3396 C   0  0  0  0  0  0
  -22.7868  -13.5256   21.1824 C   0  0  0  0  0  0
  -22.1685   -4.2153   21.0963 F   0  0  0  0  0  0
  -21.5621   -3.4539   25.7727 F   0  0  0  0  0  0
  -30.0385  -13.2776   20.4834 N   0  0  0  0  0  0
  -26.3036  -12.9310   20.3336 N   0  0  0  0  0  0
  -25.9296  -11.6476   20.5728 N   0  0  0  0  0  0
  -22.0496  -12.8276   22.0385 N   0  0  0  0  0  0
  -25.4352  -15.1862   20.4036 N   0  0  0  0  0  0
  -31.7353  -14.7397   20.0388 O   0  0  0  0  0  0
  -21.6644   -6.8880   21.4239 O   0  0  0  0  0  0
  -22.3565  -14.5570   20.6685 O   0  0  0  0  0  0
  -24.6134  -31.8668   23.2101 C   0  0  0  0  0  0
  -25.9034  -32.4810   23.8388 C   0  0  1  0  0  0
  -27.2331  -27.4254   20.0814 C   0  0  0  0  0  0
  -25.5894  -33.8613   24.2324 N   0  0  0  0  0  0
  -23.4007  -30.4904   21.5515 C   0  0  2  0  0  0
  -24.8441  -28.9559   20.1139 C   0  0  0  0  0  0
  -22.7400  -29.4638   22.4997 C   0  0  0  0  0  0
  -18.0268  -28.1360   22.8487 C   0  0  0  0  0  0
  -24.1485  -36.7307   23.2638 C   0  0  0  0  0  0
  -25.9311  -30.8262   21.3665 C   0  0  0  0  0  0
  -26.0047  -29.4606   20.7121 C   0  0  0  0  0  0
  -27.1957  -28.6993   20.6995 C   0  0  0  0  0  0
  -26.0432  -26.9281   19.5004 C   0  0  0  0  0  0
  -24.8579  -27.6875   19.5114 C   0  0  0  0  0  0
  -23.6071  -29.8238   20.1654 C   0  0  0  0  0  0
  -25.4101  -36.3104   24.0339 C   0  0  1  0  0  0
  -20.5855  -28.3637   23.1330 C   0  0  2  0  0  0
  -20.6755  -26.9369   22.5434 C   0  0  0  0  0  0
  -19.5741  -26.6364   21.5218 C   0  0  0  0  0  0
  -18.1913  -26.7910   22.1614 C   0  0  0  0  0  0
  -19.1515  -28.8819   23.2900 C   0  0  0  0  0  0
  -18.9447  -30.1430   23.8900 C   0  0  0  0  0  0
  -17.6449  -30.6566   24.0564 C   0  0  0  0  0  0
  -25.9030  -34.9467   23.5130 C   0  0  0  0  0  0
  -16.5344  -29.9069   23.6323 C   0  0  0  0  0  0
  -16.7258  -28.6492   23.0337 C   0  0  0  0  0  0
  -26.4474  -31.6583   25.0709 C   0  0  0  0  0  0
  -25.3764  -31.3701   26.1479 C   0  0  0  0  0  0
  -27.0287  -30.3015   24.6084 C   0  0  0  0  0  0
  -27.6057  -32.4298   25.7459 C   0  0  0  0  0  0
  -27.5578  -37.1801   24.8458 C   0  0  0  0  0  0
  -21.4130  -29.3005   22.3735 N   0  0  0  0  0  0
  -26.4289  -37.3786   23.9404 N   0  0  0  0  0  0
  -24.6668  -31.0763   22.1008 N   0  0  0  0  0  0
  -23.4180  -28.8179   23.3034 O   0  0  0  0  0  0
  -28.4246  -26.7219   20.1013 O   0  0  0  0  0  0
  -26.5598  -34.8923   22.4694 O   0  0  0  0  0  0
  -23.5330  -32.1433   23.7500 O   0  0  0  0  0  0
  -28.7069  -18.3216   19.3955 C   0  0  0  0  0  0
  -29.2855  -17.0622   19.6812 C   0  0  0  0  0  0
  -29.3495  -17.6466   22.0341 C   0  0  0  0  0  0
  -28.4465  -19.2684   20.4168 C   0  0  0  0  0  0
  -29.6011  -16.7022   21.0120 C   0  0  0  0  0  0
  -28.7962  -18.9174   21.7473 C   0  0  0  0  0  0
  -27.7516  -20.5689   20.0682 C   0  0  0  0  0  0
  -28.6446  -25.5968   19.2309 C   0  0  0  0  0  0
  -28.9431  -24.2689   19.9747 C   0  0  0  0  0  0
  -28.2273  -21.6982   20.5119 N   0  0  0  0  0  0
  -26.6301  -20.3820   19.2764 N   0  0  0  0  0  0
  -30.0332  -15.3838   21.3763 N   0  0  0  0  0  0
  -26.7004  -23.1808   18.9739 O   0  0  0  0  0  0
  -26.7993  -23.6372   21.4599 O   0  0  0  0  0  0
  -28.5535  -19.7700   22.7739 F   0  0  0  0  0  0
  -27.4726  -23.1886   20.2295 S   0  0  0  0  0  0
  -31.4779  -12.4171   19.1553 H   0  0  0  0  0  0
  -30.3456  -11.2945   19.8484 H   0  0  0  0  0  0
  -29.7576  -11.7553   17.4645 H   0  0  0  0  0  0
  -29.6836  -13.4734   17.7819 H   0  0  0  0  0  0
  -27.8338  -11.3051   18.8296 H   0  0  0  0  0  0
  -27.3833  -12.6299   17.7914 H   0  0  0  0  0  0
  -27.7164  -14.2493   19.5838 H   0  0  0  0  0  0
  -28.6660  -11.9332   21.3454 H   0  0  0  0  0  0
  -28.4272  -13.5589   21.8880 H   0  0  0  0  0  0
  -25.2744   -9.5698   22.4765 H   0  0  0  0  0  0
  -23.9993   -7.4638   22.7458 H   0  0  0  0  0  0
  -21.0822   -8.8749   19.8945 H   0  0  0  0  0  0
  -22.3652  -10.9673   19.6163 H   0  0  0  0  0  0
  -21.1992   -7.6145   23.9710 H   0  0  0  0  0  0
  -21.1467   -6.0518   25.9067 H   0  0  0  0  0  0
  -22.0611   -2.7598   23.2837 H   0  0  0  0  0  0
  -22.4065  -11.9912   22.4764 H   0  0  0  0  0  0
  -21.1115  -13.1307   22.2567 H   0  0  0  0  0  0
  -24.6677  -15.8441   20.4907 H   0  0  0  0  0  0
  -26.2921  -15.6109   20.0738 H   0  0  0  0  0  0
  -26.7092  -32.5516   23.1137 H   0  0  0  0  0  0
  -25.0038  -33.9777   25.0466 H   0  0  0  0  0  0
  -22.6877  -31.3060   21.4145 H   0  0  0  0  0  0
  -23.3745  -35.9646   23.3316 H   0  0  0  0  0  0
  -24.3582  -36.8908   22.2052 H   0  0  0  0  0  0
  -23.7243  -37.6516   23.6648 H   0  0  0  0  0  0
  -26.0489  -31.5921   20.5992 H   0  0  0  0  0  0
  -26.8176  -30.8763   21.9871 H   0  0  0  0  0  0
  -28.0926  -29.0845   21.1646 H   0  0  0  0  0  0
  -25.9908  -25.9491   19.0501 H   0  0  0  0  0  0
  -23.9614  -27.2843   19.0612 H   0  0  0  0  0  0
  -23.7146  -30.5994   19.4064 H   0  0  0  0  0  0
  -22.7292  -29.2452   19.8712 H   0  0  0  0  0  0
  -25.1272  -36.1978   25.0832 H   0  0  0  0  0  0
  -20.9945  -28.3211   24.1455 H   0  0  0  0  0  0
  -20.5634  -26.2240   23.3617 H   0  0  0  0  0  0
  -21.6634  -26.7400   22.1246 H   0  0  0  0  0  0
  -19.6902  -25.6285   21.1218 H   0  0  0  0  0  0
  -19.6688  -27.3198   20.6772 H   0  0  0  0  0  0
  -17.4188  -26.6671   21.4009 H   0  0  0  0  0  0
  -18.0289  -26.0044   22.8995 H   0  0  0  0  0  0
  -19.7928  -30.7246   24.2256 H   0  0  0  0  0  0
  -17.5007  -31.6245   24.5162 H   0  0  0  0  0  0
  -15.5343  -30.2966   23.7648 H   0  0  0  0  0  0
  -15.8663  -28.0819   22.7036 H   0  0  0  0  0  0
  -24.5900  -30.7081   25.7836 H   0  0  0  0  0  0
  -24.9014  -32.2872   26.4975 H   0  0  0  0  0  0
  -25.8135  -30.8828   27.0204 H   0  0  0  0  0  0
  -26.2816  -29.6772   24.1165 H   0  0  0  0  0  0
  -27.4081  -29.7248   25.4528 H   0  0  0  0  0  0
  -27.8649  -30.4322   23.9212 H   0  0  0  0  0  0
  -27.2678  -33.3573   26.2092 H   0  0  0  0  0  0
  -28.3833  -32.6889   25.0264 H   0  0  0  0  0  0
  -28.0760  -31.8390   26.5329 H   0  0  0  0  0  0
  -28.2607  -38.0089   24.7497 H   0  0  0  0  0  0
  -28.1064  -36.2623   24.6283 H   0  0  0  0  0  0
  -27.2300  -37.1454   25.8865 H   0  0  0  0  0  0
  -20.9272  -29.8749   21.6988 H   0  0  0  0  0  0
  -26.0181  -38.2864   24.1415 H   0  0  0  0  0  0
  -28.4394  -18.5530   18.3738 H   0  0  0  0  0  0
  -29.4322  -16.3642   18.8689 H   0  0  0  0  0  0
  -29.5579  -17.3915   23.0622 H   0  0  0  0  0  0
  -27.9074  -25.4616   18.4434 H   0  0  0  0  0  0
  -29.5469  -25.8619   18.6789 H   0  0  0  0  0  0
  -29.4395  -24.4222   20.9290 H   0  0  0  0  0  0
  -29.6214  -23.6799   19.3611 H   0  0  0  0  0  0
  -26.2704  -19.4783   18.9951 H   0  0  0  0  0  0
  -26.0746  -21.1303   18.8737 H   0  0  0  0  0  0
  -29.4832  -14.9641   22.1114 H   0  0  0  0  0  0
  1 25  1  0  0  0
  1 30  2  0  0  0
  1 82  1  0  0  0
  2  3  1  0  0  0
  2 25  1  0  0  0
  2 87  1  0  0  0
  2 88  1  0  0  0
  3  4  1  0  0  0
  3 89  1  0  0  0
  3 90  1  0  0  0
  4  5  1  0  0  0
  4 91  1  0  0  0
  4 92  1  0  0  0
  5  6  1  0  0  0
  5 26  1  0  0  0
  5 93  1  0  0  0
  6 25  1  0  0  0
  6 94  1  0  0  0
  6 95  1  0  0  0
  7  8  2  0  0  0
  7 26  1  0  0  0
  7 29  1  0  0  0
  8  9  1  0  0  0
  8 22  1  0  0  0
  9 10  1  0  0  0
  9 27  2  0  0  0
 10 11  2  0  0  0
 10 15  1  0  0  0
 11 12  1  0  0  0
 11 96  1  0  0  0
 12 13  2  0  0  0
 12 97  1  0  0  0
 13 14  1  0  0  0
 13 31  1  0  0  0
 14 15  2  0  0  0
 14 98  1  0  0  0
 15 99  1  0  0  0
 16 17  2  0  0  0
 16 21  1  0  0  0
 16 31  1  0  0  0
 17 18  1  0  0  0
 17100  1  0  0  0
 18 19  2  0  0  0
 18101  1  0  0  0
 19 20  1  0  0  0
 19 24  1  0  0  0
 20 21  2  0  0  0
 20102  1  0  0  0
 21 23  1  0  0  0
 22 28  1  0  0  0
 22 32  2  0  0  0
 26 27  1  0  0  0
 28103  1  0  0  0
 28104  1  0  0  0
 29105  1  0  0  0
 29106  1  0  0  0
 33 34  1  0  0  0
 33 66  1  0  0  0
 33 70  2  0  0  0
 34 36  1  0  0  0
 34 59  1  0  0  0
 34107  1  0  0  0
 35 44  2  0  0  0
 35 45  1  0  0  0
 35 68  1  0  0  0
 36 56  1  0  0  0
 36108  1  0  0  0
 37 39  1  0  0  0
 37 47  1  0  0  0
 37 66  1  0  0  0
 37109  1  0  0  0
 38 43  2  0  0  0
 38 46  1  0  0  0
 38 47  1  0  0  0
 39 64  1  0  0  0
 39 67  2  0  0  0
 40 52  1  0  0  0
 40 53  2  0  0  0
 40 58  1  0  0  0
 41110  1  0  0  0
 41111  1  0  0  0
 41112  1  0  0  0
 41 48  1  0  0  0
 42 43  1  0  0  0
 42 66  1  0  0  0
 42113  1  0  0  0
 42114  1  0  0  0
 43 44  1  0  0  0
 44115  1  0  0  0
 45 46  2  0  0  0
 45116  1  0  0  0
 46117  1  0  0  0
 47118  1  0  0  0
 47119  1  0  0  0
 48 56  1  0  0  0
 48 65  1  0  0  0
 48120  1  0  0  0
 49 50  1  0  0  0
 49 53  1  0  0  0
 49 64  1  0  0  0
 49121  1  0  0  0
 50 51  1  0  0  0
 50122  1  0  0  0
 50123  1  0  0  0
 51 52  1  0  0  0
 51124  1  0  0  0
 51125  1  0  0  0
 52126  1  0  0  0
 52127  1  0  0  0
 53 54  1  0  0  0
 54 55  2  0  0  0
 54128  1  0  0  0
 55 57  1  0  0  0
 55129  1  0  0  0
 56 69  2  0  0  0
 57 58  2  0  0  0
 57130  1  0  0  0
 58131  1  0  0  0
 59 60  1  0  0  0
 59 61  1  0  0  0
 59 62  1  0  0  0
 60132  1  0  0  0
 60133  1  0  0  0
 60134  1  0  0  0
 61135  1  0  0  0
 61136  1  0  0  0
 61137  1  0  0  0
 62138  1  0  0  0
 62139  1  0  0  0
 62140  1  0  0  0
 63 65  1  0  0  0
 63141  1  0  0  0
 63142  1  0  0  0
 63143  1  0  0  0
 64144  1  0  0  0
 65145  1  0  0  0
 68 78  1  0  0  0
 71 72  2  0  0  0
 71 74  1  0  0  0
 71146  1  0  0  0
 72 75  1  0  0  0
 72147  1  0  0  0
 73 75  2  0  0  0
 73 76  1  0  0  0
 73148  1  0  0  0
 74 76  2  0  0  0
 74 77  1  0  0  0
 75 82  1  0  0  0
 76 85  1  0  0  0
 77 80  2  0  0  0
 77 81  1  0  0  0
 78 79  1  0  0  0
 78149  1  0  0  0
 78150  1  0  0  0
 79151  1  0  0  0
 79152  1  0  0  0
 79 86  1  0  0  0
 80 86  1  0  0  0
 81153  1  0  0  0
 81154  1  0  0  0
 82155  1  0  0  0
 83 86  2  0  0  0
 84 86  2  0  0  0
M  ISO  4   1 100  68 101  78 101  82 100
M  END
> <chiral flag>
0

> <version>
0

> <s_m_source_file>
/data/baiqing/PycharmProjects/Reinvent-master-3.2/result/LINK_invent/BTK/process_docking_weight1_custom_product_contain_oxygen_bond_distance_aromatic_linkinvent_7_9_3/rearranged_h_0163.sdf

> <i_m_source_file_index>
71

> <r_mmod_Potential_Energy-OPLS-2005>
-91.2460708618164

> <r_mmod_Stretch_Energy-OPLS-2005>
41.7804183959961

> <r_mmod_Bend_Energy-OPLS-2005>
120.239585876465

> <r_mmod_Torsional_Energy-OPLS-2005>
250.985900878906

> <r_mmod_Improper_Torsional_Energy-OPLS-2005>
4.7704381942749

> <r_mmod_Van_der_Waal_Energy-OPLS-2005>
148.475860595703

> <r_mmod_Electrostatic_Energy-OPLS-2005>
-408.281646728516

> <r_mmod_Solvation_Energy-OPLS-2005>
-263.305419921875

> <b_mmod_Minimization_Converged-OPLS-2005>
0

> <r_mmod_RMS_Derivative-OPLS-2005>
2.53817915916443

$$$$
71
                    3D
 Structure written by MMmdl.
156164  0  0  1  0            999 V2000
  -30.6083  -14.7785   20.4360 C   0  0  0  0  0  0
  -30.4273  -12.4687   19.4929 C   0  0  0  0  0  0
  -29.5130  -12.5107   18.2489 C   0  0  0  0  0  0
  -28.0427  -12.3209   18.6645 C   0  0  0  0  0  0
  -27.6385  -13.2370   19.8514 C   0  0  2  0  0  0
  -28.6807  -13.2047   20.9909 C   0  0  0  0  0  0
  -25.2470  -13.8178   20.5680 C   0  0  0  0  0  0
  -24.1777  -13.0422   20.9195 C   0  0  0  0  0  0
  -24.6394  -11.6915   20.8756 C   0  0  0  0  0  0
  -23.9081  -10.4289   21.0408 C   0  0  0  0  0  0
  -24.3628   -9.4206   21.9191 C   0  0  0  0  0  0
  -23.6301   -8.2244   22.0760 C   0  0  0  0  0  0
  -22.4283   -8.0282   21.3545 C   0  0  0  0  0  0
  -21.9921   -9.0258   20.4645 C   0  0  0  0  0  0
  -22.7255  -10.2136   20.3055 C   0  0  0  0  0  0
  -21.6851   -6.0739   22.5288 C   0  0  0  0  0  0
  -21.4013   -6.5641   23.8225 C   0  0  0  0  0  0
  -21.3664   -5.6793   24.9189 C   0  0  0  0  0  0
  -21.6041   -4.3055   24.7232 C   0  0  0  0  0  0
  -21.8815   -3.8149   23.4354 C   0  0  0  0  0  0
  -21.9189   -4.6967   22.3411 C   0  0  0  0  0  0
  -22.7802  -13.5208   21.1873 C   0  0  0  0  0  0
  -22.1654   -4.2153   21.0985 F   0  0  0  0  0  0
  -21.5636   -3.4541   25.7747 F   0  0  0  0  0  0
  -29.9810  -13.5499   20.4050 N   0  0  0  0  0  0
  -26.2925  -12.9417   20.3310 N   0  0  0  0  0  0
  -25.9337  -11.6549   20.5793 N   0  0  0  0  0  0
  -22.0446  -12.8189   22.0418 N   0  0  0  0  0  0
  -25.4090  -15.1891   20.4079 N   0  0  0  0  0  0
  -31.7961  -14.8573   20.1128 O   0  0  0  0  0  0
  -21.6639   -6.8882   21.4249 O   0  0  0  0  0  0
  -22.3484  -14.5531   20.6758 O   0  0  0  0  0  0
  -24.6340  -31.8510   23.1922 C   0  0  0  0  0  0
  -25.9153  -32.4725   23.8291 C   0  0  1  0  0  0
  -27.2256  -27.2386   20.1288 C   0  0  0  0  0  0
  -25.5931  -33.8528   24.2217 N   0  0  0  0  0  0
  -23.4295  -30.4717   21.5370 C   0  0  2  0  0  0
  -24.8751  -28.9073   20.1084 C   0  0  0  0  0  0
  -22.7514  -29.4576   22.4901 C   0  0  0  0  0  0
  -18.0290  -28.1375   22.8477 C   0  0  0  0  0  0
  -24.1493  -36.7278   23.2640 C   0  0  0  0  0  0
  -25.9741  -30.7610   21.3661 C   0  0  0  0  0  0
  -26.0462  -29.3781   20.7139 C   0  0  0  0  0  0
  -27.2191  -28.5566   20.7077 C   0  0  0  0  0  0
  -26.0215  -26.8232   19.5230 C   0  0  0  0  0  0
  -24.8688  -27.6393   19.5036 C   0  0  0  0  0  0
  -23.6464  -29.7992   20.1542 C   0  0  0  0  0  0
  -25.4117  -36.3041   24.0317 C   0  0  1  0  0  0
  -20.5894  -28.3691   23.1266 C   0  0  2  0  0  0
  -20.6773  -26.9411   22.5399 C   0  0  0  0  0  0
  -19.5752  -26.6380   21.5202 C   0  0  0  0  0  0
  -18.1934  -26.7914   22.1615 C   0  0  0  0  0  0
  -19.1545  -28.8850   23.2866 C   0  0  0  0  0  0
  -18.9474  -30.1451   23.8899 C   0  0  0  0  0  0
  -17.6470  -30.6580   24.0563 C   0  0  0  0  0  0
  -25.9061  -34.9419   23.5072 C   0  0  0  0  0  0
  -16.5368  -29.9072   23.6327 C   0  0  0  0  0  0
  -16.7279  -28.6488   23.0347 C   0  0  0  0  0  0
  -26.4512  -31.6560   25.0694 C   0  0  0  0  0  0
  -25.3726  -31.3700   26.1407 C   0  0  0  0  0  0
  -27.0352  -30.2986   24.6151 C   0  0  0  0  0  0
  -27.6069  -32.4301   25.7462 C   0  0  0  0  0  0
  -27.5570  -37.1776   24.8461 C   0  0  0  0  0  0
  -21.4210  -29.3039   22.3664 N   0  0  0  0  0  0
  -26.4272  -37.3748   23.9416 N   0  0  0  0  0  0
  -24.6996  -31.0461   22.0891 N   0  0  0  0  0  0
  -23.4213  -28.8128   23.3005 O   0  0  0  0  0  0
  -28.3654  -26.3996   20.2081 O   0  0  0  0  0  0
  -26.5648  -34.8907   22.4648 O   0  0  0  0  0  0
  -23.5488  -32.1331   23.7218 O   0  0  0  0  0  0
  -28.1386  -18.9156   21.2354 C   0  0  0  0  0  0
  -29.3397  -18.6746   20.5845 C   0  0  0  0  0  0
  -28.7795  -20.8979   20.4930 C   0  0  0  0  0  0
  -27.3131  -17.9181   21.9168 C   0  0  0  0  0  0
  -26.0109  -18.4383   22.5101 C   0  0  0  0  0  0
  -28.2933  -24.8525   18.1988 C   0  0  0  0  0  0
  -30.2680  -17.3953   20.3404 C   0  0  0  0  0  0
  -28.1970  -23.6115   20.5097 C   0  0  0  0  0  0
  -28.5714  -24.9817   19.7062 C   0  0  2  0  0  0
  -27.8109  -20.2927   21.1690 N   0  0  0  0  0  0
  -28.9161  -22.3037   20.1717 N   0  0  0  0  0  0
  -29.8531  -15.9374   20.6053 N   0  0  0  0  0  0
  -27.5762  -16.7190   22.0315 O   0  0  0  0  0  0
  -29.7429  -19.9656   20.1096 O   0  0  0  0  0  0
  -31.4732  -12.5748   19.2003 H   0  0  0  0  0  0
  -30.3553  -11.4998   19.9902 H   0  0  0  0  0  0
  -29.8061  -11.7388   17.5357 H   0  0  0  0  0  0
  -29.6317  -13.4655   17.7337 H   0  0  0  0  0  0
  -27.9201  -11.2757   18.9505 H   0  0  0  0  0  0
  -27.3802  -12.4832   17.8134 H   0  0  0  0  0  0
  -27.6218  -14.2516   19.4526 H   0  0  0  0  0  0
  -28.7192  -12.2221   21.4640 H   0  0  0  0  0  0
  -28.4117  -13.9132   21.7759 H   0  0  0  0  0  0
  -25.2772   -9.5689   22.4775 H   0  0  0  0  0  0
  -24.0002   -7.4631   22.7489 H   0  0  0  0  0  0
  -21.0852   -8.8786   19.8951 H   0  0  0  0  0  0
  -22.3718  -10.9680   19.6166 H   0  0  0  0  0  0
  -21.2005   -7.6148   23.9733 H   0  0  0  0  0  0
  -21.1488   -6.0523   25.9092 H   0  0  0  0  0  0
  -22.0587   -2.7610   23.2858 H   0  0  0  0  0  0
  -22.4030  -11.9810   22.4756 H   0  0  0  0  0  0
  -21.1078  -13.1233   22.2639 H   0  0  0  0  0  0
  -24.6533  -15.8412   20.5845 H   0  0  0  0  0  0
  -26.2968  -15.6395   20.2294 H   0  0  0  0  0  0
  -26.7222  -32.5372   23.1032 H   0  0  0  0  0  0
  -25.0064  -33.9657   25.0350 H   0  0  0  0  0  0
  -22.7255  -31.2936   21.3886 H   0  0  0  0  0  0
  -23.3745  -35.9617   23.3279 H   0  0  0  0  0  0
  -24.3590  -36.8932   22.2063 H   0  0  0  0  0  0
  -23.7261  -37.6473   23.6694 H   0  0  0  0  0  0
  -26.1014  -31.5157   20.5891 H   0  0  0  0  0  0
  -26.8553  -30.8213   21.9933 H   0  0  0  0  0  0
  -28.1200  -28.9151   21.1862 H   0  0  0  0  0  0
  -25.9334  -25.8400   19.0953 H   0  0  0  0  0  0
  -23.9657  -27.2668   19.0400 H   0  0  0  0  0  0
  -23.7698  -30.5734   19.3964 H   0  0  0  0  0  0
  -22.7629  -29.2339   19.8527 H   0  0  0  0  0  0
  -25.1290  -36.1864   25.0802 H   0  0  0  0  0  0
  -20.9982  -28.3269   24.1385 H   0  0  0  0  0  0
  -20.5667  -26.2302   23.3602 H   0  0  0  0  0  0
  -21.6642  -26.7421   22.1204 H   0  0  0  0  0  0
  -19.6919  -25.6290   21.1229 H   0  0  0  0  0  0
  -19.6687  -27.3195   20.6740 H   0  0  0  0  0  0
  -17.4194  -26.6673   21.4023 H   0  0  0  0  0  0
  -18.0347  -26.0044   22.9008 H   0  0  0  0  0  0
  -19.7953  -30.7265   24.2267 H   0  0  0  0  0  0
  -17.5026  -31.6257   24.5165 H   0  0  0  0  0  0
  -15.5368  -30.2985   23.7629 H   0  0  0  0  0  0
  -15.8677  -28.0814   22.7050 H   0  0  0  0  0  0
  -24.5939  -30.6999   25.7746 H   0  0  0  0  0  0
  -24.8867  -32.2857   26.4794 H   0  0  0  0  0  0
  -25.8040  -30.8922   27.0214 H   0  0  0  0  0  0
  -26.2913  -29.6732   24.1203 H   0  0  0  0  0  0
  -27.4095  -29.7244   25.4636 H   0  0  0  0  0  0
  -27.8758  -30.4283   23.9331 H   0  0  0  0  0  0
  -27.2703  -33.3644   26.1975 H   0  0  0  0  0  0
  -28.3916  -32.6790   25.0301 H   0  0  0  0  0  0
  -28.0698  -31.8458   26.5429 H   0  0  0  0  0  0
  -28.2545  -38.0109   24.7525 H   0  0  0  0  0  0
  -28.1093  -36.2630   24.6243 H   0  0  0  0  0  0
  -27.2293  -37.1388   25.8863 H   0  0  0  0  0  0
  -20.9399  -29.8781   21.6881 H   0  0  0  0  0  0
  -26.0135  -38.2800   24.1451 H   0  0  0  0  0  0
  -25.3922  -18.8649   21.7219 H   0  0  0  0  0  0
  -26.2160  -19.2111   23.2497 H   0  0  0  0  0  0
  -25.4554  -17.6330   22.9891 H   0  0  0  0  0  0
  -28.8534  -24.0182   17.7772 H   0  0  0  0  0  0
  -28.5970  -25.7496   17.6598 H   0  0  0  0  0  0
  -27.2480  -24.6540   17.9770 H   0  0  0  0  0  0
  -31.1860  -17.5518   20.9085 H   0  0  0  0  0  0
  -30.5865  -17.4238   19.2973 H   0  0  0  0  0  0
  -27.1237  -23.4354   20.4278 H   0  0  0  0  0  0
  -28.3778  -23.7906   21.5701 H   0  0  0  0  0  0
  -29.6604  -24.9654   19.7607 H   0  0  0  0  0  0
  -29.7605  -22.4677   19.6354 H   0  0  0  0  0  0
  -28.8930  -15.8034   20.8961 H   0  0  0  0  0  0
  1 25  1  0  0  0
  1 30  2  0  0  0
  1 82  1  0  0  0
  2  3  1  0  0  0
  2 25  1  0  0  0
  2 85  1  0  0  0
  2 86  1  0  0  0
  3  4  1  0  0  0
  3 87  1  0  0  0
  3 88  1  0  0  0
  4  5  1  0  0  0
  4 89  1  0  0  0
  4 90  1  0  0  0
  5  6  1  0  0  0
  5 26  1  0  0  0
  5 91  1  0  0  0
  6 25  1  0  0  0
  6 92  1  0  0  0
  6 93  1  0  0  0
  7  8  2  0  0  0
  7 26  1  0  0  0
  7 29  1  0  0  0
  8  9  1  0  0  0
  8 22  1  0  0  0
  9 10  1  0  0  0
  9 27  2  0  0  0
 10 11  2  0  0  0
 10 15  1  0  0  0
 11 12  1  0  0  0
 11 94  1  0  0  0
 12 13  2  0  0  0
 12 95  1  0  0  0
 13 14  1  0  0  0
 13 31  1  0  0  0
 14 15  2  0  0  0
 14 96  1  0  0  0
 15 97  1  0  0  0
 16 17  2  0  0  0
 16 21  1  0  0  0
 16 31  1  0  0  0
 17 18  1  0  0  0
 17 98  1  0  0  0
 18 19  2  0  0  0
 18 99  1  0  0  0
 19 20  1  0  0  0
 19 24  1  0  0  0
 20 21  2  0  0  0
 20100  1  0  0  0
 21 23  1  0  0  0
 22 28  1  0  0  0
 22 32  2  0  0  0
 26 27  1  0  0  0
 28101  1  0  0  0
 28102  1  0  0  0
 29103  1  0  0  0
 29104  1  0  0  0
 33 34  1  0  0  0
 33 66  1  0  0  0
 33 70  2  0  0  0
 34 36  1  0  0  0
 34 59  1  0  0  0
 34105  1  0  0  0
 35 44  2  0  0  0
 35 45  1  0  0  0
 35 68  1  0  0  0
 36 56  1  0  0  0
 36106  1  0  0  0
 37 39  1  0  0  0
 37 47  1  0  0  0
 37 66  1  0  0  0
 37107  1  0  0  0
 38 43  2  0  0  0
 38 46  1  0  0  0
 38 47  1  0  0  0
 39 64  1  0  0  0
 39 67  2  0  0  0
 40 52  1  0  0  0
 40 53  2  0  0  0
 40 58  1  0  0  0
 41108  1  0  0  0
 41109  1  0  0  0
 41110  1  0  0  0
 41 48  1  0  0  0
 42 43  1  0  0  0
 42 66  1  0  0  0
 42111  1  0  0  0
 42112  1  0  0  0
 43 44  1  0  0  0
 44113  1  0  0  0
 45 46  2  0  0  0
 45114  1  0  0  0
 46115  1  0  0  0
 47116  1  0  0  0
 47117  1  0  0  0
 48 56  1  0  0  0
 48 65  1  0  0  0
 48118  1  0  0  0
 49 50  1  0  0  0
 49 53  1  0  0  0
 49 64  1  0  0  0
 49119  1  0  0  0
 50 51  1  0  0  0
 50120  1  0  0  0
 50121  1  0  0  0
 51 52  1  0  0  0
 51122  1  0  0  0
 51123  1  0  0  0
 52124  1  0  0  0
 52125  1  0  0  0
 53 54  1  0  0  0
 54 55  2  0  0  0
 54126  1  0  0  0
 55 57  1  0  0  0
 55127  1  0  0  0
 56 69  2  0  0  0
 57 58  2  0  0  0
 57128  1  0  0  0
 58129  1  0  0  0
 59 60  1  0  0  0
 59 61  1  0  0  0
 59 62  1  0  0  0
 60130  1  0  0  0
 60131  1  0  0  0
 60132  1  0  0  0
 61133  1  0  0  0
 61134  1  0  0  0
 61135  1  0  0  0
 62136  1  0  0  0
 62137  1  0  0  0
 62138  1  0  0  0
 63 65  1  0  0  0
 63139  1  0  0  0
 63140  1  0  0  0
 63141  1  0  0  0
 64142  1  0  0  0
 65143  1  0  0  0
 68 79  1  0  0  0
 71 72  2  0  0  0
 71 74  1  0  0  0
 71 80  1  0  0  0
 72 77  1  0  0  0
 72 84  1  0  0  0
 73 80  2  0  0  0
 73 81  1  0  0  0
 73 84  1  0  0  0
 74 75  1  0  0  0
 74 83  2  0  0  0
 75144  1  0  0  0
 75145  1  0  0  0
 75146  1  0  0  0
 76147  1  0  0  0
 76148  1  0  0  0
 76149  1  0  0  0
 76 79  1  0  0  0
 77 82  1  0  0  0
 77150  1  0  0  0
 77151  1  0  0  0
 78 79  1  0  0  0
 78 81  1  0  0  0
 78152  1  0  0  0
 78153  1  0  0  0
 79154  1  0  0  0
 81155  1  0  0  0
 82156  1  0  0  0
M  ISO  4   1 100  68 101  79 101  82 100
M  END
> <chiral flag>
0

> <version>
0

> <s_m_source_file>
/data/baiqing/PycharmProjects/Reinvent-master-3.2/result/LINK_invent/BTK/process_docking_weight1_custom_product_contain_oxygen_bond_distance_aromatic_linkinvent_7_9_3/rearranged_h_0163.sdf

> <i_m_source_file_index>
72

> <r_mmod_Potential_Energy-OPLS-2005>
-24.2543144226074

> <r_mmod_Stretch_Energy-OPLS-2005>
136.52131652832

> <r_mmod_Bend_Energy-OPLS-2005>
216.322982788086

> <r_mmod_Torsional_Energy-OPLS-2005>
187.554489135742

> <r_mmod_Improper_Torsional_Energy-OPLS-2005>
5.22575807571411

> <r_mmod_Van_der_Waal_Energy-OPLS-2005>
110.70539855957

> <r_mmod_Electrostatic_Energy-OPLS-2005>
-558.645690917969

> <r_mmod_Solvation_Energy-OPLS-2005>
-218.518981933594

> <b_mmod_Minimization_Converged-OPLS-2005>
0

> <r_mmod_RMS_Derivative-OPLS-2005>
1.74054169654846

$$$$
72
                    3D
 Structure written by MMmdl.
153161  0  0  1  0            999 V2000
  -30.6978  -14.6038   20.4834 C   0  0  0  0  0  0
  -30.4096  -12.3618   19.4830 C   0  0  0  0  0  0
  -29.5174  -12.4943   18.2349 C   0  0  0  0  0  0
  -28.0311  -12.3687   18.6252 C   0  0  0  0  0  0
  -27.6484  -13.2391   19.8550 C   0  0  2  0  0  0
  -28.6872  -13.1359   20.9951 C   0  0  0  0  0  0
  -25.2537  -13.8226   20.5662 C   0  0  0  0  0  0
  -24.1817  -13.0460   20.9172 C   0  0  0  0  0  0
  -24.6408  -11.6928   20.8707 C   0  0  0  0  0  0
  -23.9079  -10.4295   21.0373 C   0  0  0  0  0  0
  -24.3626   -9.4212   21.9160 C   0  0  0  0  0  0
  -23.6325   -8.2235   22.0727 C   0  0  0  0  0  0
  -22.4311   -8.0266   21.3520 C   0  0  0  0  0  0
  -21.9948   -9.0247   20.4631 C   0  0  0  0  0  0
  -22.7252  -10.2136   20.3026 C   0  0  0  0  0  0
  -21.6859   -6.0730   22.5275 C   0  0  0  0  0  0
  -21.4004   -6.5634   23.8206 C   0  0  0  0  0  0
  -21.3674   -5.6786   24.9172 C   0  0  0  0  0  0
  -21.6065   -4.3047   24.7229 C   0  0  0  0  0  0
  -21.8815   -3.8132   23.4349 C   0  0  0  0  0  0
  -21.9188   -4.6946   22.3401 C   0  0  0  0  0  0
  -22.7846  -13.5218   21.1852 C   0  0  0  0  0  0
  -22.1649   -4.2120   21.0984 F   0  0  0  0  0  0
  -21.5651   -3.4531   25.7739 F   0  0  0  0  0  0
  -30.0064  -13.4252   20.4236 N   0  0  0  0  0  0
  -26.2971  -12.9446   20.3264 N   0  0  0  0  0  0
  -25.9351  -11.6579   20.5721 N   0  0  0  0  0  0
  -22.0484  -12.8214   22.0414 N   0  0  0  0  0  0
  -25.4233  -15.1952   20.4071 N   0  0  0  0  0  0
  -31.8745  -14.6620   20.1232 O   0  0  0  0  0  0
  -21.6646   -6.8884   21.4242 O   0  0  0  0  0  0
  -22.3515  -14.5517   20.6674 O   0  0  0  0  0  0
  -24.6241  -31.8629   23.2079 C   0  0  0  0  0  0
  -25.9100  -32.4802   23.8396 C   0  0  1  0  0  0
  -27.2069  -27.3369   20.0975 C   0  0  0  0  0  0
  -25.5928  -33.8600   24.2309 N   0  0  0  0  0  0
  -23.4157  -30.4916   21.5536 C   0  0  2  0  0  0
  -24.8547  -28.9568   20.1105 C   0  0  0  0  0  0
  -22.7461  -29.4634   22.4961 C   0  0  0  0  0  0
  -18.0279  -28.1386   22.8477 C   0  0  0  0  0  0
  -24.1486  -36.7299   23.2634 C   0  0  0  0  0  0
  -25.9587  -30.7944   21.3804 C   0  0  0  0  0  0
  -26.0271  -29.4272   20.7174 C   0  0  0  0  0  0
  -27.2069  -28.6270   20.7062 C   0  0  0  0  0  0
  -26.0111  -26.9273   19.4579 C   0  0  0  0  0  0
  -24.8482  -27.7101   19.4747 C   0  0  0  0  0  0
  -23.6262  -29.8385   20.1640 C   0  0  0  0  0  0
  -25.4106  -36.3096   24.0335 C   0  0  1  0  0  0
  -20.5876  -28.3682   23.1269 C   0  0  2  0  0  0
  -20.6775  -26.9410   22.5393 C   0  0  0  0  0  0
  -19.5751  -26.6378   21.5199 C   0  0  0  0  0  0
  -18.1929  -26.7922   22.1613 C   0  0  0  0  0  0
  -19.1533  -28.8847   23.2870 C   0  0  0  0  0  0
  -18.9462  -30.1454   23.8890 C   0  0  0  0  0  0
  -17.6467  -30.6589   24.0550 C   0  0  0  0  0  0
  -25.9042  -34.9467   23.5111 C   0  0  0  0  0  0
  -16.5356  -29.9086   23.6330 C   0  0  0  0  0  0
  -16.7271  -28.6503   23.0347 C   0  0  0  0  0  0
  -26.4486  -31.6611   25.0766 C   0  0  0  0  0  0
  -25.3717  -31.3772   26.1504 C   0  0  0  0  0  0
  -27.0318  -30.3032   24.6217 C   0  0  0  0  0  0
  -27.6056  -32.4337   25.7530 C   0  0  0  0  0  0
  -27.5576  -37.1805   24.8458 C   0  0  0  0  0  0
  -21.4179  -29.3045   22.3690 N   0  0  0  0  0  0
  -26.4282  -37.3790   23.9411 N   0  0  0  0  0  0
  -24.6856  -31.0654   22.1039 N   0  0  0  0  0  0
  -23.4195  -28.8142   23.3004 O   0  0  0  0  0  0
  -28.3122  -26.4740   20.1508 O   0  0  0  0  0  0
  -26.5586  -34.8925   22.4671 O   0  0  0  0  0  0
  -23.5400  -32.1434   23.7396 O   0  0  0  0  0  0
  -28.8033  -18.9373   21.2297 C   0  0  0  0  0  0
  -28.6555  -20.3339   20.9017 C   0  0  0  0  0  0
  -29.8653  -18.4318   20.5140 C   0  0  0  0  0  0
  -29.6453  -20.6180   20.0017 C   0  0  0  0  0  0
  -29.6282  -23.0130   19.2977 C   0  0  0  0  0  0
  -30.0356  -23.8453   18.0921 C   0  0  0  0  0  0
  -30.6258  -17.0990   20.3585 C   0  0  0  0  0  0
  -29.0454  -23.9051   20.4327 C   0  0  0  0  0  0
  -28.0230  -25.0342   19.9861 C   0  0  0  0  0  0
  -29.8675  -21.7379   19.1985 N   0  0  0  0  0  0
  -30.0178  -15.7704   20.7069 N   0  0  0  0  0  0
  -30.3731  -19.4736   19.7611 O   0  0  0  0  0  0
  -31.4640  -12.4191   19.2099 H   0  0  0  0  0  0
  -30.2761  -11.3814   19.9425 H   0  0  0  0  0  0
  -29.7844  -11.7271   17.5061 H   0  0  0  0  0  0
  -29.6970  -13.4571   17.7507 H   0  0  0  0  0  0
  -27.8352  -11.3166   18.8368 H   0  0  0  0  0  0
  -27.3993  -12.6278   17.7729 H   0  0  0  0  0  0
  -27.6582  -14.2727   19.5070 H   0  0  0  0  0  0
  -28.6769  -12.1407   21.4405 H   0  0  0  0  0  0
  -28.4480  -13.8342   21.7983 H   0  0  0  0  0  0
  -25.2772   -9.5712   22.4729 H   0  0  0  0  0  0
  -24.0033   -7.4642   22.7471 H   0  0  0  0  0  0
  -21.0856   -8.8777   19.8979 H   0  0  0  0  0  0
  -22.3697  -10.9669   19.6119 H   0  0  0  0  0  0
  -21.1965   -7.6140   23.9708 H   0  0  0  0  0  0
  -21.1526   -6.0508   25.9081 H   0  0  0  0  0  0
  -22.0580   -2.7590   23.2849 H   0  0  0  0  0  0
  -22.4076  -11.9906   22.4879 H   0  0  0  0  0  0
  -21.1087  -13.1216   22.2561 H   0  0  0  0  0  0
  -24.6592  -15.8543   20.5171 H   0  0  0  0  0  0
  -26.2738  -15.6339   20.0775 H   0  0  0  0  0  0
  -26.7164  -32.5461   23.1136 H   0  0  0  0  0  0
  -25.0140  -33.9778   25.0496 H   0  0  0  0  0  0
  -22.7085  -31.3131   21.4184 H   0  0  0  0  0  0
  -23.3755  -35.9622   23.3280 H   0  0  0  0  0  0
  -24.3597  -36.8931   22.2055 H   0  0  0  0  0  0
  -23.7227  -37.6496   23.6657 H   0  0  0  0  0  0
  -26.0918  -31.5588   20.6131 H   0  0  0  0  0  0
  -26.8395  -30.8349   22.0106 H   0  0  0  0  0  0
  -28.1037  -28.9750   21.1983 H   0  0  0  0  0  0
  -25.9297  -25.9851   18.9401 H   0  0  0  0  0  0
  -23.9538  -27.3423   18.9894 H   0  0  0  0  0  0
  -23.7494  -30.6222   19.4163 H   0  0  0  0  0  0
  -22.7429  -29.2764   19.8550 H   0  0  0  0  0  0
  -25.1282  -36.1959   25.0825 H   0  0  0  0  0  0
  -20.9979  -28.3264   24.1384 H   0  0  0  0  0  0
  -20.5681  -26.2304   23.3601 H   0  0  0  0  0  0
  -21.6650  -26.7454   22.1195 H   0  0  0  0  0  0
  -19.6923  -25.6285   21.1246 H   0  0  0  0  0  0
  -19.6692  -27.3170   20.6716 H   0  0  0  0  0  0
  -17.4204  -26.6646   21.4016 H   0  0  0  0  0  0
  -18.0341  -26.0083   22.9032 H   0  0  0  0  0  0
  -19.7948  -30.7251   24.2266 H   0  0  0  0  0  0
  -17.5034  -31.6275   24.5145 H   0  0  0  0  0  0
  -15.5358  -30.2981   23.7680 H   0  0  0  0  0  0
  -15.8669  -28.0829   22.7054 H   0  0  0  0  0  0
  -24.5880  -30.7123   25.7860 H   0  0  0  0  0  0
  -24.8917  -32.2950   26.4912 H   0  0  0  0  0  0
  -25.8045  -30.8984   27.0298 H   0  0  0  0  0  0
  -26.2903  -29.6812   24.1193 H   0  0  0  0  0  0
  -27.3958  -29.7264   25.4730 H   0  0  0  0  0  0
  -27.8797  -30.4321   23.9484 H   0  0  0  0  0  0
  -27.2683  -33.3645   26.2097 H   0  0  0  0  0  0
  -28.3873  -32.6880   25.0361 H   0  0  0  0  0  0
  -28.0708  -31.8467   26.5461 H   0  0  0  0  0  0
  -28.2584  -38.0112   24.7522 H   0  0  0  0  0  0
  -28.1077  -36.2645   24.6253 H   0  0  0  0  0  0
  -27.2302  -37.1421   25.8862 H   0  0  0  0  0  0
  -20.9338  -29.8821   21.6956 H   0  0  0  0  0  0
  -26.0163  -38.2859   24.1436 H   0  0  0  0  0  0
  -28.1827  -18.3708   21.9099 H   0  0  0  0  0  0
  -27.8916  -21.0128   21.2555 H   0  0  0  0  0  0
  -30.3514  -24.8448   18.3890 H   0  0  0  0  0  0
  -29.2018  -23.9406   17.3971 H   0  0  0  0  0  0
  -30.8624  -23.3817   17.5543 H   0  0  0  0  0  0
  -31.5682  -17.1855   20.9048 H   0  0  0  0  0  0
  -30.9206  -17.0307   19.3087 H   0  0  0  0  0  0
  -29.8758  -24.3655   20.9664 H   0  0  0  0  0  0
  -28.5535  -23.2557   21.1569 H   0  0  0  0  0  0
  -27.1208  -24.8277   20.5652 H   0  0  0  0  0  0
  -27.7376  -24.8590   18.9485 H   0  0  0  0  0  0
  -29.0467  -15.7322   20.9720 H   0  0  0  0  0  0
  1 25  1  0  0  0
  1 30  2  0  0  0
  1 81  1  0  0  0
  2  3  1  0  0  0
  2 25  1  0  0  0
  2 83  1  0  0  0
  2 84  1  0  0  0
  3  4  1  0  0  0
  3 85  1  0  0  0
  3 86  1  0  0  0
  4  5  1  0  0  0
  4 87  1  0  0  0
  4 88  1  0  0  0
  5  6  1  0  0  0
  5 26  1  0  0  0
  5 89  1  0  0  0
  6 25  1  0  0  0
  6 90  1  0  0  0
  6 91  1  0  0  0
  7  8  2  0  0  0
  7 26  1  0  0  0
  7 29  1  0  0  0
  8  9  1  0  0  0
  8 22  1  0  0  0
  9 10  1  0  0  0
  9 27  2  0  0  0
 10 11  2  0  0  0
 10 15  1  0  0  0
 11 12  1  0  0  0
 11 92  1  0  0  0
 12 13  2  0  0  0
 12 93  1  0  0  0
 13 14  1  0  0  0
 13 31  1  0  0  0
 14 15  2  0  0  0
 14 94  1  0  0  0
 15 95  1  0  0  0
 16 17  2  0  0  0
 16 21  1  0  0  0
 16 31  1  0  0  0
 17 18  1  0  0  0
 17 96  1  0  0  0
 18 19  2  0  0  0
 18 97  1  0  0  0
 19 20  1  0  0  0
 19 24  1  0  0  0
 20 21  2  0  0  0
 20 98  1  0  0  0
 21 23  1  0  0  0
 22 28  1  0  0  0
 22 32  2  0  0  0
 26 27  1  0  0  0
 28 99  1  0  0  0
 28100  1  0  0  0
 29101  1  0  0  0
 29102  1  0  0  0
 33 34  1  0  0  0
 33 66  1  0  0  0
 33 70  2  0  0  0
 34 36  1  0  0  0
 34 59  1  0  0  0
 34103  1  0  0  0
 35 44  2  0  0  0
 35 45  1  0  0  0
 35 68  1  0  0  0
 36 56  1  0  0  0
 36104  1  0  0  0
 37 39  1  0  0  0
 37 47  1  0  0  0
 37 66  1  0  0  0
 37105  1  0  0  0
 38 43  2  0  0  0
 38 46  1  0  0  0
 38 47  1  0  0  0
 39 64  1  0  0  0
 39 67  2  0  0  0
 40 52  1  0  0  0
 40 53  2  0  0  0
 40 58  1  0  0  0
 41106  1  0  0  0
 41107  1  0  0  0
 41108  1  0  0  0
 41 48  1  0  0  0
 42 43  1  0  0  0
 42 66  1  0  0  0
 42109  1  0  0  0
 42110  1  0  0  0
 43 44  1  0  0  0
 44111  1  0  0  0
 45 46  2  0  0  0
 45112  1  0  0  0
 46113  1  0  0  0
 47114  1  0  0  0
 47115  1  0  0  0
 48 56  1  0  0  0
 48 65  1  0  0  0
 48116  1  0  0  0
 49 50  1  0  0  0
 49 53  1  0  0  0
 49 64  1  0  0  0
 49117  1  0  0  0
 50 51  1  0  0  0
 50118  1  0  0  0
 50119  1  0  0  0
 51 52  1  0  0  0
 51120  1  0  0  0
 51121  1  0  0  0
 52122  1  0  0  0
 52123  1  0  0  0
 53 54  1  0  0  0
 54 55  2  0  0  0
 54124  1  0  0  0
 55 57  1  0  0  0
 55125  1  0  0  0
 56 69  2  0  0  0
 57 58  2  0  0  0
 57126  1  0  0  0
 58127  1  0  0  0
 59 60  1  0  0  0
 59 61  1  0  0  0
 59 62  1  0  0  0
 60128  1  0  0  0
 60129  1  0  0  0
 60130  1  0  0  0
 61131  1  0  0  0
 61132  1  0  0  0
 61133  1  0  0  0
 62134  1  0  0  0
 62135  1  0  0  0
 62136  1  0  0  0
 63 65  1  0  0  0
 63137  1  0  0  0
 63138  1  0  0  0
 63139  1  0  0  0
 64140  1  0  0  0
 65141  1  0  0  0
 68 79  1  0  0  0
 71 72  1  0  0  0
 71 73  2  0  0  0
 71142  1  0  0  0
 72 74  2  0  0  0
 72143  1  0  0  0
 73 77  1  0  0  0
 73 82  1  0  0  0
 74 80  1  0  0  0
 74 82  1  0  0  0
 75 76  1  0  0  0
 75 78  1  0  0  0
 75 80  2  0  0  0
 76144  1  0  0  0
 76145  1  0  0  0
 76146  1  0  0  0
 77 81  1  0  0  0
 77147  1  0  0  0
 77148  1  0  0  0
 78 79  1  0  0  0
 78149  1  0  0  0
 78150  1  0  0  0
 79151  1  0  0  0
 79152  1  0  0  0
 81153  1  0  0  0
M  ISO  4   1 100  68 101  79 101  81 100
M  END
> <chiral flag>
0

> <version>
0

> <s_m_source_file>
/data/baiqing/PycharmProjects/Reinvent-master-3.2/result/LINK_invent/BTK/process_docking_weight1_custom_product_contain_oxygen_bond_distance_aromatic_linkinvent_7_9_3/rearranged_h_0163.sdf

> <i_m_source_file_index>
73

> <r_mmod_Potential_Energy-OPLS-2005>
-10.3410043716431

> <r_mmod_Stretch_Energy-OPLS-2005>
65.7075805664062

> <r_mmod_Bend_Energy-OPLS-2005>
193.044006347656

> <r_mmod_Torsional_Energy-OPLS-2005>
219.975051879883

> <r_mmod_Improper_Torsional_Energy-OPLS-2005>
6.83637523651123

> <r_mmod_Van_der_Waal_Energy-OPLS-2005>
136.772476196289

> <r_mmod_Electrostatic_Energy-OPLS-2005>
-459.879425048828

> <r_mmod_Solvation_Energy-OPLS-2005>
-219.319564819336

> <b_mmod_Minimization_Converged-OPLS-2005>
0

> <r_mmod_RMS_Derivative-OPLS-2005>
3.47463583946228

$$$$
73
                    3D
 Structure written by MMmdl.
152160  0  0  1  0            999 V2000
  -30.6252  -14.7738   20.4323 C   0  0  0  0  0  0
  -30.4273  -12.4675   19.4895 C   0  0  0  0  0  0
  -29.5101  -12.4983   18.2473 C   0  0  0  0  0  0
  -28.0384  -12.3218   18.6629 C   0  0  0  0  0  0
  -27.6400  -13.2363   19.8515 C   0  0  2  0  0  0
  -28.6847  -13.2062   20.9899 C   0  0  0  0  0  0
  -25.2502  -13.8207   20.5713 C   0  0  0  0  0  0
  -24.1796  -13.0444   20.9216 C   0  0  0  0  0  0
  -24.6391  -11.6924   20.8760 C   0  0  0  0  0  0
  -23.9071  -10.4294   21.0415 C   0  0  0  0  0  0
  -24.3620   -9.4212   21.9191 C   0  0  0  0  0  0
  -23.6294   -8.2245   22.0755 C   0  0  0  0  0  0
  -22.4279   -8.0281   21.3544 C   0  0  0  0  0  0
  -21.9914   -9.0258   20.4647 C   0  0  0  0  0  0
  -22.7240  -10.2137   20.3061 C   0  0  0  0  0  0
  -21.6855   -6.0738   22.5275 C   0  0  0  0  0  0
  -21.4010   -6.5645   23.8207 C   0  0  0  0  0  0
  -21.3659   -5.6797   24.9175 C   0  0  0  0  0  0
  -21.6046   -4.3060   24.7223 C   0  0  0  0  0  0
  -21.8821   -3.8150   23.4343 C   0  0  0  0  0  0
  -21.9192   -4.6965   22.3401 C   0  0  0  0  0  0
  -22.7817  -13.5218   21.1875 C   0  0  0  0  0  0
  -22.1664   -4.2150   21.0977 F   0  0  0  0  0  0
  -21.5630   -3.4544   25.7737 F   0  0  0  0  0  0
  -29.9838  -13.5520   20.4011 N   0  0  0  0  0  0
  -26.2933  -12.9419   20.3313 N   0  0  0  0  0  0
  -25.9326  -11.6558   20.5780 N   0  0  0  0  0  0
  -22.0478  -12.8197   22.0430 N   0  0  0  0  0  0
  -25.4194  -15.1929   20.4115 N   0  0  0  0  0  0
  -31.8142  -14.8322   20.1104 O   0  0  0  0  0  0
  -21.6642   -6.8880   21.4237 O   0  0  0  0  0  0
  -22.3497  -14.5531   20.6731 O   0  0  0  0  0  0
  -24.6343  -31.8519   23.1972 C   0  0  0  0  0  0
  -25.9153  -32.4738   23.8324 C   0  0  1  0  0  0
  -27.2157  -27.2282   20.1263 C   0  0  0  0  0  0
  -25.5934  -33.8539   24.2238 N   0  0  0  0  0  0
  -23.4329  -30.4753   21.5407 C   0  0  2  0  0  0
  -24.8804  -28.9235   20.1070 C   0  0  0  0  0  0
  -22.7520  -29.4588   22.4896 C   0  0  0  0  0  0
  -18.0288  -28.1391   22.8482 C   0  0  0  0  0  0
  -24.1481  -36.7270   23.2649 C   0  0  0  0  0  0
  -25.9833  -30.7533   21.3851 C   0  0  0  0  0  0
  -26.0539  -29.3742   20.7246 C   0  0  0  0  0  0
  -27.2209  -28.5379   20.7286 C   0  0  0  0  0  0
  -26.0223  -26.8719   19.4538 C   0  0  0  0  0  0
  -24.8718  -27.6808   19.4616 C   0  0  0  0  0  0
  -23.6526  -29.8123   20.1563 C   0  0  0  0  0  0
  -25.4108  -36.3052   24.0332 C   0  0  1  0  0  0
  -20.5899  -28.3711   23.1251 C   0  0  2  0  0  0
  -20.6782  -26.9424   22.5401 C   0  0  0  0  0  0
  -19.5752  -26.6377   21.5218 C   0  0  0  0  0  0
  -18.1931  -26.7930   22.1625 C   0  0  0  0  0  0
  -19.1547  -28.8868   23.2860 C   0  0  0  0  0  0
  -18.9474  -30.1467   23.8881 C   0  0  0  0  0  0
  -17.6477  -30.6595   24.0568 C   0  0  0  0  0  0
  -25.9053  -34.9428   23.5084 C   0  0  0  0  0  0
  -16.5363  -29.9094   23.6344 C   0  0  0  0  0  0
  -16.7275  -28.6508   23.0364 C   0  0  0  0  0  0
  -26.4496  -31.6581   25.0734 C   0  0  0  0  0  0
  -25.3699  -31.3764   26.1445 C   0  0  0  0  0  0
  -27.0372  -30.2998   24.6267 C   0  0  0  0  0  0
  -27.6027  -32.4349   25.7508 C   0  0  0  0  0  0
  -27.5566  -37.1790   24.8473 C   0  0  0  0  0  0
  -21.4222  -29.3051   22.3640 N   0  0  0  0  0  0
  -26.4274  -37.3760   23.9417 N   0  0  0  0  0  0
  -24.7028  -31.0458   22.0967 N   0  0  0  0  0  0
  -23.4202  -28.8131   23.3012 O   0  0  0  0  0  0
  -28.2823  -26.2868   20.2144 O   0  0  0  0  0  0
  -26.5631  -34.8917   22.4661 O   0  0  0  0  0  0
  -23.5479  -32.1348   23.7245 O   0  0  0  0  0  0
  -29.7464  -20.6547   21.7028 C   0  0  0  0  0  0
  -29.2562  -20.9909   20.4629 C   0  0  0  0  0  0
  -29.8218  -18.7383   20.4680 C   0  0  0  0  0  0
  -28.8920  -23.6260   20.4857 C   0  0  0  0  0  0
  -30.7106  -18.5449   22.7547 C   0  0  0  0  0  0
  -30.2926  -17.3056   19.9410 C   0  0  0  0  0  0
  -28.0127  -24.8307   19.8636 C   0  0  0  0  0  0
  -30.0859  -19.3023   21.6687 N   0  0  0  0  0  0
  -29.2988  -19.7829   19.7413 N   0  3  0  0  0  0
  -28.7514  -22.3231   20.0024 N   0  0  0  0  0  0
  -29.8923  -15.9527   20.5581 N   0  0  0  0  0  0
  -29.6779  -23.8800   21.4032 O   0  0  0  0  0  0
  -31.4693  -12.5775   19.1854 H   0  0  0  0  0  0
  -30.3647  -11.5002   19.9904 H   0  0  0  0  0  0
  -29.7953  -11.7121   17.5473 H   0  0  0  0  0  0
  -29.6348  -13.4427   17.7151 H   0  0  0  0  0  0
  -27.9038  -11.2769   18.9435 H   0  0  0  0  0  0
  -27.3783  -12.4949   17.8120 H   0  0  0  0  0  0
  -27.6256  -14.2508   19.4528 H   0  0  0  0  0  0
  -28.7252  -12.2228   21.4611 H   0  0  0  0  0  0
  -28.4171  -13.9136   21.7764 H   0  0  0  0  0  0
  -25.2765   -9.5692   22.4768 H   0  0  0  0  0  0
  -24.0008   -7.4637   22.7471 H   0  0  0  0  0  0
  -21.0847   -8.8769   19.8951 H   0  0  0  0  0  0
  -22.3692  -10.9677   19.6173 H   0  0  0  0  0  0
  -21.1998   -7.6151   23.9707 H   0  0  0  0  0  0
  -21.1482   -6.0533   25.9077 H   0  0  0  0  0  0
  -22.0600   -2.7608   23.2843 H   0  0  0  0  0  0
  -22.4101  -11.9846   22.4790 H   0  0  0  0  0  0
  -21.1104  -13.1213   22.2680 H   0  0  0  0  0  0
  -24.6491  -15.8451   20.5133 H   0  0  0  0  0  0
  -26.2633  -15.6300   20.0644 H   0  0  0  0  0  0
  -26.7221  -32.5359   23.1063 H   0  0  0  0  0  0
  -25.0067  -33.9670   25.0377 H   0  0  0  0  0  0
  -22.7312  -31.2990   21.3943 H   0  0  0  0  0  0
  -23.3743  -35.9601   23.3303 H   0  0  0  0  0  0
  -24.3577  -36.8890   22.2064 H   0  0  0  0  0  0
  -23.7228  -37.6468   23.6675 H   0  0  0  0  0  0
  -26.1284  -31.5128   20.6158 H   0  0  0  0  0  0
  -26.8588  -30.8001   22.0206 H   0  0  0  0  0  0
  -28.1121  -28.8720   21.2417 H   0  0  0  0  0  0
  -25.9331  -25.9363   18.9235 H   0  0  0  0  0  0
  -23.9771  -27.3332   18.9640 H   0  0  0  0  0  0
  -23.7792  -30.5893   19.4019 H   0  0  0  0  0  0
  -22.7712  -29.2461   19.8492 H   0  0  0  0  0  0
  -25.1286  -36.1893   25.0824 H   0  0  0  0  0  0
  -20.9989  -28.3294   24.1373 H   0  0  0  0  0  0
  -20.5702  -26.2326   23.3615 H   0  0  0  0  0  0
  -21.6650  -26.7453   22.1187 H   0  0  0  0  0  0
  -19.6929  -25.6288   21.1246 H   0  0  0  0  0  0
  -19.6689  -27.3194   20.6757 H   0  0  0  0  0  0
  -17.4208  -26.6676   21.4019 H   0  0  0  0  0  0
  -18.0322  -26.0076   22.9023 H   0  0  0  0  0  0
  -19.7958  -30.7279   24.2233 H   0  0  0  0  0  0
  -17.5044  -31.6276   24.5168 H   0  0  0  0  0  0
  -15.5369  -30.3005   23.7683 H   0  0  0  0  0  0
  -15.8665  -28.0831   22.7097 H   0  0  0  0  0  0
  -24.5870  -30.7117   25.7778 H   0  0  0  0  0  0
  -24.8904  -32.2953   26.4830 H   0  0  0  0  0  0
  -25.7994  -30.8964   27.0251 H   0  0  0  0  0  0
  -26.2992  -29.6727   24.1256 H   0  0  0  0  0  0
  -27.4007  -29.7281   25.4816 H   0  0  0  0  0  0
  -27.8877  -30.4268   23.9566 H   0  0  0  0  0  0
  -27.2608  -33.3661   26.2043 H   0  0  0  0  0  0
  -28.3852  -32.6900   25.0345 H   0  0  0  0  0  0
  -28.0684  -31.8513   26.5459 H   0  0  0  0  0  0
  -28.2582  -38.0088   24.7513 H   0  0  0  0  0  0
  -28.1051  -36.2615   24.6288 H   0  0  0  0  0  0
  -27.2290  -37.1436   25.8879 H   0  0  0  0  0  0
  -20.9419  -29.8776   21.6840 H   0  0  0  0  0  0
  -26.0139  -38.2827   24.1429 H   0  0  0  0  0  0
  -29.8940  -21.2641   22.5834 H   0  0  0  0  0  0
  -30.9204  -19.2089   23.5938 H   0  0  0  0  0  0
  -31.6461  -18.1083   22.4027 H   0  0  0  0  0  0
  -30.0331  -17.7539   23.0761 H   0  0  0  0  0  0
  -31.3817  -17.3714   19.9386 H   0  0  0  0  0  0
  -30.0033  -17.2787   18.8904 H   0  0  0  0  0  0
  -28.0284  -24.7373   18.7771 H   0  0  0  0  0  0
  -27.0035  -24.5746   20.1850 H   0  0  0  0  0  0
  -29.0320  -19.6959   18.7690 H   0  0  0  0  0  0
  -28.1657  -22.2770   19.1799 H   0  0  0  0  0  0
  -28.9234  -15.8510   20.8193 H   0  0  0  0  0  0
  1 25  1  0  0  0
  1 30  2  0  0  0
  1 81  1  0  0  0
  2  3  1  0  0  0
  2 25  1  0  0  0
  2 83  1  0  0  0
  2 84  1  0  0  0
  3  4  1  0  0  0
  3 85  1  0  0  0
  3 86  1  0  0  0
  4  5  1  0  0  0
  4 87  1  0  0  0
  4 88  1  0  0  0
  5  6  1  0  0  0
  5 26  1  0  0  0
  5 89  1  0  0  0
  6 25  1  0  0  0
  6 90  1  0  0  0
  6 91  1  0  0  0
  7  8  2  0  0  0
  7 26  1  0  0  0
  7 29  1  0  0  0
  8  9  1  0  0  0
  8 22  1  0  0  0
  9 10  1  0  0  0
  9 27  2  0  0  0
 10 11  2  0  0  0
 10 15  1  0  0  0
 11 12  1  0  0  0
 11 92  1  0  0  0
 12 13  2  0  0  0
 12 93  1  0  0  0
 13 14  1  0  0  0
 13 31  1  0  0  0
 14 15  2  0  0  0
 14 94  1  0  0  0
 15 95  1  0  0  0
 16 17  2  0  0  0
 16 21  1  0  0  0
 16 31  1  0  0  0
 17 18  1  0  0  0
 17 96  1  0  0  0
 18 19  2  0  0  0
 18 97  1  0  0  0
 19 20  1  0  0  0
 19 24  1  0  0  0
 20 21  2  0  0  0
 20 98  1  0  0  0
 21 23  1  0  0  0
 22 28  1  0  0  0
 22 32  2  0  0  0
 26 27  1  0  0  0
 28 99  1  0  0  0
 28100  1  0  0  0
 29101  1  0  0  0
 29102  1  0  0  0
 33 34  1  0  0  0
 33 66  1  0  0  0
 33 70  2  0  0  0
 34 36  1  0  0  0
 34 59  1  0  0  0
 34103  1  0  0  0
 35 44  2  0  0  0
 35 45  1  0  0  0
 35 68  1  0  0  0
 36 56  1  0  0  0
 36104  1  0  0  0
 37 39  1  0  0  0
 37 47  1  0  0  0
 37 66  1  0  0  0
 37105  1  0  0  0
 38 43  2  0  0  0
 38 46  1  0  0  0
 38 47  1  0  0  0
 39 64  1  0  0  0
 39 67  2  0  0  0
 40 52  1  0  0  0
 40 53  2  0  0  0
 40 58  1  0  0  0
 41106  1  0  0  0
 41107  1  0  0  0
 41108  1  0  0  0
 41 48  1  0  0  0
 42 43  1  0  0  0
 42 66  1  0  0  0
 42109  1  0  0  0
 42110  1  0  0  0
 43 44  1  0  0  0
 44111  1  0  0  0
 45 46  2  0  0  0
 45112  1  0  0  0
 46113  1  0  0  0
 47114  1  0  0  0
 47115  1  0  0  0
 48 56  1  0  0  0
 48 65  1  0  0  0
 48116  1  0  0  0
 49 50  1  0  0  0
 49 53  1  0  0  0
 49 64  1  0  0  0
 49117  1  0  0  0
 50 51  1  0  0  0
 50118  1  0  0  0
 50119  1  0  0  0
 51 52  1  0  0  0
 51120  1  0  0  0
 51121  1  0  0  0
 52122  1  0  0  0
 52123  1  0  0  0
 53 54  1  0  0  0
 54 55  2  0  0  0
 54124  1  0  0  0
 55 57  1  0  0  0
 55125  1  0  0  0
 56 69  2  0  0  0
 57 58  2  0  0  0
 57126  1  0  0  0
 58127  1  0  0  0
 59 60  1  0  0  0
 59 61  1  0  0  0
 59 62  1  0  0  0
 60128  1  0  0  0
 60129  1  0  0  0
 60130  1  0  0  0
 61131  1  0  0  0
 61132  1  0  0  0
 61133  1  0  0  0
 62134  1  0  0  0
 62135  1  0  0  0
 62136  1  0  0  0
 63 65  1  0  0  0
 63137  1  0  0  0
 63138  1  0  0  0
 63139  1  0  0  0
 64140  1  0  0  0
 65141  1  0  0  0
 68 77  1  0  0  0
 71 72  2  0  0  0
 71 78  1  0  0  0
 71142  1  0  0  0
 72 79  1  0  0  0
 72 80  1  0  0  0
 73 76  1  0  0  0
 73 78  1  0  0  0
 73 79  2  0  0  0
 74 77  1  0  0  0
 74 80  1  0  0  0
 74 82  2  0  0  0
 75 78  1  0  0  0
 75143  1  0  0  0
 75144  1  0  0  0
 75145  1  0  0  0
 76 81  1  0  0  0
 76146  1  0  0  0
 76147  1  0  0  0
 77148  1  0  0  0
 77149  1  0  0  0
 79150  1  0  0  0
 80151  1  0  0  0
 81152  1  0  0  0
M  CHG  1  79   1
M  ISO  4   1 100  68 101  77 101  81 100
M  END
> <chiral flag>
0

> <version>
0

> <s_m_source_file>
/data/baiqing/PycharmProjects/Reinvent-master-3.2/result/LINK_invent/BTK/process_docking_weight1_custom_product_contain_oxygen_bond_distance_aromatic_linkinvent_7_9_3/rearranged_h_0163.sdf

> <i_m_source_file_index>
74

> <r_mmod_Potential_Energy-OPLS-2005>
-20.2679004669189

> <r_mmod_Stretch_Energy-OPLS-2005>
138.016128540039

> <r_mmod_Bend_Energy-OPLS-2005>
197.73078918457

> <r_mmod_Torsional_Energy-OPLS-2005>
220.254653930664

> <r_mmod_Improper_Torsional_Energy-OPLS-2005>
8.70675468444824

> <r_mmod_Van_der_Waal_Energy-OPLS-2005>
120.375022888184

> <r_mmod_Electrostatic_Energy-OPLS-2005>
-311.831451416016

> <r_mmod_Solvation_Energy-OPLS-2005>
-500.158386230469

> <b_mmod_Minimization_Converged-OPLS-2005>
0

> <r_mmod_RMS_Derivative-OPLS-2005>
1.26350092887878

$$$$
74
                    3D
 Structure written by MMmdl.
162171  0  0  1  0            999 V2000
  -30.6366  -14.6821   20.4465 C   0  0  0  0  0  0
  -30.4250  -12.4103   19.4771 C   0  0  0  0  0  0
  -29.5095  -12.5024   18.2377 C   0  0  0  0  0  0
  -28.0346  -12.3348   18.6454 C   0  0  0  0  0  0
  -27.6455  -13.2281   19.8542 C   0  0  2  0  0  0
  -28.6866  -13.1427   20.9930 C   0  0  0  0  0  0
  -25.2508  -13.8195   20.5673 C   0  0  0  0  0  0
  -24.1795  -13.0442   20.9191 C   0  0  0  0  0  0
  -24.6384  -11.6920   20.8746 C   0  0  0  0  0  0
  -23.9057  -10.4293   21.0405 C   0  0  0  0  0  0
  -24.3617   -9.4212   21.9183 C   0  0  0  0  0  0
  -23.6290   -8.2247   22.0746 C   0  0  0  0  0  0
  -22.4267   -8.0281   21.3546 C   0  0  0  0  0  0
  -21.9904   -9.0251   20.4649 C   0  0  0  0  0  0
  -22.7228  -10.2131   20.3055 C   0  0  0  0  0  0
  -21.6849   -6.0733   22.5275 C   0  0  0  0  0  0
  -21.4019   -6.5632   23.8209 C   0  0  0  0  0  0
  -21.3658   -5.6782   24.9175 C   0  0  0  0  0  0
  -21.6040   -4.3046   24.7223 C   0  0  0  0  0  0
  -21.8816   -3.8141   23.4343 C   0  0  0  0  0  0
  -21.9192   -4.6965   22.3398 C   0  0  0  0  0  0
  -22.7819  -13.5242   21.1848 C   0  0  0  0  0  0
  -22.1651   -4.2154   21.0977 F   0  0  0  0  0  0
  -21.5626   -3.4527   25.7729 F   0  0  0  0  0  0
  -29.9995  -13.4661   20.4223 N   0  0  0  0  0  0
  -26.2934  -12.9392   20.3267 N   0  0  0  0  0  0
  -25.9311  -11.6542   20.5741 N   0  0  0  0  0  0
  -22.0452  -12.8246   22.0409 N   0  0  0  0  0  0
  -25.4218  -15.1922   20.4078 N   0  0  0  0  0  0
  -31.8299  -14.7545   20.1292 O   0  0  0  0  0  0
  -21.6635   -6.8880   21.4236 O   0  0  0  0  0  0
  -22.3516  -14.5558   20.6707 O   0  0  0  0  0  0
  -24.6262  -31.8590   23.2014 C   0  0  0  0  0  0
  -25.9106  -32.4776   23.8346 C   0  0  1  0  0  0
  -27.2243  -27.3221   20.1257 C   0  0  0  0  0  0
  -25.5918  -33.8574   24.2278 N   0  0  0  0  0  0
  -23.4209  -30.4808   21.5430 C   0  0  2  0  0  0
  -24.8714  -28.9339   20.1102 C   0  0  0  0  0  0
  -22.7483  -29.4610   22.4930 C   0  0  0  0  0  0
  -18.0292  -28.1383   22.8483 C   0  0  0  0  0  0
  -24.1489  -36.7294   23.2637 C   0  0  0  0  0  0
  -25.9609  -30.7913   21.3721 C   0  0  0  0  0  0
  -26.0389  -29.4172   20.7174 C   0  0  0  0  0  0
  -27.2230  -28.6217   20.7174 C   0  0  0  0  0  0
  -26.0421  -26.8856   19.4971 C   0  0  0  0  0  0
  -24.8748  -27.6738   19.4891 C   0  0  0  0  0  0
  -23.6372  -29.8131   20.1589 C   0  0  0  0  0  0
  -25.4111  -36.3082   24.0331 C   0  0  1  0  0  0
  -20.5891  -28.3684   23.1284 C   0  0  2  0  0  0
  -20.6781  -26.9406   22.5415 C   0  0  0  0  0  0
  -19.5757  -26.6382   21.5210 C   0  0  0  0  0  0
  -18.1934  -26.7926   22.1619 C   0  0  0  0  0  0
  -19.1543  -28.8849   23.2879 C   0  0  0  0  0  0
  -18.9464  -30.1450   23.8896 C   0  0  0  0  0  0
  -17.6464  -30.6581   24.0560 C   0  0  0  0  0  0
  -25.9046  -34.9451   23.5106 C   0  0  0  0  0  0
  -16.5357  -29.9080   23.6326 C   0  0  0  0  0  0
  -16.7279  -28.6500   23.0347 C   0  0  0  0  0  0
  -26.4493  -31.6580   25.0712 C   0  0  0  0  0  0
  -25.3739  -31.3726   26.1455 C   0  0  0  0  0  0
  -27.0319  -30.2997   24.6157 C   0  0  0  0  0  0
  -27.6062  -32.4310   25.7474 C   0  0  0  0  0  0
  -27.5583  -37.1795   24.8462 C   0  0  0  0  0  0
  -21.4194  -29.3039   22.3681 N   0  0  0  0  0  0
  -26.4290  -37.3778   23.9414 N   0  0  0  0  0  0
  -24.6879  -31.0604   22.0962 N   0  0  0  0  0  0
  -23.4207  -28.8156   23.3013 O   0  0  0  0  0  0
  -28.3009  -26.4291   20.1564 O   0  0  0  0  0  0
  -26.5618  -34.8921   22.4676 O   0  0  0  0  0  0
  -23.5424  -32.1387   23.7342 O   0  0  0  0  0  0
  -30.2993  -16.9891   18.5361 C   0  0  0  0  0  0
  -30.2835  -18.1276   17.7350 C   0  0  0  0  0  0
  -29.9253  -17.0891   19.8876 C   0  0  0  0  0  0
  -29.5200  -19.4154   19.4810 C   0  0  0  0  0  0
  -30.2713  -21.9220   20.1791 C   0  0  0  0  0  0
  -27.8919  -21.2463   20.6972 C   0  0  0  0  0  0
  -29.8397  -23.4469   20.1392 C   0  0  0  0  0  0
  -27.4828  -22.7726   20.6204 C   0  0  0  0  0  0
  -29.1305  -20.9215   19.8258 C   0  0  2  0  0  0
  -28.6069  -23.7894   21.0274 C   0  0  2  0  0  0
  -28.2048  -23.4661   23.4413 C   0  0  0  0  0  0
  -28.1603  -25.3479   21.1495 C   0  0  0  0  0  0
  -29.8978  -19.3141   18.2118 N   0  0  0  0  0  0
  -29.5360  -18.3496   20.3405 N   0  0  0  0  0  0
  -29.8815  -15.8244   20.6422 N   0  0  0  0  0  0
  -29.0965  -23.4107   22.3262 O   0  0  0  0  0  0
  -31.4707  -12.5083   19.1798 H   0  0  0  0  0  0
  -30.3416  -11.4295   19.9465 H   0  0  0  0  0  0
  -29.7835  -11.7385   17.5091 H   0  0  0  0  0  0
  -29.6491  -13.4651   17.7415 H   0  0  0  0  0  0
  -27.8811  -11.2855   18.8996 H   0  0  0  0  0  0
  -27.3852  -12.5410   17.7939 H   0  0  0  0  0  0
  -27.6485  -14.2524   19.4810 H   0  0  0  0  0  0
  -28.6990  -12.1428   21.4292 H   0  0  0  0  0  0
  -28.4291  -13.8258   21.8037 H   0  0  0  0  0  0
  -25.2759   -9.5696   22.4776 H   0  0  0  0  0  0
  -23.9996   -7.4634   22.7461 H   0  0  0  0  0  0
  -21.0833   -8.8764   19.8959 H   0  0  0  0  0  0
  -22.3669  -10.9669   19.6175 H   0  0  0  0  0  0
  -21.2008   -7.6137   23.9716 H   0  0  0  0  0  0
  -21.1491   -6.0515   25.9076 H   0  0  0  0  0  0
  -22.0607   -2.7607   23.2842 H   0  0  0  0  0  0
  -22.4042  -11.9908   22.4813 H   0  0  0  0  0  0
  -21.1080  -13.1300   22.2614 H   0  0  0  0  0  0
  -24.6527  -15.8459   20.5103 H   0  0  0  0  0  0
  -26.2618  -15.6251   20.0471 H   0  0  0  0  0  0
  -26.7176  -32.5452   23.1096 H   0  0  0  0  0  0
  -25.0070  -33.9715   25.0426 H   0  0  0  0  0  0
  -22.7147  -31.3011   21.3989 H   0  0  0  0  0  0
  -23.3753  -35.9624   23.3292 H   0  0  0  0  0  0
  -24.3585  -36.8922   22.2054 H   0  0  0  0  0  0
  -23.7242  -37.6492   23.6665 H   0  0  0  0  0  0
  -26.0897  -31.5524   20.6016 H   0  0  0  0  0  0
  -26.8421  -30.8435   21.9995 H   0  0  0  0  0  0
  -28.1191  -28.9836   21.2027 H   0  0  0  0  0  0
  -26.0176  -25.9094   19.0331 H   0  0  0  0  0  0
  -23.9807  -27.2971   19.0118 H   0  0  0  0  0  0
  -23.7547  -30.5882   19.4007 H   0  0  0  0  0  0
  -22.7578  -29.2406   19.8582 H   0  0  0  0  0  0
  -25.1287  -36.1930   25.0822 H   0  0  0  0  0  0
  -20.9978  -28.3260   24.1405 H   0  0  0  0  0  0
  -20.5671  -26.2292   23.3613 H   0  0  0  0  0  0
  -21.6654  -26.7432   22.1218 H   0  0  0  0  0  0
  -19.6920  -25.6292   21.1239 H   0  0  0  0  0  0
  -19.6693  -27.3193   20.6739 H   0  0  0  0  0  0
  -17.4204  -26.6672   21.4021 H   0  0  0  0  0  0
  -18.0330  -26.0069   22.9014 H   0  0  0  0  0  0
  -19.7940  -30.7268   24.2267 H   0  0  0  0  0  0
  -17.5018  -31.6265   24.5165 H   0  0  0  0  0  0
  -15.5355  -30.2983   23.7651 H   0  0  0  0  0  0
  -15.8678  -28.0819   22.7060 H   0  0  0  0  0  0
  -24.5911  -30.7067   25.7802 H   0  0  0  0  0  0
  -24.8935  -32.2896   26.4877 H   0  0  0  0  0  0
  -25.8083  -30.8917   27.0229 H   0  0  0  0  0  0
  -26.2874  -29.6757   24.1198 H   0  0  0  0  0  0
  -27.4029  -29.7246   25.4650 H   0  0  0  0  0  0
  -27.8745  -30.4272   23.9358 H   0  0  0  0  0  0
  -27.2679  -33.3611   26.2054 H   0  0  0  0  0  0
  -28.3866  -32.6869   25.0294 H   0  0  0  0  0  0
  -28.0736  -31.8433   26.5386 H   0  0  0  0  0  0
  -28.2598  -38.0095   24.7520 H   0  0  0  0  0  0
  -28.1082  -36.2631   24.6267 H   0  0  0  0  0  0
  -27.2311  -37.1424   25.8868 H   0  0  0  0  0  0
  -20.9369  -29.8757   21.6884 H   0  0  0  0  0  0
  -26.0170  -38.2851   24.1424 H   0  0  0  0  0  0
  -30.5968  -16.0546   18.0835 H   0  0  0  0  0  0
  -30.5690  -18.0863   16.6944 H   0  0  0  0  0  0
  -30.6813  -21.6685   21.1565 H   0  0  0  0  0  0
  -31.0863  -21.7800   19.4684 H   0  0  0  0  0  0
  -27.0528  -20.6353   20.3653 H   0  0  0  0  0  0
  -28.0911  -20.9542   21.7279 H   0  0  0  0  0  0
  -29.6203  -23.7305   19.1089 H   0  0  0  0  0  0
  -30.6854  -24.0684   20.4372 H   0  0  0  0  0  0
  -26.5876  -22.9360   21.2207 H   0  0  0  0  0  0
  -27.1692  -22.9988   19.6000 H   0  0  0  0  0  0
  -28.7940  -21.2828   18.8519 H   0  0  0  0  0  0
  -28.7323  -23.1213   24.3312 H   0  0  0  0  0  0
  -27.3368  -22.8181   23.3216 H   0  0  0  0  0  0
  -27.8571  -24.4771   23.6534 H   0  0  0  0  0  0
  -28.7540  -25.7607   21.9655 H   0  0  0  0  0  0
  -27.1412  -25.3513   21.5407 H   0  0  0  0  0  0
  -29.0396  -15.6891   21.1779 H   0  0  0  0  0  0
  1 25  1  0  0  0
  1 30  2  0  0  0
  1 85  1  0  0  0
  2  3  1  0  0  0
  2 25  1  0  0  0
  2 87  1  0  0  0
  2 88  1  0  0  0
  3  4  1  0  0  0
  3 89  1  0  0  0
  3 90  1  0  0  0
  4  5  1  0  0  0
  4 91  1  0  0  0
  4 92  1  0  0  0
  5  6  1  0  0  0
  5 26  1  0  0  0
  5 93  1  0  0  0
  6 25  1  0  0  0
  6 94  1  0  0  0
  6 95  1  0  0  0
  7  8  2  0  0  0
  7 26  1  0  0  0
  7 29  1  0  0  0
  8  9  1  0  0  0
  8 22  1  0  0  0
  9 10  1  0  0  0
  9 27  2  0  0  0
 10 11  2  0  0  0
 10 15  1  0  0  0
 11 12  1  0  0  0
 11 96  1  0  0  0
 12 13  2  0  0  0
 12 97  1  0  0  0
 13 14  1  0  0  0
 13 31  1  0  0  0
 14 15  2  0  0  0
 14 98  1  0  0  0
 15 99  1  0  0  0
 16 17  2  0  0  0
 16 21  1  0  0  0
 16 31  1  0  0  0
 17 18  1  0  0  0
 17100  1  0  0  0
 18 19  2  0  0  0
 18101  1  0  0  0
 19 20  1  0  0  0
 19 24  1  0  0  0
 20 21  2  0  0  0
 20102  1  0  0  0
 21 23  1  0  0  0
 22 28  1  0  0  0
 22 32  2  0  0  0
 26 27  1  0  0  0
 28103  1  0  0  0
 28104  1  0  0  0
 29105  1  0  0  0
 29106  1  0  0  0
 33 34  1  0  0  0
 33 66  1  0  0  0
 33 70  2  0  0  0
 34 36  1  0  0  0
 34 59  1  0  0  0
 34107  1  0  0  0
 35 44  2  0  0  0
 35 45  1  0  0  0
 35 68  1  0  0  0
 36 56  1  0  0  0
 36108  1  0  0  0
 37 39  1  0  0  0
 37 47  1  0  0  0
 37 66  1  0  0  0
 37109  1  0  0  0
 38 43  2  0  0  0
 38 46  1  0  0  0
 38 47  1  0  0  0
 39 64  1  0  0  0
 39 67  2  0  0  0
 40 52  1  0  0  0
 40 53  2  0  0  0
 40 58  1  0  0  0
 41110  1  0  0  0
 41111  1  0  0  0
 41112  1  0  0  0
 41 48  1  0  0  0
 42 43  1  0  0  0
 42 66  1  0  0  0
 42113  1  0  0  0
 42114  1  0  0  0
 43 44  1  0  0  0
 44115  1  0  0  0
 45 46  2  0  0  0
 45116  1  0  0  0
 46117  1  0  0  0
 47118  1  0  0  0
 47119  1  0  0  0
 48 56  1  0  0  0
 48 65  1  0  0  0
 48120  1  0  0  0
 49 50  1  0  0  0
 49 53  1  0  0  0
 49 64  1  0  0  0
 49121  1  0  0  0
 50 51  1  0  0  0
 50122  1  0  0  0
 50123  1  0  0  0
 51 52  1  0  0  0
 51124  1  0  0  0
 51125  1  0  0  0
 52126  1  0  0  0
 52127  1  0  0  0
 53 54  1  0  0  0
 54 55  2  0  0  0
 54128  1  0  0  0
 55 57  1  0  0  0
 55129  1  0  0  0
 56 69  2  0  0  0
 57 58  2  0  0  0
 57130  1  0  0  0
 58131  1  0  0  0
 59 60  1  0  0  0
 59 61  1  0  0  0
 59 62  1  0  0  0
 60132  1  0  0  0
 60133  1  0  0  0
 60134  1  0  0  0
 61135  1  0  0  0
 61136  1  0  0  0
 61137  1  0  0  0
 62138  1  0  0  0
 62139  1  0  0  0
 62140  1  0  0  0
 63 65  1  0  0  0
 63141  1  0  0  0
 63142  1  0  0  0
 63143  1  0  0  0
 64144  1  0  0  0
 65145  1  0  0  0
 68 82  1  0  0  0
 71 72  2  0  0  0
 71 73  1  0  0  0
 71146  1  0  0  0
 72 83  1  0  0  0
 72147  1  0  0  0
 73 84  2  0  0  0
 73 85  1  0  0  0
 74 83  2  0  0  0
 74 84  1  0  0  0
 74 79  1  0  0  0
 75 77  1  0  0  0
 75 79  1  0  0  0
 75148  1  0  0  0
 75149  1  0  0  0
 76 78  1  0  0  0
 76 79  1  0  0  0
 76150  1  0  0  0
 76151  1  0  0  0
 77 80  1  0  0  0
 77152  1  0  0  0
 77153  1  0  0  0
 78 80  1  0  0  0
 78154  1  0  0  0
 78155  1  0  0  0
 79156  1  0  0  0
 80 82  1  0  0  0
 80 86  1  0  0  0
 81 86  1  0  0  0
 81157  1  0  0  0
 81158  1  0  0  0
 81159  1  0  0  0
 82160  1  0  0  0
 82161  1  0  0  0
 85162  1  0  0  0
M  ISO  4   1 100  68 101  82 101  85 100
M  END
> <chiral flag>
0

> <version>
0

> <s_m_source_file>
/data/baiqing/PycharmProjects/Reinvent-master-3.2/result/LINK_invent/BTK/process_docking_weight1_custom_product_contain_oxygen_bond_distance_aromatic_linkinvent_7_9_3/rearranged_h_0163.sdf

> <i_m_source_file_index>
75

> <r_mmod_Potential_Energy-OPLS-2005>
-192.671340942383

> <r_mmod_Stretch_Energy-OPLS-2005>
97.5056381225586

> <r_mmod_Bend_Energy-OPLS-2005>
196.431991577148

> <r_mmod_Torsional_Energy-OPLS-2005>
280.984619140625

> <r_mmod_Improper_Torsional_Energy-OPLS-2005>
5.60147571563721

> <r_mmod_Van_der_Waal_Energy-OPLS-2005>
155.141967773438

> <r_mmod_Electrostatic_Energy-OPLS-2005>
-758.371704101562

> <r_mmod_Solvation_Energy-OPLS-2005>
-230.919937133789

> <b_mmod_Minimization_Converged-OPLS-2005>
0

> <r_mmod_RMS_Derivative-OPLS-2005>
1.72031164169312

$$$$
75
                    3D
 Structure written by MMmdl.
150158  0  0  1  0            999 V2000
  -30.6702  -14.5197   20.5490 C   0  0  0  0  0  0
  -30.4340  -12.3302   19.4287 C   0  0  0  0  0  0
  -29.5006  -12.5015   18.2111 C   0  0  0  0  0  0
  -28.0209  -12.3609   18.6215 C   0  0  0  0  0  0
  -27.6611  -13.2063   19.8713 C   0  0  2  0  0  0
  -28.7030  -13.0006   20.9943 C   0  0  0  0  0  0
  -25.2597  -13.8143   20.5686 C   0  0  0  0  0  0
  -24.1842  -13.0428   20.9168 C   0  0  0  0  0  0
  -24.6386  -11.6889   20.8707 C   0  0  0  0  0  0
  -23.9040  -10.4283   21.0390 C   0  0  0  0  0  0
  -24.3591   -9.4208   21.9177 C   0  0  0  0  0  0
  -23.6271   -8.2242   22.0749 C   0  0  0  0  0  0
  -22.4254   -8.0272   21.3540 C   0  0  0  0  0  0
  -21.9881   -9.0247   20.4648 C   0  0  0  0  0  0
  -22.7202  -10.2129   20.3056 C   0  0  0  0  0  0
  -21.6853   -6.0723   22.5270 C   0  0  0  0  0  0
  -21.4013   -6.5632   23.8200 C   0  0  0  0  0  0
  -21.3662   -5.6794   24.9167 C   0  0  0  0  0  0
  -21.6049   -4.3055   24.7223 C   0  0  0  0  0  0
  -21.8825   -3.8139   23.4347 C   0  0  0  0  0  0
  -21.9199   -4.6949   22.3398 C   0  0  0  0  0  0
  -22.7872  -13.5243   21.1828 C   0  0  0  0  0  0
  -22.1660   -4.2131   21.0976 F   0  0  0  0  0  0
  -21.5635   -3.4547   25.7743 F   0  0  0  0  0  0
  -30.0331  -13.3184   20.4445 N   0  0  0  0  0  0
  -26.3020  -12.9315   20.3333 N   0  0  0  0  0  0
  -25.9311  -11.6471   20.5724 N   0  0  0  0  0  0
  -22.0499  -12.8258   22.0390 N   0  0  0  0  0  0
  -25.4339  -15.1868   20.4146 N   0  0  0  0  0  0
  -31.8044  -14.7086   20.0975 O   0  0  0  0  0  0
  -21.6628   -6.8865   21.4235 O   0  0  0  0  0  0
  -22.3579  -14.5562   20.6688 O   0  0  0  0  0  0
  -24.6183  -31.8653   23.2076 C   0  0  0  0  0  0
  -25.9067  -32.4804   23.8382 C   0  0  1  0  0  0
  -27.2319  -27.4031   20.1102 C   0  0  0  0  0  0
  -25.5914  -33.8603   24.2315 N   0  0  0  0  0  0
  -23.4089  -30.4880   21.5469 C   0  0  2  0  0  0
  -24.8579  -28.9517   20.1116 C   0  0  0  0  0  0
  -22.7440  -29.4646   22.4962 C   0  0  0  0  0  0
  -18.0281  -28.1386   22.8481 C   0  0  0  0  0  0
  -24.1487  -36.7304   23.2638 C   0  0  0  0  0  0
  -25.9414  -30.8216   21.3669 C   0  0  0  0  0  0
  -26.0199  -29.4544   20.7128 C   0  0  0  0  0  0
  -27.2128  -28.6882   20.7072 C   0  0  0  0  0  0
  -26.0554  -26.9281   19.4911 C   0  0  0  0  0  0
  -24.8722  -27.6897   19.4942 C   0  0  0  0  0  0
  -23.6200  -29.8203   20.1618 C   0  0  0  0  0  0
  -25.4108  -36.3096   24.0336 C   0  0  1  0  0  0
  -20.5875  -28.3674   23.1299 C   0  0  2  0  0  0
  -20.6767  -26.9404   22.5412 C   0  0  0  0  0  0
  -19.5750  -26.6385   21.5206 C   0  0  0  0  0  0
  -18.1928  -26.7929   22.1618 C   0  0  0  0  0  0
  -19.1532  -28.8848   23.2884 C   0  0  0  0  0  0
  -18.9462  -30.1450   23.8895 C   0  0  0  0  0  0
  -17.6464  -30.6584   24.0563 C   0  0  0  0  0  0
  -25.9039  -34.9463   23.5121 C   0  0  0  0  0  0
  -16.5353  -29.9083   23.6333 C   0  0  0  0  0  0
  -16.7270  -28.6506   23.0344 C   0  0  0  0  0  0
  -26.4487  -31.6592   25.0722 C   0  0  0  0  0  0
  -25.3756  -31.3720   26.1478 C   0  0  0  0  0  0
  -27.0317  -30.3022   24.6126 C   0  0  0  0  0  0
  -27.6062  -32.4315   25.7486 C   0  0  0  0  0  0
  -27.5578  -37.1805   24.8468 C   0  0  0  0  0  0
  -21.4165  -29.3034   22.3702 N   0  0  0  0  0  0
  -26.4292  -37.3783   23.9410 N   0  0  0  0  0  0
  -24.6741  -31.0736   22.0983 N   0  0  0  0  0  0
  -23.4194  -28.8193   23.3024 O   0  0  0  0  0  0
  -28.3569  -26.5972   20.1350 O   0  0  0  0  0  0
  -26.5596  -34.8922   22.4680 O   0  0  0  0  0  0
  -23.5365  -32.1419   23.7447 O   0  0  0  0  0  0
  -29.1114  -17.9163   21.3607 C   0  0  0  0  0  0
  -31.0091  -17.6358   20.1831 C   0  0  0  0  0  0
  -30.0432  -16.9449   20.8737 C   0  0  0  0  0  0
  -29.5849  -19.1239   20.9125 C   0  0  0  0  0  0
  -28.1766  -25.3146   20.6374 C   0  0  0  0  0  0
  -28.9396  -24.2347   20.3325 C   0  0  0  0  0  0
  -28.6452  -22.8802   20.9151 C   0  0  0  0  0  0
  -29.5001  -21.6341   20.5366 C   0  0  0  0  0  0
  -29.9219  -15.5231   21.0668 N   0  0  0  0  0  0
  -28.9943  -20.3788   21.1304 N   0  0  0  0  0  0
  -27.7114  -22.7038   21.7076 O   0  0  0  0  0  0
  -30.7342  -18.9837   20.1948 O   0  0  0  0  0  0
  -29.9781  -24.3433   19.4923 O   0  0  0  0  0  0
  -31.4754  -12.4475   19.1220 H   0  0  0  0  0  0
  -30.3563  -11.3210   19.8352 H   0  0  0  0  0  0
  -29.7419  -11.7639   17.4449 H   0  0  0  0  0  0
  -29.6667  -13.4796   17.7565 H   0  0  0  0  0  0
  -27.8337  -11.3054   18.8225 H   0  0  0  0  0  0
  -27.3709  -12.6301   17.7882 H   0  0  0  0  0  0
  -27.6994  -14.2513   19.5624 H   0  0  0  0  0  0
  -28.6879  -11.9665   21.3425 H   0  0  0  0  0  0
  -28.4539  -13.6028   21.8692 H   0  0  0  0  0  0
  -25.2732   -9.5701   22.4750 H   0  0  0  0  0  0
  -23.9995   -7.4641   22.7467 H   0  0  0  0  0  0
  -21.0812   -8.8755   19.8952 H   0  0  0  0  0  0
  -22.3644  -10.9671   19.6172 H   0  0  0  0  0  0
  -21.1993   -7.6139   23.9695 H   0  0  0  0  0  0
  -21.1482   -6.0525   25.9072 H   0  0  0  0  0  0
  -22.0604   -2.7600   23.2857 H   0  0  0  0  0  0
  -22.4091  -11.9920   22.4798 H   0  0  0  0  0  0
  -21.1134  -13.1347   22.2592 H   0  0  0  0  0  0
  -24.6735  -15.8456   20.5416 H   0  0  0  0  0  0
  -26.2875  -15.6252   20.0921 H   0  0  0  0  0  0
  -26.7140  -32.5510   23.1147 H   0  0  0  0  0  0
  -25.0091  -33.9758   25.0477 H   0  0  0  0  0  0
  -22.6986  -31.3049   21.4052 H   0  0  0  0  0  0
  -23.3738  -35.9649   23.3318 H   0  0  0  0  0  0
  -24.3577  -36.8899   22.2047 H   0  0  0  0  0  0
  -23.7254  -37.6522   23.6639 H   0  0  0  0  0  0
  -26.0626  -31.5870   20.5991 H   0  0  0  0  0  0
  -26.8261  -30.8712   21.9902 H   0  0  0  0  0  0
  -28.1091  -29.0650   21.1796 H   0  0  0  0  0  0
  -26.0497  -25.9562   19.0178 H   0  0  0  0  0  0
  -23.9809  -27.2981   19.0226 H   0  0  0  0  0  0
  -23.7285  -30.5940   19.4007 H   0  0  0  0  0  0
  -22.7449  -29.2385   19.8666 H   0  0  0  0  0  0
  -25.1284  -36.1956   25.0827 H   0  0  0  0  0  0
  -20.9966  -28.3245   24.1421 H   0  0  0  0  0  0
  -20.5662  -26.2287   23.3603 H   0  0  0  0  0  0
  -21.6640  -26.7437   22.1213 H   0  0  0  0  0  0
  -19.6910  -25.6297   21.1230 H   0  0  0  0  0  0
  -19.6691  -27.3198   20.6737 H   0  0  0  0  0  0
  -17.4198  -26.6673   21.4016 H   0  0  0  0  0  0
  -18.0330  -26.0069   22.9016 H   0  0  0  0  0  0
  -19.7941  -30.7263   24.2260 H   0  0  0  0  0  0
  -17.5025  -31.6264   24.5169 H   0  0  0  0  0  0
  -15.5355  -30.2986   23.7663 H   0  0  0  0  0  0
  -15.8671  -28.0830   22.7053 H   0  0  0  0  0  0
  -24.5919  -30.7070   25.7836 H   0  0  0  0  0  0
  -24.8962  -32.2885   26.4928 H   0  0  0  0  0  0
  -25.8116  -30.8899   27.0237 H   0  0  0  0  0  0
  -26.2866  -29.6779   24.1181 H   0  0  0  0  0  0
  -27.4074  -29.7268   25.4599 H   0  0  0  0  0  0
  -27.8712  -30.4323   23.9291 H   0  0  0  0  0  0
  -27.2675  -33.3601   26.2096 H   0  0  0  0  0  0
  -28.3856  -32.6900   25.0305 H   0  0  0  0  0  0
  -28.0751  -31.8423   26.5378 H   0  0  0  0  0  0
  -28.2611  -38.0086   24.7490 H   0  0  0  0  0  0
  -28.1055  -36.2615   24.6317 H   0  0  0  0  0  0
  -27.2297  -37.1491   25.8873 H   0  0  0  0  0  0
  -20.9336  -29.8756   21.6914 H   0  0  0  0  0  0
  -26.0178  -38.2863   24.1398 H   0  0  0  0  0  0
  -28.2154  -17.7552   21.9428 H   0  0  0  0  0  0
  -31.9013  -17.3542   19.6409 H   0  0  0  0  0  0
  -27.3360  -25.2542   21.3187 H   0  0  0  0  0  0
  -30.5251  -21.8077   20.8656 H   0  0  0  0  0  0
  -29.5231  -21.5462   19.4498 H   0  0  0  0  0  0
  -29.0579  -15.2118   21.4836 H   0  0  0  0  0  0
  -28.1560  -20.5065   21.6946 H   0  0  0  0  0  0
  -30.0173  -25.2527   19.2247 H   0  0  0  0  0  0
  1 25  1  0  0  0
  1 30  2  0  0  0
  1 79  1  0  0  0
  2  3  1  0  0  0
  2 25  1  0  0  0
  2 84  1  0  0  0
  2 85  1  0  0  0
  3  4  1  0  0  0
  3 86  1  0  0  0
  3 87  1  0  0  0
  4  5  1  0  0  0
  4 88  1  0  0  0
  4 89  1  0  0  0
  5  6  1  0  0  0
  5 26  1  0  0  0
  5 90  1  0  0  0
  6 25  1  0  0  0
  6 91  1  0  0  0
  6 92  1  0  0  0
  7  8  2  0  0  0
  7 26  1  0  0  0
  7 29  1  0  0  0
  8  9  1  0  0  0
  8 22  1  0  0  0
  9 10  1  0  0  0
  9 27  2  0  0  0
 10 11  2  0  0  0
 10 15  1  0  0  0
 11 12  1  0  0  0
 11 93  1  0  0  0
 12 13  2  0  0  0
 12 94  1  0  0  0
 13 14  1  0  0  0
 13 31  1  0  0  0
 14 15  2  0  0  0
 14 95  1  0  0  0
 15 96  1  0  0  0
 16 17  2  0  0  0
 16 21  1  0  0  0
 16 31  1  0  0  0
 17 18  1  0  0  0
 17 97  1  0  0  0
 18 19  2  0  0  0
 18 98  1  0  0  0
 19 20  1  0  0  0
 19 24  1  0  0  0
 20 21  2  0  0  0
 20 99  1  0  0  0
 21 23  1  0  0  0
 22 28  1  0  0  0
 22 32  2  0  0  0
 26 27  1  0  0  0
 28100  1  0  0  0
 28101  1  0  0  0
 29102  1  0  0  0
 29103  1  0  0  0
 33 34  1  0  0  0
 33 66  1  0  0  0
 33 70  2  0  0  0
 34 36  1  0  0  0
 34 59  1  0  0  0
 34104  1  0  0  0
 35 44  2  0  0  0
 35 45  1  0  0  0
 35 68  1  0  0  0
 36 56  1  0  0  0
 36105  1  0  0  0
 37 39  1  0  0  0
 37 47  1  0  0  0
 37 66  1  0  0  0
 37106  1  0  0  0
 38 43  2  0  0  0
 38 46  1  0  0  0
 38 47  1  0  0  0
 39 64  1  0  0  0
 39 67  2  0  0  0
 40 52  1  0  0  0
 40 53  2  0  0  0
 40 58  1  0  0  0
 41107  1  0  0  0
 41108  1  0  0  0
 41109  1  0  0  0
 41 48  1  0  0  0
 42 43  1  0  0  0
 42 66  1  0  0  0
 42110  1  0  0  0
 42111  1  0  0  0
 43 44  1  0  0  0
 44112  1  0  0  0
 45 46  2  0  0  0
 45113  1  0  0  0
 46114  1  0  0  0
 47115  1  0  0  0
 47116  1  0  0  0
 48 56  1  0  0  0
 48 65  1  0  0  0
 48117  1  0  0  0
 49 50  1  0  0  0
 49 53  1  0  0  0
 49 64  1  0  0  0
 49118  1  0  0  0
 50 51  1  0  0  0
 50119  1  0  0  0
 50120  1  0  0  0
 51 52  1  0  0  0
 51121  1  0  0  0
 51122  1  0  0  0
 52123  1  0  0  0
 52124  1  0  0  0
 53 54  1  0  0  0
 54 55  2  0  0  0
 54125  1  0  0  0
 55 57  1  0  0  0
 55126  1  0  0  0
 56 69  2  0  0  0
 57 58  2  0  0  0
 57127  1  0  0  0
 58128  1  0  0  0
 59 60  1  0  0  0
 59 61  1  0  0  0
 59 62  1  0  0  0
 60129  1  0  0  0
 60130  1  0  0  0
 60131  1  0  0  0
 61132  1  0  0  0
 61133  1  0  0  0
 61134  1  0  0  0
 62135  1  0  0  0
 62136  1  0  0  0
 62137  1  0  0  0
 63 65  1  0  0  0
 63138  1  0  0  0
 63139  1  0  0  0
 63140  1  0  0  0
 64141  1  0  0  0
 65142  1  0  0  0
 68 75  1  0  0  0
 71 73  1  0  0  0
 71 74  2  0  0  0
 71143  1  0  0  0
 72 73  2  0  0  0
 72 82  1  0  0  0
 72144  1  0  0  0
 73 79  1  0  0  0
 74 80  1  0  0  0
 74 82  1  0  0  0
 75 76  2  0  0  0
 75145  1  0  0  0
 76 77  1  0  0  0
 76 83  1  0  0  0
 77 78  1  0  0  0
 77 81  2  0  0  0
 78 80  1  0  0  0
 78146  1  0  0  0
 78147  1  0  0  0
 79148  1  0  0  0
 80149  1  0  0  0
 83150  1  0  0  0
M  ISO  4   1 100  68 101  75 101  79 100
M  END
> <chiral flag>
0

> <version>
0

> <s_m_source_file>
/data/baiqing/PycharmProjects/Reinvent-master-3.2/result/LINK_invent/BTK/process_docking_weight1_custom_product_contain_oxygen_bond_distance_aromatic_linkinvent_7_9_3/rearranged_h_0163.sdf

> <i_m_source_file_index>
76

> <r_mmod_Potential_Energy-OPLS-2005>
-69.1545715332031

> <r_mmod_Stretch_Energy-OPLS-2005>
43.2177696228027

> <r_mmod_Bend_Energy-OPLS-2005>
117.583778381348

> <r_mmod_Torsional_Energy-OPLS-2005>
194.210815429688

> <r_mmod_Improper_Torsional_Energy-OPLS-2005>
3.55999159812927

> <r_mmod_Van_der_Waal_Energy-OPLS-2005>
133.638366699219

> <r_mmod_Electrostatic_Energy-OPLS-2005>
-353.584106445312

> <r_mmod_Solvation_Energy-OPLS-2005>
-227.758255004883

> <b_mmod_Minimization_Converged-OPLS-2005>
0

> <r_mmod_RMS_Derivative-OPLS-2005>
1.10588014125824

$$$$
76
                    3D
 Structure written by MMmdl.
153161  0  0  1  0            999 V2000
  -30.5791  -14.8006   20.4356 C   0  0  0  0  0  0
  -30.4409  -12.4867   19.4764 C   0  0  0  0  0  0
  -29.5128  -12.4969   18.2404 C   0  0  0  0  0  0
  -28.0402  -12.3131   18.6592 C   0  0  0  0  0  0
  -27.6376  -13.2305   19.8445 C   0  0  2  0  0  0
  -28.6836  -13.1891   20.9796 C   0  0  0  0  0  0
  -25.2499  -13.8186   20.5710 C   0  0  0  0  0  0
  -24.1794  -13.0432   20.9225 C   0  0  0  0  0  0
  -24.6388  -11.6910   20.8758 C   0  0  0  0  0  0
  -23.9072  -10.4286   21.0414 C   0  0  0  0  0  0
  -24.3617   -9.4202   21.9194 C   0  0  0  0  0  0
  -23.6292   -8.2236   22.0761 C   0  0  0  0  0  0
  -22.4270   -8.0280   21.3552 C   0  0  0  0  0  0
  -21.9912   -9.0258   20.4656 C   0  0  0  0  0  0
  -22.7243  -10.2132   20.3071 C   0  0  0  0  0  0
  -21.6851   -6.0739   22.5277 C   0  0  0  0  0  0
  -21.4012   -6.5645   23.8214 C   0  0  0  0  0  0
  -21.3656   -5.6798   24.9176 C   0  0  0  0  0  0
  -21.6043   -4.3060   24.7222 C   0  0  0  0  0  0
  -21.8816   -3.8150   23.4344 C   0  0  0  0  0  0
  -21.9190   -4.6968   22.3402 C   0  0  0  0  0  0
  -22.7818  -13.5227   21.1874 C   0  0  0  0  0  0
  -22.1658   -4.2155   21.0980 F   0  0  0  0  0  0
  -21.5629   -3.4545   25.7734 F   0  0  0  0  0  0
  -29.9769  -13.5583   20.3901 N   0  0  0  0  0  0
  -26.2921  -12.9392   20.3275 N   0  0  0  0  0  0
  -25.9311  -11.6532   20.5737 N   0  0  0  0  0  0
  -22.0457  -12.8228   22.0426 N   0  0  0  0  0  0
  -25.4160  -15.1919   20.4130 N   0  0  0  0  0  0
  -31.7787  -14.8922   20.1575 O   0  0  0  0  0  0
  -21.6630   -6.8877   21.4240 O   0  0  0  0  0  0
  -22.3513  -14.5538   20.6723 O   0  0  0  0  0  0
  -24.6347  -31.8525   23.1944 C   0  0  0  0  0  0
  -25.9166  -32.4737   23.8297 C   0  0  1  0  0  0
  -27.2205  -27.2349   20.1375 C   0  0  0  0  0  0
  -25.5945  -33.8538   24.2223 N   0  0  0  0  0  0
  -23.4326  -30.4739   21.5393 C   0  0  2  0  0  0
  -24.8807  -28.9108   20.1136 C   0  0  0  0  0  0
  -22.7514  -29.4590   22.4903 C   0  0  0  0  0  0
  -18.0292  -28.1392   22.8488 C   0  0  0  0  0  0
  -24.1490  -36.7268   23.2643 C   0  0  0  0  0  0
  -25.9805  -30.7575   21.3777 C   0  0  0  0  0  0
  -26.0547  -29.3761   20.7213 C   0  0  0  0  0  0
  -27.2314  -28.5542   20.7132 C   0  0  0  0  0  0
  -26.0232  -26.8359   19.5112 C   0  0  0  0  0  0
  -24.8717  -27.6496   19.4952 C   0  0  0  0  0  0
  -23.6529  -29.8032   20.1571 C   0  0  0  0  0  0
  -25.4123  -36.3055   24.0321 C   0  0  1  0  0  0
  -20.5897  -28.3702   23.1265 C   0  0  2  0  0  0
  -20.6779  -26.9419   22.5412 C   0  0  0  0  0  0
  -19.5752  -26.6384   21.5219 C   0  0  0  0  0  0
  -18.1932  -26.7933   22.1630 C   0  0  0  0  0  0
  -19.1548  -28.8866   23.2867 C   0  0  0  0  0  0
  -18.9468  -30.1466   23.8887 C   0  0  0  0  0  0
  -17.6467  -30.6594   24.0562 C   0  0  0  0  0  0
  -25.9063  -34.9431   23.5072 C   0  0  0  0  0  0
  -16.5357  -29.9090   23.6340 C   0  0  0  0  0  0
  -16.7277  -28.6509   23.0359 C   0  0  0  0  0  0
  -26.4513  -31.6578   25.0708 C   0  0  0  0  0  0
  -25.3710  -31.3761   26.1410 C   0  0  0  0  0  0
  -27.0370  -30.2986   24.6239 C   0  0  0  0  0  0
  -27.6050  -32.4330   25.7488 C   0  0  0  0  0  0
  -27.5570  -37.1795   24.8468 C   0  0  0  0  0  0
  -21.4217  -29.3045   22.3648 N   0  0  0  0  0  0
  -26.4290  -37.3760   23.9401 N   0  0  0  0  0  0
  -24.7017  -31.0466   22.0932 N   0  0  0  0  0  0
  -23.4199  -28.8140   23.3021 O   0  0  0  0  0  0
  -28.3081  -26.3262   20.1240 O   0  0  0  0  0  0
  -26.5647  -34.8912   22.4649 O   0  0  0  0  0  0
  -23.5490  -32.1361   23.7227 O   0  0  0  0  0  0
  -31.2050  -17.9662   20.4521 C   0  0  0  0  0  0
  -30.9806  -19.3926   20.3651 C   0  0  0  0  0  0
  -29.9929  -17.3242   20.4796 C   0  0  0  0  0  0
  -29.6144  -19.6130   20.3392 C   0  0  0  0  0  0
  -32.0234  -20.4250   20.2135 C   0  0  0  0  0  0
  -28.5797  -23.6082   19.9249 C   0  0  0  0  0  0
  -32.4303  -21.1924   21.4639 C   0  0  0  0  0  0
  -29.0951  -22.2609   20.6772 C   0  0  0  0  0  0
  -28.1264  -24.9432   20.7231 C   0  0  0  0  0  0
  -29.7594  -15.9284   20.5681 N   0  0  0  0  0  0
  -28.8540  -20.8520   20.1073 N   0  0  0  0  0  0
  -32.6194  -20.6085   19.1486 O   0  0  0  0  0  0
  -28.5120  -23.5969   18.6911 O   0  0  0  0  0  0
  -28.9988  -18.3353   20.4008 O   0  0  0  0  0  0
  -31.4785  -12.6277   19.1686 H   0  0  0  0  0  0
  -30.4065  -11.5193   19.9796 H   0  0  0  0  0  0
  -29.8023  -11.7067   17.5466 H   0  0  0  0  0  0
  -29.6275  -13.4367   17.6979 H   0  0  0  0  0  0
  -27.9099  -11.2675   18.9422 H   0  0  0  0  0  0
  -27.3787  -12.4768   17.8078 H   0  0  0  0  0  0
  -27.6228  -14.2443   19.4448 H   0  0  0  0  0  0
  -28.7332  -12.1953   21.4266 H   0  0  0  0  0  0
  -28.4124  -13.8725   21.7860 H   0  0  0  0  0  0
  -25.2758   -9.5676   22.4777 H   0  0  0  0  0  0
  -23.9996   -7.4626   22.7488 H   0  0  0  0  0  0
  -21.0844   -8.8794   19.8963 H   0  0  0  0  0  0
  -22.3713  -10.9682   19.6191 H   0  0  0  0  0  0
  -21.2003   -7.6151   23.9725 H   0  0  0  0  0  0
  -21.1484   -6.0522   25.9082 H   0  0  0  0  0  0
  -22.0594   -2.7611   23.2842 H   0  0  0  0  0  0
  -22.4063  -11.9896   22.4829 H   0  0  0  0  0  0
  -21.1083  -13.1274   22.2630 H   0  0  0  0  0  0
  -24.6415  -15.8368   20.5282 H   0  0  0  0  0  0
  -26.2463  -15.6377   20.0452 H   0  0  0  0  0  0
  -26.7230  -32.5380   23.1028 H   0  0  0  0  0  0
  -25.0066  -33.9658   25.0353 H   0  0  0  0  0  0
  -22.7304  -31.2970   21.3908 H   0  0  0  0  0  0
  -23.3744  -35.9605   23.3319 H   0  0  0  0  0  0
  -24.3573  -36.8883   22.2052 H   0  0  0  0  0  0
  -23.7246  -37.6474   23.6665 H   0  0  0  0  0  0
  -26.1250  -31.5178   20.6085 H   0  0  0  0  0  0
  -26.8553  -30.8048   22.0151 H   0  0  0  0  0  0
  -28.1352  -28.9131   21.1858 H   0  0  0  0  0  0
  -25.9736  -25.8673   19.0340 H   0  0  0  0  0  0
  -23.9744  -27.2895   19.0110 H   0  0  0  0  0  0
  -23.7789  -30.5787   19.3999 H   0  0  0  0  0  0
  -22.7686  -29.2399   19.8515 H   0  0  0  0  0  0
  -25.1308  -36.1892   25.0812 H   0  0  0  0  0  0
  -20.9992  -28.3289   24.1383 H   0  0  0  0  0  0
  -20.5684  -26.2317   23.3622 H   0  0  0  0  0  0
  -21.6644  -26.7441   22.1204 H   0  0  0  0  0  0
  -19.6914  -25.6294   21.1251 H   0  0  0  0  0  0
  -19.6684  -27.3192   20.6745 H   0  0  0  0  0  0
  -17.4201  -26.6678   21.4031 H   0  0  0  0  0  0
  -18.0328  -26.0080   22.9030 H   0  0  0  0  0  0
  -19.7944  -30.7286   24.2249 H   0  0  0  0  0  0
  -17.5022  -31.6275   24.5161 H   0  0  0  0  0  0
  -15.5358  -30.2987   23.7673 H   0  0  0  0  0  0
  -15.8673  -28.0822   22.7081 H   0  0  0  0  0  0
  -24.5876  -30.7130   25.7723 H   0  0  0  0  0  0
  -24.8916  -32.2954   26.4790 H   0  0  0  0  0  0
  -25.7997  -30.8949   27.0211 H   0  0  0  0  0  0
  -26.2980  -29.6718   24.1238 H   0  0  0  0  0  0
  -27.4002  -29.7268   25.4788 H   0  0  0  0  0  0
  -27.8872  -30.4234   23.9529 H   0  0  0  0  0  0
  -27.2644  -33.3629   26.2049 H   0  0  0  0  0  0
  -28.3873  -32.6898   25.0333 H   0  0  0  0  0  0
  -28.0711  -31.8474   26.5422 H   0  0  0  0  0  0
  -28.2607  -38.0071   24.7491 H   0  0  0  0  0  0
  -28.1045  -36.2601   24.6331 H   0  0  0  0  0  0
  -27.2286  -37.1490   25.8873 H   0  0  0  0  0  0
  -20.9415  -29.8748   21.6825 H   0  0  0  0  0  0
  -26.0162  -38.2833   24.1391 H   0  0  0  0  0  0
  -32.1705  -17.4788   20.4756 H   0  0  0  0  0  0
  -31.7130  -21.0374   22.2685 H   0  0  0  0  0  0
  -32.4946  -22.2582   21.2493 H   0  0  0  0  0  0
  -33.4079  -20.8532   21.8051 H   0  0  0  0  0  0
  -30.1629  -22.4019   20.8289 H   0  0  0  0  0  0
  -28.6585  -22.2845   21.6764 H   0  0  0  0  0  0
  -28.6566  -24.9381   21.6747 H   0  0  0  0  0  0
  -27.0743  -24.8112   20.9782 H   0  0  0  0  0  0
  -28.7915  -15.6837   20.7005 H   0  0  0  0  0  0
  -27.8711  -20.6900   19.8995 H   0  0  0  0  0  0
  1 25  1  0  0  0
  1 30  2  0  0  0
  1 80  1  0  0  0
  2  3  1  0  0  0
  2 25  1  0  0  0
  2 85  1  0  0  0
  2 86  1  0  0  0
  3  4  1  0  0  0
  3 87  1  0  0  0
  3 88  1  0  0  0
  4  5  1  0  0  0
  4 89  1  0  0  0
  4 90  1  0  0  0
  5  6  1  0  0  0
  5 26  1  0  0  0
  5 91  1  0  0  0
  6 25  1  0  0  0
  6 92  1  0  0  0
  6 93  1  0  0  0
  7  8  2  0  0  0
  7 26  1  0  0  0
  7 29  1  0  0  0
  8  9  1  0  0  0
  8 22  1  0  0  0
  9 10  1  0  0  0
  9 27  2  0  0  0
 10 11  2  0  0  0
 10 15  1  0  0  0
 11 12  1  0  0  0
 11 94  1  0  0  0
 12 13  2  0  0  0
 12 95  1  0  0  0
 13 14  1  0  0  0
 13 31  1  0  0  0
 14 15  2  0  0  0
 14 96  1  0  0  0
 15 97  1  0  0  0
 16 17  2  0  0  0
 16 21  1  0  0  0
 16 31  1  0  0  0
 17 18  1  0  0  0
 17 98  1  0  0  0
 18 19  2  0  0  0
 18 99  1  0  0  0
 19 20  1  0  0  0
 19 24  1  0  0  0
 20 21  2  0  0  0
 20100  1  0  0  0
 21 23  1  0  0  0
 22 28  1  0  0  0
 22 32  2  0  0  0
 26 27  1  0  0  0
 28101  1  0  0  0
 28102  1  0  0  0
 29103  1  0  0  0
 29104  1  0  0  0
 33 34  1  0  0  0
 33 66  1  0  0  0
 33 70  2  0  0  0
 34 36  1  0  0  0
 34 59  1  0  0  0
 34105  1  0  0  0
 35 44  2  0  0  0
 35 45  1  0  0  0
 35 68  1  0  0  0
 36 56  1  0  0  0
 36106  1  0  0  0
 37 39  1  0  0  0
 37 47  1  0  0  0
 37 66  1  0  0  0
 37107  1  0  0  0
 38 43  2  0  0  0
 38 46  1  0  0  0
 38 47  1  0  0  0
 39 64  1  0  0  0
 39 67  2  0  0  0
 40 52  1  0  0  0
 40 53  2  0  0  0
 40 58  1  0  0  0
 41108  1  0  0  0
 41109  1  0  0  0
 41110  1  0  0  0
 41 48  1  0  0  0
 42 43  1  0  0  0
 42 66  1  0  0  0
 42111  1  0  0  0
 42112  1  0  0  0
 43 44  1  0  0  0
 44113  1  0  0  0
 45 46  2  0  0  0
 45114  1  0  0  0
 46115  1  0  0  0
 47116  1  0  0  0
 47117  1  0  0  0
 48 56  1  0  0  0
 48 65  1  0  0  0
 48118  1  0  0  0
 49 50  1  0  0  0
 49 53  1  0  0  0
 49 64  1  0  0  0
 49119  1  0  0  0
 50 51  1  0  0  0
 50120  1  0  0  0
 50121  1  0  0  0
 51 52  1  0  0  0
 51122  1  0  0  0
 51123  1  0  0  0
 52124  1  0  0  0
 52125  1  0  0  0
 53 54  1  0  0  0
 54 55  2  0  0  0
 54126  1  0  0  0
 55 57  1  0  0  0
 55127  1  0  0  0
 56 69  2  0  0  0
 57 58  2  0  0  0
 57128  1  0  0  0
 58129  1  0  0  0
 59 60  1  0  0  0
 59 61  1  0  0  0
 59 62  1  0  0  0
 60130  1  0  0  0
 60131  1  0  0  0
 60132  1  0  0  0
 61133  1  0  0  0
 61134  1  0  0  0
 61135  1  0  0  0
 62136  1  0  0  0
 62137  1  0  0  0
 62138  1  0  0  0
 63 65  1  0  0  0
 63139  1  0  0  0
 63140  1  0  0  0
 63141  1  0  0  0
 64142  1  0  0  0
 65143  1  0  0  0
 68 79  1  0  0  0
 71 72  1  0  0  0
 71 73  2  0  0  0
 71144  1  0  0  0
 72 74  2  0  0  0
 72 75  1  0  0  0
 73 80  1  0  0  0
 73 84  1  0  0  0
 74 81  1  0  0  0
 74 84  1  0  0  0
 75 77  1  0  0  0
 75 82  2  0  0  0
 76 78  1  0  0  0
 76 79  1  0  0  0
 76 83  2  0  0  0
 77145  1  0  0  0
 77146  1  0  0  0
 77147  1  0  0  0
 78 81  1  0  0  0
 78148  1  0  0  0
 78149  1  0  0  0
 79150  1  0  0  0
 79151  1  0  0  0
 80152  1  0  0  0
 81153  1  0  0  0
M  ISO  4   1 100  68 101  79 101  80 100
M  END
> <chiral flag>
0

> <version>
0

> <s_m_source_file>
/data/baiqing/PycharmProjects/Reinvent-master-3.2/result/LINK_invent/BTK/process_docking_weight1_custom_product_contain_oxygen_bond_distance_aromatic_linkinvent_7_9_3/rearranged_h_0163.sdf

> <i_m_source_file_index>
77

> <r_mmod_Potential_Energy-OPLS-2005>
278.448608398438

> <r_mmod_Stretch_Energy-OPLS-2005>
146.208587646484

> <r_mmod_Bend_Energy-OPLS-2005>
201.892517089844

> <r_mmod_Torsional_Energy-OPLS-2005>
289.833801269531

> <r_mmod_Improper_Torsional_Energy-OPLS-2005>
8.71706962585449

> <r_mmod_Van_der_Waal_Energy-OPLS-2005>
109.623435974121

> <r_mmod_Electrostatic_Energy-OPLS-2005>
-320.613647460938

> <r_mmod_Solvation_Energy-OPLS-2005>
-263.498962402344

> <b_mmod_Minimization_Converged-OPLS-2005>
0

> <r_mmod_RMS_Derivative-OPLS-2005>
1.54404389858246

$$$$
77
                    3D
 Structure written by MMmdl.
158166  0  0  1  0            999 V2000
  -30.5983  -14.7691   20.4467 C   0  0  0  0  0  0
  -30.4247  -12.4641   19.4811 C   0  0  0  0  0  0
  -29.5093  -12.5024   18.2381 C   0  0  0  0  0  0
  -28.0352  -12.3277   18.6494 C   0  0  0  0  0  0
  -27.6363  -13.2334   19.8455 C   0  0  2  0  0  0
  -28.6773  -13.1811   20.9840 C   0  0  0  0  0  0
  -25.2471  -13.8176   20.5661 C   0  0  0  0  0  0
  -24.1769  -13.0422   20.9196 C   0  0  0  0  0  0
  -24.6364  -11.6903   20.8720 C   0  0  0  0  0  0
  -23.9045  -10.4285   21.0403 C   0  0  0  0  0  0
  -24.3613   -9.4198   21.9173 C   0  0  0  0  0  0
  -23.6279   -8.2237   22.0745 C   0  0  0  0  0  0
  -22.4256   -8.0283   21.3549 C   0  0  0  0  0  0
  -21.9904   -9.0253   20.4641 C   0  0  0  0  0  0
  -22.7231  -10.2125   20.3049 C   0  0  0  0  0  0
  -21.6858   -6.0712   22.5268 C   0  0  0  0  0  0
  -21.4027   -6.5623   23.8201 C   0  0  0  0  0  0
  -21.3658   -5.6780   24.9165 C   0  0  0  0  0  0
  -21.6041   -4.3044   24.7225 C   0  0  0  0  0  0
  -21.8822   -3.8124   23.4348 C   0  0  0  0  0  0
  -21.9200   -4.6938   22.3399 C   0  0  0  0  0  0
  -22.7800  -13.5222   21.1879 C   0  0  0  0  0  0
  -22.1664   -4.2127   21.0982 F   0  0  0  0  0  0
  -21.5631   -3.4527   25.7734 F   0  0  0  0  0  0
  -29.9763  -13.5375   20.4012 N   0  0  0  0  0  0
  -26.2893  -12.9388   20.3221 N   0  0  0  0  0  0
  -25.9294  -11.6530   20.5708 N   0  0  0  0  0  0
  -22.0469  -12.8194   22.0430 N   0  0  0  0  0  0
  -25.4165  -15.1898   20.4055 N   0  0  0  0  0  0
  -31.7942  -14.8294   20.1441 O   0  0  0  0  0  0
  -21.6649   -6.8854   21.4222 O   0  0  0  0  0  0
  -22.3489  -14.5535   20.6737 O   0  0  0  0  0  0
  -24.6334  -31.8569   23.1959 C   0  0  0  0  0  0
  -25.9153  -32.4772   23.8297 C   0  0  1  0  0  0
  -27.2079  -27.2514   20.1590 C   0  0  0  0  0  0
  -25.5964  -33.8560   24.2251 N   0  0  0  0  0  0
  -23.4273  -30.4802   21.5403 C   0  0  2  0  0  0
  -24.8711  -28.9162   20.1194 C   0  0  0  0  0  0
  -22.7503  -29.4649   22.4917 C   0  0  0  0  0  0
  -18.0306  -28.1444   22.8497 C   0  0  0  0  0  0
  -24.1486  -36.7257   23.2636 C   0  0  0  0  0  0
  -25.9711  -30.7702   21.3713 C   0  0  0  0  0  0
  -26.0422  -29.3857   20.7280 C   0  0  0  0  0  0
  -27.2166  -28.5679   20.7307 C   0  0  0  0  0  0
  -26.0180  -26.8427   19.5256 C   0  0  0  0  0  0
  -24.8627  -27.6517   19.5074 C   0  0  0  0  0  0
  -23.6453  -29.8104   20.1574 C   0  0  0  0  0  0
  -25.4113  -36.3073   24.0335 C   0  0  1  0  0  0
  -20.5907  -28.3737   23.1287 C   0  0  2  0  0  0
  -20.6805  -26.9461   22.5411 C   0  0  0  0  0  0
  -19.5771  -26.6436   21.5231 C   0  0  0  0  0  0
  -18.1944  -26.7991   22.1637 C   0  0  0  0  0  0
  -19.1554  -28.8908   23.2898 C   0  0  0  0  0  0
  -18.9475  -30.1505   23.8921 C   0  0  0  0  0  0
  -17.6472  -30.6626   24.0582 C   0  0  0  0  0  0
  -25.9056  -34.9445   23.5092 C   0  0  0  0  0  0
  -16.5364  -29.9124   23.6348 C   0  0  0  0  0  0
  -16.7294  -28.6553   23.0354 C   0  0  0  0  0  0
  -26.4521  -31.6579   25.0666 C   0  0  0  0  0  0
  -25.3753  -31.3729   26.1398 C   0  0  0  0  0  0
  -27.0352  -30.3001   24.6117 C   0  0  0  0  0  0
  -27.6089  -32.4306   25.7446 C   0  0  0  0  0  0
  -27.5579  -37.1791   24.8485 C   0  0  0  0  0  0
  -21.4212  -29.3059   22.3648 N   0  0  0  0  0  0
  -26.4293  -37.3764   23.9432 N   0  0  0  0  0  0
  -24.6966  -31.0543   22.0929 N   0  0  0  0  0  0
  -23.4210  -28.8190   23.3014 O   0  0  0  0  0  0
  -28.3269  -26.3940   20.1101 O   0  0  0  0  0  0
  -26.5608  -34.8928   22.4647 O   0  0  0  0  0  0
  -23.5484  -32.1378   23.7274 O   0  0  0  0  0  0
  -31.6698  -19.1585   19.7826 C   0  0  0  0  0  0
  -30.7038  -20.1691   19.9360 C   0  0  0  0  0  0
  -31.3705  -17.8053   20.0199 C   0  0  0  0  0  0
  -29.3924  -19.8820   20.3653 C   0  0  0  0  0  0
  -29.1096  -18.4601   20.6601 C   0  0  0  0  0  0
  -30.0894  -17.3820   20.4536 C   0  0  0  0  0  0
  -28.4314  -21.1018   20.3291 C   0  0  0  0  0  0
  -27.9808  -23.7043   20.3112 C   0  0  0  0  0  0
  -27.7545  -18.0478   21.2235 C   0  0  0  0  0  0
  -27.9040  -25.3197   22.3281 C   0  0  0  0  0  0
  -28.4652  -25.1187   20.9093 C   0  0  2  0  0  0
  -29.8190  -15.9147   20.6462 N   0  0  0  0  0  0
  -28.7679  -22.4429   20.5768 N   0  0  0  0  0  0
  -27.1809  -20.8404   19.9427 N   0  3  0  0  0  0
  -26.9182  -23.6355   19.6837 O   0  0  0  0  0  0
  -31.4676  -12.5806   19.1792 H   0  0  0  0  0  0
  -30.3636  -11.4915   19.9738 H   0  0  0  0  0  0
  -29.7980  -11.7213   17.5336 H   0  0  0  0  0  0
  -29.6341  -13.4485   17.7118 H   0  0  0  0  0  0
  -27.8921  -11.2797   18.9194 H   0  0  0  0  0  0
  -27.3831  -12.5182   17.7955 H   0  0  0  0  0  0
  -27.6262  -14.2517   19.4550 H   0  0  0  0  0  0
  -28.7141  -12.1886   21.4338 H   0  0  0  0  0  0
  -28.4047  -13.8690   21.7855 H   0  0  0  0  0  0
  -25.2764   -9.5686   22.4736 H   0  0  0  0  0  0
  -24.0002   -7.4636   22.7472 H   0  0  0  0  0  0
  -21.0838   -8.8760   19.8953 H   0  0  0  0  0  0
  -22.3687  -10.9655   19.6162 H   0  0  0  0  0  0
  -21.2023   -7.6132   23.9692 H   0  0  0  0  0  0
  -21.1488   -6.0517   25.9069 H   0  0  0  0  0  0
  -22.0607   -2.7586   23.2859 H   0  0  0  0  0  0
  -22.4115  -11.9870   22.4820 H   0  0  0  0  0  0
  -21.1087  -13.1197   22.2656 H   0  0  0  0  0  0
  -24.6396  -15.8330   20.5038 H   0  0  0  0  0  0
  -26.2397  -15.6165   20.0028 H   0  0  0  0  0  0
  -26.7211  -32.5434   23.1028 H   0  0  0  0  0  0
  -25.0165  -33.9674   25.0448 H   0  0  0  0  0  0
  -22.7241  -31.3026   21.3943 H   0  0  0  0  0  0
  -23.3766  -35.9568   23.3306 H   0  0  0  0  0  0
  -24.3557  -36.8859   22.2039 H   0  0  0  0  0  0
  -23.7204  -37.6456   23.6636 H   0  0  0  0  0  0
  -26.1000  -31.5202   20.5902 H   0  0  0  0  0  0
  -26.8553  -30.8307   21.9946 H   0  0  0  0  0  0
  -28.1215  -28.9312   21.1954 H   0  0  0  0  0  0
  -25.9742  -25.8769   19.0433 H   0  0  0  0  0  0
  -23.9660  -27.2898   19.0225 H   0  0  0  0  0  0
  -23.7757  -30.5860   19.4013 H   0  0  0  0  0  0
  -22.7596  -29.2491   19.8538 H   0  0  0  0  0  0
  -25.1282  -36.1905   25.0822 H   0  0  0  0  0  0
  -21.0028  -28.3335   24.1403 H   0  0  0  0  0  0
  -20.5755  -26.2337   23.3605 H   0  0  0  0  0  0
  -21.6662  -26.7517   22.1162 H   0  0  0  0  0  0
  -19.6906  -25.6349   21.1251 H   0  0  0  0  0  0
  -19.6716  -27.3261   20.6775 H   0  0  0  0  0  0
  -17.4214  -26.6773   21.4033 H   0  0  0  0  0  0
  -18.0326  -26.0145   22.9041 H   0  0  0  0  0  0
  -19.7935  -30.7337   24.2304 H   0  0  0  0  0  0
  -17.5009  -31.6309   24.5188 H   0  0  0  0  0  0
  -15.5359  -30.3025   23.7680 H   0  0  0  0  0  0
  -15.8701  -28.0887   22.7053 H   0  0  0  0  0  0
  -24.5957  -30.7029   25.7744 H   0  0  0  0  0  0
  -24.8903  -32.2893   26.4763 H   0  0  0  0  0  0
  -25.8094  -30.8963   27.0192 H   0  0  0  0  0  0
  -26.2907  -29.6756   24.1162 H   0  0  0  0  0  0
  -27.4077  -29.7247   25.4593 H   0  0  0  0  0  0
  -27.8762  -30.4285   23.9308 H   0  0  0  0  0  0
  -27.2727  -33.3626   26.1994 H   0  0  0  0  0  0
  -28.3934  -32.6831   25.0303 H   0  0  0  0  0  0
  -28.0716  -31.8427   26.5389 H   0  0  0  0  0  0
  -28.2633  -38.0059   24.7534 H   0  0  0  0  0  0
  -28.1055  -36.2601   24.6328 H   0  0  0  0  0  0
  -27.2310  -37.1453   25.8895 H   0  0  0  0  0  0
  -20.9408  -29.8715   21.6783 H   0  0  0  0  0  0
  -26.0178  -38.2839   24.1431 H   0  0  0  0  0  0
  -32.6624  -19.4243   19.4463 H   0  0  0  0  0  0
  -30.9791  -21.1837   19.6783 H   0  0  0  0  0  0
  -32.1718  -17.1069   19.8443 H   0  0  0  0  0  0
  -27.2732  -18.8538   21.7751 H   0  0  0  0  0  0
  -27.8667  -17.2287   21.9341 H   0  0  0  0  0  0
  -27.0853  -17.7143   20.4295 H   0  0  0  0  0  0
  -28.0403  -24.4274   22.9427 H   0  0  0  0  0  0
  -28.4027  -26.1503   22.8303 H   0  0  0  0  0  0
  -26.8358  -25.5382   22.3103 H   0  0  0  0  0  0
  -29.5445  -25.0044   21.0171 H   0  0  0  0  0  0
  -28.8642  -15.6980   20.8845 H   0  0  0  0  0  0
  -29.6596  -22.5083   21.0445 H   0  0  0  0  0  0
  -26.5377  -21.6085   19.7936 H   0  0  0  0  0  0
  -26.9216  -19.9061   19.6690 H   0  0  0  0  0  0
  1 25  1  0  0  0
  1 30  2  0  0  0
  1 82  1  0  0  0
  2  3  1  0  0  0
  2 25  1  0  0  0
  2 86  1  0  0  0
  2 87  1  0  0  0
  3  4  1  0  0  0
  3 88  1  0  0  0
  3 89  1  0  0  0
  4  5  1  0  0  0
  4 90  1  0  0  0
  4 91  1  0  0  0
  5  6  1  0  0  0
  5 26  1  0  0  0
  5 92  1  0  0  0
  6 25  1  0  0  0
  6 93  1  0  0  0
  6 94  1  0  0  0
  7  8  2  0  0  0
  7 26  1  0  0  0
  7 29  1  0  0  0
  8  9  1  0  0  0
  8 22  1  0  0  0
  9 10  1  0  0  0
  9 27  2  0  0  0
 10 11  2  0  0  0
 10 15  1  0  0  0
 11 12  1  0  0  0
 11 95  1  0  0  0
 12 13  2  0  0  0
 12 96  1  0  0  0
 13 14  1  0  0  0
 13 31  1  0  0  0
 14 15  2  0  0  0
 14 97  1  0  0  0
 15 98  1  0  0  0
 16 17  2  0  0  0
 16 21  1  0  0  0
 16 31  1  0  0  0
 17 18  1  0  0  0
 17 99  1  0  0  0
 18 19  2  0  0  0
 18100  1  0  0  0
 19 20  1  0  0  0
 19 24  1  0  0  0
 20 21  2  0  0  0
 20101  1  0  0  0
 21 23  1  0  0  0
 22 28  1  0  0  0
 22 32  2  0  0  0
 26 27  1  0  0  0
 28102  1  0  0  0
 28103  1  0  0  0
 29104  1  0  0  0
 29105  1  0  0  0
 33 34  1  0  0  0
 33 66  1  0  0  0
 33 70  2  0  0  0
 34 36  1  0  0  0
 34 59  1  0  0  0
 34106  1  0  0  0
 35 44  2  0  0  0
 35 45  1  0  0  0
 35 68  1  0  0  0
 36 56  1  0  0  0
 36107  1  0  0  0
 37 39  1  0  0  0
 37 47  1  0  0  0
 37 66  1  0  0  0
 37108  1  0  0  0
 38 43  2  0  0  0
 38 46  1  0  0  0
 38 47  1  0  0  0
 39 64  1  0  0  0
 39 67  2  0  0  0
 40 52  1  0  0  0
 40 53  2  0  0  0
 40 58  1  0  0  0
 41109  1  0  0  0
 41110  1  0  0  0
 41111  1  0  0  0
 41 48  1  0  0  0
 42 43  1  0  0  0
 42 66  1  0  0  0
 42112  1  0  0  0
 42113  1  0  0  0
 43 44  1  0  0  0
 44114  1  0  0  0
 45 46  2  0  0  0
 45115  1  0  0  0
 46116  1  0  0  0
 47117  1  0  0  0
 47118  1  0  0  0
 48 56  1  0  0  0
 48 65  1  0  0  0
 48119  1  0  0  0
 49 50  1  0  0  0
 49 53  1  0  0  0
 49 64  1  0  0  0
 49120  1  0  0  0
 50 51  1  0  0  0
 50121  1  0  0  0
 50122  1  0  0  0
 51 52  1  0  0  0
 51123  1  0  0  0
 51124  1  0  0  0
 52125  1  0  0  0
 52126  1  0  0  0
 53 54  1  0  0  0
 54 55  2  0  0  0
 54127  1  0  0  0
 55 57  1  0  0  0
 55128  1  0  0  0
 56 69  2  0  0  0
 57 58  2  0  0  0
 57129  1  0  0  0
 58130  1  0  0  0
 59 60  1  0  0  0
 59 61  1  0  0  0
 59 62  1  0  0  0
 60131  1  0  0  0
 60132  1  0  0  0
 60133  1  0  0  0
 61134  1  0  0  0
 61135  1  0  0  0
 61136  1  0  0  0
 62137  1  0  0  0
 62138  1  0  0  0
 62139  1  0  0  0
 63 65  1  0  0  0
 63140  1  0  0  0
 63141  1  0  0  0
 63142  1  0  0  0
 64143  1  0  0  0
 65144  1  0  0  0
 68 81  1  0  0  0
 71 72  2  0  0  0
 71 73  1  0  0  0
 71145  1  0  0  0
 72 74  1  0  0  0
 72146  1  0  0  0
 73 76  2  0  0  0
 73147  1  0  0  0
 74 75  2  0  0  0
 74 77  1  0  0  0
 75 76  1  0  0  0
 75 79  1  0  0  0
 76 82  1  0  0  0
 77 83  1  0  0  0
 77 84  2  0  0  0
 78 81  1  0  0  0
 78 83  1  0  0  0
 78 85  2  0  0  0
 79148  1  0  0  0
 79149  1  0  0  0
 79150  1  0  0  0
 80151  1  0  0  0
 80152  1  0  0  0
 80153  1  0  0  0
 80 81  1  0  0  0
 81154  1  0  0  0
 82155  1  0  0  0
 83156  1  0  0  0
 84157  1  0  0  0
 84158  1  0  0  0
M  CHG  1  84   1
M  ISO  4   1 100  68 101  81 101  82 100
M  END
> <chiral flag>
0

> <version>
0

> <s_m_source_file>
/data/baiqing/PycharmProjects/Reinvent-master-3.2/result/LINK_invent/BTK/process_docking_weight1_custom_product_contain_oxygen_bond_distance_aromatic_linkinvent_7_9_3/rearranged_h_0163.sdf

> <i_m_source_file_index>
78

> <r_mmod_Potential_Energy-OPLS-2005>
-71.4318161010742

> <r_mmod_Stretch_Energy-OPLS-2005>
147.775619506836

> <r_mmod_Bend_Energy-OPLS-2005>
192.230224609375

> <r_mmod_Torsional_Energy-OPLS-2005>
241.246231079102

> <r_mmod_Improper_Torsional_Energy-OPLS-2005>
6.16606330871582

> <r_mmod_Van_der_Waal_Energy-OPLS-2005>
145.961608886719

> <r_mmod_Electrostatic_Energy-OPLS-2005>
-450.054290771484

> <r_mmod_Solvation_Energy-OPLS-2005>
-442.948364257812

> <b_mmod_Minimization_Converged-OPLS-2005>
0

> <r_mmod_RMS_Derivative-OPLS-2005>
3.15674662590027

$$$$
78
                    3D
 Structure written by MMmdl.
171180  0  0  1  0            999 V2000
  -30.7167  -14.4753   20.5993 C   0  0  0  0  0  0
  -30.4226  -12.3215   19.4171 C   0  0  0  0  0  0
  -29.4916  -12.5065   18.2024 C   0  0  0  0  0  0
  -28.0150  -12.3604   18.6195 C   0  0  0  0  0  0
  -27.6590  -13.2080   19.8705 C   0  0  2  0  0  0
  -28.7024  -13.0037   20.9913 C   0  0  0  0  0  0
  -25.2581  -13.8165   20.5675 C   0  0  0  0  0  0
  -24.1837  -13.0440   20.9182 C   0  0  0  0  0  0
  -24.6390  -11.6907   20.8740 C   0  0  0  0  0  0
  -23.9059  -10.4294   21.0407 C   0  0  0  0  0  0
  -24.3615   -9.4208   21.9184 C   0  0  0  0  0  0
  -23.6293   -8.2244   22.0752 C   0  0  0  0  0  0
  -22.4273   -8.0281   21.3548 C   0  0  0  0  0  0
  -21.9908   -9.0253   20.4647 C   0  0  0  0  0  0
  -22.7234  -10.2132   20.3055 C   0  0  0  0  0  0
  -21.6852   -6.0738   22.5279 C   0  0  0  0  0  0
  -21.4011   -6.5641   23.8213 C   0  0  0  0  0  0
  -21.3660   -5.6793   24.9176 C   0  0  0  0  0  0
  -21.6045   -4.3057   24.7225 C   0  0  0  0  0  0
  -21.8821   -3.8148   23.4348 C   0  0  0  0  0  0
  -21.9194   -4.6965   22.3404 C   0  0  0  0  0  0
  -22.7863  -13.5241   21.1851 C   0  0  0  0  0  0
  -22.1662   -4.2153   21.0982 F   0  0  0  0  0  0
  -21.5630   -3.4537   25.7737 F   0  0  0  0  0  0
  -30.0289  -13.3118   20.4312 N   0  0  0  0  0  0
  -26.3010  -12.9333   20.3350 N   0  0  0  0  0  0
  -25.9316  -11.6494   20.5769 N   0  0  0  0  0  0
  -22.0500  -12.8229   22.0401 N   0  0  0  0  0  0
  -25.4312  -15.1882   20.4073 N   0  0  0  0  0  0
  -31.8494  -14.6490   20.1393 O   0  0  0  0  0  0
  -21.6641   -6.8877   21.4242 O   0  0  0  0  0  0
  -22.3555  -14.5552   20.6707 O   0  0  0  0  0  0
  -24.6177  -31.8666   23.2108 C   0  0  0  0  0  0
  -25.9058  -32.4816   23.8401 C   0  0  1  0  0  0
  -27.2223  -27.4062   20.0943 C   0  0  0  0  0  0
  -25.5908  -33.8618   24.2323 N   0  0  0  0  0  0
  -23.4063  -30.4950   21.5520 C   0  0  2  0  0  0
  -24.8498  -28.9672   20.1100 C   0  0  0  0  0  0
  -22.7429  -29.4660   22.4966 C   0  0  0  0  0  0
  -18.0275  -28.1376   22.8499 C   0  0  0  0  0  0
  -24.1487  -36.7310   23.2639 C   0  0  0  0  0  0
  -25.9414  -30.8250   21.3688 C   0  0  0  0  0  0
  -26.0157  -29.4614   20.7083 C   0  0  0  0  0  0
  -27.2070  -28.6912   20.6945 C   0  0  0  0  0  0
  -26.0342  -26.9487   19.4717 C   0  0  0  0  0  0
  -24.8557  -27.7114   19.4871 C   0  0  0  0  0  0
  -23.6147  -29.8368   20.1642 C   0  0  0  0  0  0
  -25.4106  -36.3104   24.0339 C   0  0  1  0  0  0
  -20.5872  -28.3663   23.1308 C   0  0  2  0  0  0
  -20.6767  -26.9395   22.5411 C   0  0  0  0  0  0
  -19.5743  -26.6377   21.5212 C   0  0  0  0  0  0
  -18.1922  -26.7924   22.1622 C   0  0  0  0  0  0
  -19.1528  -28.8834   23.2901 C   0  0  0  0  0  0
  -18.9452  -30.1442   23.8902 C   0  0  0  0  0  0
  -17.6456  -30.6581   24.0568 C   0  0  0  0  0  0
  -25.9038  -34.9474   23.5126 C   0  0  0  0  0  0
  -16.5345  -29.9088   23.6330 C   0  0  0  0  0  0
  -16.7263  -28.6504   23.0350 C   0  0  0  0  0  0
  -26.4476  -31.6605   25.0736 C   0  0  0  0  0  0
  -25.3743  -31.3737   26.1489 C   0  0  0  0  0  0
  -27.0292  -30.3040   24.6128 C   0  0  0  0  0  0
  -27.6039  -32.4336   25.7495 C   0  0  0  0  0  0
  -27.5578  -37.1804   24.8464 C   0  0  0  0  0  0
  -21.4150  -29.3031   22.3713 N   0  0  0  0  0  0
  -26.4288  -37.3789   23.9415 N   0  0  0  0  0  0
  -24.6738  -31.0760   22.1013 N   0  0  0  0  0  0
  -23.4200  -28.8185   23.2997 O   0  0  0  0  0  0
  -28.3591  -26.6090   20.1452 O   0  0  0  0  0  0
  -26.5594  -34.8923   22.4684 O   0  0  0  0  0  0
  -23.5361  -32.1413   23.7492 O   0  0  0  0  0  0
  -32.0936  -17.9849   23.0212 C   0  0  0  0  0  0
  -31.6957  -16.7861   22.4058 C   0  0  0  0  0  0
  -29.7727  -17.9361   21.4681 C   0  0  0  0  0  0
  -31.3388  -19.1758   22.8904 C   0  0  0  0  0  0
  -30.1757  -19.1707   22.0572 C   0  0  0  0  0  0
  -30.5137  -16.7390   21.6415 C   0  0  0  0  0  0
  -28.8093  -22.8817   21.1218 C   0  0  0  0  0  0
  -29.8127  -21.7118   21.2099 C   0  0  0  0  0  0
  -29.2314  -24.2650   20.5643 C   0  0  0  0  0  0
  -33.6621  -22.0145   24.3090 C   0  0  0  0  0  0
  -33.3790  -21.7323   25.7932 C   0  0  0  0  0  0
  -33.2551  -20.8071   23.4471 C   0  0  0  0  0  0
  -31.9108  -21.3178   26.0068 C   0  0  0  0  0  0
  -31.7855  -20.3965   23.7116 C   0  0  2  0  0  0
  -29.2584  -20.4090   21.8616 C   0  0  0  0  0  0
  -28.0857  -25.1841   20.0775 C   0  0  0  0  0  0
  -27.6187  -22.6778   21.5218 N   0  0  0  0  0  0
  -31.0176  -21.7747   20.8146 N   0  0  0  0  0  0
  -30.0156  -15.4930   21.1434 N   0  0  0  0  0  0
  -31.5523  -20.1609   25.1549 N   0  3  0  0  0  0
  -30.4072  -24.6437   20.4709 O   0  0  0  0  0  0
  -31.4657  -12.4245   19.1122 H   0  0  0  0  0  0
  -30.3298  -11.3130   19.8232 H   0  0  0  0  0  0
  -29.7338  -11.7772   17.4283 H   0  0  0  0  0  0
  -29.6530  -13.4901   17.7593 H   0  0  0  0  0  0
  -27.8331  -11.3050   18.8241 H   0  0  0  0  0  0
  -27.3604  -12.6245   17.7876 H   0  0  0  0  0  0
  -27.6976  -14.2535   19.5637 H   0  0  0  0  0  0
  -28.6848  -11.9715   21.3441 H   0  0  0  0  0  0
  -28.4624  -13.6135   21.8632 H   0  0  0  0  0  0
  -25.2760   -9.5688   22.4755 H   0  0  0  0  0  0
  -24.0007   -7.4635   22.7465 H   0  0  0  0  0  0
  -21.0843   -8.8773   19.8950 H   0  0  0  0  0  0
  -22.3696  -10.9674   19.6163 H   0  0  0  0  0  0
  -21.1998   -7.6146   23.9719 H   0  0  0  0  0  0
  -21.1480   -6.0521   25.9081 H   0  0  0  0  0  0
  -22.0598   -2.7610   23.2845 H   0  0  0  0  0  0
  -22.4106  -11.9880   22.4780 H   0  0  0  0  0  0
  -21.1120  -13.1265   22.2610 H   0  0  0  0  0  0
  -24.6640  -15.8438   20.5053 H   0  0  0  0  0  0
  -26.2816  -15.6234   20.0731 H   0  0  0  0  0  0
  -26.7130  -32.5505   23.1159 H   0  0  0  0  0  0
  -25.0076  -33.9789   25.0483 H   0  0  0  0  0  0
  -22.6957  -31.3131   21.4164 H   0  0  0  0  0  0
  -23.3740  -35.9650   23.3310 H   0  0  0  0  0  0
  -24.3592  -36.8909   22.2050 H   0  0  0  0  0  0
  -23.7248  -37.6523   23.6649 H   0  0  0  0  0  0
  -26.0633  -31.5934   20.6038 H   0  0  0  0  0  0
  -26.8271  -30.8692   21.9912 H   0  0  0  0  0  0
  -28.1042  -29.0656   21.1670 H   0  0  0  0  0  0
  -25.9835  -25.9936   18.9699 H   0  0  0  0  0  0
  -23.9611  -27.3268   19.0161 H   0  0  0  0  0  0
  -23.7279  -30.6169   19.4104 H   0  0  0  0  0  0
  -22.7362  -29.2620   19.8639 H   0  0  0  0  0  0
  -25.1280  -36.1962   25.0830 H   0  0  0  0  0  0
  -20.9966  -28.3216   24.1425 H   0  0  0  0  0  0
  -20.5666  -26.2263   23.3596 H   0  0  0  0  0  0
  -21.6637  -26.7434   22.1195 H   0  0  0  0  0  0
  -19.6915  -25.6290   21.1227 H   0  0  0  0  0  0
  -19.6691  -27.3199   20.6754 H   0  0  0  0  0  0
  -17.4194  -26.6671   21.4021 H   0  0  0  0  0  0
  -18.0323  -26.0064   22.9015 H   0  0  0  0  0  0
  -19.7930  -30.7265   24.2257 H   0  0  0  0  0  0
  -17.5013  -31.6263   24.5172 H   0  0  0  0  0  0
  -15.5346  -30.2998   23.7653 H   0  0  0  0  0  0
  -15.8658  -28.0835   22.7052 H   0  0  0  0  0  0
  -24.5905  -30.7089   25.7845 H   0  0  0  0  0  0
  -24.8948  -32.2905   26.4930 H   0  0  0  0  0  0
  -25.8095  -30.8915   27.0252 H   0  0  0  0  0  0
  -26.2834  -29.6822   24.1161 H   0  0  0  0  0  0
  -27.4025  -29.7262   25.4592 H   0  0  0  0  0  0
  -27.8699  -30.4340   23.9309 H   0  0  0  0  0  0
  -27.2640  -33.3626   26.2090 H   0  0  0  0  0  0
  -28.3838  -32.6917   25.0320 H   0  0  0  0  0  0
  -28.0728  -31.8459   26.5396 H   0  0  0  0  0  0
  -28.2589  -38.0107   24.7503 H   0  0  0  0  0  0
  -28.1071  -36.2632   24.6282 H   0  0  0  0  0  0
  -27.2304  -37.1447   25.8871 H   0  0  0  0  0  0
  -20.9297  -29.8774   21.6963 H   0  0  0  0  0  0
  -26.0171  -38.2862   24.1419 H   0  0  0  0  0  0
  -32.9816  -17.9611   23.6365 H   0  0  0  0  0  0
  -32.2834  -15.8936   22.5702 H   0  0  0  0  0  0
  -28.8599  -17.8991   20.8885 H   0  0  0  0  0  0
  -34.7187  -22.2419   24.1634 H   0  0  0  0  0  0
  -33.1093  -22.8993   23.9895 H   0  0  0  0  0  0
  -33.6045  -22.6167   26.3903 H   0  0  0  0  0  0
  -34.0413  -20.9440   26.1542 H   0  0  0  0  0  0
  -33.9363  -19.9825   23.6558 H   0  0  0  0  0  0
  -33.3857  -21.0480   22.3913 H   0  0  0  0  0  0
  -31.2489  -22.1550   25.7782 H   0  0  0  0  0  0
  -31.7372  -21.0633   27.0528 H   0  0  0  0  0  0
  -31.1673  -21.2544   23.4649 H   0  0  0  0  0  0
  -28.8664  -20.6615   22.8475 H   0  0  0  0  0  0
  -28.3904  -20.0936   21.2812 H   0  0  0  0  0  0
  -27.1928  -24.9703   20.6660 H   0  0  0  0  0  0
  -27.8681  -24.9087   19.0454 H   0  0  0  0  0  0
  -27.4871  -21.7318   21.8554 H   0  0  0  0  0  0
  -31.2294  -22.6965   20.4412 H   0  0  0  0  0  0
  -29.0291  -15.3233   21.2648 H   0  0  0  0  0  0
  -30.5781  -19.9465   25.2954 H   0  0  0  0  0  0
  -32.0795  -19.3579   25.4542 H   0  0  0  0  0  0
  1 25  1  0  0  0
  1 30  2  0  0  0
  1 89  1  0  0  0
  2  3  1  0  0  0
  2 25  1  0  0  0
  2 92  1  0  0  0
  2 93  1  0  0  0
  3  4  1  0  0  0
  3 94  1  0  0  0
  3 95  1  0  0  0
  4  5  1  0  0  0
  4 96  1  0  0  0
  4 97  1  0  0  0
  5  6  1  0  0  0
  5 26  1  0  0  0
  5 98  1  0  0  0
  6 25  1  0  0  0
  6 99  1  0  0  0
  6100  1  0  0  0
  7  8  2  0  0  0
  7 26  1  0  0  0
  7 29  1  0  0  0
  8  9  1  0  0  0
  8 22  1  0  0  0
  9 10  1  0  0  0
  9 27  2  0  0  0
 10 11  2  0  0  0
 10 15  1  0  0  0
 11 12  1  0  0  0
 11101  1  0  0  0
 12 13  2  0  0  0
 12102  1  0  0  0
 13 14  1  0  0  0
 13 31  1  0  0  0
 14 15  2  0  0  0
 14103  1  0  0  0
 15104  1  0  0  0
 16 17  2  0  0  0
 16 21  1  0  0  0
 16 31  1  0  0  0
 17 18  1  0  0  0
 17105  1  0  0  0
 18 19  2  0  0  0
 18106  1  0  0  0
 19 20  1  0  0  0
 19 24  1  0  0  0
 20 21  2  0  0  0
 20107  1  0  0  0
 21 23  1  0  0  0
 22 28  1  0  0  0
 22 32  2  0  0  0
 26 27  1  0  0  0
 28108  1  0  0  0
 28109  1  0  0  0
 29110  1  0  0  0
 29111  1  0  0  0
 33 34  1  0  0  0
 33 66  1  0  0  0
 33 70  2  0  0  0
 34 36  1  0  0  0
 34 59  1  0  0  0
 34112  1  0  0  0
 35 44  2  0  0  0
 35 45  1  0  0  0
 35 68  1  0  0  0
 36 56  1  0  0  0
 36113  1  0  0  0
 37 39  1  0  0  0
 37 47  1  0  0  0
 37 66  1  0  0  0
 37114  1  0  0  0
 38 43  2  0  0  0
 38 46  1  0  0  0
 38 47  1  0  0  0
 39 64  1  0  0  0
 39 67  2  0  0  0
 40 52  1  0  0  0
 40 53  2  0  0  0
 40 58  1  0  0  0
 41115  1  0  0  0
 41116  1  0  0  0
 41117  1  0  0  0
 41 48  1  0  0  0
 42 43  1  0  0  0
 42 66  1  0  0  0
 42118  1  0  0  0
 42119  1  0  0  0
 43 44  1  0  0  0
 44120  1  0  0  0
 45 46  2  0  0  0
 45121  1  0  0  0
 46122  1  0  0  0
 47123  1  0  0  0
 47124  1  0  0  0
 48 56  1  0  0  0
 48 65  1  0  0  0
 48125  1  0  0  0
 49 50  1  0  0  0
 49 53  1  0  0  0
 49 64  1  0  0  0
 49126  1  0  0  0
 50 51  1  0  0  0
 50127  1  0  0  0
 50128  1  0  0  0
 51 52  1  0  0  0
 51129  1  0  0  0
 51130  1  0  0  0
 52131  1  0  0  0
 52132  1  0  0  0
 53 54  1  0  0  0
 54 55  2  0  0  0
 54133  1  0  0  0
 55 57  1  0  0  0
 55134  1  0  0  0
 56 69  2  0  0  0
 57 58  2  0  0  0
 57135  1  0  0  0
 58136  1  0  0  0
 59 60  1  0  0  0
 59 61  1  0  0  0
 59 62  1  0  0  0
 60137  1  0  0  0
 60138  1  0  0  0
 60139  1  0  0  0
 61140  1  0  0  0
 61141  1  0  0  0
 61142  1  0  0  0
 62143  1  0  0  0
 62144  1  0  0  0
 62145  1  0  0  0
 63 65  1  0  0  0
 63146  1  0  0  0
 63147  1  0  0  0
 63148  1  0  0  0
 64149  1  0  0  0
 65150  1  0  0  0
 68 86  1  0  0  0
 71 72  2  0  0  0
 71 74  1  0  0  0
 71151  1  0  0  0
 72 76  1  0  0  0
 72152  1  0  0  0
 73 75  1  0  0  0
 73 76  2  0  0  0
 73153  1  0  0  0
 74 75  2  0  0  0
 74 84  1  0  0  0
 75 85  1  0  0  0
 76 89  1  0  0  0
 77 78  1  0  0  0
 77 79  1  0  0  0
 77 87  2  0  0  0
 78 85  1  0  0  0
 78 88  2  0  0  0
 79 86  1  0  0  0
 79 91  2  0  0  0
 80 81  1  0  0  0
 80 82  1  0  0  0
 80154  1  0  0  0
 80155  1  0  0  0
 81 83  1  0  0  0
 81156  1  0  0  0
 81157  1  0  0  0
 82 84  1  0  0  0
 82158  1  0  0  0
 82159  1  0  0  0
 83 90  1  0  0  0
 83160  1  0  0  0
 83161  1  0  0  0
 84 90  1  0  0  0
 84162  1  0  0  0
 85163  1  0  0  0
 85164  1  0  0  0
 86165  1  0  0  0
 86166  1  0  0  0
 87167  1  0  0  0
 88168  1  0  0  0
 89169  1  0  0  0
 90170  1  0  0  0
 90171  1  0  0  0
M  CHG  1  90   1
M  ISO  4   1 100  68 101  86 101  89 100
M  END
> <chiral flag>
0

> <version>
0

> <s_m_source_file>
/data/baiqing/PycharmProjects/Reinvent-master-3.2/result/LINK_invent/BTK/process_docking_weight1_custom_product_contain_oxygen_bond_distance_aromatic_linkinvent_7_9_3/rearranged_h_0163.sdf

> <i_m_source_file_index>
79

> <r_mmod_Potential_Energy-OPLS-2005>
-33.4487609863281

> <r_mmod_Stretch_Energy-OPLS-2005>
57.168888092041

> <r_mmod_Bend_Energy-OPLS-2005>
110.116630554199

> <r_mmod_Torsional_Energy-OPLS-2005>
251.33349609375

> <r_mmod_Improper_Torsional_Energy-OPLS-2005>
4.48921823501587

> <r_mmod_Van_der_Waal_Energy-OPLS-2005>
177.064071655273

> <r_mmod_Electrostatic_Energy-OPLS-2005>
-153.682525634766

> <r_mmod_Solvation_Energy-OPLS-2005>
-497.811279296875

> <b_mmod_Minimization_Converged-OPLS-2005>
0

> <r_mmod_RMS_Derivative-OPLS-2005>
1.25477719306946

$$$$
79
                    3D
 Structure written by MMmdl.
161169  0  0  1  0            999 V2000
  -30.7169  -14.4609   20.6350 C   0  0  0  0  0  0
  -30.4185  -12.3249   19.4144 C   0  0  0  0  0  0
  -29.4896  -12.5175   18.1988 C   0  0  0  0  0  0
  -28.0145  -12.3566   18.6108 C   0  0  0  0  0  0
  -27.6548  -13.2056   19.8570 C   0  0  2  0  0  0
  -28.6858  -12.9873   20.9806 C   0  0  0  0  0  0
  -25.2571  -13.8170   20.5624 C   0  0  0  0  0  0
  -24.1838  -13.0448   20.9151 C   0  0  0  0  0  0
  -24.6383  -11.6913   20.8704 C   0  0  0  0  0  0
  -23.9050  -10.4294   21.0391 C   0  0  0  0  0  0
  -24.3614   -9.4218   21.9172 C   0  0  0  0  0  0
  -23.6296   -8.2253   22.0750 C   0  0  0  0  0  0
  -22.4267   -8.0292   21.3551 C   0  0  0  0  0  0
  -21.9901   -9.0256   20.4649 C   0  0  0  0  0  0
  -22.7218  -10.2136   20.3049 C   0  0  0  0  0  0
  -21.6864   -6.0756   22.5291 C   0  0  0  0  0  0
  -21.4029   -6.5651   23.8226 C   0  0  0  0  0  0
  -21.3650   -5.6789   24.9178 C   0  0  0  0  0  0
  -21.6043   -4.3055   24.7218 C   0  0  0  0  0  0
  -21.8814   -3.8158   23.4335 C   0  0  0  0  0  0
  -21.9186   -4.6987   22.3399 C   0  0  0  0  0  0
  -22.7863  -13.5238   21.1832 C   0  0  0  0  0  0
  -22.1656   -4.2176   21.0977 F   0  0  0  0  0  0
  -21.5614   -3.4534   25.7728 F   0  0  0  0  0  0
  -30.0220  -13.3007   20.4448 N   0  0  0  0  0  0
  -26.2978  -12.9331   20.3231 N   0  0  0  0  0  0
  -25.9292  -11.6492   20.5671 N   0  0  0  0  0  0
  -22.0504  -12.8247   22.0413 N   0  0  0  0  0  0
  -25.4302  -15.1889   20.4053 N   0  0  0  0  0  0
  -31.8118  -14.6682   20.0996 O   0  0  0  0  0  0
  -21.6637   -6.8896   21.4250 O   0  0  0  0  0  0
  -22.3532  -14.5520   20.6655 O   0  0  0  0  0  0
  -24.6154  -31.8676   23.2055 C   0  0  0  0  0  0
  -25.9053  -32.4815   23.8349 C   0  0  1  0  0  0
  -27.2279  -27.4154   20.1165 C   0  0  0  0  0  0
  -25.5906  -33.8611   24.2298 N   0  0  0  0  0  0
  -23.4048  -30.4887   21.5458 C   0  0  2  0  0  0
  -24.8526  -28.9523   20.1113 C   0  0  0  0  0  0
  -22.7416  -29.4656   22.4965 C   0  0  0  0  0  0
  -18.0277  -28.1386   22.8488 C   0  0  0  0  0  0
  -24.1488  -36.7296   23.2624 C   0  0  0  0  0  0
  -25.9332  -30.8293   21.3601 C   0  0  0  0  0  0
  -26.0129  -29.4617   20.7092 C   0  0  0  0  0  0
  -27.2081  -28.7038   20.7021 C   0  0  0  0  0  0
  -26.0560  -26.9246   19.5048 C   0  0  0  0  0  0
  -24.8698  -27.6851   19.5006 C   0  0  0  0  0  0
  -23.6149  -29.8209   20.1602 C   0  0  0  0  0  0
  -25.4107  -36.3101   24.0325 C   0  0  1  0  0  0
  -20.5867  -28.3683   23.1304 C   0  0  2  0  0  0
  -20.6763  -26.9419   22.5407 C   0  0  0  0  0  0
  -19.5747  -26.6392   21.5201 C   0  0  0  0  0  0
  -18.1928  -26.7926   22.1624 C   0  0  0  0  0  0
  -19.1526  -28.8849   23.2891 C   0  0  0  0  0  0
  -18.9457  -30.1444   23.8913 C   0  0  0  0  0  0
  -17.6462  -30.6585   24.0571 C   0  0  0  0  0  0
  -25.9036  -34.9469   23.5105 C   0  0  0  0  0  0
  -16.5349  -29.9098   23.6320 C   0  0  0  0  0  0
  -16.7268  -28.6516   23.0341 C   0  0  0  0  0  0
  -26.4477  -31.6594   25.0678 C   0  0  0  0  0  0
  -25.3750  -31.3738   26.1441 C   0  0  0  0  0  0
  -27.0288  -30.3019   24.6052 C   0  0  0  0  0  0
  -27.6052  -32.4312   25.7450 C   0  0  0  0  0  0
  -27.5575  -37.1799   24.8463 C   0  0  0  0  0  0
  -21.4142  -29.3044   22.3707 N   0  0  0  0  0  0
  -26.4299  -37.3781   23.9410 N   0  0  0  0  0  0
  -24.6688  -31.0766   22.0960 N   0  0  0  0  0  0
  -23.4180  -28.8211   23.3025 O   0  0  0  0  0  0
  -28.3664  -26.6355   20.1389 O   0  0  0  0  0  0
  -26.5602  -34.8929   22.4665 O   0  0  0  0  0  0
  -23.5345  -32.1441   23.7440 O   0  0  0  0  0  0
  -29.4079  -18.5947   19.2371 C   0  0  0  0  0  0
  -29.4567  -17.9053   21.4862 C   0  0  0  0  0  0
  -29.3107  -19.0023   20.5401 C   0  0  0  0  0  0
  -29.7938  -16.6779   20.8818 C   0  0  0  0  0  0
  -29.2914  -18.1252   22.9242 C   0  0  0  0  0  0
  -28.7027  -22.8131   20.9425 C   0  0  0  0  0  0
  -29.0473  -21.5034   20.1493 C   0  0  0  0  0  0
  -26.9942  -17.1264   23.4448 C   0  0  0  0  0  0
  -30.2251  -15.1805   22.8435 C   0  0  0  0  0  0
  -27.8521  -18.3992   23.3691 C   0  0  0  0  0  0
  -28.7786  -24.1501   20.1566 C   0  0  0  0  0  0
  -28.2501  -25.4097   20.9022 C   0  0  0  0  0  0
  -29.0658  -20.3818   20.9165 N   0  0  0  0  0  0
  -30.1211  -15.4239   21.3967 N   0  0  0  0  0  0
  -30.1915  -18.1194   23.7682 O   0  0  0  0  0  0
  -28.3931  -22.7828   22.1414 O   0  0  0  0  0  0
  -29.2843  -21.5346   18.9374 O   0  0  0  0  0  0
  -29.7028  -16.8921   19.1288 S   0  0  0  0  0  0
  -31.4605  -12.4359   19.1101 H   0  0  0  0  0  0
  -30.3323  -11.3113   19.8102 H   0  0  0  0  0  0
  -29.7414  -11.7997   17.4165 H   0  0  0  0  0  0
  -29.6440  -13.5084   17.7668 H   0  0  0  0  0  0
  -27.8410  -11.2989   18.8199 H   0  0  0  0  0  0
  -27.3585  -12.6123   17.7782 H   0  0  0  0  0  0
  -27.7011  -14.2518   19.5552 H   0  0  0  0  0  0
  -28.6627  -11.9517   21.3205 H   0  0  0  0  0  0
  -28.4088  -13.5831   21.8483 H   0  0  0  0  0  0
  -25.2768   -9.5702   22.4733 H   0  0  0  0  0  0
  -24.0024   -7.4640   22.7458 H   0  0  0  0  0  0
  -21.0834   -8.8755   19.8961 H   0  0  0  0  0  0
  -22.3664  -10.9672   19.6157 H   0  0  0  0  0  0
  -21.2056   -7.6163   23.9744 H   0  0  0  0  0  0
  -21.1465   -6.0521   25.9080 H   0  0  0  0  0  0
  -22.0602   -2.7628   23.2821 H   0  0  0  0  0  0
  -22.4106  -11.9943   22.4861 H   0  0  0  0  0  0
  -21.1128  -13.1317   22.2576 H   0  0  0  0  0  0
  -24.6672  -15.8449   20.5264 H   0  0  0  0  0  0
  -26.2843  -15.6282   20.0882 H   0  0  0  0  0  0
  -26.7121  -32.5532   23.1110 H   0  0  0  0  0  0
  -25.0105  -33.9769   25.0477 H   0  0  0  0  0  0
  -22.6933  -31.3049   21.4042 H   0  0  0  0  0  0
  -23.3745  -35.9633   23.3309 H   0  0  0  0  0  0
  -24.3575  -36.8885   22.2031 H   0  0  0  0  0  0
  -23.7246  -37.6507   23.6631 H   0  0  0  0  0  0
  -26.0439  -31.5938   20.5904 H   0  0  0  0  0  0
  -26.8201  -30.8834   21.9788 H   0  0  0  0  0  0
  -28.1039  -29.0911   21.1675 H   0  0  0  0  0  0
  -26.0587  -25.9493   19.0398 H   0  0  0  0  0  0
  -23.9801  -27.2883   19.0301 H   0  0  0  0  0  0
  -23.7238  -30.5945   19.3992 H   0  0  0  0  0  0
  -22.7395  -29.2395   19.8657 H   0  0  0  0  0  0
  -25.1282  -36.1944   25.0816 H   0  0  0  0  0  0
  -20.9961  -28.3250   24.1427 H   0  0  0  0  0  0
  -20.5666  -26.2296   23.3603 H   0  0  0  0  0  0
  -21.6640  -26.7459   22.1207 H   0  0  0  0  0  0
  -19.6913  -25.6306   21.1228 H   0  0  0  0  0  0
  -19.6673  -27.3215   20.6740 H   0  0  0  0  0  0
  -17.4193  -26.6659   21.4033 H   0  0  0  0  0  0
  -18.0343  -26.0067   22.9026 H   0  0  0  0  0  0
  -19.7932  -30.7250   24.2298 H   0  0  0  0  0  0
  -17.5022  -31.6277   24.5175 H   0  0  0  0  0  0
  -15.5355  -30.3024   23.7618 H   0  0  0  0  0  0
  -15.8661  -28.0847   22.7041 H   0  0  0  0  0  0
  -24.5911  -30.7083   25.7802 H   0  0  0  0  0  0
  -24.8968  -32.2932   26.4844 H   0  0  0  0  0  0
  -25.8110  -30.8950   27.0218 H   0  0  0  0  0  0
  -26.2834  -29.6813   24.1072 H   0  0  0  0  0  0
  -27.4011  -29.7203   25.4492 H   0  0  0  0  0  0
  -27.8686  -30.4299   23.9216 H   0  0  0  0  0  0
  -27.2647  -33.3579   26.2068 H   0  0  0  0  0  0
  -28.3851  -32.6923   25.0291 H   0  0  0  0  0  0
  -28.0743  -31.8423   26.5343 H   0  0  0  0  0  0
  -28.2607  -38.0078   24.7511 H   0  0  0  0  0  0
  -28.1055  -36.2618   24.6300 H   0  0  0  0  0  0
  -27.2301  -37.1458   25.8866 H   0  0  0  0  0  0
  -20.9300  -29.8772   21.6935 H   0  0  0  0  0  0
  -26.0174  -38.2851   24.1424 H   0  0  0  0  0  0
  -29.3190  -19.1683   18.3233 H   0  0  0  0  0  0
  -27.3447  -16.4556   24.2293 H   0  0  0  0  0  0
  -27.0056  -16.5751   22.5038 H   0  0  0  0  0  0
  -25.9565  -17.3740   23.6694 H   0  0  0  0  0  0
  -29.3014  -15.4389   23.3565 H   0  0  0  0  0  0
  -31.0535  -15.7463   23.2702 H   0  0  0  0  0  0
  -30.4116  -14.1320   23.0892 H   0  0  0  0  0  0
  -27.8654  -18.9013   24.3360 H   0  0  0  0  0  0
  -27.3957  -19.0966   22.6674 H   0  0  0  0  0  0
  -28.2262  -24.0191   19.2272 H   0  0  0  0  0  0
  -29.8201  -24.3087   19.8788 H   0  0  0  0  0  0
  -28.8239  -25.5535   21.8192 H   0  0  0  0  0  0
  -27.2237  -25.2294   21.2279 H   0  0  0  0  0  0
  -28.8925  -20.5871   21.8922 H   0  0  0  0  0  0
  1 25  1  0  0  0
  1 30  2  0  0  0
  1 84  1  0  0  0
  2  3  1  0  0  0
  2 25  1  0  0  0
  2 89  1  0  0  0
  2 90  1  0  0  0
  3  4  1  0  0  0
  3 91  1  0  0  0
  3 92  1  0  0  0
  4  5  1  0  0  0
  4 93  1  0  0  0
  4 94  1  0  0  0
  5  6  1  0  0  0
  5 26  1  0  0  0
  5 95  1  0  0  0
  6 25  1  0  0  0
  6 96  1  0  0  0
  6 97  1  0  0  0
  7  8  2  0  0  0
  7 26  1  0  0  0
  7 29  1  0  0  0
  8  9  1  0  0  0
  8 22  1  0  0  0
  9 10  1  0  0  0
  9 27  2  0  0  0
 10 11  2  0  0  0
 10 15  1  0  0  0
 11 12  1  0  0  0
 11 98  1  0  0  0
 12 13  2  0  0  0
 12 99  1  0  0  0
 13 14  1  0  0  0
 13 31  1  0  0  0
 14 15  2  0  0  0
 14100  1  0  0  0
 15101  1  0  0  0
 16 17  2  0  0  0
 16 21  1  0  0  0
 16 31  1  0  0  0
 17 18  1  0  0  0
 17102  1  0  0  0
 18 19  2  0  0  0
 18103  1  0  0  0
 19 20  1  0  0  0
 19 24  1  0  0  0
 20 21  2  0  0  0
 20104  1  0  0  0
 21 23  1  0  0  0
 22 28  1  0  0  0
 22 32  2  0  0  0
 26 27  1  0  0  0
 28105  1  0  0  0
 28106  1  0  0  0
 29107  1  0  0  0
 29108  1  0  0  0
 33 34  1  0  0  0
 33 66  1  0  0  0
 33 70  2  0  0  0
 34 36  1  0  0  0
 34 59  1  0  0  0
 34109  1  0  0  0
 35 44  2  0  0  0
 35 45  1  0  0  0
 35 68  1  0  0  0
 36 56  1  0  0  0
 36110  1  0  0  0
 37 39  1  0  0  0
 37 47  1  0  0  0
 37 66  1  0  0  0
 37111  1  0  0  0
 38 43  2  0  0  0
 38 46  1  0  0  0
 38 47  1  0  0  0
 39 64  1  0  0  0
 39 67  2  0  0  0
 40 52  1  0  0  0
 40 53  2  0  0  0
 40 58  1  0  0  0
 41112  1  0  0  0
 41113  1  0  0  0
 41114  1  0  0  0
 41 48  1  0  0  0
 42 43  1  0  0  0
 42 66  1  0  0  0
 42115  1  0  0  0
 42116  1  0  0  0
 43 44  1  0  0  0
 44117  1  0  0  0
 45 46  2  0  0  0
 45118  1  0  0  0
 46119  1  0  0  0
 47120  1  0  0  0
 47121  1  0  0  0
 48 56  1  0  0  0
 48 65  1  0  0  0
 48122  1  0  0  0
 49 50  1  0  0  0
 49 53  1  0  0  0
 49 64  1  0  0  0
 49123  1  0  0  0
 50 51  1  0  0  0
 50124  1  0  0  0
 50125  1  0  0  0
 51 52  1  0  0  0
 51126  1  0  0  0
 51127  1  0  0  0
 52128  1  0  0  0
 52129  1  0  0  0
 53 54  1  0  0  0
 54 55  2  0  0  0
 54130  1  0  0  0
 55 57  1  0  0  0
 55131  1  0  0  0
 56 69  2  0  0  0
 57 58  2  0  0  0
 57132  1  0  0  0
 58133  1  0  0  0
 59 60  1  0  0  0
 59 61  1  0  0  0
 59 62  1  0  0  0
 60134  1  0  0  0
 60135  1  0  0  0
 60136  1  0  0  0
 61137  1  0  0  0
 61138  1  0  0  0
 61139  1  0  0  0
 62140  1  0  0  0
 62141  1  0  0  0
 62142  1  0  0  0
 63 65  1  0  0  0
 63143  1  0  0  0
 63144  1  0  0  0
 63145  1  0  0  0
 64146  1  0  0  0
 65147  1  0  0  0
 68 82  1  0  0  0
 71 73  2  0  0  0
 71 88  1  0  0  0
 71148  1  0  0  0
 72 73  1  0  0  0
 72 74  2  0  0  0
 72 75  1  0  0  0
 73 83  1  0  0  0
 74 84  1  0  0  0
 74 88  1  0  0  0
 75 80  1  0  0  0
 75 85  2  0  0  0
 76 77  1  0  0  0
 76 81  1  0  0  0
 76 86  2  0  0  0
 77 83  1  0  0  0
 77 87  2  0  0  0
 78 80  1  0  0  0
 78149  1  0  0  0
 78150  1  0  0  0
 78151  1  0  0  0
 79 84  1  0  0  0
 79152  1  0  0  0
 79153  1  0  0  0
 79154  1  0  0  0
 80155  1  0  0  0
 80156  1  0  0  0
 81 82  1  0  0  0
 81157  1  0  0  0
 81158  1  0  0  0
 82159  1  0  0  0
 82160  1  0  0  0
 83161  1  0  0  0
M  ISO  4   1 100  68 101  82 101  84 100
M  END
> <chiral flag>
0

> <version>
0

> <s_m_source_file>
/data/baiqing/PycharmProjects/Reinvent-master-3.2/result/LINK_invent/BTK/process_docking_weight1_custom_product_contain_oxygen_bond_distance_aromatic_linkinvent_7_9_3/rearranged_h_0163.sdf

> <i_m_source_file_index>
80

> <r_mmod_Potential_Energy-OPLS-2005>
195.115875244141

> <r_mmod_Stretch_Energy-OPLS-2005>
55.1142387390137

> <r_mmod_Bend_Energy-OPLS-2005>
114.661323547363

> <r_mmod_Torsional_Energy-OPLS-2005>
345.917907714844

> <r_mmod_Improper_Torsional_Energy-OPLS-2005>
2.72234487533569

> <r_mmod_Van_der_Waal_Energy-OPLS-2005>
139.021896362305

> <r_mmod_Electrostatic_Energy-OPLS-2005>
-252.929290771484

> <r_mmod_Solvation_Energy-OPLS-2005>
-223.509140014648

> <b_mmod_Minimization_Converged-OPLS-2005>
0

> <r_mmod_RMS_Derivative-OPLS-2005>
2.3607964515686

$$$$
80
                    3D
 Structure written by MMmdl.
162170  0  0  1  0            999 V2000
  -30.1148  -15.1417   20.5330 C   0  0  0  0  0  0
  -30.4435  -12.7591   19.5647 C   0  0  0  0  0  0
  -29.5546  -12.5585   18.3065 C   0  0  0  0  0  0
  -28.0884  -12.2640   18.6949 C   0  0  0  0  0  0
  -27.5959  -13.2055   19.8221 C   0  0  2  0  0  0
  -28.5800  -13.2064   20.9979 C   0  0  0  0  0  0
  -25.2316  -13.8020   20.5554 C   0  0  0  0  0  0
  -24.1661  -13.0296   20.9210 C   0  0  0  0  0  0
  -24.6242  -11.6787   20.8706 C   0  0  0  0  0  0
  -23.8942  -10.4206   21.0417 C   0  0  0  0  0  0
  -24.3548   -9.4148   21.9185 C   0  0  0  0  0  0
  -23.6252   -8.2171   22.0743 C   0  0  0  0  0  0
  -22.4233   -8.0208   21.3530 C   0  0  0  0  0  0
  -21.9832   -9.0162   20.4634 C   0  0  0  0  0  0
  -22.7125  -10.2054   20.3059 C   0  0  0  0  0  0
  -21.6813   -6.0700   22.5289 C   0  0  0  0  0  0
  -21.3987   -6.5614   23.8222 C   0  0  0  0  0  0
  -21.3669   -5.6770   24.9187 C   0  0  0  0  0  0
  -21.6041   -4.3032   24.7231 C   0  0  0  0  0  0
  -21.8821   -3.8125   23.4354 C   0  0  0  0  0  0
  -21.9183   -4.6937   22.3413 C   0  0  0  0  0  0
  -22.7740  -13.5153   21.1934 C   0  0  0  0  0  0
  -22.1655   -4.2126   21.0989 F   0  0  0  0  0  0
  -21.5641   -3.4527   25.7753 F   0  0  0  0  0  0
  -29.7975  -13.7800   20.4552 N   0  0  0  0  0  0
  -26.2570  -12.9139   20.2868 N   0  0  0  0  0  0
  -25.9095  -11.6330   20.5515 N   0  0  0  0  0  0
  -22.0371  -12.8202   22.0527 N   0  0  0  0  0  0
  -25.3962  -15.1740   20.4063 N   0  0  0  0  0  0
  -31.3086  -15.3910   20.2693 O   0  0  0  0  0  0
  -21.6577   -6.8827   21.4248 O   0  0  0  0  0  0
  -22.3489  -14.5475   20.6771 O   0  0  0  0  0  0
  -24.6758  -31.9282   23.2029 C   0  0  0  0  0  0
  -25.9578  -32.5024   23.8489 C   0  0  1  0  0  0
  -26.1936  -27.1255   20.4918 C   0  0  0  0  0  0
  -25.6344  -33.8766   24.2469 N   0  0  0  0  0  0
  -23.4855  -30.5911   21.5589 C   0  0  2  0  0  0
  -24.7956  -29.2035   19.8783 C   0  0  0  0  0  0
  -23.0846  -29.5081   22.5672 C   0  0  0  0  0  0
  -18.5438  -28.1629   22.1211 C   0  0  0  0  0  0
  -24.1520  -36.7331   23.2601 C   0  0  0  0  0  0
  -26.0001  -30.8049   21.3886 C   0  0  0  0  0  0
  -25.9167  -29.4613   20.6795 C   0  0  0  0  0  0
  -26.7914  -28.3739   20.8831 C   0  0  0  0  0  0
  -25.7840  -27.0940   19.1814 C   0  0  0  0  0  0
  -24.8007  -28.0816   19.0058 C   0  0  0  0  0  0
  -23.6025  -30.0782   20.0926 C   0  0  0  0  0  0
  -25.4151  -36.3167   24.0320 C   0  0  1  0  0  0
  -21.2569  -28.3386   23.5974 C   0  0  2  0  0  0
  -21.8527  -26.1829   23.4271 C   0  0  0  0  0  0
  -20.3537  -25.1542   21.9891 C   0  0  0  0  0  0
  -18.8334  -26.4510   21.3737 C   0  0  0  0  0  0
  -19.6111  -28.9556   23.0034 C   0  0  0  0  0  0
  -19.1316  -30.0753   23.7635 C   0  0  0  0  0  0
  -17.7760  -30.4448   23.8844 C   0  0  0  0  0  0
  -25.9174  -34.9572   23.5114 C   0  0  0  0  0  0
  -16.7943  -29.6478   23.2818 C   0  0  0  0  0  0
  -17.1716  -28.5400   22.4621 C   0  0  0  0  0  0
  -26.4628  -31.6621   25.0829 C   0  0  0  0  0  0
  -25.3692  -31.3807   26.1391 C   0  0  0  0  0  0
  -27.0349  -30.3006   24.6266 C   0  0  0  0  0  0
  -27.6170  -32.4185   25.7744 C   0  0  0  0  0  0
  -27.5611  -37.1875   24.8460 C   0  0  0  0  0  0
  -21.8321  -29.4268   22.8443 N   0  0  0  0  0  0
  -26.4306  -37.3883   23.9433 N   0  0  0  0  0  0
  -24.7420  -31.1720   22.0733 N   0  0  0  0  0  0
  -23.8636  -28.7833   23.1701 O   0  0  0  0  0  0
  -25.0003  -26.8119   21.2682 O   0  0  0  0  0  0
  -26.5580  -34.8983   22.4584 O   0  0  0  0  0  0
  -23.5903  -32.1957   23.7444 O   0  0  0  0  0  0
  -27.2642  -18.3430   20.5251 C   0  0  0  0  0  0
  -29.1888  -18.6979   21.5030 C   0  0  0  0  0  0
  -28.5641  -17.6438   20.8583 C   0  0  0  0  0  0
  -27.0959  -19.7159   20.9545 C   0  0  0  0  0  0
  -25.9147  -20.8346   21.0624 C   0  0  0  0  0  0
  -21.3605  -27.2138   21.3919 C   0  0  0  0  0  0
  -19.6951  -26.6500   23.5164 C   0  0  0  0  0  0
  -28.6915  -21.0641   22.3587 C   0  0  0  0  0  0
  -23.7078  -24.6603   20.7236 C   0  0  0  0  0  0
  -24.8168  -23.5308   21.4882 C   0  0  0  0  0  0
  -23.2690  -26.3668   21.0219 C   0  0  2  0  0  0
  -28.3427  -19.8640   21.6009 N   0  0  0  0  0  0
  -24.7427  -20.2739   21.3724 N   0  0  0  0  0  0
  -29.0023  -16.1029   20.7217 N   0  0  0  0  0  0
  -25.7830  -22.2935   20.9213 N   0  3  0  0  0  0
  -20.9857  -27.9853   20.5029 O   0  0  0  0  0  0
  -31.4418  -13.0835   19.2646 H   0  0  0  0  0  0
  -30.5834  -11.8217   20.1064 H   0  0  0  0  0  0
  -29.9604  -11.7549   17.6870 H   0  0  0  0  0  0
  -29.5899  -13.4635   17.7005 H   0  0  0  0  0  0
  -28.0501  -11.2344   19.0509 H   0  0  0  0  0  0
  -27.4386  -12.3090   17.8203 H   0  0  0  0  0  0
  -27.5589  -14.2003   19.3783 H   0  0  0  0  0  0
  -28.7377  -12.1961   21.3792 H   0  0  0  0  0  0
  -28.2032  -13.7904   21.8386 H   0  0  0  0  0  0
  -25.2694   -9.5641   22.4755 H   0  0  0  0  0  0
  -23.9955   -7.4562   22.7466 H   0  0  0  0  0  0
  -21.0745   -8.8647   19.8974 H   0  0  0  0  0  0
  -22.3540  -10.9584   19.6185 H   0  0  0  0  0  0
  -21.1953   -7.6118   23.9716 H   0  0  0  0  0  0
  -21.1507   -6.0505   25.9089 H   0  0  0  0  0  0
  -22.0601   -2.7588   23.2849 H   0  0  0  0  0  0
  -22.3939  -11.9896   22.5014 H   0  0  0  0  0  0
  -21.1020  -13.1326   22.2711 H   0  0  0  0  0  0
  -24.5896  -15.7791   20.5164 H   0  0  0  0  0  0
  -26.1487  -15.6079   19.8902 H   0  0  0  0  0  0
  -26.7729  -32.5582   23.1274 H   0  0  0  0  0  0
  -25.0570  -33.9908   25.0672 H   0  0  0  0  0  0
  -22.7111  -31.3651   21.5547 H   0  0  0  0  0  0
  -23.3822  -35.9622   23.3228 H   0  0  0  0  0  0
  -24.3608  -36.9009   22.2025 H   0  0  0  0  0  0
  -23.7237  -37.6506   23.6646 H   0  0  0  0  0  0
  -26.2269  -31.5762   20.6529 H   0  0  0  0  0  0
  -26.8624  -30.7579   22.0451 H   0  0  0  0  0  0
  -27.5568  -28.4268   21.6460 H   0  0  0  0  0  0
  -25.6624  -26.1669   18.6407 H   0  0  0  0  0  0
  -24.0139  -27.9385   18.2763 H   0  0  0  0  0  0
  -23.7059  -30.9373   19.4296 H   0  0  0  0  0  0
  -22.6936  -29.5746   19.7741 H   0  0  0  0  0  0
  -25.1316  -36.2012   25.0822 H   0  0  0  0  0  0
  -21.4018  -28.6258   24.6434 H   0  0  0  0  0  0
  -21.7765  -25.7208   24.4200 H   0  0  0  0  0  0
  -22.9175  -26.0047   23.3008 H   0  0  0  0  0  0
  -19.9138  -24.2828   22.4802 H   0  0  0  0  0  0
  -20.8157  -24.6895   21.1210 H   0  0  0  0  0  0
  -18.8836  -26.5772   20.2888 H   0  0  0  0  0  0
  -17.8976  -25.9052   21.4884 H   0  0  0  0  0  0
  -19.8418  -30.6226   24.3646 H   0  0  0  0  0  0
  -17.4924  -31.2836   24.5040 H   0  0  0  0  0  0
  -15.7501  -29.8824   23.4253 H   0  0  0  0  0  0
  -16.3728  -27.9388   22.0538 H   0  0  0  0  0  0
  -24.5816  -30.7303   25.7564 H   0  0  0  0  0  0
  -24.8947  -32.3011   26.4824 H   0  0  0  0  0  0
  -25.7809  -30.8859   27.0203 H   0  0  0  0  0  0
  -26.2935  -29.6905   24.1092 H   0  0  0  0  0  0
  -27.3817  -29.7110   25.4776 H   0  0  0  0  0  0
  -27.8958  -30.4240   23.9671 H   0  0  0  0  0  0
  -27.2847  -33.3498   26.2355 H   0  0  0  0  0  0
  -28.4082  -32.6727   25.0656 H   0  0  0  0  0  0
  -28.0707  -31.8222   26.5689 H   0  0  0  0  0  0
  -28.2593  -38.0211   24.7568 H   0  0  0  0  0  0
  -28.1155  -36.2751   24.6208 H   0  0  0  0  0  0
  -27.2314  -37.1406   25.8854 H   0  0  0  0  0  0
  -21.1829  -30.0416   22.3712 H   0  0  0  0  0  0
  -26.0170  -38.2944   24.1499 H   0  0  0  0  0  0
  -26.4467  -17.8432   20.0254 H   0  0  0  0  0  0
  -30.1569  -18.7171   21.9905 H   0  0  0  0  0  0
  -19.8149  -25.6942   24.0410 H   0  0  0  0  0  0
  -18.6213  -26.4444   23.4900 H   0  0  0  0  0  0
  -19.6914  -27.1914   24.4684 H   0  0  0  0  0  0
  -29.4831  -20.8539   23.0801 H   0  0  0  0  0  0
  -27.8270  -21.4190   22.9257 H   0  0  0  0  0  0
  -29.0092  -21.8670   21.6898 H   0  0  0  0  0  0
  -22.7761  -24.1052   20.6299 H   0  0  0  0  0  0
  -24.0740  -24.6780   19.6967 H   0  0  0  0  0  0
  -24.3357  -23.1454   22.3910 H   0  0  0  0  0  0
  -25.5820  -24.1994   21.8883 H   0  0  0  0  0  0
  -23.1646  -26.6571   19.9837 H   0  0  0  0  0  0
  -24.6725  -19.2691   21.4429 H   0  0  0  0  0  0
  -23.8941  -20.8108   21.4461 H   0  0  0  0  0  0
  -28.1838  -15.5212   20.8255 H   0  0  0  0  0  0
  -26.6149  -22.6798   20.4951 H   0  0  0  0  0  0
  1 25  1  0  0  0
  1 30  2  0  0  0
  1 84  1  0  0  0
  2  3  1  0  0  0
  2 25  1  0  0  0
  2 87  1  0  0  0
  2 88  1  0  0  0
  3  4  1  0  0  0
  3 89  1  0  0  0
  3 90  1  0  0  0
  4  5  1  0  0  0
  4 91  1  0  0  0
  4 92  1  0  0  0
  5  6  1  0  0  0
  5 26  1  0  0  0
  5 93  1  0  0  0
  6 25  1  0  0  0
  6 94  1  0  0  0
  6 95  1  0  0  0
  7  8  2  0  0  0
  7 26  1  0  0  0
  7 29  1  0  0  0
  8  9  1  0  0  0
  8 22  1  0  0  0
  9 10  1  0  0  0
  9 27  2  0  0  0
 10 11  2  0  0  0
 10 15  1  0  0  0
 11 12  1  0  0  0
 11 96  1  0  0  0
 12 13  2  0  0  0
 12 97  1  0  0  0
 13 14  1  0  0  0
 13 31  1  0  0  0
 14 15  2  0  0  0
 14 98  1  0  0  0
 15 99  1  0  0  0
 16 17  2  0  0  0
 16 21  1  0  0  0
 16 31  1  0  0  0
 17 18  1  0  0  0
 17100  1  0  0  0
 18 19  2  0  0  0
 18101  1  0  0  0
 19 20  1  0  0  0
 19 24  1  0  0  0
 20 21  2  0  0  0
 20102  1  0  0  0
 21 23  1  0  0  0
 22 28  1  0  0  0
 22 32  2  0  0  0
 26 27  1  0  0  0
 28103  1  0  0  0
 28104  1  0  0  0
 29105  1  0  0  0
 29106  1  0  0  0
 33 34  1  0  0  0
 33 66  1  0  0  0
 33 70  2  0  0  0
 34 36  1  0  0  0
 34 59  1  0  0  0
 34107  1  0  0  0
 35 44  2  0  0  0
 35 45  1  0  0  0
 35 68  1  0  0  0
 36 56  1  0  0  0
 36108  1  0  0  0
 37 39  1  0  0  0
 37 47  1  0  0  0
 37 66  1  0  0  0
 37109  1  0  0  0
 38 43  2  0  0  0
 38 46  1  0  0  0
 38 47  1  0  0  0
 39 64  1  0  0  0
 39 67  2  0  0  0
 40 52  1  0  0  0
 40 53  2  0  0  0
 40 58  1  0  0  0
 41110  1  0  0  0
 41111  1  0  0  0
 41112  1  0  0  0
 41 48  1  0  0  0
 42 43  1  0  0  0
 42 66  1  0  0  0
 42113  1  0  0  0
 42114  1  0  0  0
 43 44  1  0  0  0
 44115  1  0  0  0
 45 46  2  0  0  0
 45116  1  0  0  0
 46117  1  0  0  0
 47118  1  0  0  0
 47119  1  0  0  0
 48 56  1  0  0  0
 48 65  1  0  0  0
 48120  1  0  0  0
 49 50  1  0  0  0
 49 53  1  0  0  0
 49 64  1  0  0  0
 49121  1  0  0  0
 50 51  1  0  0  0
 50122  1  0  0  0
 50123  1  0  0  0
 51 52  1  0  0  0
 51124  1  0  0  0
 51125  1  0  0  0
 52126  1  0  0  0
 52127  1  0  0  0
 53 54  1  0  0  0
 54 55  2  0  0  0
 54128  1  0  0  0
 55 57  1  0  0  0
 55129  1  0  0  0
 56 69  2  0  0  0
 57 58  2  0  0  0
 57130  1  0  0  0
 58131  1  0  0  0
 59 60  1  0  0  0
 59 61  1  0  0  0
 59 62  1  0  0  0
 60132  1  0  0  0
 60133  1  0  0  0
 60134  1  0  0  0
 61135  1  0  0  0
 61136  1  0  0  0
 61137  1  0  0  0
 62138  1  0  0  0
 62139  1  0  0  0
 62140  1  0  0  0
 63 65  1  0  0  0
 63141  1  0  0  0
 63142  1  0  0  0
 63143  1  0  0  0
 64144  1  0  0  0
 65145  1  0  0  0
 68 81  1  0  0  0
 71 73  1  0  0  0
 71 74  2  0  0  0
 71146  1  0  0  0
 72 73  2  0  0  0
 72 82  1  0  0  0
 72147  1  0  0  0
 73 84  1  0  0  0
 74 75  1  0  0  0
 74 82  1  0  0  0
 75 83  1  0  0  0
 75 85  2  0  0  0
 76 77  1  0  0  0
 76 81  1  0  0  0
 76 86  2  0  0  0
 77148  1  0  0  0
 77149  1  0  0  0
 77150  1  0  0  0
 78 82  1  0  0  0
 78151  1  0  0  0
 78152  1  0  0  0
 78153  1  0  0  0
 79 80  1  0  0  0
 79154  1  0  0  0
 79155  1  0  0  0
 79 81  1  0  0  0
 80 85  1  0  0  0
 80156  1  0  0  0
 80157  1  0  0  0
 81158  1  0  0  0
 83159  1  0  0  0
 83160  1  0  0  0
 84161  1  0  0  0
 85162  1  0  0  0
M  CHG  1  85   1
M  ISO  4   1 100  68 101  81 101  84 100
M  END
> <chiral flag>
0

> <version>
0

> <s_m_source_file>
/data/baiqing/PycharmProjects/Reinvent-master-3.2/result/LINK_invent/BTK/process_docking_weight1_custom_product_contain_oxygen_bond_distance_aromatic_linkinvent_7_9_3/rearranged_h_0163.sdf

> <i_m_source_file_index>
81

> <r_mmod_Potential_Energy-OPLS-2005>
10930.0634765625

> <r_mmod_Stretch_Energy-OPLS-2005>
5261.2666015625

> <r_mmod_Bend_Energy-OPLS-2005>
930.834716796875

> <r_mmod_Torsional_Energy-OPLS-2005>
541.093627929688

> <r_mmod_Improper_Torsional_Energy-OPLS-2005>
49.1386070251465

> <r_mmod_Van_der_Waal_Energy-OPLS-2005>
2012.48706054688

> <r_mmod_Electrostatic_Energy-OPLS-2005>
-309.872283935547

> <r_mmod_Solvation_Energy-OPLS-2005>
-464.088226318359

> <b_mmod_Minimization_Converged-OPLS-2005>
0

> <r_mmod_RMS_Derivative-OPLS-2005>
11.9584817886353

$$$$
81
                    3D
 Structure written by MMmdl.
162170  0  0  1  0            999 V2000
  -30.6650  -14.7168   20.4653 C   0  0  0  0  0  0
  -30.4192  -12.4306   19.4938 C   0  0  0  0  0  0
  -29.5115  -12.5095   18.2482 C   0  0  0  0  0  0
  -28.0374  -12.3391   18.6544 C   0  0  0  0  0  0
  -27.6461  -13.2398   19.8566 C   0  0  2  0  0  0
  -28.6861  -13.1841   20.9992 C   0  0  0  0  0  0
  -25.2526  -13.8226   20.5715 C   0  0  0  0  0  0
  -24.1808  -13.0463   20.9192 C   0  0  0  0  0  0
  -24.6409  -11.6943   20.8752 C   0  0  0  0  0  0
  -23.9083  -10.4308   21.0405 C   0  0  0  0  0  0
  -24.3631   -9.4217   21.9177 C   0  0  0  0  0  0
  -23.6298   -8.2258   22.0754 C   0  0  0  0  0  0
  -22.4282   -8.0298   21.3543 C   0  0  0  0  0  0
  -21.9917   -9.0270   20.4645 C   0  0  0  0  0  0
  -22.7252  -10.2147   20.3054 C   0  0  0  0  0  0
  -21.6851   -6.0738   22.5279 C   0  0  0  0  0  0
  -21.4010   -6.5637   23.8214 C   0  0  0  0  0  0
  -21.3662   -5.6793   24.9175 C   0  0  0  0  0  0
  -21.6050   -4.3060   24.7222 C   0  0  0  0  0  0
  -21.8818   -3.8147   23.4343 C   0  0  0  0  0  0
  -21.9191   -4.6965   22.3400 C   0  0  0  0  0  0
  -22.7832  -13.5245   21.1854 C   0  0  0  0  0  0
  -22.1661   -4.2152   21.0979 F   0  0  0  0  0  0
  -21.5630   -3.4543   25.7731 F   0  0  0  0  0  0
  -30.0012  -13.5069   20.4308 N   0  0  0  0  0  0
  -26.2965  -12.9449   20.3313 N   0  0  0  0  0  0
  -25.9351  -11.6580   20.5759 N   0  0  0  0  0  0
  -22.0479  -12.8240   22.0413 N   0  0  0  0  0  0
  -25.4252  -15.1946   20.4195 N   0  0  0  0  0  0
  -31.8059  -14.7722   20.0005 O   0  0  0  0  0  0
  -21.6650   -6.8892   21.4244 O   0  0  0  0  0  0
  -22.3519  -14.5550   20.6705 O   0  0  0  0  0  0
  -24.6330  -31.8561   23.2003 C   0  0  0  0  0  0
  -25.9164  -32.4761   23.8342 C   0  0  1  0  0  0
  -27.2081  -27.2587   20.1272 C   0  0  0  0  0  0
  -25.5968  -33.8558   24.2286 N   0  0  0  0  0  0
  -23.4288  -30.4818   21.5439 C   0  0  2  0  0  0
  -24.8755  -28.9391   20.1047 C   0  0  0  0  0  0
  -22.7516  -29.4599   22.4891 C   0  0  0  0  0  0
  -18.0312  -28.1366   22.8462 C   0  0  0  0  0  0
  -24.1493  -36.7271   23.2634 C   0  0  0  0  0  0
  -25.9777  -30.7689   21.3820 C   0  0  0  0  0  0
  -26.0485  -29.3940   20.7200 C   0  0  0  0  0  0
  -27.2198  -28.5658   20.7242 C   0  0  0  0  0  0
  -26.0207  -26.8949   19.4507 C   0  0  0  0  0  0
  -24.8677  -27.6976   19.4561 C   0  0  0  0  0  0
  -23.6463  -29.8242   20.1571 C   0  0  0  0  0  0
  -25.4114  -36.3057   24.0332 C   0  0  1  0  0  0
  -20.5910  -28.3693   23.1247 C   0  0  2  0  0  0
  -20.6814  -26.9410   22.5398 C   0  0  0  0  0  0
  -19.5802  -26.6367   21.5194 C   0  0  0  0  0  0
  -18.1973  -26.7915   22.1592 C   0  0  0  0  0  0
  -19.1554  -28.8841   23.2854 C   0  0  0  0  0  0
  -18.9459  -30.1430   23.8901 C   0  0  0  0  0  0
  -17.6448  -30.6547   24.0543 C   0  0  0  0  0  0
  -25.9060  -34.9437   23.5099 C   0  0  0  0  0  0
  -16.5347  -29.9038   23.6307 C   0  0  0  0  0  0
  -16.7285  -28.6460   23.0325 C   0  0  0  0  0  0
  -26.4525  -31.6585   25.0732 C   0  0  0  0  0  0
  -25.3747  -31.3747   26.1452 C   0  0  0  0  0  0
  -27.0369  -30.2993   24.6239 C   0  0  0  0  0  0
  -27.6083  -32.4318   25.7515 C   0  0  0  0  0  0
  -27.5568  -37.1798   24.8472 C   0  0  0  0  0  0
  -21.4213  -29.3041   22.3643 N   0  0  0  0  0  0
  -26.4282  -37.3755   23.9405 N   0  0  0  0  0  0
  -24.6984  -31.0540   22.0975 N   0  0  0  0  0  0
  -23.4213  -28.8128   23.2974 O   0  0  0  0  0  0
  -28.2601  -26.3111   20.2325 O   0  0  0  0  0  0
  -26.5602  -34.8913   22.4652 O   0  0  0  0  0  0
  -23.5487  -32.1376   23.7320 O   0  0  0  0  0  0
  -30.4343  -20.1251   22.8295 C   0  0  0  0  0  0
  -30.3887  -18.8475   22.2452 C   0  0  0  0  0  0
  -29.9480  -21.2581   22.1539 C   0  0  0  0  0  0
  -29.8768  -18.6404   20.9483 C   0  0  0  0  0  0
  -29.3178  -19.8196   20.2756 C   0  0  0  0  0  0
  -29.3624  -21.1616   20.8721 C   0  0  0  0  0  0
  -30.1057  -17.2102   20.3982 C   0  0  0  0  0  0
  -30.0324  -15.9680   21.0198 C   0  0  0  0  0  0
  -28.6595  -19.6443   18.9573 C   0  0  0  0  0  0
  -29.0252  -23.7448   20.5377 C   0  0  0  0  0  0
  -26.1263  -19.6633   18.7606 C   0  0  0  0  0  0
  -26.9517  -24.6863   21.5831 C   0  0  0  0  0  0
  -27.3906  -18.8055   18.9334 C   0  0  0  0  0  0
  -27.8776  -24.8463   20.3527 C   0  0  1  0  0  0
  -29.0783  -20.1932   17.8959 N   0  0  0  0  0  0
  -28.7438  -22.3993   20.3191 N   0  0  0  0  0  0
  -30.1538  -24.1169   20.8703 O   0  0  0  0  0  0
  -31.4669  -12.5040   19.1976 H   0  0  0  0  0  0
  -30.3230  -11.4552   19.9728 H   0  0  0  0  0  0
  -29.7919  -11.7420   17.5259 H   0  0  0  0  0  0
  -29.6495  -13.4696   17.7485 H   0  0  0  0  0  0
  -27.8860  -11.2904   18.9140 H   0  0  0  0  0  0
  -27.3858  -12.5393   17.8026 H   0  0  0  0  0  0
  -27.6431  -14.2618   19.4774 H   0  0  0  0  0  0
  -28.7047  -12.1957   21.4611 H   0  0  0  0  0  0
  -28.4161  -13.8842   21.7908 H   0  0  0  0  0  0
  -25.2778   -9.5691   22.4747 H   0  0  0  0  0  0
  -24.0004   -7.4656   22.7488 H   0  0  0  0  0  0
  -21.0837   -8.8799   19.8963 H   0  0  0  0  0  0
  -22.3709  -10.9689   19.6166 H   0  0  0  0  0  0
  -21.1999   -7.6150   23.9713 H   0  0  0  0  0  0
  -21.1485   -6.0525   25.9078 H   0  0  0  0  0  0
  -22.0592   -2.7607   23.2844 H   0  0  0  0  0  0
  -22.4104  -11.9899   22.4787 H   0  0  0  0  0  0
  -21.1098  -13.1271   22.2638 H   0  0  0  0  0  0
  -24.6651  -15.8542   20.5377 H   0  0  0  0  0  0
  -26.2896  -15.6311   20.1263 H   0  0  0  0  0  0
  -26.7211  -32.5401   23.1069 H   0  0  0  0  0  0
  -25.0163  -33.9693   25.0461 H   0  0  0  0  0  0
  -22.7262  -31.3047   21.4006 H   0  0  0  0  0  0
  -23.3744  -35.9612   23.3322 H   0  0  0  0  0  0
  -24.3575  -36.8870   22.2042 H   0  0  0  0  0  0
  -23.7277  -37.6501   23.6631 H   0  0  0  0  0  0
  -26.1218  -31.5316   20.6154 H   0  0  0  0  0  0
  -26.8538  -30.8131   22.0170 H   0  0  0  0  0  0
  -28.1110  -28.8998   21.2367 H   0  0  0  0  0  0
  -25.9369  -25.9508   18.9371 H   0  0  0  0  0  0
  -23.9726  -27.3483   18.9606 H   0  0  0  0  0  0
  -23.7711  -30.6078   19.4080 H   0  0  0  0  0  0
  -22.7646  -29.2609   19.8483 H   0  0  0  0  0  0
  -25.1296  -36.1898   25.0823 H   0  0  0  0  0  0
  -21.0014  -28.3291   24.1361 H   0  0  0  0  0  0
  -20.5703  -26.2294   23.3600 H   0  0  0  0  0  0
  -21.6682  -26.7465   22.1189 H   0  0  0  0  0  0
  -19.6998  -25.6267   21.1234 H   0  0  0  0  0  0
  -19.6759  -27.3163   20.6718 H   0  0  0  0  0  0
  -17.4243  -26.6688   21.3987 H   0  0  0  0  0  0
  -18.0405  -26.0044   22.8984 H   0  0  0  0  0  0
  -19.7919  -30.7253   24.2303 H   0  0  0  0  0  0
  -17.4978  -31.6226   24.5143 H   0  0  0  0  0  0
  -15.5339  -30.2921   23.7627 H   0  0  0  0  0  0
  -15.8699  -28.0781   22.7020 H   0  0  0  0  0  0
  -24.5921  -30.7096   25.7786 H   0  0  0  0  0  0
  -24.8928  -32.2919   26.4848 H   0  0  0  0  0  0
  -25.8062  -30.8950   27.0247 H   0  0  0  0  0  0
  -26.2958  -29.6745   24.1239 H   0  0  0  0  0  0
  -27.4015  -29.7266   25.4781 H   0  0  0  0  0  0
  -27.8861  -30.4260   23.9518 H   0  0  0  0  0  0
  -27.2695  -33.3618   26.2096 H   0  0  0  0  0  0
  -28.3905  -32.6887   25.0355 H   0  0  0  0  0  0
  -28.0735  -31.8436   26.5443 H   0  0  0  0  0  0
  -28.2603  -38.0073   24.7456 H   0  0  0  0  0  0
  -28.1054  -36.2603   24.6367 H   0  0  0  0  0  0
  -27.2284  -37.1532   25.8878 H   0  0  0  0  0  0
  -20.9376  -29.8757   21.6864 H   0  0  0  0  0  0
  -26.0174  -38.2838   24.1373 H   0  0  0  0  0  0
  -30.8591  -20.2413   23.8162 H   0  0  0  0  0  0
  -30.8176  -18.0197   22.7912 H   0  0  0  0  0  0
  -29.9990  -22.2086   22.6653 H   0  0  0  0  0  0
  -30.5086  -17.2047   19.3945 H   0  0  0  0  0  0
  -29.5899  -15.9077   22.0034 H   0  0  0  0  0  0
  -25.2300  -19.0424   18.7721 H   0  0  0  0  0  0
  -26.1376  -20.2122   17.8182 H   0  0  0  0  0  0
  -26.0322  -20.3887   19.5692 H   0  0  0  0  0  0
  -26.0003  -25.2030   21.4732 H   0  0  0  0  0  0
  -26.7064  -23.6406   21.7737 H   0  0  0  0  0  0
  -27.4346  -25.0741   22.4801 H   0  0  0  0  0  0
  -27.3122  -18.2255   19.8538 H   0  0  0  0  0  0
  -27.4572  -18.0808   18.1210 H   0  0  0  0  0  0
  -27.3558  -24.5300   19.4508 H   0  0  0  0  0  0
  -29.9154  -20.7394   18.0692 H   0  0  0  0  0  0
  -27.8866  -22.2429   19.8066 H   0  0  0  0  0  0
  1 25  1  0  0  0
  1 30  2  0  0  0
  1 78  1  0  0  0
  2  3  1  0  0  0
  2 25  1  0  0  0
  2 88  1  0  0  0
  2 89  1  0  0  0
  3  4  1  0  0  0
  3 90  1  0  0  0
  3 91  1  0  0  0
  4  5  1  0  0  0
  4 92  1  0  0  0
  4 93  1  0  0  0
  5  6  1  0  0  0
  5 26  1  0  0  0
  5 94  1  0  0  0
  6 25  1  0  0  0
  6 95  1  0  0  0
  6 96  1  0  0  0
  7  8  2  0  0  0
  7 26  1  0  0  0
  7 29  1  0  0  0
  8  9  1  0  0  0
  8 22  1  0  0  0
  9 10  1  0  0  0
  9 27  2  0  0  0
 10 11  2  0  0  0
 10 15  1  0  0  0
 11 12  1  0  0  0
 11 97  1  0  0  0
 12 13  2  0  0  0
 12 98  1  0  0  0
 13 14  1  0  0  0
 13 31  1  0  0  0
 14 15  2  0  0  0
 14 99  1  0  0  0
 15100  1  0  0  0
 16 17  2  0  0  0
 16 21  1  0  0  0
 16 31  1  0  0  0
 17 18  1  0  0  0
 17101  1  0  0  0
 18 19  2  0  0  0
 18102  1  0  0  0
 19 20  1  0  0  0
 19 24  1  0  0  0
 20 21  2  0  0  0
 20103  1  0  0  0
 21 23  1  0  0  0
 22 28  1  0  0  0
 22 32  2  0  0  0
 26 27  1  0  0  0
 28104  1  0  0  0
 28105  1  0  0  0
 29106  1  0  0  0
 29107  1  0  0  0
 33 34  1  0  0  0
 33 66  1  0  0  0
 33 70  2  0  0  0
 34 36  1  0  0  0
 34 59  1  0  0  0
 34108  1  0  0  0
 35 44  2  0  0  0
 35 45  1  0  0  0
 35 68  1  0  0  0
 36 56  1  0  0  0
 36109  1  0  0  0
 37 39  1  0  0  0
 37 47  1  0  0  0
 37 66  1  0  0  0
 37110  1  0  0  0
 38 43  2  0  0  0
 38 46  1  0  0  0
 38 47  1  0  0  0
 39 64  1  0  0  0
 39 67  2  0  0  0
 40 52  1  0  0  0
 40 53  2  0  0  0
 40 58  1  0  0  0
 41111  1  0  0  0
 41112  1  0  0  0
 41113  1  0  0  0
 41 48  1  0  0  0
 42 43  1  0  0  0
 42 66  1  0  0  0
 42114  1  0  0  0
 42115  1  0  0  0
 43 44  1  0  0  0
 44116  1  0  0  0
 45 46  2  0  0  0
 45117  1  0  0  0
 46118  1  0  0  0
 47119  1  0  0  0
 47120  1  0  0  0
 48 56  1  0  0  0
 48 65  1  0  0  0
 48121  1  0  0  0
 49 50  1  0  0  0
 49 53  1  0  0  0
 49 64  1  0  0  0
 49122  1  0  0  0
 50 51  1  0  0  0
 50123  1  0  0  0
 50124  1  0  0  0
 51 52  1  0  0  0
 51125  1  0  0  0
 51126  1  0  0  0
 52127  1  0  0  0
 52128  1  0  0  0
 53 54  1  0  0  0
 54 55  2  0  0  0
 54129  1  0  0  0
 55 57  1  0  0  0
 55130  1  0  0  0
 56 69  2  0  0  0
 57 58  2  0  0  0
 57131  1  0  0  0
 58132  1  0  0  0
 59 60  1  0  0  0
 59 61  1  0  0  0
 59 62  1  0  0  0
 60133  1  0  0  0
 60134  1  0  0  0
 60135  1  0  0  0
 61136  1  0  0  0
 61137  1  0  0  0
 61138  1  0  0  0
 62139  1  0  0  0
 62140  1  0  0  0
 62141  1  0  0  0
 63 65  1  0  0  0
 63142  1  0  0  0
 63143  1  0  0  0
 63144  1  0  0  0
 64145  1  0  0  0
 65146  1  0  0  0
 68 84  1  0  0  0
 71 72  2  0  0  0
 71 73  1  0  0  0
 71147  1  0  0  0
 72 74  1  0  0  0
 72148  1  0  0  0
 73 76  2  0  0  0
 73149  1  0  0  0
 74 75  2  0  0  0
 74 77  1  0  0  0
 75 76  1  0  0  0
 75 79  1  0  0  0
 76 86  1  0  0  0
 77 78  2  0  0  0
 77150  1  0  0  0
 78151  1  0  0  0
 79 83  1  0  0  0
 79 85  2  0  0  0
 80 84  1  0  0  0
 80 86  1  0  0  0
 80 87  2  0  0  0
 81 83  1  0  0  0
 81152  1  0  0  0
 81153  1  0  0  0
 81154  1  0  0  0
 82155  1  0  0  0
 82156  1  0  0  0
 82157  1  0  0  0
 82 84  1  0  0  0
 83158  1  0  0  0
 83159  1  0  0  0
 84160  1  0  0  0
 85161  1  0  0  0
 86162  1  0  0  0
M  ISO  4   1 100  68 101  78 100  84 101
M  END
> <chiral flag>
0

> <version>
0

> <s_m_source_file>
/data/baiqing/PycharmProjects/Reinvent-master-3.2/result/LINK_invent/BTK/process_docking_weight1_custom_product_contain_oxygen_bond_distance_aromatic_linkinvent_7_9_3/rearranged_h_0163.sdf

> <i_m_source_file_index>
82

> <r_mmod_Potential_Energy-OPLS-2005>
254.101837158203

> <r_mmod_Stretch_Energy-OPLS-2005>
131.142837524414

> <r_mmod_Bend_Energy-OPLS-2005>
163.322402954102

> <r_mmod_Torsional_Energy-OPLS-2005>
260.159118652344

> <r_mmod_Improper_Torsional_Energy-OPLS-2005>
6.62127494812012

> <r_mmod_Van_der_Waal_Energy-OPLS-2005>
143.197280883789

> <r_mmod_Electrostatic_Energy-OPLS-2005>
-307.117431640625

> <r_mmod_Solvation_Energy-OPLS-2005>
-230.043746948242

> <b_mmod_Minimization_Converged-OPLS-2005>
0

> <r_mmod_RMS_Derivative-OPLS-2005>
2.05520629882812

$$$$
82
                    3D
 Structure written by MMmdl.
153160  0  0  1  0            999 V2000
  -30.6707  -14.5120   20.5343 C   0  0  0  0  0  0
  -30.4255  -12.3028   19.4395 C   0  0  0  0  0  0
  -29.5027  -12.4942   18.2163 C   0  0  0  0  0  0
  -28.0219  -12.3584   18.6231 C   0  0  0  0  0  0
  -27.6637  -13.2082   19.8720 C   0  0  2  0  0  0
  -28.7043  -13.0067   20.9957 C   0  0  0  0  0  0
  -25.2604  -13.8161   20.5669 C   0  0  0  0  0  0
  -24.1848  -13.0443   20.9164 C   0  0  0  0  0  0
  -24.6406  -11.6911   20.8732 C   0  0  0  0  0  0
  -23.9075  -10.4294   21.0405 C   0  0  0  0  0  0
  -24.3622   -9.4207   21.9186 C   0  0  0  0  0  0
  -23.6290   -8.2250   22.0758 C   0  0  0  0  0  0
  -22.4274   -8.0287   21.3546 C   0  0  0  0  0  0
  -21.9909   -9.0264   20.4649 C   0  0  0  0  0  0
  -22.7246  -10.2137   20.3055 C   0  0  0  0  0  0
  -21.6852   -6.0742   22.5277 C   0  0  0  0  0  0
  -21.4014   -6.5646   23.8213 C   0  0  0  0  0  0
  -21.3654   -5.6796   24.9175 C   0  0  0  0  0  0
  -21.6040   -4.3059   24.7223 C   0  0  0  0  0  0
  -21.8818   -3.8152   23.4344 C   0  0  0  0  0  0
  -21.9193   -4.6970   22.3401 C   0  0  0  0  0  0
  -22.7869  -13.5245   21.1828 C   0  0  0  0  0  0
  -22.1658   -4.2156   21.0977 F   0  0  0  0  0  0
  -21.5630   -3.4540   25.7736 F   0  0  0  0  0  0
  -30.0383  -13.3063   20.4476 N   0  0  0  0  0  0
  -26.3044  -12.9334   20.3354 N   0  0  0  0  0  0
  -25.9331  -11.6495   20.5763 N   0  0  0  0  0  0
  -22.0511  -12.8238   22.0386 N   0  0  0  0  0  0
  -25.4340  -15.1877   20.4072 N   0  0  0  0  0  0
  -31.8180  -14.6152   20.0882 O   0  0  0  0  0  0
  -21.6636   -6.8884   21.4239 O   0  0  0  0  0  0
  -22.3551  -14.5558   20.6692 O   0  0  0  0  0  0
  -24.6150  -31.8671   23.2097 C   0  0  0  0  0  0
  -25.9042  -32.4821   23.8391 C   0  0  1  0  0  0
  -27.2320  -27.4355   20.1004 C   0  0  0  0  0  0
  -25.5902  -33.8620   24.2334 N   0  0  0  0  0  0
  -23.4030  -30.4902   21.5500 C   0  0  2  0  0  0
  -24.8506  -28.9563   20.1132 C   0  0  0  0  0  0
  -22.7411  -29.4653   22.4988 C   0  0  0  0  0  0
  -18.0271  -28.1377   22.8494 C   0  0  0  0  0  0
  -24.1484  -36.7310   23.2637 C   0  0  0  0  0  0
  -25.9310  -30.8354   21.3603 C   0  0  0  0  0  0
  -26.0108  -29.4698   20.7074 C   0  0  0  0  0  0
  -27.2087  -28.7180   20.6942 C   0  0  0  0  0  0
  -26.0586  -26.9343   19.5002 C   0  0  0  0  0  0
  -24.8694  -27.6882   19.5048 C   0  0  0  0  0  0
  -23.6110  -29.8214   20.1642 C   0  0  0  0  0  0
  -25.4103  -36.3110   24.0338 C   0  0  1  0  0  0
  -20.5862  -28.3660   23.1324 C   0  0  2  0  0  0
  -20.6763  -26.9393   22.5427 C   0  0  0  0  0  0
  -19.5749  -26.6386   21.5217 C   0  0  0  0  0  0
  -18.1922  -26.7930   22.1613 C   0  0  0  0  0  0
  -19.1521  -28.8835   23.2907 C   0  0  0  0  0  0
  -18.9448  -30.1442   23.8915 C   0  0  0  0  0  0
  -17.6450  -30.6584   24.0567 C   0  0  0  0  0  0
  -25.9032  -34.9476   23.5132 C   0  0  0  0  0  0
  -16.5339  -29.9088   23.6327 C   0  0  0  0  0  0
  -16.7260  -28.6506   23.0345 C   0  0  0  0  0  0
  -26.4473  -31.6593   25.0715 C   0  0  0  0  0  0
  -25.3741  -31.3703   26.1468 C   0  0  0  0  0  0
  -27.0288  -30.3034   24.6079 C   0  0  0  0  0  0
  -27.6062  -32.4298   25.7471 C   0  0  0  0  0  0
  -27.5582  -37.1805   24.8459 C   0  0  0  0  0  0
  -21.4140  -29.3025   22.3728 N   0  0  0  0  0  0
  -26.4292  -37.3794   23.9411 N   0  0  0  0  0  0
  -24.6679  -31.0779   22.0990 N   0  0  0  0  0  0
  -23.4186  -28.8201   23.3029 O   0  0  0  0  0  0
  -28.3756  -26.6685   20.1077 O   0  0  0  0  0  0
  -26.5590  -34.8928   22.4692 O   0  0  0  0  0  0
  -23.5346  -32.1416   23.7501 O   0  0  0  0  0  0
  -29.6386  -18.1309   21.1109 C   0  0  0  0  0  0
  -29.8498  -16.7539   20.3781 C   0  0  0  0  0  0
  -28.8658  -21.5658   20.5106 C   0  0  0  0  0  0
  -27.8554  -20.4564   22.4785 C   0  0  0  0  0  0
  -28.5655  -19.0826   20.5225 C   0  0  0  0  0  0
  -28.5637  -22.9418   21.1574 C   0  0  0  0  0  0
  -28.6665  -24.1802   20.2189 C   0  0  0  0  0  0
  -28.2950  -25.4986   20.9419 C   0  0  0  0  0  0
  -29.9974  -15.5731   21.0554 N   0  5  0  0  0  0
  -28.4937  -20.4257   21.1561 N   0  0  0  0  0  0
  -30.3014  -18.4475   22.1078 O   0  0  0  0  0  0
  -29.8477  -16.8330   19.1406 O   0  0  0  0  0  0
  -29.4220  -21.5404   19.4093 O   0  0  0  0  0  0
  -31.4720  -12.3828   19.1421 H   0  0  0  0  0  0
  -30.3142  -11.2988   19.8508 H   0  0  0  0  0  0
  -29.7453  -11.7652   17.4421 H   0  0  0  0  0  0
  -29.6734  -13.4777   17.7749 H   0  0  0  0  0  0
  -27.8319  -11.3039   18.8265 H   0  0  0  0  0  0
  -27.3752  -12.6260   17.7868 H   0  0  0  0  0  0
  -27.7065  -14.2540   19.5660 H   0  0  0  0  0  0
  -28.6804  -11.9795   21.3623 H   0  0  0  0  0  0
  -28.4685  -13.6320   21.8578 H   0  0  0  0  0  0
  -25.2770   -9.5683   22.4759 H   0  0  0  0  0  0
  -23.9995   -7.4644   22.7481 H   0  0  0  0  0  0
  -21.0842   -8.8791   19.8954 H   0  0  0  0  0  0
  -22.3716  -10.9680   19.6163 H   0  0  0  0  0  0
  -21.2005   -7.6155   23.9721 H   0  0  0  0  0  0
  -21.1474   -6.0525   25.9078 H   0  0  0  0  0  0
  -22.0601   -2.7614   23.2841 H   0  0  0  0  0  0
  -22.4118  -11.9888   22.4756 H   0  0  0  0  0  0
  -21.1134  -13.1265   22.2609 H   0  0  0  0  0  0
  -24.6762  -15.8520   20.5202 H   0  0  0  0  0  0
  -26.3031  -15.6161   20.1139 H   0  0  0  0  0  0
  -26.7114  -32.5535   23.1157 H   0  0  0  0  0  0
  -25.0068  -33.9780   25.0493 H   0  0  0  0  0  0
  -22.6912  -31.3066   21.4107 H   0  0  0  0  0  0
  -23.3748  -35.9641   23.3304 H   0  0  0  0  0  0
  -24.3583  -36.8918   22.2050 H   0  0  0  0  0  0
  -23.7232  -37.6517   23.6643 H   0  0  0  0  0  0
  -26.0393  -31.6017   20.5914 H   0  0  0  0  0  0
  -26.8206  -30.8911   21.9758 H   0  0  0  0  0  0
  -28.1061  -29.1089   21.1537 H   0  0  0  0  0  0
  -26.0650  -25.9584   19.0352 H   0  0  0  0  0  0
  -23.9769  -27.2877   19.0441 H   0  0  0  0  0  0
  -23.7158  -30.5954   19.4035 H   0  0  0  0  0  0
  -22.7362  -29.2382   19.8701 H   0  0  0  0  0  0
  -25.1283  -36.1972   25.0832 H   0  0  0  0  0  0
  -20.9951  -28.3223   24.1444 H   0  0  0  0  0  0
  -20.5661  -26.2265   23.3613 H   0  0  0  0  0  0
  -21.6635  -26.7436   22.1217 H   0  0  0  0  0  0
  -19.6907  -25.6303   21.1228 H   0  0  0  0  0  0
  -19.6702  -27.3213   20.6763 H   0  0  0  0  0  0
  -17.4200  -26.6698   21.4000 H   0  0  0  0  0  0
  -18.0301  -26.0060   22.8994 H   0  0  0  0  0  0
  -19.7923  -30.7253   24.2294 H   0  0  0  0  0  0
  -17.5004  -31.6267   24.5167 H   0  0  0  0  0  0
  -15.5343  -30.2993   23.7650 H   0  0  0  0  0  0
  -15.8657  -28.0835   22.7047 H   0  0  0  0  0  0
  -24.5939  -30.7016   25.7816 H   0  0  0  0  0  0
  -24.8902  -32.2856   26.4884 H   0  0  0  0  0  0
  -25.8101  -30.8909   27.0241 H   0  0  0  0  0  0
  -26.2822  -29.6807   24.1139 H   0  0  0  0  0  0
  -27.4067  -29.7258   25.4526 H   0  0  0  0  0  0
  -27.8654  -30.4353   23.9214 H   0  0  0  0  0  0
  -27.2704  -33.3598   26.2068 H   0  0  0  0  0  0
  -28.3862  -32.6851   25.0287 H   0  0  0  0  0  0
  -28.0736  -31.8401   26.5367 H   0  0  0  0  0  0
  -28.2602  -38.0100   24.7504 H   0  0  0  0  0  0
  -28.1076  -36.2634   24.6280 H   0  0  0  0  0  0
  -27.2305  -37.1441   25.8864 H   0  0  0  0  0  0
  -20.9299  -29.8745   21.6947 H   0  0  0  0  0  0
  -26.0181  -38.2874   24.1423 H   0  0  0  0  0  0
  -28.4267  -21.0663   23.1794 H   0  0  0  0  0  0
  -27.7766  -19.4626   22.9205 H   0  0  0  0  0  0
  -26.8443  -20.8602   22.4114 H   0  0  0  0  0  0
  -27.5975  -18.5922   20.6274 H   0  0  0  0  0  0
  -28.7291  -19.1610   19.4473 H   0  0  0  0  0  0
  -29.2407  -23.0708   22.0021 H   0  0  0  0  0  0
  -27.5543  -22.9212   21.5671 H   0  0  0  0  0  0
  -28.0078  -24.0427   19.3603 H   0  0  0  0  0  0
  -29.6791  -24.2590   19.8217 H   0  0  0  0  0  0
  -28.9771  -25.6522   21.7786 H   0  0  0  0  0  0
  -27.3054  -25.3900   21.3911 H   0  0  0  0  0  0
  1 25  1  0  0  0
  1 30  2  0  0  0
  1 79  1  0  0  0
  2  3  1  0  0  0
  2 25  1  0  0  0
  2 84  1  0  0  0
  2 85  1  0  0  0
  3  4  1  0  0  0
  3 86  1  0  0  0
  3 87  1  0  0  0
  4  5  1  0  0  0
  4 88  1  0  0  0
  4 89  1  0  0  0
  5  6  1  0  0  0
  5 26  1  0  0  0
  5 90  1  0  0  0
  6 25  1  0  0  0
  6 91  1  0  0  0
  6 92  1  0  0  0
  7  8  2  0  0  0
  7 26  1  0  0  0
  7 29  1  0  0  0
  8  9  1  0  0  0
  8 22  1  0  0  0
  9 10  1  0  0  0
  9 27  2  0  0  0
 10 11  2  0  0  0
 10 15  1  0  0  0
 11 12  1  0  0  0
 11 93  1  0  0  0
 12 13  2  0  0  0
 12 94  1  0  0  0
 13 14  1  0  0  0
 13 31  1  0  0  0
 14 15  2  0  0  0
 14 95  1  0  0  0
 15 96  1  0  0  0
 16 17  2  0  0  0
 16 21  1  0  0  0
 16 31  1  0  0  0
 17 18  1  0  0  0
 17 97  1  0  0  0
 18 19  2  0  0  0
 18 98  1  0  0  0
 19 20  1  0  0  0
 19 24  1  0  0  0
 20 21  2  0  0  0
 20 99  1  0  0  0
 21 23  1  0  0  0
 22 28  1  0  0  0
 22 32  2  0  0  0
 26 27  1  0  0  0
 28100  1  0  0  0
 28101  1  0  0  0
 29102  1  0  0  0
 29103  1  0  0  0
 33 34  1  0  0  0
 33 66  1  0  0  0
 33 70  2  0  0  0
 34 36  1  0  0  0
 34 59  1  0  0  0
 34104  1  0  0  0
 35 44  2  0  0  0
 35 45  1  0  0  0
 35 68  1  0  0  0
 36 56  1  0  0  0
 36105  1  0  0  0
 37 39  1  0  0  0
 37 47  1  0  0  0
 37 66  1  0  0  0
 37106  1  0  0  0
 38 43  2  0  0  0
 38 46  1  0  0  0
 38 47  1  0  0  0
 39 64  1  0  0  0
 39 67  2  0  0  0
 40 52  1  0  0  0
 40 53  2  0  0  0
 40 58  1  0  0  0
 41107  1  0  0  0
 41108  1  0  0  0
 41109  1  0  0  0
 41 48  1  0  0  0
 42 43  1  0  0  0
 42 66  1  0  0  0
 42110  1  0  0  0
 42111  1  0  0  0
 43 44  1  0  0  0
 44112  1  0  0  0
 45 46  2  0  0  0
 45113  1  0  0  0
 46114  1  0  0  0
 47115  1  0  0  0
 47116  1  0  0  0
 48 56  1  0  0  0
 48 65  1  0  0  0
 48117  1  0  0  0
 49 50  1  0  0  0
 49 53  1  0  0  0
 49 64  1  0  0  0
 49118  1  0  0  0
 50 51  1  0  0  0
 50119  1  0  0  0
 50120  1  0  0  0
 51 52  1  0  0  0
 51121  1  0  0  0
 51122  1  0  0  0
 52123  1  0  0  0
 52124  1  0  0  0
 53 54  1  0  0  0
 54 55  2  0  0  0
 54125  1  0  0  0
 55 57  1  0  0  0
 55126  1  0  0  0
 56 69  2  0  0  0
 57 58  2  0  0  0
 57127  1  0  0  0
 58128  1  0  0  0
 59 60  1  0  0  0
 59 61  1  0  0  0
 59 62  1  0  0  0
 60129  1  0  0  0
 60130  1  0  0  0
 60131  1  0  0  0
 61132  1  0  0  0
 61133  1  0  0  0
 61134  1  0  0  0
 62135  1  0  0  0
 62136  1  0  0  0
 62137  1  0  0  0
 63 65  1  0  0  0
 63138  1  0  0  0
 63139  1  0  0  0
 63140  1  0  0  0
 64141  1  0  0  0
 65142  1  0  0  0
 68 78  1  0  0  0
 71 72  1  0  0  0
 71 75  1  0  0  0
 71 81  2  0  0  0
 72 79  1  0  0  0
 72 82  2  0  0  0
 73 76  1  0  0  0
 73 80  1  0  0  0
 73 83  2  0  0  0
 74 80  1  0  0  0
 74143  1  0  0  0
 74144  1  0  0  0
 74145  1  0  0  0
 75 80  1  0  0  0
 75146  1  0  0  0
 75147  1  0  0  0
 76 77  1  0  0  0
 76148  1  0  0  0
 76149  1  0  0  0
 77 78  1  0  0  0
 77150  1  0  0  0
 77151  1  0  0  0
 78152  1  0  0  0
 78153  1  0  0  0
M  CHG  1  79  -1
M  ISO  4   1 100  68 101  78 101  79 100
M  END
> <chiral flag>
0

> <version>
0

> <s_m_source_file>
/data/baiqing/PycharmProjects/Reinvent-master-3.2/result/LINK_invent/BTK/process_docking_weight1_custom_product_contain_oxygen_bond_distance_aromatic_linkinvent_7_9_3/rearranged_h_0163.sdf

> <i_m_source_file_index>
83

> <r_mmod_Potential_Energy-OPLS-2005>
-252.996597290039

> <r_mmod_Stretch_Energy-OPLS-2005>
43.638858795166

> <r_mmod_Bend_Energy-OPLS-2005>
105.552520751953

> <r_mmod_Torsional_Energy-OPLS-2005>
232.665771484375

> <r_mmod_Improper_Torsional_Energy-OPLS-2005>
2.51004481315613

> <r_mmod_Van_der_Waal_Energy-OPLS-2005>
142.565505981445

> <r_mmod_Electrostatic_Energy-OPLS-2005>
-298.976989746094

> <r_mmod_Solvation_Energy-OPLS-2005>
-497.103942871094

> <b_mmod_Minimization_Converged-OPLS-2005>
0

> <r_mmod_RMS_Derivative-OPLS-2005>
0.871139466762543

$$$$
83
                    3D
 Structure written by MMmdl.
158166  0  0  1  0            999 V2000
  -30.5948  -14.7214   20.5119 C   0  0  0  0  0  0
  -30.4480  -12.4483   19.4685 C   0  0  0  0  0  0
  -29.5170  -12.5313   18.2356 C   0  0  0  0  0  0
  -28.0419  -12.3491   18.6455 C   0  0  0  0  0  0
  -27.6545  -13.2225   19.8683 C   0  0  2  0  0  0
  -28.6994  -13.1002   21.0010 C   0  0  0  0  0  0
  -25.2536  -13.8135   20.5664 C   0  0  0  0  0  0
  -24.1823  -13.0413   20.9228 C   0  0  0  0  0  0
  -24.6408  -11.6891   20.8768 C   0  0  0  0  0  0
  -23.9075  -10.4287   21.0429 C   0  0  0  0  0  0
  -24.3622   -9.4203   21.9202 C   0  0  0  0  0  0
  -23.6301   -8.2237   22.0755 C   0  0  0  0  0  0
  -22.4282   -8.0284   21.3547 C   0  0  0  0  0  0
  -21.9920   -9.0264   20.4651 C   0  0  0  0  0  0
  -22.7252  -10.2140   20.3073 C   0  0  0  0  0  0
  -21.6858   -6.0745   22.5284 C   0  0  0  0  0  0
  -21.4017   -6.5653   23.8218 C   0  0  0  0  0  0
  -21.3653   -5.6800   24.9176 C   0  0  0  0  0  0
  -21.6038   -4.3065   24.7224 C   0  0  0  0  0  0
  -21.8823   -3.8158   23.4351 C   0  0  0  0  0  0
  -21.9200   -4.6974   22.3406 C   0  0  0  0  0  0
  -22.7842  -13.5224   21.1864 C   0  0  0  0  0  0
  -22.1669   -4.2162   21.0981 F   0  0  0  0  0  0
  -21.5620   -3.4545   25.7738 F   0  0  0  0  0  0
  -30.0104  -13.4747   20.4426 N   0  0  0  0  0  0
  -26.2993  -12.9343   20.3324 N   0  0  0  0  0  0
  -25.9340  -11.6503   20.5772 N   0  0  0  0  0  0
  -22.0473  -12.8214   22.0404 N   0  0  0  0  0  0
  -25.4174  -15.1817   20.3892 N   0  0  0  0  0  0
  -31.7345  -14.9053   20.0731 O   0  0  0  0  0  0
  -21.6642   -6.8883   21.4243 O   0  0  0  0  0  0
  -22.3551  -14.5544   20.6713 O   0  0  0  0  0  0
  -24.6300  -31.8565   23.2002 C   0  0  0  0  0  0
  -25.9128  -32.4770   23.8342 C   0  0  1  0  0  0
  -27.2243  -27.2693   20.1289 C   0  0  0  0  0  0
  -25.5922  -33.8569   24.2272 N   0  0  0  0  0  0
  -23.4267  -30.4791   21.5436 C   0  0  2  0  0  0
  -24.8758  -28.9305   20.1102 C   0  0  0  0  0  0
  -22.7505  -29.4601   22.4929 C   0  0  0  0  0  0
  -18.0314  -28.1385   22.8500 C   0  0  0  0  0  0
  -24.1486  -36.7285   23.2642 C   0  0  0  0  0  0
  -25.9726  -30.7704   21.3814 C   0  0  0  0  0  0
  -26.0464  -29.3945   20.7233 C   0  0  0  0  0  0
  -27.2222  -28.5757   20.7249 C   0  0  0  0  0  0
  -26.0313  -26.8809   19.4733 C   0  0  0  0  0  0
  -24.8742  -27.6816   19.4739 C   0  0  0  0  0  0
  -23.6446  -29.8136   20.1599 C   0  0  0  0  0  0
  -25.4118  -36.3085   24.0332 C   0  0  1  0  0  0
  -20.5915  -28.3699   23.1307 C   0  0  2  0  0  0
  -20.6809  -26.9414   22.5463 C   0  0  0  0  0  0
  -19.5795  -26.6341   21.5276 C   0  0  0  0  0  0
  -18.1968  -26.7924   22.1662 C   0  0  0  0  0  0
  -19.1560  -28.8859   23.2886 C   0  0  0  0  0  0
  -18.9474  -30.1472   23.8871 C   0  0  0  0  0  0
  -17.6475  -30.6593   24.0536 C   0  0  0  0  0  0
  -25.9057  -34.9450   23.5108 C   0  0  0  0  0  0
  -16.5366  -29.9088   23.6313 C   0  0  0  0  0  0
  -16.7291  -28.6498   23.0355 C   0  0  0  0  0  0
  -26.4488  -31.6595   25.0732 C   0  0  0  0  0  0
  -25.3704  -31.3740   26.1449 C   0  0  0  0  0  0
  -27.0343  -30.3014   24.6227 C   0  0  0  0  0  0
  -27.6042  -32.4344   25.7495 C   0  0  0  0  0  0
  -27.5583  -37.1802   24.8466 C   0  0  0  0  0  0
  -21.4217  -29.3033   22.3675 N   0  0  0  0  0  0
  -26.4298  -37.3782   23.9405 N   0  0  0  0  0  0
  -24.6953  -31.0530   22.0981 N   0  0  0  0  0  0
  -23.4210  -28.8150   23.3030 O   0  0  0  0  0  0
  -28.3141  -26.3679   20.2059 O   0  0  0  0  0  0
  -26.5628  -34.8921   22.4676 O   0  0  0  0  0  0
  -23.5451  -32.1377   23.7302 O   0  0  0  0  0  0
  -30.2553  -18.3929   20.7792 C   0  0  0  0  0  0
  -28.2924  -17.5042   20.2140 C   0  0  0  0  0  0
  -29.5366  -17.1377   20.6298 C   0  0  0  0  0  0
  -29.4507  -19.5023   20.4418 C   0  0  0  0  0  0
  -29.7411  -21.0218   20.5364 C   0  0  0  0  0  0
  -29.0702  -23.8009   20.4520 C   0  0  0  0  0  0
  -26.9983  -19.4873   19.5682 C   0  0  0  0  0  0
  -24.5027  -19.8282   20.0253 C   0  0  0  0  0  0
  -28.7491  -22.2471   20.1797 C   0  0  0  0  0  0
  -28.0408  -24.9120   19.9445 C   0  0  0  0  0  0
  -25.6518  -18.8173   19.8719 C   0  0  0  0  0  0
  -30.8994  -21.3324   20.9436 N   0  0  0  0  0  0
  -28.2266  -18.8950   20.0606 N   0  0  0  0  0  0
  -29.8191  -15.7393   21.0328 N   0  0  0  0  0  0
  -30.0965  -24.1484   21.0484 O   0  0  0  0  0  0
  -27.0502  -20.4877   18.8533 O   0  0  0  0  0  0
  -31.4872  -12.5886   19.1656 H   0  0  0  0  0  0
  -30.4005  -11.4558   19.9200 H   0  0  0  0  0  0
  -29.7944  -11.7775   17.4979 H   0  0  0  0  0  0
  -29.6451  -13.4977   17.7465 H   0  0  0  0  0  0
  -27.8952  -11.2952   18.8845 H   0  0  0  0  0  0
  -27.3847  -12.5637   17.8016 H   0  0  0  0  0  0
  -27.6652  -14.2558   19.5203 H   0  0  0  0  0  0
  -28.7323  -12.0789   21.3846 H   0  0  0  0  0  0
  -28.4222  -13.7248   21.8519 H   0  0  0  0  0  0
  -25.2765   -9.5689   22.4779 H   0  0  0  0  0  0
  -24.0029   -7.4620   22.7453 H   0  0  0  0  0  0
  -21.0866   -8.8788   19.8938 H   0  0  0  0  0  0
  -22.3727  -10.9688   19.6187 H   0  0  0  0  0  0
  -21.2010   -7.6160   23.9726 H   0  0  0  0  0  0
  -21.1460   -6.0527   25.9079 H   0  0  0  0  0  0
  -22.0605   -2.7623   23.2846 H   0  0  0  0  0  0
  -22.4082  -11.9864   22.4773 H   0  0  0  0  0  0
  -21.1093  -13.1240   22.2613 H   0  0  0  0  0  0
  -24.6080  -15.7927   20.3997 H   0  0  0  0  0  0
  -26.1779  -15.5343   19.8279 H   0  0  0  0  0  0
  -26.7193  -32.5425   23.1085 H   0  0  0  0  0  0
  -25.0042  -33.9702   25.0399 H   0  0  0  0  0  0
  -22.7221  -31.3005   21.3985 H   0  0  0  0  0  0
  -23.3757  -35.9608   23.3309 H   0  0  0  0  0  0
  -24.3561  -36.8898   22.2051 H   0  0  0  0  0  0
  -23.7220  -37.6485   23.6657 H   0  0  0  0  0  0
  -26.1138  -31.5326   20.6137 H   0  0  0  0  0  0
  -26.8478  -30.8176   22.0166 H   0  0  0  0  0  0
  -28.1137  -28.9233   21.2279 H   0  0  0  0  0  0
  -25.9548  -25.9331   18.9633 H   0  0  0  0  0  0
  -23.9811  -27.3234   18.9814 H   0  0  0  0  0  0
  -23.7639  -30.5887   19.4021 H   0  0  0  0  0  0
  -22.7644  -29.2426   19.8588 H   0  0  0  0  0  0
  -25.1298  -36.1946   25.0826 H   0  0  0  0  0  0
  -21.0022  -28.3316   24.1432 H   0  0  0  0  0  0
  -20.5727  -26.2330   23.3694 H   0  0  0  0  0  0
  -21.6677  -26.7441   22.1258 H   0  0  0  0  0  0
  -19.6956  -25.6223   21.1376 H   0  0  0  0  0  0
  -19.6767  -27.3106   20.6774 H   0  0  0  0  0  0
  -17.4254  -26.6686   21.4047 H   0  0  0  0  0  0
  -18.0336  -26.0081   22.9065 H   0  0  0  0  0  0
  -19.7963  -30.7288   24.2214 H   0  0  0  0  0  0
  -17.5024  -31.6274   24.5129 H   0  0  0  0  0  0
  -15.5358  -30.2980   23.7644 H   0  0  0  0  0  0
  -15.8686  -28.0806   22.7094 H   0  0  0  0  0  0
  -24.5877  -30.7100   25.7760 H   0  0  0  0  0  0
  -24.8893  -32.2909   26.4871 H   0  0  0  0  0  0
  -25.8008  -30.8906   27.0228 H   0  0  0  0  0  0
  -26.2937  -29.6756   24.1240 H   0  0  0  0  0  0
  -27.4003  -29.7287   25.4756 H   0  0  0  0  0  0
  -27.8823  -30.4280   23.9495 H   0  0  0  0  0  0
  -27.2651  -33.3648   26.2065 H   0  0  0  0  0  0
  -28.3851  -32.6904   25.0321 H   0  0  0  0  0  0
  -28.0723  -31.8480   26.5413 H   0  0  0  0  0  0
  -28.2616  -38.0089   24.7519 H   0  0  0  0  0  0
  -28.1073  -36.2619   24.6304 H   0  0  0  0  0  0
  -27.2294  -37.1465   25.8870 H   0  0  0  0  0  0
  -20.9402  -29.8759   21.6885 H   0  0  0  0  0  0
  -26.0188  -38.2865   24.1404 H   0  0  0  0  0  0
  -31.2630  -18.4981   21.1588 H   0  0  0  0  0  0
  -27.4358  -16.8866   19.9993 H   0  0  0  0  0  0
  -23.5724  -19.3195   20.2768 H   0  0  0  0  0  0
  -24.3361  -20.3873   19.1041 H   0  0  0  0  0  0
  -24.7087  -20.5476   20.8189 H   0  0  0  0  0  0
  -27.7884  -22.0524   20.6549 H   0  0  0  0  0  0
  -28.5819  -22.2103   19.1055 H   0  0  0  0  0  0
  -27.0810  -24.6481   20.3889 H   0  0  0  0  0  0
  -27.9336  -24.7791   18.8683 H   0  0  0  0  0  0
  -25.7337  -18.2427   20.7949 H   0  0  0  0  0  0
  -25.4272  -18.1129   19.0706 H   0  0  0  0  0  0
  -31.0195  -22.3417   20.9999 H   0  0  0  0  0  0
  -29.0140  -15.3089   21.4644 H   0  0  0  0  0  0
  1 25  1  0  0  0
  1 30  2  0  0  0
  1 84  1  0  0  0
  2  3  1  0  0  0
  2 25  1  0  0  0
  2 87  1  0  0  0
  2 88  1  0  0  0
  3  4  1  0  0  0
  3 89  1  0  0  0
  3 90  1  0  0  0
  4  5  1  0  0  0
  4 91  1  0  0  0
  4 92  1  0  0  0
  5  6  1  0  0  0
  5 26  1  0  0  0
  5 93  1  0  0  0
  6 25  1  0  0  0
  6 94  1  0  0  0
  6 95  1  0  0  0
  7  8  2  0  0  0
  7 26  1  0  0  0
  7 29  1  0  0  0
  8  9  1  0  0  0
  8 22  1  0  0  0
  9 10  1  0  0  0
  9 27  2  0  0  0
 10 11  2  0  0  0
 10 15  1  0  0  0
 11 12  1  0  0  0
 11 96  1  0  0  0
 12 13  2  0  0  0
 12 97  1  0  0  0
 13 14  1  0  0  0
 13 31  1  0  0  0
 14 15  2  0  0  0
 14 98  1  0  0  0
 15 99  1  0  0  0
 16 17  2  0  0  0
 16 21  1  0  0  0
 16 31  1  0  0  0
 17 18  1  0  0  0
 17100  1  0  0  0
 18 19  2  0  0  0
 18101  1  0  0  0
 19 20  1  0  0  0
 19 24  1  0  0  0
 20 21  2  0  0  0
 20102  1  0  0  0
 21 23  1  0  0  0
 22 28  1  0  0  0
 22 32  2  0  0  0
 26 27  1  0  0  0
 28103  1  0  0  0
 28104  1  0  0  0
 29105  1  0  0  0
 29106  1  0  0  0
 33 34  1  0  0  0
 33 66  1  0  0  0
 33 70  2  0  0  0
 34 36  1  0  0  0
 34 59  1  0  0  0
 34107  1  0  0  0
 35 44  2  0  0  0
 35 45  1  0  0  0
 35 68  1  0  0  0
 36 56  1  0  0  0
 36108  1  0  0  0
 37 39  1  0  0  0
 37 47  1  0  0  0
 37 66  1  0  0  0
 37109  1  0  0  0
 38 43  2  0  0  0
 38 46  1  0  0  0
 38 47  1  0  0  0
 39 64  1  0  0  0
 39 67  2  0  0  0
 40 52  1  0  0  0
 40 53  2  0  0  0
 40 58  1  0  0  0
 41110  1  0  0  0
 41111  1  0  0  0
 41112  1  0  0  0
 41 48  1  0  0  0
 42 43  1  0  0  0
 42 66  1  0  0  0
 42113  1  0  0  0
 42114  1  0  0  0
 43 44  1  0  0  0
 44115  1  0  0  0
 45 46  2  0  0  0
 45116  1  0  0  0
 46117  1  0  0  0
 47118  1  0  0  0
 47119  1  0  0  0
 48 56  1  0  0  0
 48 65  1  0  0  0
 48120  1  0  0  0
 49 50  1  0  0  0
 49 53  1  0  0  0
 49 64  1  0  0  0
 49121  1  0  0  0
 50 51  1  0  0  0
 50122  1  0  0  0
 50123  1  0  0  0
 51 52  1  0  0  0
 51124  1  0  0  0
 51125  1  0  0  0
 52126  1  0  0  0
 52127  1  0  0  0
 53 54  1  0  0  0
 54 55  2  0  0  0
 54128  1  0  0  0
 55 57  1  0  0  0
 55129  1  0  0  0
 56 69  2  0  0  0
 57 58  2  0  0  0
 57130  1  0  0  0
 58131  1  0  0  0
 59 60  1  0  0  0
 59 61  1  0  0  0
 59 62  1  0  0  0
 60132  1  0  0  0
 60133  1  0  0  0
 60134  1  0  0  0
 61135  1  0  0  0
 61136  1  0  0  0
 61137  1  0  0  0
 62138  1  0  0  0
 62139  1  0  0  0
 62140  1  0  0  0
 63 65  1  0  0  0
 63141  1  0  0  0
 63142  1  0  0  0
 63143  1  0  0  0
 64144  1  0  0  0
 65145  1  0  0  0
 68 80  1  0  0  0
 71 73  1  0  0  0
 71 74  2  0  0  0
 71146  1  0  0  0
 72 73  2  0  0  0
 72 83  1  0  0  0
 72147  1  0  0  0
 73 84  1  0  0  0
 74 75  1  0  0  0
 74 83  1  0  0  0
 75 79  1  0  0  0
 75 82  2  0  0  0
 76 79  1  0  0  0
 76 80  1  0  0  0
 76 85  2  0  0  0
 77 81  1  0  0  0
 77 83  1  0  0  0
 77 86  2  0  0  0
 78 81  1  0  0  0
 78148  1  0  0  0
 78149  1  0  0  0
 78150  1  0  0  0
 79151  1  0  0  0
 79152  1  0  0  0
 80153  1  0  0  0
 80154  1  0  0  0
 81155  1  0  0  0
 81156  1  0  0  0
 82157  1  0  0  0
 84158  1  0  0  0
M  ISO  4   1 100  68 101  80 101  84 100
M  END
> <chiral flag>
0

> <version>
0

> <s_m_source_file>
/data/baiqing/PycharmProjects/Reinvent-master-3.2/result/LINK_invent/BTK/process_docking_weight1_custom_product_contain_oxygen_bond_distance_aromatic_linkinvent_7_9_3/rearranged_h_0163.sdf

> <i_m_source_file_index>
84

> <r_mmod_Potential_Energy-OPLS-2005>
199.519149780273

> <r_mmod_Stretch_Energy-OPLS-2005>
126.944374084473

> <r_mmod_Bend_Energy-OPLS-2005>
209.873886108398

> <r_mmod_Torsional_Energy-OPLS-2005>
259.691528320312

> <r_mmod_Improper_Torsional_Energy-OPLS-2005>
9.12107372283936

> <r_mmod_Van_der_Waal_Energy-OPLS-2005>
134.064483642578

> <r_mmod_Electrostatic_Energy-OPLS-2005>
-358.453002929688

> <r_mmod_Solvation_Energy-OPLS-2005>
-259.756500244141

> <b_mmod_Minimization_Converged-OPLS-2005>
0

> <r_mmod_RMS_Derivative-OPLS-2005>
1.64396560192108

$$$$
84
                    3D
 Structure written by MMmdl.
156164  0  0  1  0            999 V2000
  -30.6912  -14.5033   20.6226 C   0  0  0  0  0  0
  -30.4378  -12.3410   19.4255 C   0  0  0  0  0  0
  -29.4974  -12.5190   18.2143 C   0  0  0  0  0  0
  -28.0212  -12.3594   18.6302 C   0  0  0  0  0  0
  -27.6628  -13.2044   19.8793 C   0  0  2  0  0  0
  -28.7066  -12.9944   21.0023 C   0  0  0  0  0  0
  -25.2608  -13.8168   20.5670 C   0  0  0  0  0  0
  -24.1862  -13.0443   20.9179 C   0  0  0  0  0  0
  -24.6408  -11.6892   20.8768 C   0  0  0  0  0  0
  -23.9062  -10.4284   21.0400 C   0  0  0  0  0  0
  -24.3606   -9.4201   21.9174 C   0  0  0  0  0  0
  -23.6284   -8.2235   22.0731 C   0  0  0  0  0  0
  -22.4275   -8.0261   21.3514 C   0  0  0  0  0  0
  -21.9913   -9.0242   20.4629 C   0  0  0  0  0  0
  -22.7235  -10.2119   20.3044 C   0  0  0  0  0  0
  -21.6850   -6.0722   22.5273 C   0  0  0  0  0  0
  -21.4019   -6.5637   23.8206 C   0  0  0  0  0  0
  -21.3673   -5.6790   24.9173 C   0  0  0  0  0  0
  -21.6033   -4.3049   24.7227 C   0  0  0  0  0  0
  -21.8830   -3.8138   23.4356 C   0  0  0  0  0  0
  -21.9201   -4.6950   22.3402 C   0  0  0  0  0  0
  -22.7877  -13.5212   21.1844 C   0  0  0  0  0  0
  -22.1665   -4.2131   21.0980 F   0  0  0  0  0  0
  -21.5634   -3.4537   25.7749 F   0  0  0  0  0  0
  -30.0378  -13.3171   20.4549 N   0  0  0  0  0  0
  -26.3047  -12.9322   20.3393 N   0  0  0  0  0  0
  -25.9343  -11.6491   20.5813 N   0  0  0  0  0  0
  -22.0540  -12.8183   22.0412 N   0  0  0  0  0  0
  -25.4376  -15.1873   20.4010 N   0  0  0  0  0  0
  -31.8081  -14.7298   20.1485 O   0  0  0  0  0  0
  -21.6626   -6.8861   21.4225 O   0  0  0  0  0  0
  -22.3540  -14.5517   20.6700 O   0  0  0  0  0  0
  -24.6387  -31.8696   23.2123 C   0  0  0  0  0  0
  -25.9218  -32.4848   23.8435 C   0  0  1  0  0  0
  -27.2375  -27.3815   20.1068 C   0  0  0  0  0  0
  -25.5994  -33.8621   24.2338 N   0  0  0  0  0  0
  -23.4429  -30.4958   21.5660 C   0  0  2  0  0  0
  -24.8652  -28.9512   20.1245 C   0  0  0  0  0  0
  -22.7797  -29.4807   22.5208 C   0  0  0  0  0  0
  -17.9952  -28.1212   22.8729 C   0  0  0  0  0  0
  -24.1494  -36.7328   23.2627 C   0  0  0  0  0  0
  -25.9647  -30.8190   21.3685 C   0  0  0  0  0  0
  -26.0316  -29.4473   20.7186 C   0  0  0  0  0  0
  -27.2164  -28.6685   20.7090 C   0  0  0  0  0  0
  -26.0380  -26.9059   19.5225 C   0  0  0  0  0  0
  -24.8648  -27.6811   19.5295 C   0  0  0  0  0  0
  -23.6358  -29.8268   20.1782 C   0  0  0  0  0  0
  -25.4117  -36.3107   24.0319 C   0  0  1  0  0  0
  -20.4827  -28.4569   22.7822 C   0  0  2  0  0  0
  -20.6923  -26.9592   22.5294 C   0  0  0  0  0  0
  -19.5532  -26.4583   21.6164 C   0  0  0  0  0  0
  -18.1574  -26.7532   22.2061 C   0  0  0  0  0  0
  -19.1172  -28.8982   23.2516 C   0  0  0  0  0  0
  -18.9352  -30.1495   23.8773 C   0  0  0  0  0  0
  -17.6353  -30.6514   24.0791 C   0  0  0  0  0  0
  -25.9053  -34.9477   23.5110 C   0  0  0  0  0  0
  -16.5195  -29.8957   23.6745 C   0  0  0  0  0  0
  -16.6996  -28.6298   23.0863 C   0  0  0  0  0  0
  -26.4549  -31.6612   25.0781 C   0  0  0  0  0  0
  -25.3781  -31.3732   26.1505 C   0  0  0  0  0  0
  -27.0354  -30.3036   24.6182 C   0  0  0  0  0  0
  -27.6088  -32.4328   25.7575 C   0  0  0  0  0  0
  -27.5580  -37.1846   24.8459 C   0  0  0  0  0  0
  -21.4577  -29.4427   22.3966 N   0  0  0  0  0  0
  -26.4301  -37.3795   23.9391 N   0  0  0  0  0  0
  -24.7036  -31.0773   22.1068 N   0  0  0  0  0  0
  -23.4288  -28.7600   23.2811 O   0  0  0  0  0  0
  -28.4120  -26.6357   20.1363 O   0  0  0  0  0  0
  -26.5584  -34.8936   22.4651 O   0  0  0  0  0  0
  -23.5547  -32.1433   23.7484 O   0  0  0  0  0  0
  -30.5281  -19.5614   22.2022 C   0  0  0  0  0  0
  -31.1745  -17.2157   22.4862 C   0  0  0  0  0  0
  -29.6256  -19.2228   21.1663 C   0  0  0  0  0  0
  -30.2767  -16.8357   21.4667 C   0  0  0  0  0  0
  -31.2893  -18.5711   22.8542 C   0  0  0  0  0  0
  -29.5181  -17.8404   20.8044 C   0  0  0  0  0  0
  -28.7613  -20.2838   20.5610 C   0  0  0  0  0  0
  -28.7529  -24.1298   20.3838 C   0  0  0  0  0  0
  -28.4032  -22.6664   19.9611 C   0  0  0  0  0  0
  -28.5201  -25.3574   19.4440 C   0  0  0  0  0  0
  -27.5274  -22.5176   18.9469 N   0  3  0  0  0  0
  -29.9681  -15.4548   21.2492 N   0  0  0  0  0  0
  -27.6441  -19.9005   19.9341 N   0  3  0  0  0  0
  -29.0099  -21.6278   20.6385 N   0  0  0  0  0  0
  -29.2613  -24.2841   21.4998 O   0  0  0  0  0  0
  -32.1019  -18.9259   23.8782 F   0  0  0  0  0  0
  -28.6330  -17.4428   19.8535 F   0  0  0  0  0  0
  -31.4773  -12.4709   19.1153 H   0  0  0  0  0  0
  -30.3666  -11.3273   19.8239 H   0  0  0  0  0  0
  -29.7442  -11.8071   17.4260 H   0  0  0  0  0  0
  -29.6472  -13.5070   17.7795 H   0  0  0  0  0  0
  -27.8401  -11.3050   18.8359 H   0  0  0  0  0  0
  -27.3619  -12.6188   17.8017 H   0  0  0  0  0  0
  -27.6989  -14.2489   19.5713 H   0  0  0  0  0  0
  -28.6993  -11.9615   21.3483 H   0  0  0  0  0  0
  -28.4558  -13.5840   21.8857 H   0  0  0  0  0  0
  -25.2746   -9.5668   22.4753 H   0  0  0  0  0  0
  -23.9995   -7.4617   22.7447 H   0  0  0  0  0  0
  -21.0845   -8.8755   19.8943 H   0  0  0  0  0  0
  -22.3684  -10.9651   19.6156 H   0  0  0  0  0  0
  -21.2016   -7.6146   23.9697 H   0  0  0  0  0  0
  -21.1476   -6.0525   25.9067 H   0  0  0  0  0  0
  -22.0607   -2.7598   23.2856 H   0  0  0  0  0  0
  -22.4163  -11.9811   22.4758 H   0  0  0  0  0  0
  -21.1154  -13.1175   22.2676 H   0  0  0  0  0  0
  -24.6642  -15.8405   20.4560 H   0  0  0  0  0  0
  -26.2865  -15.6099   20.0481 H   0  0  0  0  0  0
  -26.7317  -32.5546   23.1226 H   0  0  0  0  0  0
  -25.0181  -33.9743   25.0514 H   0  0  0  0  0  0
  -22.7438  -31.3217   21.4174 H   0  0  0  0  0  0
  -23.3740  -35.9678   23.3300 H   0  0  0  0  0  0
  -24.3601  -36.8944   22.2044 H   0  0  0  0  0  0
  -23.7277  -37.6552   23.6638 H   0  0  0  0  0  0
  -26.0806  -31.5798   20.5958 H   0  0  0  0  0  0
  -26.8512  -30.8708   21.9877 H   0  0  0  0  0  0
  -28.1137  -29.0471   21.1812 H   0  0  0  0  0  0
  -25.9490  -25.9285   19.0786 H   0  0  0  0  0  0
  -23.9595  -27.2858   19.0882 H   0  0  0  0  0  0
  -23.7479  -30.5990   19.4160 H   0  0  0  0  0  0
  -22.7551  -29.2519   19.8892 H   0  0  0  0  0  0
  -25.1307  -36.1959   25.0813 H   0  0  0  0  0  0
  -20.1653  -28.6779   21.7616 H   0  0  0  0  0  0
  -20.6841  -26.4184   23.4774 H   0  0  0  0  0  0
  -21.6622  -26.7684   22.0696 H   0  0  0  0  0  0
  -19.6571  -25.3882   21.4375 H   0  0  0  0  0  0
  -19.6346  -26.9196   20.6310 H   0  0  0  0  0  0
  -17.4007  -26.6335   21.4282 H   0  0  0  0  0  0
  -17.9249  -26.0057   22.9653 H   0  0  0  0  0  0
  -19.7900  -30.7541   24.1499 H   0  0  0  0  0  0
  -17.4943  -31.6223   24.5350 H   0  0  0  0  0  0
  -15.5217  -30.2826   23.8248 H   0  0  0  0  0  0
  -15.8347  -28.0539   22.7848 H   0  0  0  0  0  0
  -24.5932  -30.7102   25.7846 H   0  0  0  0  0  0
  -24.9016  -32.2901   26.4980 H   0  0  0  0  0  0
  -25.8133  -30.8886   27.0247 H   0  0  0  0  0  0
  -26.2907  -29.6826   24.1193 H   0  0  0  0  0  0
  -27.4036  -29.7249   25.4659 H   0  0  0  0  0  0
  -27.8777  -30.4309   23.9380 H   0  0  0  0  0  0
  -27.2661  -33.3585   26.2192 H   0  0  0  0  0  0
  -28.3901  -32.6965   25.0437 H   0  0  0  0  0  0
  -28.0744  -31.8436   26.5484 H   0  0  0  0  0  0
  -28.2612  -38.0127   24.7494 H   0  0  0  0  0  0
  -28.1059  -36.2673   24.6293 H   0  0  0  0  0  0
  -27.2294  -37.1504   25.8856 H   0  0  0  0  0  0
  -21.0779  -30.1574   21.7918 H   0  0  0  0  0  0
  -26.0185  -38.2865   24.1393 H   0  0  0  0  0  0
  -30.6372  -20.5801   22.5407 H   0  0  0  0  0  0
  -31.7301  -16.4752   23.0415 H   0  0  0  0  0  0
  -27.7242  -25.1600   18.7329 H   0  0  0  0  0  0
  -29.4118  -25.4340   18.8236 H   0  0  0  0  0  0
  -27.2526  -21.6051   18.6300 H   0  0  0  0  0  0
  -27.0889  -23.2990   18.4969 H   0  0  0  0  0  0
  -29.0347  -15.1696   21.5038 H   0  0  0  0  0  0
  -27.6721  -18.9186   19.6666 H   0  0  0  0  0  0
  -26.7736  -20.1405   20.3898 H   0  0  0  0  0  0
  -29.7271  -21.9352   21.2820 H   0  0  0  0  0  0
  1 25  1  0  0  0
  1 30  2  0  0  0
  1 82  1  0  0  0
  2  3  1  0  0  0
  2 25  1  0  0  0
  2 88  1  0  0  0
  2 89  1  0  0  0
  3  4  1  0  0  0
  3 90  1  0  0  0
  3 91  1  0  0  0
  4  5  1  0  0  0
  4 92  1  0  0  0
  4 93  1  0  0  0
  5  6  1  0  0  0
  5 26  1  0  0  0
  5 94  1  0  0  0
  6 25  1  0  0  0
  6 95  1  0  0  0
  6 96  1  0  0  0
  7  8  2  0  0  0
  7 26  1  0  0  0
  7 29  1  0  0  0
  8  9  1  0  0  0
  8 22  1  0  0  0
  9 10  1  0  0  0
  9 27  2  0  0  0
 10 11  2  0  0  0
 10 15  1  0  0  0
 11 12  1  0  0  0
 11 97  1  0  0  0
 12 13  2  0  0  0
 12 98  1  0  0  0
 13 14  1  0  0  0
 13 31  1  0  0  0
 14 15  2  0  0  0
 14 99  1  0  0  0
 15100  1  0  0  0
 16 17  2  0  0  0
 16 21  1  0  0  0
 16 31  1  0  0  0
 17 18  1  0  0  0
 17101  1  0  0  0
 18 19  2  0  0  0
 18102  1  0  0  0
 19 20  1  0  0  0
 19 24  1  0  0  0
 20 21  2  0  0  0
 20103  1  0  0  0
 21 23  1  0  0  0
 22 28  1  0  0  0
 22 32  2  0  0  0
 26 27  1  0  0  0
 28104  1  0  0  0
 28105  1  0  0  0
 29106  1  0  0  0
 29107  1  0  0  0
 33 34  1  0  0  0
 33 66  1  0  0  0
 33 70  2  0  0  0
 34 36  1  0  0  0
 34 59  1  0  0  0
 34108  1  0  0  0
 35 44  2  0  0  0
 35 45  1  0  0  0
 35 68  1  0  0  0
 36 56  1  0  0  0
 36109  1  0  0  0
 37 39  1  0  0  0
 37 47  1  0  0  0
 37 66  1  0  0  0
 37110  1  0  0  0
 38 43  2  0  0  0
 38 46  1  0  0  0
 38 47  1  0  0  0
 39 64  1  0  0  0
 39 67  2  0  0  0
 40 52  1  0  0  0
 40 53  2  0  0  0
 40 58  1  0  0  0
 41111  1  0  0  0
 41112  1  0  0  0
 41113  1  0  0  0
 41 48  1  0  0  0
 42 43  1  0  0  0
 42 66  1  0  0  0
 42114  1  0  0  0
 42115  1  0  0  0
 43 44  1  0  0  0
 44116  1  0  0  0
 45 46  2  0  0  0
 45117  1  0  0  0
 46118  1  0  0  0
 47119  1  0  0  0
 47120  1  0  0  0
 48 56  1  0  0  0
 48 65  1  0  0  0
 48121  1  0  0  0
 49 50  1  0  0  0
 49 53  1  0  0  0
 49 64  1  0  0  0
 49122  1  0  0  0
 50 51  1  0  0  0
 50123  1  0  0  0
 50124  1  0  0  0
 51 52  1  0  0  0
 51125  1  0  0  0
 51126  1  0  0  0
 52127  1  0  0  0
 52128  1  0  0  0
 53 54  1  0  0  0
 54 55  2  0  0  0
 54129  1  0  0  0
 55 57  1  0  0  0
 55130  1  0  0  0
 56 69  2  0  0  0
 57 58  2  0  0  0
 57131  1  0  0  0
 58132  1  0  0  0
 59 60  1  0  0  0
 59 61  1  0  0  0
 59 62  1  0  0  0
 60133  1  0  0  0
 60134  1  0  0  0
 60135  1  0  0  0
 61136  1  0  0  0
 61137  1  0  0  0
 61138  1  0  0  0
 62139  1  0  0  0
 62140  1  0  0  0
 62141  1  0  0  0
 63 65  1  0  0  0
 63142  1  0  0  0
 63143  1  0  0  0
 63144  1  0  0  0
 64145  1  0  0  0
 65146  1  0  0  0
 68 80  1  0  0  0
 71 73  2  0  0  0
 71 75  1  0  0  0
 71147  1  0  0  0
 72 74  1  0  0  0
 72 75  2  0  0  0
 72148  1  0  0  0
 73 76  1  0  0  0
 73 77  1  0  0  0
 74 76  2  0  0  0
 74 82  1  0  0  0
 75 86  1  0  0  0
 76 87  1  0  0  0
 77 83  2  0  0  0
 77 84  1  0  0  0
 78 79  1  0  0  0
 78 80  1  0  0  0
 78 85  2  0  0  0
 79 81  2  0  0  0
 79 84  1  0  0  0
 80149  1  0  0  0
 80150  1  0  0  0
 81151  1  0  0  0
 81152  1  0  0  0
 82153  1  0  0  0
 83154  1  0  0  0
 83155  1  0  0  0
 84156  1  0  0  0
M  CHG  2  81   1  83   1
M  ISO  4   1 100  68 101  80 101  82 100
M  END
> <chiral flag>
0

> <version>
0

> <s_m_source_file>
/data/baiqing/PycharmProjects/Reinvent-master-3.2/result/LINK_invent/BTK/process_docking_weight1_custom_product_contain_oxygen_bond_distance_aromatic_linkinvent_7_9_3/rearranged_h_0163.sdf

> <i_m_source_file_index>
85

> <r_mmod_Potential_Energy-OPLS-2005>
-507.298492431641

> <r_mmod_Stretch_Energy-OPLS-2005>
51.8143348693848

> <r_mmod_Bend_Energy-OPLS-2005>
230.022689819336

> <r_mmod_Torsional_Energy-OPLS-2005>
261.460357666016

> <r_mmod_Improper_Torsional_Energy-OPLS-2005>
10.9964151382446

> <r_mmod_Van_der_Waal_Energy-OPLS-2005>
176.249359130859

> <r_mmod_Electrostatic_Energy-OPLS-2005>
-138.086120605469

> <r_mmod_Solvation_Energy-OPLS-2005>
-1138.81433105469

> <b_mmod_Minimization_Converged-OPLS-2005>
0

> <r_mmod_RMS_Derivative-OPLS-2005>
4.42772388458252

$$$$
85
                    3D
 Structure written by MMmdl.
159167  0  0  1  0            999 V2000
  -30.6752  -14.4402   20.6252 C   0  0  0  0  0  0
  -30.4401  -12.3124   19.3914 C   0  0  0  0  0  0
  -29.4928  -12.5236   18.1921 C   0  0  0  0  0  0
  -28.0145  -12.3828   18.6080 C   0  0  0  0  0  0
  -27.6714  -13.1947   19.8836 C   0  0  2  0  0  0
  -28.7087  -12.9120   20.9894 C   0  0  0  0  0  0
  -25.2661  -13.8149   20.5702 C   0  0  0  0  0  0
  -24.1883  -13.0453   20.9175 C   0  0  0  0  0  0
  -24.6399  -11.6905   20.8714 C   0  0  0  0  0  0
  -23.9052  -10.4310   21.0413 C   0  0  0  0  0  0
  -24.3608   -9.4227   21.9199 C   0  0  0  0  0  0
  -23.6285   -8.2262   22.0756 C   0  0  0  0  0  0
  -22.4272   -8.0299   21.3542 C   0  0  0  0  0  0
  -21.9894   -9.0276   20.4652 C   0  0  0  0  0  0
  -22.7220  -10.2159   20.3068 C   0  0  0  0  0  0
  -21.6860   -6.0744   22.5285 C   0  0  0  0  0  0
  -21.4017   -6.5652   23.8219 C   0  0  0  0  0  0
  -21.3645   -5.6793   24.9180 C   0  0  0  0  0  0
  -21.6044   -4.3053   24.7229 C   0  0  0  0  0  0
  -21.8819   -3.8150   23.4345 C   0  0  0  0  0  0
  -21.9195   -4.6970   22.3401 C   0  0  0  0  0  0
  -22.7903  -13.5276   21.1821 C   0  0  0  0  0  0
  -22.1671   -4.2150   21.0979 F   0  0  0  0  0  0
  -21.5607   -3.4536   25.7736 F   0  0  0  0  0  0
  -30.0456  -13.2455   20.4566 N   0  0  0  0  0  0
  -26.3084  -12.9289   20.3399 N   0  0  0  0  0  0
  -25.9327  -11.6463   20.5748 N   0  0  0  0  0  0
  -22.0508  -12.8304   22.0378 N   0  0  0  0  0  0
  -25.4443  -15.1874   20.4188 N   0  0  0  0  0  0
  -31.7357  -14.7349   20.0615 O   0  0  0  0  0  0
  -21.6639   -6.8895   21.4250 O   0  0  0  0  0  0
  -22.3614  -14.5586   20.6647 O   0  0  0  0  0  0
  -24.6131  -31.8685   23.2103 C   0  0  0  0  0  0
  -25.9025  -32.4831   23.8401 C   0  0  1  0  0  0
  -27.2509  -27.4585   20.0830 C   0  0  0  0  0  0
  -25.5869  -33.8634   24.2322 N   0  0  0  0  0  0
  -23.3995  -30.4884   21.5500 C   0  0  2  0  0  0
  -24.8480  -28.9486   20.1214 C   0  0  0  0  0  0
  -22.7395  -29.4668   22.5019 C   0  0  0  0  0  0
  -18.0255  -28.1397   22.8506 C   0  0  0  0  0  0
  -24.1466  -36.7330   23.2639 C   0  0  0  0  0  0
  -25.9244  -30.8394   21.3568 C   0  0  0  0  0  0
  -26.0056  -29.4720   20.7112 C   0  0  0  0  0  0
  -27.2077  -28.7332   20.6891 C   0  0  0  0  0  0
  -26.0741  -26.9393   19.4975 C   0  0  0  0  0  0
  -24.8758  -27.6795   19.5152 C   0  0  0  0  0  0
  -23.6080  -29.8116   20.1682 C   0  0  0  0  0  0
  -25.4090  -36.3125   24.0325 C   0  0  1  0  0  0
  -20.5843  -28.3672   23.1338 C   0  0  2  0  0  0
  -20.6747  -26.9416   22.5426 C   0  0  0  0  0  0
  -19.5713  -26.6408   21.5230 C   0  0  0  0  0  0
  -18.1894  -26.7935   22.1647 C   0  0  0  0  0  0
  -19.1507  -28.8849   23.2915 C   0  0  0  0  0  0
  -18.9443  -30.1456   23.8926 C   0  0  0  0  0  0
  -17.6448  -30.6607   24.0578 C   0  0  0  0  0  0
  -25.9025  -34.9490   23.5126 C   0  0  0  0  0  0
  -16.5336  -29.9115   23.6336 C   0  0  0  0  0  0
  -16.7245  -28.6531   23.0356 C   0  0  0  0  0  0
  -26.4485  -31.6601   25.0712 C   0  0  0  0  0  0
  -25.3797  -31.3674   26.1491 C   0  0  0  0  0  0
  -27.0303  -30.3039   24.6074 C   0  0  0  0  0  0
  -27.6079  -32.4308   25.7459 C   0  0  0  0  0  0
  -27.5563  -37.1810   24.8463 C   0  0  0  0  0  0
  -21.4126  -29.3036   22.3752 N   0  0  0  0  0  0
  -26.4278  -37.3813   23.9416 N   0  0  0  0  0  0
  -24.6646  -31.0801   22.0991 N   0  0  0  0  0  0
  -23.4171  -28.8234   23.3078 O   0  0  0  0  0  0
  -28.4516  -26.7829   20.0634 O   0  0  0  0  0  0
  -26.5621  -34.8950   22.4706 O   0  0  0  0  0  0
  -23.5325  -32.1430   23.7510 O   0  0  0  0  0  0
  -29.1350  -17.2868   22.3348 C   0  0  0  0  0  0
  -29.1813  -18.6339   21.8940 C   0  0  0  0  0  0
  -29.9546  -18.7026   20.7578 C   0  0  0  0  0  0
  -29.8892  -16.6064   21.4230 C   0  0  0  0  0  0
  -29.9238  -22.2870   20.0290 C   0  0  0  0  0  0
  -31.7834  -19.5992   19.2345 C   0  0  0  0  0  0
  -29.8041  -23.4088   21.0673 C   0  0  0  0  0  0
  -29.7947  -24.8529   20.5185 C   0  0  0  0  0  0
  -28.4239  -25.3562   20.0292 C   0  0  0  0  0  0
  -30.3786  -19.8143   19.8224 C   0  0  2  0  0  0
  -28.5284  -19.6881   22.5362 N   0  0  0  0  0  0
  -30.0402  -15.2596   21.4772 N   0  0  0  0  0  0
  -30.3384  -21.1066   20.5092 N   0  0  0  0  0  0
  -29.6354  -22.4741   18.8456 O   0  0  0  0  0  0
  -30.3761  -17.4293   20.4426 O   0  0  0  0  0  0
  -31.4752  -12.4590   19.0756 H   0  0  0  0  0  0
  -30.3820  -11.2847   19.7541 H   0  0  0  0  0  0
  -29.7245  -11.8127   17.3975 H   0  0  0  0  0  0
  -29.6589  -13.5155   17.7682 H   0  0  0  0  0  0
  -27.8145  -11.3245   18.7788 H   0  0  0  0  0  0
  -27.3649  -12.6866   17.7867 H   0  0  0  0  0  0
  -27.7341  -14.2516   19.6243 H   0  0  0  0  0  0
  -28.6849  -11.8556   21.2608 H   0  0  0  0  0  0
  -28.4466  -13.4387   21.9072 H   0  0  0  0  0  0
  -25.2763   -9.5685   22.4774 H   0  0  0  0  0  0
  -23.9981   -7.4650   22.7471 H   0  0  0  0  0  0
  -21.0818   -8.8823   19.8958 H   0  0  0  0  0  0
  -22.3706  -10.9710   19.6176 H   0  0  0  0  0  0
  -21.2027   -7.6161   23.9725 H   0  0  0  0  0  0
  -21.1454   -6.0524   25.9077 H   0  0  0  0  0  0
  -22.0601   -2.7605   23.2858 H   0  0  0  0  0  0
  -22.4077  -11.9974   22.4811 H   0  0  0  0  0  0
  -21.1124  -13.1368   22.2528 H   0  0  0  0  0  0
  -24.6880  -15.8501   20.5524 H   0  0  0  0  0  0
  -26.3111  -15.6247   20.1312 H   0  0  0  0  0  0
  -26.7111  -32.5563   23.1190 H   0  0  0  0  0  0
  -24.9963  -33.9815   25.0420 H   0  0  0  0  0  0
  -22.6853  -31.3019   21.4067 H   0  0  0  0  0  0
  -23.3725  -35.9666   23.3316 H   0  0  0  0  0  0
  -24.3552  -36.8948   22.2052 H   0  0  0  0  0  0
  -23.7232  -37.6537   23.6666 H   0  0  0  0  0  0
  -26.0230  -31.5991   20.5797 H   0  0  0  0  0  0
  -26.8186  -30.9058   21.9651 H   0  0  0  0  0  0
  -28.1035  -29.1374   21.1399 H   0  0  0  0  0  0
  -26.0744  -25.9765   19.0078 H   0  0  0  0  0  0
  -23.9875  -27.2670   19.0573 H   0  0  0  0  0  0
  -23.7167  -30.5821   19.4038 H   0  0  0  0  0  0
  -22.7328  -29.2275   19.8751 H   0  0  0  0  0  0
  -25.1266  -36.1998   25.0818 H   0  0  0  0  0  0
  -20.9916  -28.3247   24.1463 H   0  0  0  0  0  0
  -20.5649  -26.2298   23.3623 H   0  0  0  0  0  0
  -21.6621  -26.7472   22.1215 H   0  0  0  0  0  0
  -19.6877  -25.6331   21.1227 H   0  0  0  0  0  0
  -19.6631  -27.3255   20.6787 H   0  0  0  0  0  0
  -17.4153  -26.6688   21.4060 H   0  0  0  0  0  0
  -18.0289  -26.0083   22.9047 H   0  0  0  0  0  0
  -19.7921  -30.7265   24.2309 H   0  0  0  0  0  0
  -17.5010  -31.6283   24.5190 H   0  0  0  0  0  0
  -15.5337  -30.3034   23.7659 H   0  0  0  0  0  0
  -15.8638  -28.0877   22.7053 H   0  0  0  0  0  0
  -24.5881  -30.7140   25.7812 H   0  0  0  0  0  0
  -24.9120  -32.2823   26.5130 H   0  0  0  0  0  0
  -25.8171  -30.8669   27.0137 H   0  0  0  0  0  0
  -26.2802  -29.6759   24.1248 H   0  0  0  0  0  0
  -27.4188  -29.7328   25.4523 H   0  0  0  0  0  0
  -27.8597  -30.4343   23.9116 H   0  0  0  0  0  0
  -27.2718  -33.3604   26.2071 H   0  0  0  0  0  0
  -28.3867  -32.6870   25.0258 H   0  0  0  0  0  0
  -28.0770  -31.8407   26.5348 H   0  0  0  0  0  0
  -28.2602  -38.0093   24.7527 H   0  0  0  0  0  0
  -28.1040  -36.2632   24.6264 H   0  0  0  0  0  0
  -27.2291  -37.1433   25.8872 H   0  0  0  0  0  0
  -20.9298  -29.8756   21.6975 H   0  0  0  0  0  0
  -26.0157  -38.2885   24.1446 H   0  0  0  0  0  0
  -28.6187  -16.8725   23.1890 H   0  0  0  0  0  0
  -31.8160  -18.6962   18.6246 H   0  0  0  0  0  0
  -32.5347  -19.4942   20.0177 H   0  0  0  0  0  0
  -32.0769  -20.4302   18.5926 H   0  0  0  0  0  0
  -30.6507  -23.3126   21.7481 H   0  0  0  0  0  0
  -28.9153  -23.2339   21.6747 H   0  0  0  0  0  0
  -30.5403  -24.9731   19.7318 H   0  0  0  0  0  0
  -30.1217  -25.5019   21.3318 H   0  0  0  0  0  0
  -27.6394  -24.9862   20.6924 H   0  0  0  0  0  0
  -28.2151  -24.9952   19.0209 H   0  0  0  0  0  0
  -29.6652  -19.8411   18.9962 H   0  0  0  0  0  0
  -27.7677  -19.4742   23.1767 H   0  0  0  0  0  0
  -28.3709  -20.5466   22.0194 H   0  0  0  0  0  0
  -29.3534  -14.7861   22.0414 H   0  0  0  0  0  0
  -30.5463  -21.0662   21.4989 H   0  0  0  0  0  0
  1 25  1  0  0  0
  1 30  2  0  0  0
  1 82  1  0  0  0
  2  3  1  0  0  0
  2 25  1  0  0  0
  2 86  1  0  0  0
  2 87  1  0  0  0
  3  4  1  0  0  0
  3 88  1  0  0  0
  3 89  1  0  0  0
  4  5  1  0  0  0
  4 90  1  0  0  0
  4 91  1  0  0  0
  5  6  1  0  0  0
  5 26  1  0  0  0
  5 92  1  0  0  0
  6 25  1  0  0  0
  6 93  1  0  0  0
  6 94  1  0  0  0
  7  8  2  0  0  0
  7 26  1  0  0  0
  7 29  1  0  0  0
  8  9  1  0  0  0
  8 22  1  0  0  0
  9 10  1  0  0  0
  9 27  2  0  0  0
 10 11  2  0  0  0
 10 15  1  0  0  0
 11 12  1  0  0  0
 11 95  1  0  0  0
 12 13  2  0  0  0
 12 96  1  0  0  0
 13 14  1  0  0  0
 13 31  1  0  0  0
 14 15  2  0  0  0
 14 97  1  0  0  0
 15 98  1  0  0  0
 16 17  2  0  0  0
 16 21  1  0  0  0
 16 31  1  0  0  0
 17 18  1  0  0  0
 17 99  1  0  0  0
 18 19  2  0  0  0
 18100  1  0  0  0
 19 20  1  0  0  0
 19 24  1  0  0  0
 20 21  2  0  0  0
 20101  1  0  0  0
 21 23  1  0  0  0
 22 28  1  0  0  0
 22 32  2  0  0  0
 26 27  1  0  0  0
 28102  1  0  0  0
 28103  1  0  0  0
 29104  1  0  0  0
 29105  1  0  0  0
 33 34  1  0  0  0
 33 66  1  0  0  0
 33 70  2  0  0  0
 34 36  1  0  0  0
 34 59  1  0  0  0
 34106  1  0  0  0
 35 44  2  0  0  0
 35 45  1  0  0  0
 35 68  1  0  0  0
 36 56  1  0  0  0
 36107  1  0  0  0
 37 39  1  0  0  0
 37 47  1  0  0  0
 37 66  1  0  0  0
 37108  1  0  0  0
 38 43  2  0  0  0
 38 46  1  0  0  0
 38 47  1  0  0  0
 39 64  1  0  0  0
 39 67  2  0  0  0
 40 52  1  0  0  0
 40 53  2  0  0  0
 40 58  1  0  0  0
 41109  1  0  0  0
 41110  1  0  0  0
 41111  1  0  0  0
 41 48  1  0  0  0
 42 43  1  0  0  0
 42 66  1  0  0  0
 42112  1  0  0  0
 42113  1  0  0  0
 43 44  1  0  0  0
 44114  1  0  0  0
 45 46  2  0  0  0
 45115  1  0  0  0
 46116  1  0  0  0
 47117  1  0  0  0
 47118  1  0  0  0
 48 56  1  0  0  0
 48 65  1  0  0  0
 48119  1  0  0  0
 49 50  1  0  0  0
 49 53  1  0  0  0
 49 64  1  0  0  0
 49120  1  0  0  0
 50 51  1  0  0  0
 50121  1  0  0  0
 50122  1  0  0  0
 51 52  1  0  0  0
 51123  1  0  0  0
 51124  1  0  0  0
 52125  1  0  0  0
 52126  1  0  0  0
 53 54  1  0  0  0
 54 55  2  0  0  0
 54127  1  0  0  0
 55 57  1  0  0  0
 55128  1  0  0  0
 56 69  2  0  0  0
 57 58  2  0  0  0
 57129  1  0  0  0
 58130  1  0  0  0
 59 60  1  0  0  0
 59 61  1  0  0  0
 59 62  1  0  0  0
 60131  1  0  0  0
 60132  1  0  0  0
 60133  1  0  0  0
 61134  1  0  0  0
 61135  1  0  0  0
 61136  1  0  0  0
 62137  1  0  0  0
 62138  1  0  0  0
 62139  1  0  0  0
 63 65  1  0  0  0
 63140  1  0  0  0
 63141  1  0  0  0
 63142  1  0  0  0
 64143  1  0  0  0
 65144  1  0  0  0
 68 79  1  0  0  0
 71 72  1  0  0  0
 71 74  2  0  0  0
 71145  1  0  0  0
 72 73  2  0  0  0
 72 81  1  0  0  0
 73 80  1  0  0  0
 73 85  1  0  0  0
 74 82  1  0  0  0
 74 85  1  0  0  0
 75 77  1  0  0  0
 75 83  1  0  0  0
 75 84  2  0  0  0
 76146  1  0  0  0
 76147  1  0  0  0
 76148  1  0  0  0
 76 80  1  0  0  0
 77 78  1  0  0  0
 77149  1  0  0  0
 77150  1  0  0  0
 78 79  1  0  0  0
 78151  1  0  0  0
 78152  1  0  0  0
 79153  1  0  0  0
 79154  1  0  0  0
 80 83  1  0  0  0
 80155  1  0  0  0
 81156  1  0  0  0
 81157  1  0  0  0
 82158  1  0  0  0
 83159  1  0  0  0
M  ISO  4   1 100  68 101  79 101  82 100
M  END
> <chiral flag>
0

> <version>
0

> <s_m_source_file>
/data/baiqing/PycharmProjects/Reinvent-master-3.2/result/LINK_invent/BTK/process_docking_weight1_custom_product_contain_oxygen_bond_distance_aromatic_linkinvent_7_9_3/rearranged_h_0163.sdf

> <i_m_source_file_index>
86

> <r_mmod_Potential_Energy-OPLS-2005>
-167.097381591797

> <r_mmod_Stretch_Energy-OPLS-2005>
33.4105415344238

> <r_mmod_Bend_Energy-OPLS-2005>
117.056938171387

> <r_mmod_Torsional_Energy-OPLS-2005>
205.740570068359

> <r_mmod_Improper_Torsional_Energy-OPLS-2005>
6.67484569549561

> <r_mmod_Van_der_Waal_Energy-OPLS-2005>
129.774139404297

> <r_mmod_Electrostatic_Energy-OPLS-2005>
-429.105438232422

> <r_mmod_Solvation_Energy-OPLS-2005>
-240.779418945312

> <b_mmod_Minimization_Converged-OPLS-2005>
0

> <r_mmod_RMS_Derivative-OPLS-2005>
2.70738101005554

$$$$
86
                    3D
 Structure written by MMmdl.
164172  0  0  1  0            999 V2000
  -30.7229  -14.4877   20.5709 C   0  0  0  0  0  0
  -30.4128  -12.3220   19.4258 C   0  0  0  0  0  0
  -29.4883  -12.4947   18.2050 C   0  0  0  0  0  0
  -28.0114  -12.3583   18.6220 C   0  0  0  0  0  0
  -27.6538  -13.2164   19.8656 C   0  0  2  0  0  0
  -28.6954  -13.0367   20.9899 C   0  0  0  0  0  0
  -25.2559  -13.8191   20.5685 C   0  0  0  0  0  0
  -24.1827  -13.0456   20.9199 C   0  0  0  0  0  0
  -24.6390  -11.6924   20.8750 C   0  0  0  0  0  0
  -23.9062  -10.4302   21.0411 C   0  0  0  0  0  0
  -24.3614   -9.4215   21.9186 C   0  0  0  0  0  0
  -23.6291   -8.2249   22.0753 C   0  0  0  0  0  0
  -22.4274   -8.0285   21.3544 C   0  0  0  0  0  0
  -21.9909   -9.0259   20.4649 C   0  0  0  0  0  0
  -22.7235  -10.2141   20.3060 C   0  0  0  0  0  0
  -21.6853   -6.0736   22.5277 C   0  0  0  0  0  0
  -21.4014   -6.5639   23.8211 C   0  0  0  0  0  0
  -21.3660   -5.6792   24.9173 C   0  0  0  0  0  0
  -21.6044   -4.3055   24.7223 C   0  0  0  0  0  0
  -21.8819   -3.8147   23.4345 C   0  0  0  0  0  0
  -21.9192   -4.6963   22.3401 C   0  0  0  0  0  0
  -22.7849  -13.5246   21.1856 C   0  0  0  0  0  0
  -22.1662   -4.2149   21.0979 F   0  0  0  0  0  0
  -21.5628   -3.4539   25.7737 F   0  0  0  0  0  0
  -30.0191  -13.3306   20.4234 N   0  0  0  0  0  0
  -26.2988  -12.9376   20.3340 N   0  0  0  0  0  0
  -25.9318  -11.6528   20.5772 N   0  0  0  0  0  0
  -22.0490  -12.8237   22.0411 N   0  0  0  0  0  0
  -25.4278  -15.1902   20.4053 N   0  0  0  0  0  0
  -31.8726  -14.6157   20.1381 O   0  0  0  0  0  0
  -21.6642   -6.8880   21.4240 O   0  0  0  0  0  0
  -22.3535  -14.5550   20.6701 O   0  0  0  0  0  0
  -24.6160  -31.8668   23.2083 C   0  0  0  0  0  0
  -25.9047  -32.4817   23.8385 C   0  0  1  0  0  0
  -27.2284  -27.4176   20.1062 C   0  0  0  0  0  0
  -25.5899  -33.8616   24.2319 N   0  0  0  0  0  0
  -23.4047  -30.4899   21.5492 C   0  0  2  0  0  0
  -24.8511  -28.9527   20.1151 C   0  0  0  0  0  0
  -22.7417  -29.4655   22.4984 C   0  0  0  0  0  0
  -18.0271  -28.1377   22.8491 C   0  0  0  0  0  0
  -24.1487  -36.7314   23.2639 C   0  0  0  0  0  0
  -25.9349  -30.8292   21.3619 C   0  0  0  0  0  0
  -26.0131  -29.4624   20.7091 C   0  0  0  0  0  0
  -27.2090  -28.7050   20.6951 C   0  0  0  0  0  0
  -26.0507  -26.9239   19.5084 C   0  0  0  0  0  0
  -24.8657  -27.6840   19.5092 C   0  0  0  0  0  0
  -23.6137  -29.8212   20.1643 C   0  0  0  0  0  0
  -25.4110  -36.3109   24.0337 C   0  0  1  0  0  0
  -20.5863  -28.3668   23.1314 C   0  0  2  0  0  0
  -20.6762  -26.9403   22.5419 C   0  0  0  0  0  0
  -19.5745  -26.6385   21.5211 C   0  0  0  0  0  0
  -18.1921  -26.7924   22.1620 C   0  0  0  0  0  0
  -19.1521  -28.8838   23.2900 C   0  0  0  0  0  0
  -18.9451  -30.1441   23.8916 C   0  0  0  0  0  0
  -17.6454  -30.6585   24.0565 C   0  0  0  0  0  0
  -25.9038  -34.9474   23.5127 C   0  0  0  0  0  0
  -16.5344  -29.9088   23.6325 C   0  0  0  0  0  0
  -16.7261  -28.6502   23.0350 C   0  0  0  0  0  0
  -26.4469  -31.6597   25.0716 C   0  0  0  0  0  0
  -25.3733  -31.3702   26.1462 C   0  0  0  0  0  0
  -27.0296  -30.3039   24.6091 C   0  0  0  0  0  0
  -27.6052  -32.4310   25.7476 C   0  0  0  0  0  0
  -27.5583  -37.1808   24.8463 C   0  0  0  0  0  0
  -21.4143  -29.3034   22.3722 N   0  0  0  0  0  0
  -26.4296  -37.3794   23.9407 N   0  0  0  0  0  0
  -24.6703  -31.0761   22.0984 N   0  0  0  0  0  0
  -23.4181  -28.8198   23.3033 O   0  0  0  0  0  0
  -28.3753  -26.6503   20.1050 O   0  0  0  0  0  0
  -26.5602  -34.8927   22.4690 O   0  0  0  0  0  0
  -23.5349  -32.1421   23.7473 O   0  0  0  0  0  0
  -29.8752  -17.7371   17.9813 C   0  0  0  0  0  0
  -29.5708  -19.0053   18.4810 C   0  0  0  0  0  0
  -29.9591  -16.6392   18.8442 C   0  0  0  0  0  0
  -29.2639  -18.0417   20.7165 C   0  0  0  0  0  0
  -29.2399  -19.1919   19.8424 C   0  0  0  0  0  0
  -29.7450  -16.7512   20.2472 C   0  0  0  0  0  0
  -28.5324  -22.8603   20.4721 C   0  0  0  0  0  0
  -28.7358  -18.2442   22.0964 C   0  0  0  0  0  0
  -28.3394  -24.1176   19.9789 C   0  0  0  0  0  0
  -28.5628  -21.6450   19.6475 C   0  0  0  0  0  0
  -27.0961  -17.4808   23.9273 C   0  0  0  0  0  0
  -30.3198  -15.7166   22.5295 C   0  0  0  0  0  0
  -27.4451  -17.4859   22.4290 C   0  0  0  0  0  0
  -28.2866  -25.4000   20.8292 C   0  0  0  0  0  0
  -28.9409  -20.5306   20.3272 N   0  0  0  0  0  0
  -30.0678  -15.5730   21.0835 N   0  0  0  0  0  0
  -29.2273  -19.0382   22.9055 O   0  0  0  0  0  0
  -28.2356  -21.6339   18.4573 O   0  0  0  0  0  0
  -28.1759  -24.4024   18.6750 O   0  0  0  0  0  0
  -31.4575  -12.4113   19.1222 H   0  0  0  0  0  0
  -30.3114  -11.3205   19.8468 H   0  0  0  0  0  0
  -29.7298  -11.7526   17.4428 H   0  0  0  0  0  0
  -29.6539  -13.4694   17.7445 H   0  0  0  0  0  0
  -27.8277  -11.3048   18.8359 H   0  0  0  0  0  0
  -27.3584  -12.6152   17.7873 H   0  0  0  0  0  0
  -27.6876  -14.2593   19.5491 H   0  0  0  0  0  0
  -28.6761  -12.0155   21.3733 H   0  0  0  0  0  0
  -28.4565  -13.6785   21.8388 H   0  0  0  0  0  0
  -25.2758   -9.5691   22.4760 H   0  0  0  0  0  0
  -24.0002   -7.4639   22.7470 H   0  0  0  0  0  0
  -21.0841   -8.8779   19.8954 H   0  0  0  0  0  0
  -22.3693  -10.9681   19.6171 H   0  0  0  0  0  0
  -21.2007   -7.6147   23.9713 H   0  0  0  0  0  0
  -21.1481   -6.0523   25.9076 H   0  0  0  0  0  0
  -22.0598   -2.7609   23.2845 H   0  0  0  0  0  0
  -22.4103  -11.9898   22.4799 H   0  0  0  0  0  0
  -21.1109  -13.1266   22.2616 H   0  0  0  0  0  0
  -24.6561  -15.8414   20.4960 H   0  0  0  0  0  0
  -26.2691  -15.6179   20.0418 H   0  0  0  0  0  0
  -26.7120  -32.5525   23.1150 H   0  0  0  0  0  0
  -25.0051  -33.9776   25.0465 H   0  0  0  0  0  0
  -22.6943  -31.3072   21.4091 H   0  0  0  0  0  0
  -23.3746  -35.9650   23.3311 H   0  0  0  0  0  0
  -24.3580  -36.8921   22.2052 H   0  0  0  0  0  0
  -23.7243  -37.6523   23.6649 H   0  0  0  0  0  0
  -26.0473  -31.5946   20.5928 H   0  0  0  0  0  0
  -26.8226  -30.8835   21.9804 H   0  0  0  0  0  0
  -28.1078  -29.0938   21.1532 H   0  0  0  0  0  0
  -26.0485  -25.9491   19.0421 H   0  0  0  0  0  0
  -23.9731  -27.2858   19.0468 H   0  0  0  0  0  0
  -23.7224  -30.5956   19.4042 H   0  0  0  0  0  0
  -22.7372  -29.2414   19.8688 H   0  0  0  0  0  0
  -25.1286  -36.1976   25.0829 H   0  0  0  0  0  0
  -20.9954  -28.3236   24.1434 H   0  0  0  0  0  0
  -20.5665  -26.2278   23.3608 H   0  0  0  0  0  0
  -21.6635  -26.7444   22.1214 H   0  0  0  0  0  0
  -19.6912  -25.6299   21.1232 H   0  0  0  0  0  0
  -19.6688  -27.3204   20.6750 H   0  0  0  0  0  0
  -17.4193  -26.6676   21.4016 H   0  0  0  0  0  0
  -18.0319  -26.0059   22.9009 H   0  0  0  0  0  0
  -19.7928  -30.7246   24.2302 H   0  0  0  0  0  0
  -17.5011  -31.6268   24.5161 H   0  0  0  0  0  0
  -15.5347  -30.2997   23.7639 H   0  0  0  0  0  0
  -15.8659  -28.0827   22.7060 H   0  0  0  0  0  0
  -24.5924  -30.7027   25.7801 H   0  0  0  0  0  0
  -24.8899  -32.2852   26.4896 H   0  0  0  0  0  0
  -25.8085  -30.8890   27.0230 H   0  0  0  0  0  0
  -26.2838  -29.6805   24.1147 H   0  0  0  0  0  0
  -27.4067  -29.7271   25.4546 H   0  0  0  0  0  0
  -27.8671  -30.4356   23.9238 H   0  0  0  0  0  0
  -27.2683  -33.3605   26.2076 H   0  0  0  0  0  0
  -28.3848  -32.6875   25.0291 H   0  0  0  0  0  0
  -28.0734  -31.8416   26.5369 H   0  0  0  0  0  0
  -28.2605  -38.0102   24.7509 H   0  0  0  0  0  0
  -28.1073  -36.2634   24.6287 H   0  0  0  0  0  0
  -27.2301  -37.1458   25.8866 H   0  0  0  0  0  0
  -20.9307  -29.8759   21.6945 H   0  0  0  0  0  0
  -26.0187  -38.2874   24.1406 H   0  0  0  0  0  0
  -30.0932  -17.6122   16.9298 H   0  0  0  0  0  0
  -29.5967  -19.8234   17.7778 H   0  0  0  0  0  0
  -30.2528  -15.7118   18.3759 H   0  0  0  0  0  0
  -28.6640  -22.7587   21.5405 H   0  0  0  0  0  0
  -26.1981  -16.8910   24.1109 H   0  0  0  0  0  0
  -26.9090  -18.4904   24.2951 H   0  0  0  0  0  0
  -27.9016  -17.0515   24.5238 H   0  0  0  0  0  0
  -30.8585  -16.6395   22.7459 H   0  0  0  0  0  0
  -30.9339  -14.9161   22.9520 H   0  0  0  0  0  0
  -29.3922  -15.6951   23.0973 H   0  0  0  0  0  0
  -27.5306  -16.4624   22.0660 H   0  0  0  0  0  0
  -26.6319  -17.9422   21.8646 H   0  0  0  0  0  0
  -29.1283  -25.3730   21.5222 H   0  0  0  0  0  0
  -27.3921  -25.3632   21.4548 H   0  0  0  0  0  0
  -29.0703  -20.6681   21.3215 H   0  0  0  0  0  0
  -28.1899  -23.5751   18.2018 H   0  0  0  0  0  0
  1 25  1  0  0  0
  1 30  2  0  0  0
  1 86  1  0  0  0
  2  3  1  0  0  0
  2 25  1  0  0  0
  2 90  1  0  0  0
  2 91  1  0  0  0
  3  4  1  0  0  0
  3 92  1  0  0  0
  3 93  1  0  0  0
  4  5  1  0  0  0
  4 94  1  0  0  0
  4 95  1  0  0  0
  5  6  1  0  0  0
  5 26  1  0  0  0
  5 96  1  0  0  0
  6 25  1  0  0  0
  6 97  1  0  0  0
  6 98  1  0  0  0
  7  8  2  0  0  0
  7 26  1  0  0  0
  7 29  1  0  0  0
  8  9  1  0  0  0
  8 22  1  0  0  0
  9 10  1  0  0  0
  9 27  2  0  0  0
 10 11  2  0  0  0
 10 15  1  0  0  0
 11 12  1  0  0  0
 11 99  1  0  0  0
 12 13  2  0  0  0
 12100  1  0  0  0
 13 14  1  0  0  0
 13 31  1  0  0  0
 14 15  2  0  0  0
 14101  1  0  0  0
 15102  1  0  0  0
 16 17  2  0  0  0
 16 21  1  0  0  0
 16 31  1  0  0  0
 17 18  1  0  0  0
 17103  1  0  0  0
 18 19  2  0  0  0
 18104  1  0  0  0
 19 20  1  0  0  0
 19 24  1  0  0  0
 20 21  2  0  0  0
 20105  1  0  0  0
 21 23  1  0  0  0
 22 28  1  0  0  0
 22 32  2  0  0  0
 26 27  1  0  0  0
 28106  1  0  0  0
 28107  1  0  0  0
 29108  1  0  0  0
 29109  1  0  0  0
 33 34  1  0  0  0
 33 66  1  0  0  0
 33 70  2  0  0  0
 34 36  1  0  0  0
 34 59  1  0  0  0
 34110  1  0  0  0
 35 44  2  0  0  0
 35 45  1  0  0  0
 35 68  1  0  0  0
 36 56  1  0  0  0
 36111  1  0  0  0
 37 39  1  0  0  0
 37 47  1  0  0  0
 37 66  1  0  0  0
 37112  1  0  0  0
 38 43  2  0  0  0
 38 46  1  0  0  0
 38 47  1  0  0  0
 39 64  1  0  0  0
 39 67  2  0  0  0
 40 52  1  0  0  0
 40 53  2  0  0  0
 40 58  1  0  0  0
 41113  1  0  0  0
 41114  1  0  0  0
 41115  1  0  0  0
 41 48  1  0  0  0
 42 43  1  0  0  0
 42 66  1  0  0  0
 42116  1  0  0  0
 42117  1  0  0  0
 43 44  1  0  0  0
 44118  1  0  0  0
 45 46  2  0  0  0
 45119  1  0  0  0
 46120  1  0  0  0
 47121  1  0  0  0
 47122  1  0  0  0
 48 56  1  0  0  0
 48 65  1  0  0  0
 48123  1  0  0  0
 49 50  1  0  0  0
 49 53  1  0  0  0
 49 64  1  0  0  0
 49124  1  0  0  0
 50 51  1  0  0  0
 50125  1  0  0  0
 50126  1  0  0  0
 51 52  1  0  0  0
 51127  1  0  0  0
 51128  1  0  0  0
 52129  1  0  0  0
 52130  1  0  0  0
 53 54  1  0  0  0
 54 55  2  0  0  0
 54131  1  0  0  0
 55 57  1  0  0  0
 55132  1  0  0  0
 56 69  2  0  0  0
 57 58  2  0  0  0
 57133  1  0  0  0
 58134  1  0  0  0
 59 60  1  0  0  0
 59 61  1  0  0  0
 59 62  1  0  0  0
 60135  1  0  0  0
 60136  1  0  0  0
 60137  1  0  0  0
 61138  1  0  0  0
 61139  1  0  0  0
 61140  1  0  0  0
 62141  1  0  0  0
 62142  1  0  0  0
 62143  1  0  0  0
 63 65  1  0  0  0
 63144  1  0  0  0
 63145  1  0  0  0
 63146  1  0  0  0
 64147  1  0  0  0
 65148  1  0  0  0
 68 84  1  0  0  0
 71 72  2  0  0  0
 71 73  1  0  0  0
 71149  1  0  0  0
 72 75  1  0  0  0
 72150  1  0  0  0
 73 76  2  0  0  0
 73151  1  0  0  0
 74 75  2  0  0  0
 74 76  1  0  0  0
 74 78  1  0  0  0
 75 85  1  0  0  0
 76 86  1  0  0  0
 77 79  2  0  0  0
 77 80  1  0  0  0
 77152  1  0  0  0
 78 83  1  0  0  0
 78 87  2  0  0  0
 79 84  1  0  0  0
 79 89  1  0  0  0
 80 85  1  0  0  0
 80 88  2  0  0  0
 81 83  1  0  0  0
 81153  1  0  0  0
 81154  1  0  0  0
 81155  1  0  0  0
 82 86  1  0  0  0
 82156  1  0  0  0
 82157  1  0  0  0
 82158  1  0  0  0
 83159  1  0  0  0
 83160  1  0  0  0
 84161  1  0  0  0
 84162  1  0  0  0
 85163  1  0  0  0
 89164  1  0  0  0
M  ISO  4   1 100  68 101  84 101  86 100
M  END
> <chiral flag>
0

> <version>
0

> <s_m_source_file>
/data/baiqing/PycharmProjects/Reinvent-master-3.2/result/LINK_invent/BTK/process_docking_weight1_custom_product_contain_oxygen_bond_distance_aromatic_linkinvent_7_9_3/rearranged_h_0163.sdf

> <i_m_source_file_index>
87

> <r_mmod_Potential_Energy-OPLS-2005>
268.404602050781

> <r_mmod_Stretch_Energy-OPLS-2005>
64.9582672119141

> <r_mmod_Bend_Energy-OPLS-2005>
119.650321960449

> <r_mmod_Torsional_Energy-OPLS-2005>
349.046752929688

> <r_mmod_Improper_Torsional_Energy-OPLS-2005>
5.93369340896606

> <r_mmod_Van_der_Waal_Energy-OPLS-2005>
178.289962768555

> <r_mmod_Electrostatic_Energy-OPLS-2005>
-252.645645141602

> <r_mmod_Solvation_Energy-OPLS-2005>
-214.027801513672

> <b_mmod_Minimization_Converged-OPLS-2005>
0

> <r_mmod_RMS_Derivative-OPLS-2005>
0.411695659160614

$$$$
87
                    3D
 Structure written by MMmdl.
160168  0  0  1  0            999 V2000
  -30.6281  -14.7360   20.4602 C   0  0  0  0  0  0
  -30.4248  -12.4480   19.4756 C   0  0  0  0  0  0
  -29.5070  -12.5035   18.2357 C   0  0  0  0  0  0
  -28.0334  -12.3309   18.6498 C   0  0  0  0  0  0
  -27.6396  -13.2333   19.8499 C   0  0  2  0  0  0
  -28.6840  -13.1751   20.9863 C   0  0  0  0  0  0
  -25.2499  -13.8203   20.5701 C   0  0  0  0  0  0
  -24.1798  -13.0440   20.9212 C   0  0  0  0  0  0
  -24.6392  -11.6919   20.8756 C   0  0  0  0  0  0
  -23.9072  -10.4293   21.0412 C   0  0  0  0  0  0
  -24.3621   -9.4207   21.9189 C   0  0  0  0  0  0
  -23.6293   -8.2244   22.0759 C   0  0  0  0  0  0
  -22.4277   -8.0283   21.3546 C   0  0  0  0  0  0
  -21.9917   -9.0258   20.4647 C   0  0  0  0  0  0
  -22.7247  -10.2137   20.3057 C   0  0  0  0  0  0
  -21.6853   -6.0736   22.5279 C   0  0  0  0  0  0
  -21.4015   -6.5640   23.8212 C   0  0  0  0  0  0
  -21.3658   -5.6794   24.9175 C   0  0  0  0  0  0
  -21.6043   -4.3056   24.7226 C   0  0  0  0  0  0
  -21.8820   -3.8148   23.4347 C   0  0  0  0  0  0
  -21.9194   -4.6964   22.3402 C   0  0  0  0  0  0
  -22.7819  -13.5218   21.1867 C   0  0  0  0  0  0
  -22.1661   -4.2148   21.0979 F   0  0  0  0  0  0
  -21.5628   -3.4540   25.7738 F   0  0  0  0  0  0
  -29.9847  -13.5194   20.4006 N   0  0  0  0  0  0
  -26.2923  -12.9414   20.3284 N   0  0  0  0  0  0
  -25.9321  -11.6553   20.5758 N   0  0  0  0  0  0
  -22.0469  -12.8206   22.0423 N   0  0  0  0  0  0
  -25.4181  -15.1932   20.4115 N   0  0  0  0  0  0
  -31.8176  -14.7900   20.1375 O   0  0  0  0  0  0
  -21.6640   -6.8880   21.4240 O   0  0  0  0  0  0
  -22.3503  -14.5522   20.6710 O   0  0  0  0  0  0
  -24.6303  -31.8552   23.1977 C   0  0  0  0  0  0
  -25.9133  -32.4753   23.8322 C   0  0  1  0  0  0
  -27.2220  -27.2651   20.1216 C   0  0  0  0  0  0
  -25.5932  -33.8556   24.2248 N   0  0  0  0  0  0
  -23.4262  -30.4774   21.5409 C   0  0  2  0  0  0
  -24.8722  -28.9222   20.1078 C   0  0  0  0  0  0
  -22.7492  -29.4604   22.4910 C   0  0  0  0  0  0
  -18.0289  -28.1387   22.8491 C   0  0  0  0  0  0
  -24.1483  -36.7272   23.2642 C   0  0  0  0  0  0
  -25.9708  -30.7684   21.3764 C   0  0  0  0  0  0
  -26.0418  -29.3911   20.7174 C   0  0  0  0  0  0
  -27.2148  -28.5727   20.7158 C   0  0  0  0  0  0
  -26.0247  -26.8558   19.4930 C   0  0  0  0  0  0
  -24.8687  -27.6630   19.4870 C   0  0  0  0  0  0
  -23.6426  -29.8089   20.1570 C   0  0  0  0  0  0
  -25.4114  -36.3067   24.0324 C   0  0  1  0  0  0
  -20.5893  -28.3701   23.1269 C   0  0  2  0  0  0
  -20.6775  -26.9418   22.5413 C   0  0  0  0  0  0
  -19.5750  -26.6383   21.5215 C   0  0  0  0  0  0
  -18.1928  -26.7932   22.1626 C   0  0  0  0  0  0
  -19.1543  -28.8861   23.2875 C   0  0  0  0  0  0
  -18.9468  -30.1461   23.8894 C   0  0  0  0  0  0
  -17.6468  -30.6592   24.0564 C   0  0  0  0  0  0
  -25.9058  -34.9440   23.5088 C   0  0  0  0  0  0
  -16.5359  -29.9089   23.6333 C   0  0  0  0  0  0
  -16.7277  -28.6503   23.0361 C   0  0  0  0  0  0
  -26.4505  -31.6588   25.0719 C   0  0  0  0  0  0
  -25.3727  -31.3733   26.1438 C   0  0  0  0  0  0
  -27.0370  -30.3011   24.6215 C   0  0  0  0  0  0
  -27.6050  -32.4344   25.7495 C   0  0  0  0  0  0
  -27.5573  -37.1788   24.8468 C   0  0  0  0  0  0
  -21.4200  -29.3046   22.3654 N   0  0  0  0  0  0
  -26.4285  -37.3771   23.9412 N   0  0  0  0  0  0
  -24.6948  -31.0521   22.0946 N   0  0  0  0  0  0
  -23.4195  -28.8148   23.3010 O   0  0  0  0  0  0
  -28.3400  -26.4061   20.2115 O   0  0  0  0  0  0
  -26.5636  -34.8918   22.4661 O   0  0  0  0  0  0
  -23.5457  -32.1373   23.7280 O   0  0  0  0  0  0
  -31.6146  -17.7149   20.7306 C   0  0  0  0  0  0
  -31.0951  -20.1114   20.5907 C   0  0  0  0  0  0
  -29.3134  -18.4582   20.5425 C   0  0  0  0  0  0
  -32.0345  -19.0648   20.7120 C   0  0  0  0  0  0
  -30.2525  -17.3417   20.6306 C   0  0  0  0  0  0
  -29.7086  -19.8650   20.5147 C   0  0  0  0  0  0
  -28.4369  -23.7253   20.4318 C   0  0  0  0  0  0
  -34.1700  -18.7744   22.0799 C   0  0  0  0  0  0
  -29.1179  -22.3782   19.8783 C   0  0  0  0  0  0
  -28.4329  -25.0620   19.5441 C   0  0  0  0  0  0
  -33.5169  -19.4086   20.8372 C   0  0  1  0  0  0
  -29.8747  -15.8933   20.6600 N   0  0  0  0  0  0
  -28.8061  -21.0029   20.4693 N   0  0  0  0  0  0
  -34.2279  -19.0586   19.5987 N   0  3  0  0  0  0
  -27.9049  -23.7195   21.5469 O   0  0  0  0  0  0
  -31.4676  -12.5567   19.1727 H   0  0  0  0  0  0
  -30.3577  -11.4741   19.9629 H   0  0  0  0  0  0
  -29.7879  -11.7287   17.5211 H   0  0  0  0  0  0
  -29.6371  -13.4576   17.7222 H   0  0  0  0  0  0
  -27.8897  -11.2828   18.9155 H   0  0  0  0  0  0
  -27.3761  -12.5214   17.8006 H   0  0  0  0  0  0
  -27.6321  -14.2533   19.4656 H   0  0  0  0  0  0
  -28.7172  -12.1809   21.4345 H   0  0  0  0  0  0
  -28.4210  -13.8649   21.7900 H   0  0  0  0  0  0
  -25.2766   -9.5680   22.4765 H   0  0  0  0  0  0
  -24.0000   -7.4637   22.7483 H   0  0  0  0  0  0
  -21.0849   -8.8779   19.8952 H   0  0  0  0  0  0
  -22.3708  -10.9676   19.6165 H   0  0  0  0  0  0
  -21.2008   -7.6148   23.9712 H   0  0  0  0  0  0
  -21.1477   -6.0526   25.9077 H   0  0  0  0  0  0
  -22.0600   -2.7610   23.2850 H   0  0  0  0  0  0
  -22.4085  -11.9860   22.4802 H   0  0  0  0  0  0
  -21.1088  -13.1230   22.2635 H   0  0  0  0  0  0
  -24.6472  -15.8437   20.5178 H   0  0  0  0  0  0
  -26.2581  -15.6330   20.0592 H   0  0  0  0  0  0
  -26.7196  -32.5406   23.1059 H   0  0  0  0  0  0
  -25.0076  -33.9692   25.0392 H   0  0  0  0  0  0
  -22.7226  -31.2998   21.3949 H   0  0  0  0  0  0
  -23.3759  -35.9589   23.3299 H   0  0  0  0  0  0
  -24.3561  -36.8911   22.2057 H   0  0  0  0  0  0
  -23.7223  -37.6461   23.6680 H   0  0  0  0  0  0
  -26.1111  -31.5300   20.6078 H   0  0  0  0  0  0
  -26.8473  -30.8155   22.0109 H   0  0  0  0  0  0
  -28.1101  -28.9255   21.2083 H   0  0  0  0  0  0
  -25.9354  -25.8856   19.0312 H   0  0  0  0  0  0
  -23.9687  -27.2952   19.0137 H   0  0  0  0  0  0
  -23.7651  -30.5841   19.3998 H   0  0  0  0  0  0
  -22.7604  -29.2417   19.8539 H   0  0  0  0  0  0
  -25.1296  -36.1907   25.0816 H   0  0  0  0  0  0
  -20.9991  -28.3291   24.1389 H   0  0  0  0  0  0
  -20.5682  -26.2312   23.3619 H   0  0  0  0  0  0
  -21.6643  -26.7441   22.1207 H   0  0  0  0  0  0
  -19.6910  -25.6295   21.1246 H   0  0  0  0  0  0
  -19.6682  -27.3191   20.6744 H   0  0  0  0  0  0
  -17.4200  -26.6693   21.4023 H   0  0  0  0  0  0
  -18.0317  -26.0070   22.9016 H   0  0  0  0  0  0
  -19.7945  -30.7274   24.2262 H   0  0  0  0  0  0
  -17.5025  -31.6272   24.5169 H   0  0  0  0  0  0
  -15.5358  -30.2990   23.7658 H   0  0  0  0  0  0
  -15.8679  -28.0816   22.7087 H   0  0  0  0  0  0
  -24.5899  -30.7090   25.7759 H   0  0  0  0  0  0
  -24.8923  -32.2904   26.4860 H   0  0  0  0  0  0
  -25.8041  -30.8908   27.0218 H   0  0  0  0  0  0
  -26.2963  -29.6737   24.1245 H   0  0  0  0  0  0
  -27.4064  -29.7294   25.4739 H   0  0  0  0  0  0
  -27.8828  -30.4293   23.9456 H   0  0  0  0  0  0
  -27.2655  -33.3659   26.2034 H   0  0  0  0  0  0
  -28.3876  -32.6883   25.0333 H   0  0  0  0  0  0
  -28.0700  -31.8501   26.5445 H   0  0  0  0  0  0
  -28.2588  -38.0089   24.7530 H   0  0  0  0  0  0
  -28.1073  -36.2620   24.6284 H   0  0  0  0  0  0
  -27.2288  -37.1428   25.8871 H   0  0  0  0  0  0
  -20.9385  -29.8767   21.6858 H   0  0  0  0  0  0
  -26.0162  -38.2839   24.1438 H   0  0  0  0  0  0
  -32.3784  -16.9630   20.8421 H   0  0  0  0  0  0
  -31.4651  -21.1252   20.6043 H   0  0  0  0  0  0
  -28.2592  -18.2276   20.4927 H   0  0  0  0  0  0
  -33.6378  -19.0680   22.9853 H   0  0  0  0  0  0
  -35.2034  -19.1029   22.1916 H   0  0  0  0  0  0
  -34.1750  -17.6855   22.0392 H   0  0  0  0  0  0
  -30.1896  -22.5628   19.9034 H   0  0  0  0  0  0
  -28.8667  -22.3283   18.8181 H   0  0  0  0  0  0
  -27.6916  -24.9483   18.7571 H   0  0  0  0  0  0
  -29.3857  -25.0636   19.0151 H   0  0  0  0  0  0
  -33.6072  -20.4907   20.9491 H   0  0  0  0  0  0
  -28.8934  -15.7108   20.8032 H   0  0  0  0  0  0
  -27.8114  -20.7966   20.5280 H   0  0  0  0  0  0
  -34.2089  -18.0690   19.4345 H   0  0  0  0  0  0
  -35.1840  -19.3608   19.6463 H   0  0  0  0  0  0
  -33.7948  -19.5188   18.8186 H   0  0  0  0  0  0
  1 25  1  0  0  0
  1 30  2  0  0  0
  1 82  1  0  0  0
  2  3  1  0  0  0
  2 25  1  0  0  0
  2 86  1  0  0  0
  2 87  1  0  0  0
  3  4  1  0  0  0
  3 88  1  0  0  0
  3 89  1  0  0  0
  4  5  1  0  0  0
  4 90  1  0  0  0
  4 91  1  0  0  0
  5  6  1  0  0  0
  5 26  1  0  0  0
  5 92  1  0  0  0
  6 25  1  0  0  0
  6 93  1  0  0  0
  6 94  1  0  0  0
  7  8  2  0  0  0
  7 26  1  0  0  0
  7 29  1  0  0  0
  8  9  1  0  0  0
  8 22  1  0  0  0
  9 10  1  0  0  0
  9 27  2  0  0  0
 10 11  2  0  0  0
 10 15  1  0  0  0
 11 12  1  0  0  0
 11 95  1  0  0  0
 12 13  2  0  0  0
 12 96  1  0  0  0
 13 14  1  0  0  0
 13 31  1  0  0  0
 14 15  2  0  0  0
 14 97  1  0  0  0
 15 98  1  0  0  0
 16 17  2  0  0  0
 16 21  1  0  0  0
 16 31  1  0  0  0
 17 18  1  0  0  0
 17 99  1  0  0  0
 18 19  2  0  0  0
 18100  1  0  0  0
 19 20  1  0  0  0
 19 24  1  0  0  0
 20 21  2  0  0  0
 20101  1  0  0  0
 21 23  1  0  0  0
 22 28  1  0  0  0
 22 32  2  0  0  0
 26 27  1  0  0  0
 28102  1  0  0  0
 28103  1  0  0  0
 29104  1  0  0  0
 29105  1  0  0  0
 33 34  1  0  0  0
 33 66  1  0  0  0
 33 70  2  0  0  0
 34 36  1  0  0  0
 34 59  1  0  0  0
 34106  1  0  0  0
 35 44  2  0  0  0
 35 45  1  0  0  0
 35 68  1  0  0  0
 36 56  1  0  0  0
 36107  1  0  0  0
 37 39  1  0  0  0
 37 47  1  0  0  0
 37 66  1  0  0  0
 37108  1  0  0  0
 38 43  2  0  0  0
 38 46  1  0  0  0
 38 47  1  0  0  0
 39 64  1  0  0  0
 39 67  2  0  0  0
 40 52  1  0  0  0
 40 53  2  0  0  0
 40 58  1  0  0  0
 41109  1  0  0  0
 41110  1  0  0  0
 41111  1  0  0  0
 41 48  1  0  0  0
 42 43  1  0  0  0
 42 66  1  0  0  0
 42112  1  0  0  0
 42113  1  0  0  0
 43 44  1  0  0  0
 44114  1  0  0  0
 45 46  2  0  0  0
 45115  1  0  0  0
 46116  1  0  0  0
 47117  1  0  0  0
 47118  1  0  0  0
 48 56  1  0  0  0
 48 65  1  0  0  0
 48119  1  0  0  0
 49 50  1  0  0  0
 49 53  1  0  0  0
 49 64  1  0  0  0
 49120  1  0  0  0
 50 51  1  0  0  0
 50121  1  0  0  0
 50122  1  0  0  0
 51 52  1  0  0  0
 51123  1  0  0  0
 51124  1  0  0  0
 52125  1  0  0  0
 52126  1  0  0  0
 53 54  1  0  0  0
 54 55  2  0  0  0
 54127  1  0  0  0
 55 57  1  0  0  0
 55128  1  0  0  0
 56 69  2  0  0  0
 57 58  2  0  0  0
 57129  1  0  0  0
 58130  1  0  0  0
 59 60  1  0  0  0
 59 61  1  0  0  0
 59 62  1  0  0  0
 60131  1  0  0  0
 60132  1  0  0  0
 60133  1  0  0  0
 61134  1  0  0  0
 61135  1  0  0  0
 61136  1  0  0  0
 62137  1  0  0  0
 62138  1  0  0  0
 62139  1  0  0  0
 63 65  1  0  0  0
 63140  1  0  0  0
 63141  1  0  0  0
 63142  1  0  0  0
 64143  1  0  0  0
 65144  1  0  0  0
 68 80  1  0  0  0
 71 74  2  0  0  0
 71 75  1  0  0  0
 71145  1  0  0  0
 72 74  1  0  0  0
 72 76  2  0  0  0
 72146  1  0  0  0
 73 75  2  0  0  0
 73 76  1  0  0  0
 73147  1  0  0  0
 74 81  1  0  0  0
 75 82  1  0  0  0
 76 83  1  0  0  0
 77 79  1  0  0  0
 77 80  1  0  0  0
 77 85  2  0  0  0
 78148  1  0  0  0
 78149  1  0  0  0
 78150  1  0  0  0
 78 81  1  0  0  0
 79 83  1  0  0  0
 79151  1  0  0  0
 79152  1  0  0  0
 80153  1  0  0  0
 80154  1  0  0  0
 81 84  1  0  0  0
 81155  1  0  0  0
 82156  1  0  0  0
 83157  1  0  0  0
 84158  1  0  0  0
 84159  1  0  0  0
 84160  1  0  0  0
M  CHG  1  84   1
M  ISO  4   1 100  68 101  80 101  82 100
M  END
> <chiral flag>
0

> <version>
0

> <s_m_source_file>
/data/baiqing/PycharmProjects/Reinvent-master-3.2/result/LINK_invent/BTK/process_docking_weight1_custom_product_contain_oxygen_bond_distance_aromatic_linkinvent_7_9_3/rearranged_h_0163.sdf

> <i_m_source_file_index>
88

> <r_mmod_Potential_Energy-OPLS-2005>
-118.10228729248

> <r_mmod_Stretch_Energy-OPLS-2005>
128.195663452148

> <r_mmod_Bend_Energy-OPLS-2005>
179.887832641602

> <r_mmod_Torsional_Energy-OPLS-2005>
195.137130737305

> <r_mmod_Improper_Torsional_Energy-OPLS-2005>
6.4681134223938

> <r_mmod_Van_der_Waal_Energy-OPLS-2005>
144.316177368164

> <r_mmod_Electrostatic_Energy-OPLS-2005>
-321.523742675781

> <r_mmod_Solvation_Energy-OPLS-2005>
-531.326477050781

> <b_mmod_Minimization_Converged-OPLS-2005>
0

> <r_mmod_RMS_Derivative-OPLS-2005>
0.504364848136902

$$$$
88
                    3D
 Structure written by MMmdl.
169178  0  0  1  0            999 V2000
  -30.5365  -14.7888   20.4776 C   0  0  0  0  0  0
  -30.4516  -12.4826   19.4738 C   0  0  0  0  0  0
  -29.5209  -12.5307   18.2384 C   0  0  0  0  0  0
  -28.0448  -12.3424   18.6450 C   0  0  0  0  0  0
  -27.6477  -13.2238   19.8585 C   0  0  2  0  0  0
  -28.6915  -13.1171   20.9920 C   0  0  0  0  0  0
  -25.2554  -13.8158   20.5739 C   0  0  0  0  0  0
  -24.1826  -13.0409   20.9199 C   0  0  0  0  0  0
  -24.6397  -11.6885   20.8711 C   0  0  0  0  0  0
  -23.9060  -10.4268   21.0367 C   0  0  0  0  0  0
  -24.3616   -9.4196   21.9159 C   0  0  0  0  0  0
  -23.6294   -8.2231   22.0734 C   0  0  0  0  0  0
  -22.4282   -8.0262   21.3529 C   0  0  0  0  0  0
  -21.9910   -9.0231   20.4629 C   0  0  0  0  0  0
  -22.7226  -10.2111   20.3027 C   0  0  0  0  0  0
  -21.6852   -6.0733   22.5283 C   0  0  0  0  0  0
  -21.4010   -6.5636   23.8213 C   0  0  0  0  0  0
  -21.3660   -5.6783   24.9172 C   0  0  0  0  0  0
  -21.6045   -4.3049   24.7226 C   0  0  0  0  0  0
  -21.8821   -3.8138   23.4345 C   0  0  0  0  0  0
  -21.9192   -4.6964   22.3403 C   0  0  0  0  0  0
  -22.7854  -13.5207   21.1859 C   0  0  0  0  0  0
  -22.1663   -4.2151   21.0985 F   0  0  0  0  0  0
  -21.5630   -3.4534   25.7736 F   0  0  0  0  0  0
  -29.9931  -13.5172   20.4330 N   0  0  0  0  0  0
  -26.2967  -12.9353   20.3289 N   0  0  0  0  0  0
  -25.9327  -11.6499   20.5708 N   0  0  0  0  0  0
  -22.0493  -12.8201   22.0421 N   0  0  0  0  0  0
  -25.4264  -15.1887   20.4270 N   0  0  0  0  0  0
  -31.6902  -14.9737   20.0698 O   0  0  0  0  0  0
  -21.6633   -6.8874   21.4240 O   0  0  0  0  0  0
  -22.3545  -14.5518   20.6714 O   0  0  0  0  0  0
  -24.6342  -31.8550   23.1939 C   0  0  0  0  0  0
  -25.9163  -32.4750   23.8292 C   0  0  1  0  0  0
  -27.2272  -27.2363   20.1498 C   0  0  0  0  0  0
  -25.5962  -33.8541   24.2251 N   0  0  0  0  0  0
  -23.4322  -30.4745   21.5368 C   0  0  2  0  0  0
  -24.8823  -28.9089   20.1134 C   0  0  0  0  0  0
  -22.7510  -29.4618   22.4897 C   0  0  0  0  0  0
  -18.0293  -28.1386   22.8478 C   0  0  0  0  0  0
  -24.1491  -36.7267   23.2639 C   0  0  0  0  0  0
  -25.9766  -30.7615   21.3727 C   0  0  0  0  0  0
  -26.0542  -29.3772   20.7228 C   0  0  0  0  0  0
  -27.2314  -28.5571   20.7220 C   0  0  0  0  0  0
  -26.0343  -26.8372   19.5132 C   0  0  0  0  0  0
  -24.8799  -27.6476   19.4949 C   0  0  0  0  0  0
  -23.6532  -29.8008   20.1556 C   0  0  0  0  0  0
  -25.4114  -36.3064   24.0337 C   0  0  1  0  0  0
  -20.5900  -28.3721   23.1255 C   0  0  2  0  0  0
  -20.6791  -26.9434   22.5402 C   0  0  0  0  0  0
  -19.5764  -26.6381   21.5209 C   0  0  0  0  0  0
  -18.1942  -26.7933   22.1619 C   0  0  0  0  0  0
  -19.1549  -28.8866   23.2864 C   0  0  0  0  0  0
  -18.9461  -30.1449   23.8907 C   0  0  0  0  0  0
  -17.6466  -30.6593   24.0543 C   0  0  0  0  0  0
  -25.9063  -34.9439   23.5098 C   0  0  0  0  0  0
  -16.5359  -29.9082   23.6323 C   0  0  0  0  0  0
  -16.7276  -28.6491   23.0362 C   0  0  0  0  0  0
  -26.4514  -31.6565   25.0681 C   0  0  0  0  0  0
  -25.3722  -31.3697   26.1390 C   0  0  0  0  0  0
  -27.0356  -30.2992   24.6141 C   0  0  0  0  0  0
  -27.6091  -32.4276   25.7460 C   0  0  0  0  0  0
  -27.5581  -37.1789   24.8466 C   0  0  0  0  0  0
  -21.4219  -29.3073   22.3641 N   0  0  0  0  0  0
  -26.4282  -37.3773   23.9429 N   0  0  0  0  0  0
  -24.7003  -31.0484   22.0922 N   0  0  0  0  0  0
  -23.4201  -28.8178   23.3015 O   0  0  0  0  0  0
  -28.3217  -26.3347   20.1606 O   0  0  0  0  0  0
  -26.5605  -34.8930   22.4652 O   0  0  0  0  0  0
  -23.5489  -32.1386   23.7236 O   0  0  0  0  0  0
  -27.8588  -18.8824   20.5572 C   0  0  0  0  0  0
  -29.0966  -19.4991   20.4507 C   0  0  0  0  0  0
  -29.3503  -17.2104   20.6191 C   0  0  0  0  0  0
  -28.5973  -22.0971   20.6026 C   0  0  0  0  0  0
  -30.8326  -22.5755   18.8691 C   0  0  0  0  0  0
  -30.2886  -23.7729   19.6583 C   0  0  0  0  0  0
  -30.6992  -21.2525   19.6544 C   0  0  0  0  0  0
  -28.7978  -23.5775   19.9582 C   0  0  2  0  0  0
  -26.7599  -19.8253   18.0337 C   0  0  0  0  0  0
  -24.8804  -18.3585   18.7899 C   0  0  0  0  0  0
  -24.8239  -20.8045   19.2793 C   0  0  0  0  0  0
  -26.4182  -19.3192   20.5532 C   0  0  0  0  0  0
  -28.1387  -24.9101   20.6593 C   0  0  0  0  0  0
  -25.7457  -19.5750   19.1702 C   0  0  0  0  0  0
  -30.0432  -18.3928   20.4935 N   0  0  0  0  0  0
  -29.3666  -20.9730   20.2245 N   0  0  0  0  0  0
  -29.6972  -15.7959   20.9372 N   0  0  0  0  0  0
  -27.7434  -22.0106   21.4847 O   0  0  0  0  0  0
  -28.0220  -17.5095   20.6647 O   0  0  0  0  0  0
  -31.4871  -12.6441   19.1710 H   0  0  0  0  0  0
  -30.4279  -11.4933   19.9340 H   0  0  0  0  0  0
  -29.8130  -11.7680   17.5162 H   0  0  0  0  0  0
  -29.6424  -13.4884   17.7298 H   0  0  0  0  0  0
  -27.9031  -11.2897   18.8932 H   0  0  0  0  0  0
  -27.3881  -12.5437   17.7971 H   0  0  0  0  0  0
  -27.6478  -14.2527   19.5011 H   0  0  0  0  0  0
  -28.7370  -12.0947   21.3687 H   0  0  0  0  0  0
  -28.4071  -13.7354   21.8445 H   0  0  0  0  0  0
  -25.2754   -9.5690   22.4733 H   0  0  0  0  0  0
  -24.0008   -7.4625   22.7451 H   0  0  0  0  0  0
  -21.0842   -8.8723   19.8944 H   0  0  0  0  0  0
  -22.3655  -10.9645   19.6134 H   0  0  0  0  0  0
  -21.1992   -7.6138   23.9728 H   0  0  0  0  0  0
  -21.1491   -6.0505   25.9078 H   0  0  0  0  0  0
  -22.0604   -2.7605   23.2841 H   0  0  0  0  0  0
  -22.4091  -11.9861   22.4834 H   0  0  0  0  0  0
  -21.1096  -13.1208   22.2571 H   0  0  0  0  0  0
  -24.6545  -15.8348   20.5450 H   0  0  0  0  0  0
  -26.2747  -15.6439   20.1180 H   0  0  0  0  0  0
  -26.7226  -32.5403   23.1028 H   0  0  0  0  0  0
  -25.0162  -33.9638   25.0437 H   0  0  0  0  0  0
  -22.7321  -31.2984   21.3840 H   0  0  0  0  0  0
  -23.3782  -35.9571   23.3269 H   0  0  0  0  0  0
  -24.3597  -36.8902   22.2059 H   0  0  0  0  0  0
  -23.7206  -37.6447   23.6671 H   0  0  0  0  0  0
  -26.1059  -31.5159   20.5958 H   0  0  0  0  0  0
  -26.8590  -30.8253   21.9976 H   0  0  0  0  0  0
  -28.1317  -28.9144   21.2020 H   0  0  0  0  0  0
  -25.9870  -25.8695   19.0329 H   0  0  0  0  0  0
  -23.9851  -27.2854   19.0081 H   0  0  0  0  0  0
  -23.7819  -30.5753   19.3986 H   0  0  0  0  0  0
  -22.7696  -29.2382   19.8484 H   0  0  0  0  0  0
  -25.1295  -36.1906   25.0828 H   0  0  0  0  0  0
  -20.9978  -28.3296   24.1380 H   0  0  0  0  0  0
  -20.5704  -26.2327   23.3608 H   0  0  0  0  0  0
  -21.6653  -26.7460   22.1183 H   0  0  0  0  0  0
  -19.6934  -25.6282   21.1258 H   0  0  0  0  0  0
  -19.6713  -27.3168   20.6719 H   0  0  0  0  0  0
  -17.4220  -26.6675   21.4012 H   0  0  0  0  0  0
  -18.0339  -26.0065   22.9006 H   0  0  0  0  0  0
  -19.7934  -30.7234   24.2331 H   0  0  0  0  0  0
  -17.5023  -31.6293   24.5106 H   0  0  0  0  0  0
  -15.5360  -30.2988   23.7651 H   0  0  0  0  0  0
  -15.8671  -28.0789   22.7119 H   0  0  0  0  0  0
  -24.5942  -30.6992   25.7713 H   0  0  0  0  0  0
  -24.8845  -32.2835   26.4789 H   0  0  0  0  0  0
  -25.8030  -30.8907   27.0189 H   0  0  0  0  0  0
  -26.2913  -29.6732   24.1198 H   0  0  0  0  0  0
  -27.4093  -29.7267   25.4640 H   0  0  0  0  0  0
  -27.8778  -30.4291   23.9342 H   0  0  0  0  0  0
  -27.2752  -33.3613   26.2003 H   0  0  0  0  0  0
  -28.3941  -32.6749   25.0299 H   0  0  0  0  0  0
  -28.0717  -31.8391   26.5393 H   0  0  0  0  0  0
  -28.2578  -38.0104   24.7539 H   0  0  0  0  0  0
  -28.1091  -36.2633   24.6264 H   0  0  0  0  0  0
  -27.2291  -37.1396   25.8862 H   0  0  0  0  0  0
  -20.9425  -29.8773   21.6816 H   0  0  0  0  0  0
  -26.0162  -38.2849   24.1437 H   0  0  0  0  0  0
  -31.8800  -22.7472   18.6137 H   0  0  0  0  0  0
  -30.3011  -22.4895   17.9200 H   0  0  0  0  0  0
  -30.4339  -24.6886   19.0838 H   0  0  0  0  0  0
  -30.8479  -23.8993   20.5861 H   0  0  0  0  0  0
  -31.4110  -21.2514   20.4814 H   0  0  0  0  0  0
  -30.9985  -20.4368   18.9946 H   0  0  0  0  0  0
  -28.2956  -23.5048   18.9928 H   0  0  0  0  0  0
  -26.2492  -20.0118   17.0892 H   0  0  0  0  0  0
  -27.4148  -18.9686   17.8712 H   0  0  0  0  0  0
  -27.3858  -20.6944   18.2329 H   0  0  0  0  0  0
  -24.3985  -18.4917   17.8209 H   0  0  0  0  0  0
  -24.0895  -18.1838   19.5213 H   0  0  0  0  0  0
  -25.4799  -17.4499   18.7323 H   0  0  0  0  0  0
  -24.2952  -20.9924   18.3442 H   0  0  0  0  0  0
  -25.3845  -21.7073   19.5241 H   0  0  0  0  0  0
  -24.0710  -20.6650   20.0574 H   0  0  0  0  0  0
  -26.2998  -20.1832   21.1970 H   0  0  0  0  0  0
  -25.8371  -18.5704   21.0944 H   0  0  0  0  0  0
  -28.5150  -24.9342   21.6829 H   0  0  0  0  0  0
  -27.0727  -24.7159   20.7768 H   0  0  0  0  0  0
  -28.9007  -15.3460   21.3576 H   0  0  0  0  0  0
  1 25  1  0  0  0
  1 30  2  0  0  0
  1 87  1  0  0  0
  2  3  1  0  0  0
  2 25  1  0  0  0
  2 90  1  0  0  0
  2 91  1  0  0  0
  3  4  1  0  0  0
  3 92  1  0  0  0
  3 93  1  0  0  0
  4  5  1  0  0  0
  4 94  1  0  0  0
  4 95  1  0  0  0
  5  6  1  0  0  0
  5 26  1  0  0  0
  5 96  1  0  0  0
  6 25  1  0  0  0
  6 97  1  0  0  0
  6 98  1  0  0  0
  7  8  2  0  0  0
  7 26  1  0  0  0
  7 29  1  0  0  0
  8  9  1  0  0  0
  8 22  1  0  0  0
  9 10  1  0  0  0
  9 27  2  0  0  0
 10 11  2  0  0  0
 10 15  1  0  0  0
 11 12  1  0  0  0
 11 99  1  0  0  0
 12 13  2  0  0  0
 12100  1  0  0  0
 13 14  1  0  0  0
 13 31  1  0  0  0
 14 15  2  0  0  0
 14101  1  0  0  0
 15102  1  0  0  0
 16 17  2  0  0  0
 16 21  1  0  0  0
 16 31  1  0  0  0
 17 18  1  0  0  0
 17103  1  0  0  0
 18 19  2  0  0  0
 18104  1  0  0  0
 19 20  1  0  0  0
 19 24  1  0  0  0
 20 21  2  0  0  0
 20105  1  0  0  0
 21 23  1  0  0  0
 22 28  1  0  0  0
 22 32  2  0  0  0
 26 27  1  0  0  0
 28106  1  0  0  0
 28107  1  0  0  0
 29108  1  0  0  0
 29109  1  0  0  0
 33 34  1  0  0  0
 33 66  1  0  0  0
 33 70  2  0  0  0
 34 36  1  0  0  0
 34 59  1  0  0  0
 34110  1  0  0  0
 35 44  2  0  0  0
 35 45  1  0  0  0
 35 68  1  0  0  0
 36 56  1  0  0  0
 36111  1  0  0  0
 37 39  1  0  0  0
 37 47  1  0  0  0
 37 66  1  0  0  0
 37112  1  0  0  0
 38 43  2  0  0  0
 38 46  1  0  0  0
 38 47  1  0  0  0
 39 64  1  0  0  0
 39 67  2  0  0  0
 40 52  1  0  0  0
 40 53  2  0  0  0
 40 58  1  0  0  0
 41113  1  0  0  0
 41114  1  0  0  0
 41115  1  0  0  0
 41 48  1  0  0  0
 42 43  1  0  0  0
 42 66  1  0  0  0
 42116  1  0  0  0
 42117  1  0  0  0
 43 44  1  0  0  0
 44118  1  0  0  0
 45 46  2  0  0  0
 45119  1  0  0  0
 46120  1  0  0  0
 47121  1  0  0  0
 47122  1  0  0  0
 48 56  1  0  0  0
 48 65  1  0  0  0
 48123  1  0  0  0
 49 50  1  0  0  0
 49 53  1  0  0  0
 49 64  1  0  0  0
 49124  1  0  0  0
 50 51  1  0  0  0
 50125  1  0  0  0
 50126  1  0  0  0
 51 52  1  0  0  0
 51127  1  0  0  0
 51128  1  0  0  0
 52129  1  0  0  0
 52130  1  0  0  0
 53 54  1  0  0  0
 54 55  2  0  0  0
 54131  1  0  0  0
 55 57  1  0  0  0
 55132  1  0  0  0
 56 69  2  0  0  0
 57 58  2  0  0  0
 57133  1  0  0  0
 58134  1  0  0  0
 59 60  1  0  0  0
 59 61  1  0  0  0
 59 62  1  0  0  0
 60135  1  0  0  0
 60136  1  0  0  0
 60137  1  0  0  0
 61138  1  0  0  0
 61139  1  0  0  0
 61140  1  0  0  0
 62141  1  0  0  0
 62142  1  0  0  0
 62143  1  0  0  0
 63 65  1  0  0  0
 63144  1  0  0  0
 63145  1  0  0  0
 63146  1  0  0  0
 64147  1  0  0  0
 65148  1  0  0  0
 68 83  1  0  0  0
 71 72  2  0  0  0
 71 82  1  0  0  0
 71 89  1  0  0  0
 72 85  1  0  0  0
 72 86  1  0  0  0
 73 85  2  0  0  0
 73 87  1  0  0  0
 73 89  1  0  0  0
 74 78  1  0  0  0
 74 86  1  0  0  0
 74 88  2  0  0  0
 75 76  1  0  0  0
 75 77  1  0  0  0
 75149  1  0  0  0
 75150  1  0  0  0
 76 78  1  0  0  0
 76151  1  0  0  0
 76152  1  0  0  0
 77 86  1  0  0  0
 77153  1  0  0  0
 77154  1  0  0  0
 78 83  1  0  0  0
 78155  1  0  0  0
 79156  1  0  0  0
 79157  1  0  0  0
 79158  1  0  0  0
 79 84  1  0  0  0
 80 84  1  0  0  0
 80159  1  0  0  0
 80160  1  0  0  0
 80161  1  0  0  0
 81 84  1  0  0  0
 81162  1  0  0  0
 81163  1  0  0  0
 81164  1  0  0  0
 82 84  1  0  0  0
 82165  1  0  0  0
 82166  1  0  0  0
 83167  1  0  0  0
 83168  1  0  0  0
 87169  1  0  0  0
M  ISO  4   1 100  68 101  83 101  87 100
M  END
> <chiral flag>
0

> <version>
0

> <s_m_source_file>
/data/baiqing/PycharmProjects/Reinvent-master-3.2/result/LINK_invent/BTK/process_docking_weight1_custom_product_contain_oxygen_bond_distance_aromatic_linkinvent_7_9_3/rearranged_h_0163.sdf

> <i_m_source_file_index>
89

> <r_mmod_Potential_Energy-OPLS-2005>
296.520141601562

> <r_mmod_Stretch_Energy-OPLS-2005>
156.026840209961

> <r_mmod_Bend_Energy-OPLS-2005>
246.785064697266

> <r_mmod_Torsional_Energy-OPLS-2005>
287.1669921875

> <r_mmod_Improper_Torsional_Energy-OPLS-2005>
5.68330240249634

> <r_mmod_Van_der_Waal_Energy-OPLS-2005>
114.72437286377

> <r_mmod_Electrostatic_Energy-OPLS-2005>
-401.203155517578

> <r_mmod_Solvation_Energy-OPLS-2005>
-214.229095458984

> <b_mmod_Minimization_Converged-OPLS-2005>
0

> <r_mmod_RMS_Derivative-OPLS-2005>
2.13629508018494

$$$$
89
                    3D
 Structure written by MMmdl.
150158  0  0  1  0            999 V2000
  -30.6811  -14.4911   20.5571 C   0  0  0  0  0  0
  -30.4341  -12.3118   19.4283 C   0  0  0  0  0  0
  -29.5031  -12.5031   18.2118 C   0  0  0  0  0  0
  -28.0240  -12.3560   18.6236 C   0  0  0  0  0  0
  -27.6667  -13.2016   19.8753 C   0  0  2  0  0  0
  -28.7073  -12.9791   20.9970 C   0  0  0  0  0  0
  -25.2628  -13.8157   20.5663 C   0  0  0  0  0  0
  -24.1860  -13.0443   20.9166 C   0  0  0  0  0  0
  -24.6409  -11.6911   20.8739 C   0  0  0  0  0  0
  -23.9074  -10.4297   21.0409 C   0  0  0  0  0  0
  -24.3622   -9.4210   21.9185 C   0  0  0  0  0  0
  -23.6293   -8.2245   22.0756 C   0  0  0  0  0  0
  -22.4275   -8.0290   21.3544 C   0  0  0  0  0  0
  -21.9916   -9.0269   20.4645 C   0  0  0  0  0  0
  -22.7254  -10.2145   20.3051 C   0  0  0  0  0  0
  -21.6857   -6.0742   22.5280 C   0  0  0  0  0  0
  -21.4016   -6.5645   23.8216 C   0  0  0  0  0  0
  -21.3652   -5.6790   24.9172 C   0  0  0  0  0  0
  -21.6041   -4.3056   24.7227 C   0  0  0  0  0  0
  -21.8819   -3.8155   23.4345 C   0  0  0  0  0  0
  -21.9194   -4.6971   22.3403 C   0  0  0  0  0  0
  -22.7884  -13.5255   21.1825 C   0  0  0  0  0  0
  -22.1663   -4.2159   21.0974 F   0  0  0  0  0  0
  -21.5625   -3.4536   25.7737 F   0  0  0  0  0  0
  -30.0420  -13.2930   20.4516 N   0  0  0  0  0  0
  -26.3053  -12.9312   20.3356 N   0  0  0  0  0  0
  -25.9330  -11.6483   20.5749 N   0  0  0  0  0  0
  -22.0510  -12.8250   22.0379 N   0  0  0  0  0  0
  -25.4379  -15.1860   20.4077 N   0  0  0  0  0  0
  -31.7980  -14.6990   20.0718 O   0  0  0  0  0  0
  -21.6637   -6.8891   21.4244 O   0  0  0  0  0  0
  -22.3576  -14.5564   20.6685 O   0  0  0  0  0  0
  -24.6156  -31.8671   23.2089 C   0  0  0  0  0  0
  -25.9040  -32.4837   23.8385 C   0  0  1  0  0  0
  -27.2298  -27.4257   20.0907 C   0  0  0  0  0  0
  -25.5889  -33.8634   24.2325 N   0  0  0  0  0  0
  -23.4042  -30.4902   21.5507 C   0  0  2  0  0  0
  -24.8532  -28.9639   20.1055 C   0  0  0  0  0  0
  -22.7411  -29.4645   22.4985 C   0  0  0  0  0  0
  -18.0265  -28.1383   22.8500 C   0  0  0  0  0  0
  -24.1470  -36.7303   23.2630 C   0  0  0  0  0  0
  -25.9333  -30.8339   21.3594 C   0  0  0  0  0  0
  -26.0149  -29.4675   20.7064 C   0  0  0  0  0  0
  -27.2099  -28.7044   20.6983 C   0  0  0  0  0  0
  -26.0550  -26.9506   19.4676 C   0  0  0  0  0  0
  -24.8700  -27.7074   19.4785 C   0  0  0  0  0  0
  -23.6125  -29.8265   20.1638 C   0  0  0  0  0  0
  -25.4089  -36.3123   24.0336 C   0  0  1  0  0  0
  -20.5866  -28.3661   23.1323 C   0  0  2  0  0  0
  -20.6744  -26.9393   22.5423 C   0  0  0  0  0  0
  -19.5721  -26.6396   21.5210 C   0  0  0  0  0  0
  -18.1910  -26.7939   22.1636 C   0  0  0  0  0  0
  -19.1522  -28.8843   23.2912 C   0  0  0  0  0  0
  -18.9446  -30.1454   23.8915 C   0  0  0  0  0  0
  -17.6442  -30.6591   24.0575 C   0  0  0  0  0  0
  -25.9017  -34.9487   23.5127 C   0  0  0  0  0  0
  -16.5332  -29.9088   23.6336 C   0  0  0  0  0  0
  -16.7256  -28.6509   23.0359 C   0  0  0  0  0  0
  -26.4465  -31.6613   25.0707 C   0  0  0  0  0  0
  -25.3740  -31.3745   26.1463 C   0  0  0  0  0  0
  -27.0271  -30.3047   24.6078 C   0  0  0  0  0  0
  -27.6030  -32.4336   25.7491 C   0  0  0  0  0  0
  -27.5570  -37.1800   24.8463 C   0  0  0  0  0  0
  -21.4138  -29.3021   22.3738 N   0  0  0  0  0  0
  -26.4278  -37.3803   23.9421 N   0  0  0  0  0  0
  -24.6701  -31.0767   22.0987 N   0  0  0  0  0  0
  -23.4187  -28.8161   23.3002 O   0  0  0  0  0  0
  -28.3445  -26.6081   20.1308 O   0  0  0  0  0  0
  -26.5585  -34.8948   22.4692 O   0  0  0  0  0  0
  -23.5338  -32.1412   23.7482 O   0  0  0  0  0  0
  -30.3659  -18.9983   20.1173 C   0  0  0  0  0  0
  -30.7587  -17.6157   20.1386 C   0  0  0  0  0  0
  -29.2547  -19.2602   20.8810 C   0  0  0  0  0  0
  -29.9498  -16.8092   20.9126 C   0  0  0  0  0  0
  -28.1135  -25.3595   20.6833 C   0  0  0  0  0  0
  -28.7872  -24.2137   20.4118 C   0  0  0  0  0  0
  -28.3399  -22.9742   21.0681 C   0  0  0  0  0  0
  -28.4628  -20.5217   21.1505 C   0  0  0  0  0  0
  -29.9598  -15.4630   21.1517 N   0  0  0  0  0  0
  -28.9624  -21.8334   20.6913 N   0  0  0  0  0  0
  -27.4218  -22.9414   21.8935 O   0  0  0  0  0  0
  -29.8208  -24.2032   19.5572 O   0  0  0  0  0  0
  -28.6910  -17.7832   21.6312 S   0  0  0  0  0  0
  -31.4789  -12.4166   19.1299 H   0  0  0  0  0  0
  -30.3427  -11.3014   19.8295 H   0  0  0  0  0  0
  -29.7498  -11.7788   17.4345 H   0  0  0  0  0  0
  -29.6661  -13.4889   17.7740 H   0  0  0  0  0  0
  -27.8433  -11.3001   18.8293 H   0  0  0  0  0  0
  -27.3714  -12.6178   17.7902 H   0  0  0  0  0  0
  -27.7132  -14.2482   19.5734 H   0  0  0  0  0  0
  -28.6871  -11.9400   21.3279 H   0  0  0  0  0  0
  -28.4594  -13.5660   21.8823 H   0  0  0  0  0  0
  -25.2772   -9.5675   22.4755 H   0  0  0  0  0  0
  -24.0006   -7.4634   22.7469 H   0  0  0  0  0  0
  -21.0851   -8.8789   19.8945 H   0  0  0  0  0  0
  -22.3724  -10.9677   19.6148 H   0  0  0  0  0  0
  -21.2013   -7.6149   23.9721 H   0  0  0  0  0  0
  -21.1467   -6.0519   25.9076 H   0  0  0  0  0  0
  -22.0607   -2.7622   23.2841 H   0  0  0  0  0  0
  -22.4096  -11.9884   22.4736 H   0  0  0  0  0  0
  -21.1131  -13.1295   22.2588 H   0  0  0  0  0  0
  -24.6759  -15.8469   20.5134 H   0  0  0  0  0  0
  -26.2977  -15.6218   20.0985 H   0  0  0  0  0  0
  -26.7106  -32.5562   23.1147 H   0  0  0  0  0  0
  -25.0064  -33.9778   25.0493 H   0  0  0  0  0  0
  -22.6925  -31.3065   21.4148 H   0  0  0  0  0  0
  -23.3730  -35.9640   23.3332 H   0  0  0  0  0  0
  -24.3543  -36.8890   22.2033 H   0  0  0  0  0  0
  -23.7221  -37.6517   23.6618 H   0  0  0  0  0  0
  -26.0345  -31.5996   20.5879 H   0  0  0  0  0  0
  -26.8236  -30.8950   21.9736 H   0  0  0  0  0  0
  -28.1034  -29.0792   21.1774 H   0  0  0  0  0  0
  -26.0536  -25.9821   18.9877 H   0  0  0  0  0  0
  -23.9805  -27.3199   19.0007 H   0  0  0  0  0  0
  -23.7109  -30.6012   19.4024 H   0  0  0  0  0  0
  -22.7388  -29.2386   19.8763 H   0  0  0  0  0  0
  -25.1273  -36.1976   25.0824 H   0  0  0  0  0  0
  -20.9965  -28.3207   24.1444 H   0  0  0  0  0  0
  -20.5646  -26.2246   23.3599 H   0  0  0  0  0  0
  -21.6614  -26.7442   22.1212 H   0  0  0  0  0  0
  -19.6865  -25.6312   21.1229 H   0  0  0  0  0  0
  -19.6663  -27.3221   20.6753 H   0  0  0  0  0  0
  -17.4176  -26.6709   21.4035 H   0  0  0  0  0  0
  -18.0297  -26.0082   22.9030 H   0  0  0  0  0  0
  -19.7913  -30.7279   24.2297 H   0  0  0  0  0  0
  -17.4990  -31.6280   24.5159 H   0  0  0  0  0  0
  -15.5333  -30.2994   23.7642 H   0  0  0  0  0  0
  -15.8664  -28.0834   22.7069 H   0  0  0  0  0  0
  -24.5906  -30.7087   25.7819 H   0  0  0  0  0  0
  -24.8937  -32.2919   26.4875 H   0  0  0  0  0  0
  -25.8094  -30.8950   27.0238 H   0  0  0  0  0  0
  -26.2807  -29.6838   24.1104 H   0  0  0  0  0  0
  -27.3990  -29.7247   25.4529 H   0  0  0  0  0  0
  -27.8667  -30.4337   23.9240 H   0  0  0  0  0  0
  -27.2629  -33.3635   26.2056 H   0  0  0  0  0  0
  -28.3847  -32.6901   25.0334 H   0  0  0  0  0  0
  -28.0675  -31.8472   26.5428 H   0  0  0  0  0  0
  -28.2598  -38.0085   24.7528 H   0  0  0  0  0  0
  -28.1062  -36.2625   24.6285 H   0  0  0  0  0  0
  -27.2304  -37.1474   25.8870 H   0  0  0  0  0  0
  -20.9279  -29.8760   21.6997 H   0  0  0  0  0  0
  -26.0173  -38.2885   24.1438 H   0  0  0  0  0  0
  -30.9057  -19.7349   19.5382 H   0  0  0  0  0  0
  -31.6115  -17.2706   19.5699 H   0  0  0  0  0  0
  -27.2837  -25.3816   21.3800 H   0  0  0  0  0  0
  -28.3080  -20.5794   22.2295 H   0  0  0  0  0  0
  -27.4680  -20.3895   20.7226 H   0  0  0  0  0  0
  -29.1526  -15.1167   21.6481 H   0  0  0  0  0  0
  -29.7026  -21.8924   20.0055 H   0  0  0  0  0  0
  -29.9500  -25.0987   19.2722 H   0  0  0  0  0  0
  1 25  1  0  0  0
  1 30  2  0  0  0
  1 79  1  0  0  0
  2  3  1  0  0  0
  2 25  1  0  0  0
  2 84  1  0  0  0
  2 85  1  0  0  0
  3  4  1  0  0  0
  3 86  1  0  0  0
  3 87  1  0  0  0
  4  5  1  0  0  0
  4 88  1  0  0  0
  4 89  1  0  0  0
  5  6  1  0  0  0
  5 26  1  0  0  0
  5 90  1  0  0  0
  6 25  1  0  0  0
  6 91  1  0  0  0
  6 92  1  0  0  0
  7  8  2  0  0  0
  7 26  1  0  0  0
  7 29  1  0  0  0
  8  9  1  0  0  0
  8 22  1  0  0  0
  9 10  1  0  0  0
  9 27  2  0  0  0
 10 11  2  0  0  0
 10 15  1  0  0  0
 11 12  1  0  0  0
 11 93  1  0  0  0
 12 13  2  0  0  0
 12 94  1  0  0  0
 13 14  1  0  0  0
 13 31  1  0  0  0
 14 15  2  0  0  0
 14 95  1  0  0  0
 15 96  1  0  0  0
 16 17  2  0  0  0
 16 21  1  0  0  0
 16 31  1  0  0  0
 17 18  1  0  0  0
 17 97  1  0  0  0
 18 19  2  0  0  0
 18 98  1  0  0  0
 19 20  1  0  0  0
 19 24  1  0  0  0
 20 21  2  0  0  0
 20 99  1  0  0  0
 21 23  1  0  0  0
 22 28  1  0  0  0
 22 32  2  0  0  0
 26 27  1  0  0  0
 28100  1  0  0  0
 28101  1  0  0  0
 29102  1  0  0  0
 29103  1  0  0  0
 33 34  1  0  0  0
 33 66  1  0  0  0
 33 70  2  0  0  0
 34 36  1  0  0  0
 34 59  1  0  0  0
 34104  1  0  0  0
 35 44  2  0  0  0
 35 45  1  0  0  0
 35 68  1  0  0  0
 36 56  1  0  0  0
 36105  1  0  0  0
 37 39  1  0  0  0
 37 47  1  0  0  0
 37 66  1  0  0  0
 37106  1  0  0  0
 38 43  2  0  0  0
 38 46  1  0  0  0
 38 47  1  0  0  0
 39 64  1  0  0  0
 39 67  2  0  0  0
 40 52  1  0  0  0
 40 53  2  0  0  0
 40 58  1  0  0  0
 41107  1  0  0  0
 41108  1  0  0  0
 41109  1  0  0  0
 41 48  1  0  0  0
 42 43  1  0  0  0
 42 66  1  0  0  0
 42110  1  0  0  0
 42111  1  0  0  0
 43 44  1  0  0  0
 44112  1  0  0  0
 45 46  2  0  0  0
 45113  1  0  0  0
 46114  1  0  0  0
 47115  1  0  0  0
 47116  1  0  0  0
 48 56  1  0  0  0
 48 65  1  0  0  0
 48117  1  0  0  0
 49 50  1  0  0  0
 49 53  1  0  0  0
 49 64  1  0  0  0
 49118  1  0  0  0
 50 51  1  0  0  0
 50119  1  0  0  0
 50120  1  0  0  0
 51 52  1  0  0  0
 51121  1  0  0  0
 51122  1  0  0  0
 52123  1  0  0  0
 52124  1  0  0  0
 53 54  1  0  0  0
 54 55  2  0  0  0
 54125  1  0  0  0
 55 57  1  0  0  0
 55126  1  0  0  0
 56 69  2  0  0  0
 57 58  2  0  0  0
 57127  1  0  0  0
 58128  1  0  0  0
 59 60  1  0  0  0
 59 61  1  0  0  0
 59 62  1  0  0  0
 60129  1  0  0  0
 60130  1  0  0  0
 60131  1  0  0  0
 61132  1  0  0  0
 61133  1  0  0  0
 61134  1  0  0  0
 62135  1  0  0  0
 62136  1  0  0  0
 62137  1  0  0  0
 63 65  1  0  0  0
 63138  1  0  0  0
 63139  1  0  0  0
 63140  1  0  0  0
 64141  1  0  0  0
 65142  1  0  0  0
 68 75  1  0  0  0
 71 72  1  0  0  0
 71 73  2  0  0  0
 71143  1  0  0  0
 72 74  2  0  0  0
 72144  1  0  0  0
 73 78  1  0  0  0
 73 83  1  0  0  0
 74 79  1  0  0  0
 74 83  1  0  0  0
 75 76  2  0  0  0
 75145  1  0  0  0
 76 77  1  0  0  0
 76 82  1  0  0  0
 77 80  1  0  0  0
 77 81  2  0  0  0
 78 80  1  0  0  0
 78146  1  0  0  0
 78147  1  0  0  0
 79148  1  0  0  0
 80149  1  0  0  0
 82150  1  0  0  0
M  ISO  4   1 100  68 101  75 101  79 100
M  END
> <chiral flag>
0

> <version>
0

> <s_m_source_file>
/data/baiqing/PycharmProjects/Reinvent-master-3.2/result/LINK_invent/BTK/process_docking_weight1_custom_product_contain_oxygen_bond_distance_aromatic_linkinvent_7_9_3/rearranged_h_0163.sdf

> <i_m_source_file_index>
90

> <r_mmod_Potential_Energy-OPLS-2005>
-178.195266723633

> <r_mmod_Stretch_Energy-OPLS-2005>
38.3321723937988

> <r_mmod_Bend_Energy-OPLS-2005>
114.258728027344

> <r_mmod_Torsional_Energy-OPLS-2005>
203.065689086914

> <r_mmod_Improper_Torsional_Energy-OPLS-2005>
3.88515496253967

> <r_mmod_Van_der_Waal_Energy-OPLS-2005>
140.122207641602

> <r_mmod_Electrostatic_Energy-OPLS-2005>
-471.926544189453

> <r_mmod_Solvation_Energy-OPLS-2005>
-222.520385742188

> <b_mmod_Minimization_Converged-OPLS-2005>
0

> <r_mmod_RMS_Derivative-OPLS-2005>
2.23382067680359

$$$$
90
                    3D
 Structure written by MMmdl.
159167  0  0  1  0            999 V2000
  -30.7164  -14.4652   20.5814 C   0  0  0  0  0  0
  -30.4093  -12.3111   19.4087 C   0  0  0  0  0  0
  -29.4790  -12.4926   18.1922 C   0  0  0  0  0  0
  -28.0015  -12.3611   18.6091 C   0  0  0  0  0  0
  -27.6494  -13.2080   19.8614 C   0  0  2  0  0  0
  -28.6945  -13.0090   20.9822 C   0  0  0  0  0  0
  -25.2528  -13.8168   20.5671 C   0  0  0  0  0  0
  -24.1806  -13.0433   20.9205 C   0  0  0  0  0  0
  -24.6373  -11.6906   20.8760 C   0  0  0  0  0  0
  -23.9053  -10.4292   21.0425 C   0  0  0  0  0  0
  -24.3613   -9.4196   21.9185 C   0  0  0  0  0  0
  -23.6295   -8.2234   22.0750 C   0  0  0  0  0  0
  -22.4267   -8.0272   21.3541 C   0  0  0  0  0  0
  -21.9910   -9.0257   20.4644 C   0  0  0  0  0  0
  -22.7237  -10.2134   20.3061 C   0  0  0  0  0  0
  -21.6844   -6.0733   22.5282 C   0  0  0  0  0  0
  -21.4009   -6.5644   23.8214 C   0  0  0  0  0  0
  -21.3660   -5.6786   24.9175 C   0  0  0  0  0  0
  -21.6051   -4.3056   24.7225 C   0  0  0  0  0  0
  -21.8822   -3.8139   23.4349 C   0  0  0  0  0  0
  -21.9188   -4.6971   22.3402 C   0  0  0  0  0  0
  -22.7830  -13.5228   21.1859 C   0  0  0  0  0  0
  -22.1664   -4.2154   21.0982 F   0  0  0  0  0  0
  -21.5627   -3.4537   25.7738 F   0  0  0  0  0  0
  -30.0135  -13.3128   20.4134 N   0  0  0  0  0  0
  -26.2957  -12.9333   20.3326 N   0  0  0  0  0  0
  -25.9289  -11.6495   20.5767 N   0  0  0  0  0  0
  -22.0481  -12.8216   22.0421 N   0  0  0  0  0  0
  -25.4247  -15.1879   20.4023 N   0  0  0  0  0  0
  -31.8738  -14.6133   20.1756 O   0  0  0  0  0  0
  -21.6633   -6.8880   21.4233 O   0  0  0  0  0  0
  -22.3524  -14.5545   20.6731 O   0  0  0  0  0  0
  -24.6147  -31.8685   23.2092 C   0  0  0  0  0  0
  -25.9049  -32.4824   23.8379 C   0  0  1  0  0  0
  -27.2342  -27.4285   20.0967 C   0  0  0  0  0  0
  -25.5898  -33.8617   24.2319 N   0  0  0  0  0  0
  -23.4040  -30.4906   21.5494 C   0  0  2  0  0  0
  -24.8517  -28.9499   20.1214 C   0  0  0  0  0  0
  -22.7413  -29.4651   22.5000 C   0  0  0  0  0  0
  -18.0277  -28.1374   22.8488 C   0  0  0  0  0  0
  -24.1486  -36.7309   23.2630 C   0  0  0  0  0  0
  -25.9318  -30.8275   21.3668 C   0  0  0  0  0  0
  -26.0108  -29.4577   20.7234 C   0  0  0  0  0  0
  -27.2068  -28.7015   20.7178 C   0  0  0  0  0  0
  -26.0641  -26.9388   19.4852 C   0  0  0  0  0  0
  -24.8716  -27.6882   19.5019 C   0  0  0  0  0  0
  -23.6148  -29.8197   20.1662 C   0  0  0  0  0  0
  -25.4102  -36.3114   24.0337 C   0  0  1  0  0  0
  -20.5860  -28.3659   23.1315 C   0  0  2  0  0  0
  -20.6757  -26.9385   22.5425 C   0  0  0  0  0  0
  -19.5753  -26.6378   21.5207 C   0  0  0  0  0  0
  -18.1927  -26.7921   22.1604 C   0  0  0  0  0  0
  -19.1523  -28.8839   23.2896 C   0  0  0  0  0  0
  -18.9451  -30.1441   23.8913 C   0  0  0  0  0  0
  -17.6453  -30.6574   24.0567 C   0  0  0  0  0  0
  -25.9024  -34.9485   23.5130 C   0  0  0  0  0  0
  -16.5349  -29.9072   23.6333 C   0  0  0  0  0  0
  -16.7260  -28.6489   23.0350 C   0  0  0  0  0  0
  -26.4462  -31.6601   25.0712 C   0  0  0  0  0  0
  -25.3728  -31.3723   26.1470 C   0  0  0  0  0  0
  -27.0251  -30.3032   24.6083 C   0  0  0  0  0  0
  -27.6060  -32.4298   25.7462 C   0  0  0  0  0  0
  -27.5594  -37.1794   24.8454 C   0  0  0  0  0  0
  -21.4134  -29.3036   22.3738 N   0  0  0  0  0  0
  -26.4297  -37.3801   23.9411 N   0  0  0  0  0  0
  -24.6686  -31.0774   22.1003 N   0  0  0  0  0  0
  -23.4182  -28.8187   23.3046 O   0  0  0  0  0  0
  -28.3718  -26.6564   20.0249 O   0  0  0  0  0  0
  -26.5594  -34.8941   22.4696 O   0  0  0  0  0  0
  -23.5345  -32.1421   23.7509 O   0  0  0  0  0  0
  -29.2361  -18.8669   21.1512 C   0  0  0  0  0  0
  -30.4267  -18.0871   20.9976 C   0  0  0  0  0  0
  -31.3531  -18.8678   20.3574 C   0  0  0  0  0  0
  -29.5534  -20.0972   20.6199 C   0  0  0  0  0  0
  -29.2183  -22.3458   20.2362 C   0  0  0  0  0  0
  -30.7148  -16.7297   21.5034 C   0  0  0  0  0  0
  -28.3978  -24.5294   21.3315 C   0  0  0  0  0  0
  -32.7578  -18.6606   19.8915 C   0  0  0  0  0  0
  -32.0246  -15.5734   23.3686 C   0  0  0  0  0  0
  -28.4370  -23.6565   20.0613 C   0  0  0  0  0  0
  -28.7657  -26.0353   21.2544 C   0  0  0  0  0  0
  -28.7263  -21.2079   20.5723 N   0  0  0  0  0  0
  -30.0333  -15.6299   21.0873 N   0  0  0  0  0  0
  -31.6944  -16.6683   22.4391 N   0  3  0  0  0  0
  -28.0399  -24.0475   22.4121 O   0  0  0  0  0  0
  -30.8244  -20.1030   20.1163 O   0  0  0  0  0  0
  -31.4544  -12.4042   19.1005 H   0  0  0  0  0  0
  -30.3102  -11.3034   19.8170 H   0  0  0  0  0  0
  -29.7121  -11.7547   17.4225 H   0  0  0  0  0  0
  -29.6495  -13.4704   17.7392 H   0  0  0  0  0  0
  -27.8059  -11.3073   18.8066 H   0  0  0  0  0  0
  -27.3505  -12.6400   17.7798 H   0  0  0  0  0  0
  -27.6844  -14.2534   19.5544 H   0  0  0  0  0  0
  -28.6741  -11.9764   21.3366 H   0  0  0  0  0  0
  -28.4652  -13.6247   21.8533 H   0  0  0  0  0  0
  -25.2771   -9.5663   22.4751 H   0  0  0  0  0  0
  -24.0009   -7.4613   22.7454 H   0  0  0  0  0  0
  -21.0849   -8.8775   19.8943 H   0  0  0  0  0  0
  -22.3712  -10.9670   19.6168 H   0  0  0  0  0  0
  -21.2003   -7.6149   23.9719 H   0  0  0  0  0  0
  -21.1474   -6.0521   25.9077 H   0  0  0  0  0  0
  -22.0603   -2.7610   23.2844 H   0  0  0  0  0  0
  -22.4103  -11.9876   22.4796 H   0  0  0  0  0  0
  -21.1100  -13.1229   22.2641 H   0  0  0  0  0  0
  -24.6478  -15.8341   20.4917 H   0  0  0  0  0  0
  -26.2452  -15.6167   19.9944 H   0  0  0  0  0  0
  -26.7117  -32.5528   23.1131 H   0  0  0  0  0  0
  -25.0096  -33.9772   25.0503 H   0  0  0  0  0  0
  -22.6936  -31.3079   21.4074 H   0  0  0  0  0  0
  -23.3767  -35.9622   23.3290 H   0  0  0  0  0  0
  -24.3594  -36.8934   22.2049 H   0  0  0  0  0  0
  -23.7221  -37.6505   23.6645 H   0  0  0  0  0  0
  -26.0464  -31.5902   20.5961 H   0  0  0  0  0  0
  -26.8199  -30.8861   21.9839 H   0  0  0  0  0  0
  -28.1045  -29.0960   21.1742 H   0  0  0  0  0  0
  -26.0793  -25.9744   18.9969 H   0  0  0  0  0  0
  -23.9813  -27.2924   19.0325 H   0  0  0  0  0  0
  -23.7190  -30.5894   19.4022 H   0  0  0  0  0  0
  -22.7410  -29.2357   19.8751 H   0  0  0  0  0  0
  -25.1278  -36.1980   25.0831 H   0  0  0  0  0  0
  -20.9953  -28.3234   24.1432 H   0  0  0  0  0  0
  -20.5652  -26.2256   23.3612 H   0  0  0  0  0  0
  -21.6632  -26.7408   22.1240 H   0  0  0  0  0  0
  -19.6909  -25.6293   21.1239 H   0  0  0  0  0  0
  -19.6718  -27.3190   20.6749 H   0  0  0  0  0  0
  -17.4203  -26.6697   21.3996 H   0  0  0  0  0  0
  -18.0299  -26.0036   22.8973 H   0  0  0  0  0  0
  -19.7934  -30.7252   24.2282 H   0  0  0  0  0  0
  -17.5008  -31.6263   24.5150 H   0  0  0  0  0  0
  -15.5348  -30.2976   23.7642 H   0  0  0  0  0  0
  -15.8654  -28.0804   22.7055 H   0  0  0  0  0  0
  -24.5989  -30.6936   25.7866 H   0  0  0  0  0  0
  -24.8791  -32.2859   26.4792 H   0  0  0  0  0  0
  -25.8116  -30.9052   27.0301 H   0  0  0  0  0  0
  -26.2764  -29.6834   24.1134 H   0  0  0  0  0  0
  -27.4002  -29.7237   25.4531 H   0  0  0  0  0  0
  -27.8622  -30.4330   23.9220 H   0  0  0  0  0  0
  -27.2715  -33.3617   26.2029 H   0  0  0  0  0  0
  -28.3870  -32.6824   25.0279 H   0  0  0  0  0  0
  -28.0712  -31.8411   26.5377 H   0  0  0  0  0  0
  -28.2599  -38.0104   24.7551 H   0  0  0  0  0  0
  -28.1102  -36.2652   24.6211 H   0  0  0  0  0  0
  -27.2324  -37.1375   25.8857 H   0  0  0  0  0  0
  -20.9296  -29.8722   21.6928 H   0  0  0  0  0  0
  -26.0194  -38.2875   24.1464 H   0  0  0  0  0  0
  -28.3077  -18.5872   21.6305 H   0  0  0  0  0  0
  -30.2797  -22.4662   20.0036 H   0  0  0  0  0  0
  -33.0765  -17.6284   20.0340 H   0  0  0  0  0  0
  -33.4499  -19.3083   20.4312 H   0  0  0  0  0  0
  -32.8481  -18.8857   18.8282 H   0  0  0  0  0  0
  -32.0886  -14.5982   22.8905 H   0  0  0  0  0  0
  -31.2671  -15.5195   24.1511 H   0  0  0  0  0  0
  -32.9816  -15.7710   23.8523 H   0  0  0  0  0  0
  -27.4162  -23.4392   19.7457 H   0  0  0  0  0  0
  -28.9053  -24.2294   19.2602 H   0  0  0  0  0  0
  -29.8488  -26.1229   21.3520 H   0  0  0  0  0  0
  -28.3373  -26.5623   22.1085 H   0  0  0  0  0  0
  -29.0323  -15.6916   21.1378 H   0  0  0  0  0  0
  -32.1707  -17.5371   22.6385 H   0  0  0  0  0  0
  1 25  1  0  0  0
  1 30  2  0  0  0
  1 83  1  0  0  0
  2  3  1  0  0  0
  2 25  1  0  0  0
  2 87  1  0  0  0
  2 88  1  0  0  0
  3  4  1  0  0  0
  3 89  1  0  0  0
  3 90  1  0  0  0
  4  5  1  0  0  0
  4 91  1  0  0  0
  4 92  1  0  0  0
  5  6  1  0  0  0
  5 26  1  0  0  0
  5 93  1  0  0  0
  6 25  1  0  0  0
  6 94  1  0  0  0
  6 95  1  0  0  0
  7  8  2  0  0  0
  7 26  1  0  0  0
  7 29  1  0  0  0
  8  9  1  0  0  0
  8 22  1  0  0  0
  9 10  1  0  0  0
  9 27  2  0  0  0
 10 11  2  0  0  0
 10 15  1  0  0  0
 11 12  1  0  0  0
 11 96  1  0  0  0
 12 13  2  0  0  0
 12 97  1  0  0  0
 13 14  1  0  0  0
 13 31  1  0  0  0
 14 15  2  0  0  0
 14 98  1  0  0  0
 15 99  1  0  0  0
 16 17  2  0  0  0
 16 21  1  0  0  0
 16 31  1  0  0  0
 17 18  1  0  0  0
 17100  1  0  0  0
 18 19  2  0  0  0
 18101  1  0  0  0
 19 20  1  0  0  0
 19 24  1  0  0  0
 20 21  2  0  0  0
 20102  1  0  0  0
 21 23  1  0  0  0
 22 28  1  0  0  0
 22 32  2  0  0  0
 26 27  1  0  0  0
 28103  1  0  0  0
 28104  1  0  0  0
 29105  1  0  0  0
 29106  1  0  0  0
 33 34  1  0  0  0
 33 66  1  0  0  0
 33 70  2  0  0  0
 34 36  1  0  0  0
 34 59  1  0  0  0
 34107  1  0  0  0
 35 44  2  0  0  0
 35 45  1  0  0  0
 35 68  1  0  0  0
 36 56  1  0  0  0
 36108  1  0  0  0
 37 39  1  0  0  0
 37 47  1  0  0  0
 37 66  1  0  0  0
 37109  1  0  0  0
 38 43  2  0  0  0
 38 46  1  0  0  0
 38 47  1  0  0  0
 39 64  1  0  0  0
 39 67  2  0  0  0
 40 52  1  0  0  0
 40 53  2  0  0  0
 40 58  1  0  0  0
 41110  1  0  0  0
 41111  1  0  0  0
 41112  1  0  0  0
 41 48  1  0  0  0
 42 43  1  0  0  0
 42 66  1  0  0  0
 42113  1  0  0  0
 42114  1  0  0  0
 43 44  1  0  0  0
 44115  1  0  0  0
 45 46  2  0  0  0
 45116  1  0  0  0
 46117  1  0  0  0
 47118  1  0  0  0
 47119  1  0  0  0
 48 56  1  0  0  0
 48 65  1  0  0  0
 48120  1  0  0  0
 49 50  1  0  0  0
 49 53  1  0  0  0
 49 64  1  0  0  0
 49121  1  0  0  0
 50 51  1  0  0  0
 50122  1  0  0  0
 50123  1  0  0  0
 51 52  1  0  0  0
 51124  1  0  0  0
 51125  1  0  0  0
 52126  1  0  0  0
 52127  1  0  0  0
 53 54  1  0  0  0
 54 55  2  0  0  0
 54128  1  0  0  0
 55 57  1  0  0  0
 55129  1  0  0  0
 56 69  2  0  0  0
 57 58  2  0  0  0
 57130  1  0  0  0
 58131  1  0  0  0
 59 60  1  0  0  0
 59 61  1  0  0  0
 59 62  1  0  0  0
 60132  1  0  0  0
 60133  1  0  0  0
 60134  1  0  0  0
 61135  1  0  0  0
 61136  1  0  0  0
 61137  1  0  0  0
 62138  1  0  0  0
 62139  1  0  0  0
 62140  1  0  0  0
 63 65  1  0  0  0
 63141  1  0  0  0
 63142  1  0  0  0
 63143  1  0  0  0
 64144  1  0  0  0
 65145  1  0  0  0
 68 81  1  0  0  0
 71 72  1  0  0  0
 71 74  2  0  0  0
 71146  1  0  0  0
 72 73  2  0  0  0
 72 76  1  0  0  0
 73 78  1  0  0  0
 73 86  1  0  0  0
 74 82  1  0  0  0
 74 86  1  0  0  0
 75 80  1  0  0  0
 75 82  2  0  0  0
 75147  1  0  0  0
 76 83  1  0  0  0
 76 84  2  0  0  0
 77 80  1  0  0  0
 77 81  1  0  0  0
 77 85  2  0  0  0
 78148  1  0  0  0
 78149  1  0  0  0
 78150  1  0  0  0
 79 84  1  0  0  0
 79151  1  0  0  0
 79152  1  0  0  0
 79153  1  0  0  0
 80154  1  0  0  0
 80155  1  0  0  0
 81156  1  0  0  0
 81157  1  0  0  0
 83158  1  0  0  0
 84159  1  0  0  0
M  CHG  1  84   1
M  ISO  4   1 100  68 101  81 101  83 100
M  END
> <chiral flag>
0

> <version>
0

> <s_m_source_file>
/data/baiqing/PycharmProjects/Reinvent-master-3.2/result/LINK_invent/BTK/process_docking_weight1_custom_product_contain_oxygen_bond_distance_aromatic_linkinvent_7_9_3/rearranged_h_0163.sdf

> <i_m_source_file_index>
91

> <r_mmod_Potential_Energy-OPLS-2005>
-150.80451965332

> <r_mmod_Stretch_Energy-OPLS-2005>
38.188175201416

> <r_mmod_Bend_Energy-OPLS-2005>
120.30347442627

> <r_mmod_Torsional_Energy-OPLS-2005>
311.685943603516

> <r_mmod_Improper_Torsional_Energy-OPLS-2005>
4.66082620620728

> <r_mmod_Van_der_Waal_Energy-OPLS-2005>
122.450805664062

> <r_mmod_Electrostatic_Energy-OPLS-2005>
-326.053649902344

> <r_mmod_Solvation_Energy-OPLS-2005>
-437.167907714844

> <b_mmod_Minimization_Converged-OPLS-2005>
0

> <r_mmod_RMS_Derivative-OPLS-2005>
3.64756345748901

$$$$
91
                    3D
 Structure written by MMmdl.
156164  0  0  1  0            999 V2000
  -30.7223  -14.4665   20.5825 C   0  0  0  0  0  0
  -30.4213  -12.3040   19.4389 C   0  0  0  0  0  0
  -29.5037  -12.5133   18.2170 C   0  0  0  0  0  0
  -28.0179  -12.3824   18.6114 C   0  0  0  0  0  0
  -27.6626  -13.2064   19.8782 C   0  0  2  0  0  0
  -28.6996  -12.9690   20.9989 C   0  0  0  0  0  0
  -25.2593  -13.8165   20.5658 C   0  0  0  0  0  0
  -24.1853  -13.0439   20.9172 C   0  0  0  0  0  0
  -24.6406  -11.6910   20.8726 C   0  0  0  0  0  0
  -23.9076  -10.4300   21.0392 C   0  0  0  0  0  0
  -24.3634   -9.4214   21.9171 C   0  0  0  0  0  0
  -23.6304   -8.2249   22.0749 C   0  0  0  0  0  0
  -22.4287   -8.0274   21.3544 C   0  0  0  0  0  0
  -21.9906   -9.0253   20.4641 C   0  0  0  0  0  0
  -22.7245  -10.2133   20.3047 C   0  0  0  0  0  0
  -21.6848   -6.0740   22.5291 C   0  0  0  0  0  0
  -21.4000   -6.5636   23.8227 C   0  0  0  0  0  0
  -21.3667   -5.6789   24.9191 C   0  0  0  0  0  0
  -21.6065   -4.3054   24.7238 C   0  0  0  0  0  0
  -21.8817   -3.8141   23.4351 C   0  0  0  0  0  0
  -21.9195   -4.6965   22.3415 C   0  0  0  0  0  0
  -22.7868  -13.5227   21.1834 C   0  0  0  0  0  0
  -22.1652   -4.2149   21.0990 F   0  0  0  0  0  0
  -21.5638   -3.4539   25.7751 F   0  0  0  0  0  0
  -30.0353  -13.2880   20.4656 N   0  0  0  0  0  0
  -26.3027  -12.9331   20.3339 N   0  0  0  0  0  0
  -25.9328  -11.6495   20.5760 N   0  0  0  0  0  0
  -22.0508  -12.8249   22.0422 N   0  0  0  0  0  0
  -25.4301  -15.1885   20.4047 N   0  0  0  0  0  0
  -31.8269  -14.6483   20.0597 O   0  0  0  0  0  0
  -21.6636   -6.8885   21.4252 O   0  0  0  0  0  0
  -22.3559  -14.5530   20.6661 O   0  0  0  0  0  0
  -24.6142  -31.8686   23.2086 C   0  0  0  0  0  0
  -25.9029  -32.4834   23.8388 C   0  0  1  0  0  0
  -27.2349  -27.4380   20.0965 C   0  0  0  0  0  0
  -25.5902  -33.8634   24.2338 N   0  0  0  0  0  0
  -23.4026  -30.4895   21.5513 C   0  0  2  0  0  0
  -24.8501  -28.9545   20.1155 C   0  0  0  0  0  0
  -22.7410  -29.4648   22.5008 C   0  0  0  0  0  0
  -18.0263  -28.1374   22.8482 C   0  0  0  0  0  0
  -24.1493  -36.7308   23.2636 C   0  0  0  0  0  0
  -25.9279  -30.8379   21.3565 C   0  0  0  0  0  0
  -26.0100  -29.4699   20.7078 C   0  0  0  0  0  0
  -27.2104  -28.7214   20.6893 C   0  0  0  0  0  0
  -26.0598  -26.9348   19.4991 C   0  0  0  0  0  0
  -24.8693  -27.6866   19.5066 C   0  0  0  0  0  0
  -23.6097  -29.8191   20.1668 C   0  0  0  0  0  0
  -25.4120  -36.3126   24.0341 C   0  0  1  0  0  0
  -20.5849  -28.3649   23.1332 C   0  0  2  0  0  0
  -20.6755  -26.9389   22.5415 C   0  0  0  0  0  0
  -19.5746  -26.6374   21.5205 C   0  0  0  0  0  0
  -18.1921  -26.7920   22.1611 C   0  0  0  0  0  0
  -19.1507  -28.8832   23.2906 C   0  0  0  0  0  0
  -18.9441  -30.1439   23.8922 C   0  0  0  0  0  0
  -17.6443  -30.6584   24.0553 C   0  0  0  0  0  0
  -25.9041  -34.9487   23.5140 C   0  0  0  0  0  0
  -16.5335  -29.9083   23.6320 C   0  0  0  0  0  0
  -16.7252  -28.6493   23.0352 C   0  0  0  0  0  0
  -26.4460  -31.6607   25.0703 C   0  0  0  0  0  0
  -25.3725  -31.3675   26.1449 C   0  0  0  0  0  0
  -27.0272  -30.3074   24.6016 C   0  0  0  0  0  0
  -27.6079  -32.4280   25.7450 C   0  0  0  0  0  0
  -27.5590  -37.1809   24.8470 C   0  0  0  0  0  0
  -21.4134  -29.3025   22.3749 N   0  0  0  0  0  0
  -26.4309  -37.3806   23.9410 N   0  0  0  0  0  0
  -24.6670  -31.0780   22.0987 N   0  0  0  0  0  0
  -23.4186  -28.8195   23.3047 O   0  0  0  0  0  0
  -28.3852  -26.6813   20.0848 O   0  0  0  0  0  0
  -26.5587  -34.8934   22.4692 O   0  0  0  0  0  0
  -23.5338  -32.1429   23.7495 O   0  0  0  0  0  0
  -29.1827  -17.8565   18.2503 C   0  0  0  0  0  0
  -29.4193  -16.7280   19.0578 C   0  0  0  0  0  0
  -29.2999  -19.1517   18.7840 C   0  0  0  0  0  0
  -29.8916  -18.1894   20.9396 C   0  0  0  0  0  0
  -29.7938  -16.8676   20.4156 C   0  0  0  0  0  0
  -29.6416  -19.3424   20.1448 C   0  0  0  0  0  0
  -29.1854  -21.6668   20.2925 C   0  0  0  0  0  0
  -30.0308  -15.6522   21.2758 C   0  0  0  0  0  0
  -28.8239  -24.2310   20.0293 C   0  0  0  0  0  0
  -28.2893  -25.4450   20.8220 C   0  0  0  0  0  0
  -29.4412  -23.0701   20.8589 C   0  0  2  0  0  0
  -29.7342  -15.6486   22.5092 N   0  0  0  0  0  0
  -29.8065  -20.6225   20.7206 N   0  0  0  0  0  0
  -30.8946  -23.3015   20.9010 N   0  3  0  0  0  0
  -28.7939  -24.2455   18.7924 O   0  0  0  0  0  0
  -31.4668  -12.3916   19.1437 H   0  0  0  0  0  0
  -30.3122  -11.2915   19.8314 H   0  0  0  0  0  0
  -29.7479  -11.7915   17.4372 H   0  0  0  0  0  0
  -29.6874  -13.4979   17.7866 H   0  0  0  0  0  0
  -27.8152  -11.3243   18.7882 H   0  0  0  0  0  0
  -27.3811  -12.6764   17.7766 H   0  0  0  0  0  0
  -27.7078  -14.2599   19.6033 H   0  0  0  0  0  0
  -28.6790  -11.9263   21.3180 H   0  0  0  0  0  0
  -28.4397  -13.5365   21.8899 H   0  0  0  0  0  0
  -25.2789   -9.5699   22.4727 H   0  0  0  0  0  0
  -24.0019   -7.4643   22.7467 H   0  0  0  0  0  0
  -21.0826   -8.8794   19.8953 H   0  0  0  0  0  0
  -22.3707  -10.9675   19.6150 H   0  0  0  0  0  0
  -21.1983   -7.6142   23.9739 H   0  0  0  0  0  0
  -21.1486   -6.0513   25.9103 H   0  0  0  0  0  0
  -22.0592   -2.7603   23.2858 H   0  0  0  0  0  0
  -22.4084  -11.9898   22.4818 H   0  0  0  0  0  0
  -21.1119  -13.1296   22.2614 H   0  0  0  0  0  0
  -24.6651  -15.8430   20.5269 H   0  0  0  0  0  0
  -26.2914  -15.6354   20.1141 H   0  0  0  0  0  0
  -26.7098  -32.5557   23.1159 H   0  0  0  0  0  0
  -25.0085  -33.9800   25.0508 H   0  0  0  0  0  0
  -22.6898  -31.3047   21.4116 H   0  0  0  0  0  0
  -23.3767  -35.9627   23.3314 H   0  0  0  0  0  0
  -24.3593  -36.8899   22.2048 H   0  0  0  0  0  0
  -23.7218  -37.6514   23.6627 H   0  0  0  0  0  0
  -26.0263  -31.6013   20.5842 H   0  0  0  0  0  0
  -26.8220  -30.9030   21.9639 H   0  0  0  0  0  0
  -28.1103  -29.1180   21.1410 H   0  0  0  0  0  0
  -26.0666  -25.9636   19.0245 H   0  0  0  0  0  0
  -23.9784  -27.2861   19.0433 H   0  0  0  0  0  0
  -23.7104  -30.5919   19.4030 H   0  0  0  0  0  0
  -22.7342  -29.2341   19.8774 H   0  0  0  0  0  0
  -25.1289  -36.2007   25.0831 H   0  0  0  0  0  0
  -20.9926  -28.3200   24.1462 H   0  0  0  0  0  0
  -20.5647  -26.2255   23.3595 H   0  0  0  0  0  0
  -21.6632  -26.7435   22.1222 H   0  0  0  0  0  0
  -19.6907  -25.6282   21.1247 H   0  0  0  0  0  0
  -19.6709  -27.3169   20.6727 H   0  0  0  0  0  0
  -17.4192  -26.6653   21.4017 H   0  0  0  0  0  0
  -18.0336  -26.0067   22.9013 H   0  0  0  0  0  0
  -19.7924  -30.7232   24.2325 H   0  0  0  0  0  0
  -17.5007  -31.6278   24.5123 H   0  0  0  0  0  0
  -15.5338  -30.2995   23.7640 H   0  0  0  0  0  0
  -15.8649  -28.0814   22.7081 H   0  0  0  0  0  0
  -24.5944  -30.6979   25.7762 H   0  0  0  0  0  0
  -24.8854  -32.2800   26.4894 H   0  0  0  0  0  0
  -25.8088  -30.8850   27.0207 H   0  0  0  0  0  0
  -26.2778  -29.6854   24.1108 H   0  0  0  0  0  0
  -27.4124  -29.7289   25.4420 H   0  0  0  0  0  0
  -27.8576  -30.4438   23.9087 H   0  0  0  0  0  0
  -27.2776  -33.3597   26.2058 H   0  0  0  0  0  0
  -28.3879  -32.6801   25.0248 H   0  0  0  0  0  0
  -28.0757  -31.8359   26.5330 H   0  0  0  0  0  0
  -28.2619  -38.0098   24.7535 H   0  0  0  0  0  0
  -28.1078  -36.2634   24.6286 H   0  0  0  0  0  0
  -27.2304  -37.1445   25.8871 H   0  0  0  0  0  0
  -20.9291  -29.8766   21.6990 H   0  0  0  0  0  0
  -26.0209  -38.2889   24.1421 H   0  0  0  0  0  0
  -28.9101  -17.7257   17.2113 H   0  0  0  0  0  0
  -29.3114  -15.7502   18.6091 H   0  0  0  0  0  0
  -29.1331  -19.9887   18.1187 H   0  0  0  0  0  0
  -30.1802  -18.3258   21.9737 H   0  0  0  0  0  0
  -28.4325  -21.6266   19.4997 H   0  0  0  0  0  0
  -28.8567  -25.5497   21.7467 H   0  0  0  0  0  0
  -27.2602  -25.2325   21.1127 H   0  0  0  0  0  0
  -29.0449  -23.1018   21.8745 H   0  0  0  0  0  0
  -29.3108  -16.5276   22.7817 H   0  0  0  0  0  0
  -31.2529  -23.3175   19.9621 H   0  0  0  0  0  0
  -31.3198  -22.5335   21.3895 H   0  0  0  0  0  0
  -31.1262  -24.1638   21.3578 H   0  0  0  0  0  0
  1 25  1  0  0  0
  1 30  2  0  0  0
  1 78  1  0  0  0
  2  3  1  0  0  0
  2 25  1  0  0  0
  2 86  1  0  0  0
  2 87  1  0  0  0
  3  4  1  0  0  0
  3 88  1  0  0  0
  3 89  1  0  0  0
  4  5  1  0  0  0
  4 90  1  0  0  0
  4 91  1  0  0  0
  5  6  1  0  0  0
  5 26  1  0  0  0
  5 92  1  0  0  0
  6 25  1  0  0  0
  6 93  1  0  0  0
  6 94  1  0  0  0
  7  8  2  0  0  0
  7 26  1  0  0  0
  7 29  1  0  0  0
  8  9  1  0  0  0
  8 22  1  0  0  0
  9 10  1  0  0  0
  9 27  2  0  0  0
 10 11  2  0  0  0
 10 15  1  0  0  0
 11 12  1  0  0  0
 11 95  1  0  0  0
 12 13  2  0  0  0
 12 96  1  0  0  0
 13 14  1  0  0  0
 13 31  1  0  0  0
 14 15  2  0  0  0
 14 97  1  0  0  0
 15 98  1  0  0  0
 16 17  2  0  0  0
 16 21  1  0  0  0
 16 31  1  0  0  0
 17 18  1  0  0  0
 17 99  1  0  0  0
 18 19  2  0  0  0
 18100  1  0  0  0
 19 20  1  0  0  0
 19 24  1  0  0  0
 20 21  2  0  0  0
 20101  1  0  0  0
 21 23  1  0  0  0
 22 28  1  0  0  0
 22 32  2  0  0  0
 26 27  1  0  0  0
 28102  1  0  0  0
 28103  1  0  0  0
 29104  1  0  0  0
 29105  1  0  0  0
 33 34  1  0  0  0
 33 66  1  0  0  0
 33 70  2  0  0  0
 34 36  1  0  0  0
 34 59  1  0  0  0
 34106  1  0  0  0
 35 44  2  0  0  0
 35 45  1  0  0  0
 35 68  1  0  0  0
 36 56  1  0  0  0
 36107  1  0  0  0
 37 39  1  0  0  0
 37 47  1  0  0  0
 37 66  1  0  0  0
 37108  1  0  0  0
 38 43  2  0  0  0
 38 46  1  0  0  0
 38 47  1  0  0  0
 39 64  1  0  0  0
 39 67  2  0  0  0
 40 52  1  0  0  0
 40 53  2  0  0  0
 40 58  1  0  0  0
 41109  1  0  0  0
 41110  1  0  0  0
 41111  1  0  0  0
 41 48  1  0  0  0
 42 43  1  0  0  0
 42 66  1  0  0  0
 42112  1  0  0  0
 42113  1  0  0  0
 43 44  1  0  0  0
 44114  1  0  0  0
 45 46  2  0  0  0
 45115  1  0  0  0
 46116  1  0  0  0
 47117  1  0  0  0
 47118  1  0  0  0
 48 56  1  0  0  0
 48 65  1  0  0  0
 48119  1  0  0  0
 49 50  1  0  0  0
 49 53  1  0  0  0
 49 64  1  0  0  0
 49120  1  0  0  0
 50 51  1  0  0  0
 50121  1  0  0  0
 50122  1  0  0  0
 51 52  1  0  0  0
 51123  1  0  0  0
 51124  1  0  0  0
 52125  1  0  0  0
 52126  1  0  0  0
 53 54  1  0  0  0
 54 55  2  0  0  0
 54127  1  0  0  0
 55 57  1  0  0  0
 55128  1  0  0  0
 56 69  2  0  0  0
 57 58  2  0  0  0
 57129  1  0  0  0
 58130  1  0  0  0
 59 60  1  0  0  0
 59 61  1  0  0  0
 59 62  1  0  0  0
 60131  1  0  0  0
 60132  1  0  0  0
 60133  1  0  0  0
 61134  1  0  0  0
 61135  1  0  0  0
 61136  1  0  0  0
 62137  1  0  0  0
 62138  1  0  0  0
 62139  1  0  0  0
 63 65  1  0  0  0
 63140  1  0  0  0
 63141  1  0  0  0
 63142  1  0  0  0
 64143  1  0  0  0
 65144  1  0  0  0
 68 80  1  0  0  0
 71 72  2  0  0  0
 71 73  1  0  0  0
 71145  1  0  0  0
 72 75  1  0  0  0
 72146  1  0  0  0
 73 76  2  0  0  0
 73147  1  0  0  0
 74 75  2  0  0  0
 74 76  1  0  0  0
 74148  1  0  0  0
 75 78  1  0  0  0
 76 83  1  0  0  0
 77 81  1  0  0  0
 77 83  2  0  0  0
 77149  1  0  0  0
 78 82  2  0  0  0
 79 80  1  0  0  0
 79 81  1  0  0  0
 79 85  2  0  0  0
 80150  1  0  0  0
 80151  1  0  0  0
 81 84  1  0  0  0
 81152  1  0  0  0
 82153  1  0  0  0
 84154  1  0  0  0
 84155  1  0  0  0
 84156  1  0  0  0
M  CHG  1  84   1
M  ISO  4   1 100  68 101  78 100  80 101
M  END
> <chiral flag>
0

> <version>
0

> <s_m_source_file>
/data/baiqing/PycharmProjects/Reinvent-master-3.2/result/LINK_invent/BTK/process_docking_weight1_custom_product_contain_oxygen_bond_distance_aromatic_linkinvent_7_9_3/rearranged_h_0163.sdf

> <i_m_source_file_index>
92

> <r_mmod_Potential_Energy-OPLS-2005>
-281.550689697266

> <r_mmod_Stretch_Energy-OPLS-2005>
46.859302520752

> <r_mmod_Bend_Energy-OPLS-2005>
103.35627746582

> <r_mmod_Torsional_Energy-OPLS-2005>
245.177215576172

> <r_mmod_Improper_Torsional_Energy-OPLS-2005>
3.51326608657837

> <r_mmod_Van_der_Waal_Energy-OPLS-2005>
155.206619262695

> <r_mmod_Electrostatic_Energy-OPLS-2005>
-316.415069580078

> <r_mmod_Solvation_Energy-OPLS-2005>
-530.532043457031

> <b_mmod_Minimization_Converged-OPLS-2005>
0

> <r_mmod_RMS_Derivative-OPLS-2005>
2.71795845031738

$$$$
92
                    3D
 Structure written by MMmdl.
154162  0  0  1  0            999 V2000
  -30.5640  -14.7643   20.5381 C   0  0  0  0  0  0
  -30.4367  -12.4807   19.5089 C   0  0  0  0  0  0
  -29.5294  -12.5235   18.2559 C   0  0  0  0  0  0
  -28.0508  -12.3240   18.6479 C   0  0  0  0  0  0
  -27.6387  -13.2151   19.8496 C   0  0  2  0  0  0
  -28.6606  -13.1250   20.9999 C   0  0  0  0  0  0
  -25.2521  -13.8152   20.5699 C   0  0  0  0  0  0
  -24.1767  -13.0440   20.9169 C   0  0  0  0  0  0
  -24.6297  -11.6906   20.8682 C   0  0  0  0  0  0
  -23.8966  -10.4289   21.0378 C   0  0  0  0  0  0
  -24.3545   -9.4221   21.9157 C   0  0  0  0  0  0
  -23.6245   -8.2255   22.0755 C   0  0  0  0  0  0
  -22.4221   -8.0259   21.3563 C   0  0  0  0  0  0
  -21.9822   -9.0222   20.4660 C   0  0  0  0  0  0
  -22.7141  -10.2113   20.3042 C   0  0  0  0  0  0
  -21.6860   -6.0673   22.5264 C   0  0  0  0  0  0
  -21.4036   -6.5582   23.8190 C   0  0  0  0  0  0
  -21.3674   -5.6750   24.9158 C   0  0  0  0  0  0
  -21.6069   -4.3015   24.7232 C   0  0  0  0  0  0
  -21.8819   -3.8089   23.4349 C   0  0  0  0  0  0
  -21.9197   -4.6898   22.3393 C   0  0  0  0  0  0
  -22.7806  -13.5281   21.1851 C   0  0  0  0  0  0
  -22.1657   -4.2076   21.0976 F   0  0  0  0  0  0
  -21.5633   -3.4501   25.7747 F   0  0  0  0  0  0
  -29.9632  -13.5264   20.4508 N   0  0  0  0  0  0
  -26.2866  -12.9301   20.3187 N   0  0  0  0  0  0
  -25.9208  -11.6457   20.5643 N   0  0  0  0  0  0
  -22.0426  -12.8307   22.0421 N   0  0  0  0  0  0
  -25.4360  -15.1872   20.4281 N   0  0  0  0  0  0
  -31.7004  -14.9099   20.0737 O   0  0  0  0  0  0
  -21.6635   -6.8832   21.4241 O   0  0  0  0  0  0
  -22.3521  -14.5627   20.6727 O   0  0  0  0  0  0
  -24.6337  -31.8522   23.1923 C   0  0  0  0  0  0
  -25.9165  -32.4736   23.8296 C   0  0  1  0  0  0
  -27.2236  -27.2301   20.1442 C   0  0  0  0  0  0
  -25.5955  -33.8521   24.2268 N   0  0  0  0  0  0
  -23.4341  -30.4667   21.5362 C   0  0  2  0  0  0
  -24.8900  -28.9086   20.1073 C   0  0  0  0  0  0
  -22.7539  -29.4544   22.4895 C   0  0  0  0  0  0
  -18.0279  -28.1369   22.8498 C   0  0  0  0  0  0
  -24.1507  -36.7266   23.2626 C   0  0  0  0  0  0
  -25.9814  -30.7526   21.3827 C   0  0  0  0  0  0
  -26.0587  -29.3721   20.7255 C   0  0  0  0  0  0
  -27.2314  -28.5450   20.7268 C   0  0  0  0  0  0
  -26.0490  -26.8574   19.4607 C   0  0  0  0  0  0
  -24.8925  -27.6640   19.4558 C   0  0  0  0  0  0
  -23.6588  -29.7902   20.1546 C   0  0  0  0  0  0
  -25.4125  -36.3059   24.0334 C   0  0  1  0  0  0
  -20.5884  -28.3680   23.1275 C   0  0  2  0  0  0
  -20.6763  -26.9386   22.5412 C   0  0  0  0  0  0
  -19.5767  -26.6363   21.5201 C   0  0  0  0  0  0
  -18.1938  -26.7909   22.1605 C   0  0  0  0  0  0
  -19.1536  -28.8845   23.2864 C   0  0  0  0  0  0
  -18.9457  -30.1435   23.8887 C   0  0  0  0  0  0
  -17.6458  -30.6571   24.0540 C   0  0  0  0  0  0
  -25.9071  -34.9430   23.5114 C   0  0  0  0  0  0
  -16.5343  -29.9066   23.6345 C   0  0  0  0  0  0
  -16.7256  -28.6480   23.0379 C   0  0  0  0  0  0
  -26.4535  -31.6556   25.0689 C   0  0  0  0  0  0
  -25.3757  -31.3651   26.1399 C   0  0  0  0  0  0
  -27.0351  -30.2971   24.6152 C   0  0  0  0  0  0
  -27.6127  -32.4286   25.7428 C   0  0  0  0  0  0
  -27.5586  -37.1773   24.8458 C   0  0  0  0  0  0
  -21.4227  -29.3029   22.3671 N   0  0  0  0  0  0
  -26.4305  -37.3765   23.9398 N   0  0  0  0  0  0
  -24.7010  -31.0429   22.0921 N   0  0  0  0  0  0
  -23.4221  -28.8086   23.3009 O   0  0  0  0  0  0
  -28.3015  -26.3049   20.1799 O   0  0  0  0  0  0
  -26.5613  -34.8899   22.4655 O   0  0  0  0  0  0
  -23.5489  -32.1366   23.7203 O   0  0  0  0  0  0
  -29.5663  -18.4074   21.0545 C   0  0  0  0  0  0
  -28.7006  -18.9743   18.9682 C   0  0  0  0  0  0
  -29.1031  -19.4985   20.1733 C   0  0  0  0  0  0
  -29.5561  -17.0896   20.5271 C   0  0  0  0  0  0
  -28.4012  -22.0469   20.0254 C   0  0  0  0  0  0
  -26.7842  -24.5323   21.3156 C   0  0  0  0  0  0
  -29.9797  -15.8661   22.5916 C   0  0  0  0  0  0
  -28.9164  -23.5856   20.0210 C   0  0  0  0  0  0
  -28.1631  -24.8766   20.7140 C   0  0  1  0  0  0
  -29.1790  -20.9696   20.4560 N   0  0  0  0  0  0
  -29.8902  -15.8486   21.1251 N   0  0  0  0  0  0
  -27.2730  -21.8324   19.5739 O   0  0  0  0  0  0
  -28.9138  -17.2192   18.8925 S   0  0  0  0  0  0
  -31.4813  -12.6247   19.2242 H   0  0  0  0  0  0
  -30.3922  -11.4986   19.9854 H   0  0  0  0  0  0
  -29.8418  -11.7619   17.5400 H   0  0  0  0  0  0
  -29.6509  -13.4846   17.7530 H   0  0  0  0  0  0
  -27.9284  -11.2732   18.9125 H   0  0  0  0  0  0
  -27.3987  -12.5012   17.7926 H   0  0  0  0  0  0
  -27.6473  -14.2433   19.4865 H   0  0  0  0  0  0
  -28.7078  -12.1078   21.4021 H   0  0  0  0  0  0
  -28.3360  -13.7557   21.8277 H   0  0  0  0  0  0
  -25.2682   -9.5709   22.4727 H   0  0  0  0  0  0
  -23.9954   -7.4648   22.7476 H   0  0  0  0  0  0
  -21.0729   -8.8729   19.8973 H   0  0  0  0  0  0
  -22.3577  -10.9633   19.6143 H   0  0  0  0  0  0
  -21.2055   -7.6095   23.9701 H   0  0  0  0  0  0
  -21.1505   -6.0456   25.9073 H   0  0  0  0  0  0
  -22.0594   -2.7541   23.2863 H   0  0  0  0  0  0
  -22.3982  -11.9986   22.4880 H   0  0  0  0  0  0
  -21.1098  -13.1501   22.2671 H   0  0  0  0  0  0
  -24.7022  -15.8598   20.6148 H   0  0  0  0  0  0
  -26.3182  -15.6185   20.1802 H   0  0  0  0  0  0
  -26.7207  -32.5407   23.1015 H   0  0  0  0  0  0
  -25.0152  -33.9646   25.0453 H   0  0  0  0  0  0
  -22.7307  -31.2863   21.3816 H   0  0  0  0  0  0
  -23.3782  -35.9595   23.3286 H   0  0  0  0  0  0
  -24.3576  -36.8878   22.2030 H   0  0  0  0  0  0
  -23.7262  -37.6460   23.6651 H   0  0  0  0  0  0
  -26.1279  -31.5158   20.6157 H   0  0  0  0  0  0
  -26.8511  -30.7997   22.0265 H   0  0  0  0  0  0
  -28.1308  -28.8869   21.2224 H   0  0  0  0  0  0
  -26.0239  -25.9112   18.9395 H   0  0  0  0  0  0
  -24.0085  -27.3081   18.9481 H   0  0  0  0  0  0
  -23.7743  -30.5586   19.3900 H   0  0  0  0  0  0
  -22.7825  -29.2095   19.8588 H   0  0  0  0  0  0
  -25.1311  -36.1899   25.0837 H   0  0  0  0  0  0
  -20.9964  -28.3243   24.1407 H   0  0  0  0  0  0
  -20.5641  -26.2253   23.3600 H   0  0  0  0  0  0
  -21.6648  -26.7403   22.1237 H   0  0  0  0  0  0
  -19.6911  -25.6282   21.1219 H   0  0  0  0  0  0
  -19.6708  -27.3159   20.6728 H   0  0  0  0  0  0
  -17.4216  -26.6682   21.3987 H   0  0  0  0  0  0
  -18.0301  -26.0041   22.8990 H   0  0  0  0  0  0
  -19.7925  -30.7239   24.2278 H   0  0  0  0  0  0
  -17.5003  -31.6265   24.5115 H   0  0  0  0  0  0
  -15.5345  -30.2951   23.7678 H   0  0  0  0  0  0
  -15.8659  -28.0768   22.7168 H   0  0  0  0  0  0
  -24.6022  -30.6944   25.7657 H   0  0  0  0  0  0
  -24.8867  -32.2768   26.4821 H   0  0  0  0  0  0
  -25.8086  -30.8814   27.0166 H   0  0  0  0  0  0
  -26.2890  -29.6728   24.1234 H   0  0  0  0  0  0
  -27.4050  -29.7246   25.4657 H   0  0  0  0  0  0
  -27.8800  -30.4195   23.9379 H   0  0  0  0  0  0
  -27.2800  -33.3615   26.1998 H   0  0  0  0  0  0
  -28.3924  -32.6783   25.0216 H   0  0  0  0  0  0
  -28.0833  -31.8413   26.5324 H   0  0  0  0  0  0
  -28.2595  -38.0076   24.7520 H   0  0  0  0  0  0
  -28.1095  -36.2595   24.6308 H   0  0  0  0  0  0
  -27.2275  -37.1450   25.8854 H   0  0  0  0  0  0
  -20.9420  -29.8801   21.6913 H   0  0  0  0  0  0
  -26.0190  -38.2852   24.1385 H   0  0  0  0  0  0
  -29.9068  -18.6390   22.0539 H   0  0  0  0  0  0
  -28.3314  -19.4963   18.0926 H   0  0  0  0  0  0
  -26.8314  -23.6214   21.9127 H   0  0  0  0  0  0
  -26.0284  -24.3722   20.5504 H   0  0  0  0  0  0
  -26.4389  -25.3215   21.9862 H   0  0  0  0  0  0
  -29.2415  -16.5381   23.0340 H   0  0  0  0  0  0
  -30.9685  -16.1986   22.9043 H   0  0  0  0  0  0
  -29.8168  -14.8850   23.0401 H   0  0  0  0  0  0
  -28.9948  -23.8131   18.9574 H   0  0  0  0  0  0
  -29.9520  -23.5799   20.3636 H   0  0  0  0  0  0
  -28.7568  -24.9900   21.6234 H   0  0  0  0  0  0
  -29.9809  -21.2454   21.0127 H   0  0  0  0  0  0
  1 25  1  0  0  0
  1 30  2  0  0  0
  1 81  1  0  0  0
  2  3  1  0  0  0
  2 25  1  0  0  0
  2 84  1  0  0  0
  2 85  1  0  0  0
  3  4  1  0  0  0
  3 86  1  0  0  0
  3 87  1  0  0  0
  4  5  1  0  0  0
  4 88  1  0  0  0
  4 89  1  0  0  0
  5  6  1  0  0  0
  5 26  1  0  0  0
  5 90  1  0  0  0
  6 25  1  0  0  0
  6 91  1  0  0  0
  6 92  1  0  0  0
  7  8  2  0  0  0
  7 26  1  0  0  0
  7 29  1  0  0  0
  8  9  1  0  0  0
  8 22  1  0  0  0
  9 10  1  0  0  0
  9 27  2  0  0  0
 10 11  2  0  0  0
 10 15  1  0  0  0
 11 12  1  0  0  0
 11 93  1  0  0  0
 12 13  2  0  0  0
 12 94  1  0  0  0
 13 14  1  0  0  0
 13 31  1  0  0  0
 14 15  2  0  0  0
 14 95  1  0  0  0
 15 96  1  0  0  0
 16 17  2  0  0  0
 16 21  1  0  0  0
 16 31  1  0  0  0
 17 18  1  0  0  0
 17 97  1  0  0  0
 18 19  2  0  0  0
 18 98  1  0  0  0
 19 20  1  0  0  0
 19 24  1  0  0  0
 20 21  2  0  0  0
 20 99  1  0  0  0
 21 23  1  0  0  0
 22 28  1  0  0  0
 22 32  2  0  0  0
 26 27  1  0  0  0
 28100  1  0  0  0
 28101  1  0  0  0
 29102  1  0  0  0
 29103  1  0  0  0
 33 34  1  0  0  0
 33 66  1  0  0  0
 33 70  2  0  0  0
 34 36  1  0  0  0
 34 59  1  0  0  0
 34104  1  0  0  0
 35 44  2  0  0  0
 35 45  1  0  0  0
 35 68  1  0  0  0
 36 56  1  0  0  0
 36105  1  0  0  0
 37 39  1  0  0  0
 37 47  1  0  0  0
 37 66  1  0  0  0
 37106  1  0  0  0
 38 43  2  0  0  0
 38 46  1  0  0  0
 38 47  1  0  0  0
 39 64  1  0  0  0
 39 67  2  0  0  0
 40 52  1  0  0  0
 40 53  2  0  0  0
 40 58  1  0  0  0
 41107  1  0  0  0
 41108  1  0  0  0
 41109  1  0  0  0
 41 48  1  0  0  0
 42 43  1  0  0  0
 42 66  1  0  0  0
 42110  1  0  0  0
 42111  1  0  0  0
 43 44  1  0  0  0
 44112  1  0  0  0
 45 46  2  0  0  0
 45113  1  0  0  0
 46114  1  0  0  0
 47115  1  0  0  0
 47116  1  0  0  0
 48 56  1  0  0  0
 48 65  1  0  0  0
 48117  1  0  0  0
 49 50  1  0  0  0
 49 53  1  0  0  0
 49 64  1  0  0  0
 49118  1  0  0  0
 50 51  1  0  0  0
 50119  1  0  0  0
 50120  1  0  0  0
 51 52  1  0  0  0
 51121  1  0  0  0
 51122  1  0  0  0
 52123  1  0  0  0
 52124  1  0  0  0
 53 54  1  0  0  0
 54 55  2  0  0  0
 54125  1  0  0  0
 55 57  1  0  0  0
 55126  1  0  0  0
 56 69  2  0  0  0
 57 58  2  0  0  0
 57127  1  0  0  0
 58128  1  0  0  0
 59 60  1  0  0  0
 59 61  1  0  0  0
 59 62  1  0  0  0
 60129  1  0  0  0
 60130  1  0  0  0
 60131  1  0  0  0
 61132  1  0  0  0
 61133  1  0  0  0
 61134  1  0  0  0
 62135  1  0  0  0
 62136  1  0  0  0
 62137  1  0  0  0
 63 65  1  0  0  0
 63138  1  0  0  0
 63139  1  0  0  0
 63140  1  0  0  0
 64141  1  0  0  0
 65142  1  0  0  0
 68 79  1  0  0  0
 71 73  1  0  0  0
 71 74  2  0  0  0
 71143  1  0  0  0
 72 73  2  0  0  0
 72 83  1  0  0  0
 72144  1  0  0  0
 73 80  1  0  0  0
 74 81  1  0  0  0
 74 83  1  0  0  0
 75 78  1  0  0  0
 75 80  1  0  0  0
 75 82  2  0  0  0
 76145  1  0  0  0
 76146  1  0  0  0
 76147  1  0  0  0
 76 79  1  0  0  0
 77 81  1  0  0  0
 77148  1  0  0  0
 77149  1  0  0  0
 77150  1  0  0  0
 78 79  1  0  0  0
 78151  1  0  0  0
 78152  1  0  0  0
 79153  1  0  0  0
 80154  1  0  0  0
M  ISO  4   1 100  68 101  79 101  81 100
M  END
> <chiral flag>
0

> <version>
0

> <s_m_source_file>
/data/baiqing/PycharmProjects/Reinvent-master-3.2/result/LINK_invent/BTK/process_docking_weight1_custom_product_contain_oxygen_bond_distance_aromatic_linkinvent_7_9_3/rearranged_h_0163.sdf

> <i_m_source_file_index>
93

> <r_mmod_Potential_Energy-OPLS-2005>
359.572692871094

> <r_mmod_Stretch_Energy-OPLS-2005>
149.097717285156

> <r_mmod_Bend_Energy-OPLS-2005>
210.91438293457

> <r_mmod_Torsional_Energy-OPLS-2005>
316.221221923828

> <r_mmod_Improper_Torsional_Energy-OPLS-2005>
3.80149841308594

> <r_mmod_Van_der_Waal_Energy-OPLS-2005>
115.325546264648

> <r_mmod_Electrostatic_Energy-OPLS-2005>
-318.693939208984

> <r_mmod_Solvation_Energy-OPLS-2005>
-217.749786376953

> <b_mmod_Minimization_Converged-OPLS-2005>
0

> <r_mmod_RMS_Derivative-OPLS-2005>
6.11408185958862

$$$$
93
                    3D
 Structure written by MMmdl.
161169  0  0  1  0            999 V2000
  -30.7002  -14.4371   20.5259 C   0  0  0  0  0  0
  -30.4161  -12.2684   19.4230 C   0  0  0  0  0  0
  -29.4918  -12.4906   18.2070 C   0  0  0  0  0  0
  -28.0098  -12.3690   18.6159 C   0  0  0  0  0  0
  -27.6618  -13.2040   19.8772 C   0  0  2  0  0  0
  -28.7043  -12.9767   20.9982 C   0  0  0  0  0  0
  -25.2584  -13.8171   20.5666 C   0  0  0  0  0  0
  -24.1832  -13.0445   20.9170 C   0  0  0  0  0  0
  -24.6386  -11.6914   20.8737 C   0  0  0  0  0  0
  -23.9057  -10.4297   21.0411 C   0  0  0  0  0  0
  -24.3615   -9.4217   21.9188 C   0  0  0  0  0  0
  -23.6292   -8.2252   22.0766 C   0  0  0  0  0  0
  -22.4276   -8.0291   21.3551 C   0  0  0  0  0  0
  -21.9907   -9.0262   20.4652 C   0  0  0  0  0  0
  -22.7232  -10.2141   20.3057 C   0  0  0  0  0  0
  -21.6863   -6.0739   22.5277 C   0  0  0  0  0  0
  -21.4016   -6.5643   23.8210 C   0  0  0  0  0  0
  -21.3660   -5.6797   24.9174 C   0  0  0  0  0  0
  -21.6045   -4.3057   24.7225 C   0  0  0  0  0  0
  -21.8821   -3.8150   23.4344 C   0  0  0  0  0  0
  -21.9199   -4.6965   22.3399 C   0  0  0  0  0  0
  -22.7855  -13.5243   21.1834 C   0  0  0  0  0  0
  -22.1668   -4.2150   21.0975 F   0  0  0  0  0  0
  -21.5630   -3.4540   25.7738 F   0  0  0  0  0  0
  -30.0402  -13.2539   20.4453 N   0  0  0  0  0  0
  -26.3022  -12.9327   20.3386 N   0  0  0  0  0  0
  -25.9315  -11.6494   20.5792 N   0  0  0  0  0  0
  -22.0498  -12.8237   22.0394 N   0  0  0  0  0  0
  -25.4311  -15.1888   20.4043 N   0  0  0  0  0  0
  -31.8560  -14.6022   20.1223 O   0  0  0  0  0  0
  -21.6647   -6.8882   21.4240 O   0  0  0  0  0  0
  -22.3535  -14.5542   20.6684 O   0  0  0  0  0  0
  -24.6115  -31.8698   23.2114 C   0  0  0  0  0  0
  -25.9020  -32.4830   23.8404 C   0  0  1  0  0  0
  -27.2391  -27.4684   20.0934 C   0  0  0  0  0  0
  -25.5888  -33.8630   24.2334 N   0  0  0  0  0  0
  -23.3976  -30.4923   21.5515 C   0  0  2  0  0  0
  -24.8451  -28.9591   20.1174 C   0  0  0  0  0  0
  -22.7389  -29.4667   22.5013 C   0  0  0  0  0  0
  -18.0266  -28.1376   22.8496 C   0  0  0  0  0  0
  -24.1486  -36.7321   23.2637 C   0  0  0  0  0  0
  -25.9221  -30.8471   21.3577 C   0  0  0  0  0  0
  -26.0026  -29.4832   20.7067 C   0  0  0  0  0  0
  -27.2049  -28.7461   20.6877 C   0  0  0  0  0  0
  -26.0670  -26.9458   19.5054 C   0  0  0  0  0  0
  -24.8705  -27.6883   19.5145 C   0  0  0  0  0  0
  -23.6039  -29.8208   20.1671 C   0  0  0  0  0  0
  -25.4105  -36.3117   24.0340 C   0  0  1  0  0  0
  -20.5853  -28.3655   23.1334 C   0  0  2  0  0  0
  -20.6757  -26.9395   22.5425 C   0  0  0  0  0  0
  -19.5739  -26.6385   21.5217 C   0  0  0  0  0  0
  -18.1914  -26.7925   22.1623 C   0  0  0  0  0  0
  -19.1514  -28.8832   23.2913 C   0  0  0  0  0  0
  -18.9444  -30.1441   23.8917 C   0  0  0  0  0  0
  -17.6448  -30.6584   24.0567 C   0  0  0  0  0  0
  -25.9029  -34.9482   23.5133 C   0  0  0  0  0  0
  -16.5339  -29.9089   23.6326 C   0  0  0  0  0  0
  -16.7256  -28.6506   23.0346 C   0  0  0  0  0  0
  -26.4461  -31.6602   25.0719 C   0  0  0  0  0  0
  -25.3740  -31.3703   26.1477 C   0  0  0  0  0  0
  -27.0278  -30.3048   24.6067 C   0  0  0  0  0  0
  -27.6048  -32.4314   25.7476 C   0  0  0  0  0  0
  -27.5585  -37.1808   24.8458 C   0  0  0  0  0  0
  -21.4121  -29.3027   22.3747 N   0  0  0  0  0  0
  -26.4290  -37.3801   23.9414 N   0  0  0  0  0  0
  -24.6620  -31.0830   22.0995 N   0  0  0  0  0  0
  -23.4175  -28.8212   23.3045 O   0  0  0  0  0  0
  -28.4143  -26.7599   20.0837 O   0  0  0  0  0  0
  -26.5590  -34.8929   22.4692 O   0  0  0  0  0  0
  -23.5317  -32.1433   23.7531 O   0  0  0  0  0  0
  -30.3008  -17.9583   20.6698 C   0  0  0  0  0  0
  -29.5909  -16.7296   18.7978 C   0  0  0  0  0  0
  -29.9394  -16.6890   20.1235 C   0  0  0  0  0  0
  -30.2634  -18.9612   19.7267 C   0  0  0  0  0  0
  -28.7886  -21.8119   19.7259 C   0  0  0  0  0  0
  -29.9319  -21.3598   20.3052 C   0  0  0  0  0  0
  -28.4057  -24.3306   19.7616 C   0  0  0  0  0  0
  -28.1979  -21.2299   18.4536 C   0  0  0  0  0  0
  -30.5175  -21.1218   22.7797 C   0  0  0  0  0  0
  -27.9588  -22.9616   20.2920 C   0  0  0  0  0  0
  -30.5630  -22.0141   21.5314 C   0  0  0  0  0  0
  -28.3486  -25.4977   20.7528 C   0  0  0  0  0  0
  -29.9375  -15.4846   20.8752 N   0  0  0  0  0  0
  -30.6960  -20.2824   19.8654 N   0  0  0  0  0  0
  -28.7700  -24.4920   18.5913 O   0  0  0  0  0  0
  -29.7970  -18.3330   18.1596 S   0  0  0  0  0  0
  -31.4627  -12.3511   19.1246 H   0  0  0  0  0  0
  -30.2975  -11.2573   19.8153 H   0  0  0  0  0  0
  -29.7222  -11.7695   17.4219 H   0  0  0  0  0  0
  -29.6750  -13.4759   17.7762 H   0  0  0  0  0  0
  -27.8043  -11.3141   18.8028 H   0  0  0  0  0  0
  -27.3629  -12.6597   17.7869 H   0  0  0  0  0  0
  -27.7062  -14.2526   19.5822 H   0  0  0  0  0  0
  -28.6647  -11.9447   21.3495 H   0  0  0  0  0  0
  -28.4827  -13.5927   21.8712 H   0  0  0  0  0  0
  -25.2769   -9.5695   22.4743 H   0  0  0  0  0  0
  -24.0013   -7.4644   22.7484 H   0  0  0  0  0  0
  -21.0842   -8.8772   19.8950 H   0  0  0  0  0  0
  -22.3701  -10.9673   19.6154 H   0  0  0  0  0  0
  -21.2008   -7.6152   23.9710 H   0  0  0  0  0  0
  -21.1485   -6.0533   25.9077 H   0  0  0  0  0  0
  -22.0598   -2.7611   23.2846 H   0  0  0  0  0  0
  -22.4118  -11.9893   22.4773 H   0  0  0  0  0  0
  -21.1117  -13.1261   22.2603 H   0  0  0  0  0  0
  -24.6623  -15.8438   20.4989 H   0  0  0  0  0  0
  -26.2864  -15.6280   20.0871 H   0  0  0  0  0  0
  -26.7095  -32.5557   23.1180 H   0  0  0  0  0  0
  -25.0056  -33.9800   25.0490 H   0  0  0  0  0  0
  -22.6848  -31.3076   21.4123 H   0  0  0  0  0  0
  -23.3746  -35.9655   23.3300 H   0  0  0  0  0  0
  -24.3587  -36.8933   22.2052 H   0  0  0  0  0  0
  -23.7237  -37.6527   23.6649 H   0  0  0  0  0  0
  -26.0265  -31.6139   20.5889 H   0  0  0  0  0  0
  -26.8127  -30.9033   21.9719 H   0  0  0  0  0  0
  -28.1023  -29.1496   21.1363 H   0  0  0  0  0  0
  -26.0775  -25.9751   19.0311 H   0  0  0  0  0  0
  -23.9803  -27.2793   19.0565 H   0  0  0  0  0  0
  -23.7056  -30.5931   19.4038 H   0  0  0  0  0  0
  -22.7300  -29.2350   19.8760 H   0  0  0  0  0  0
  -25.1281  -36.1984   25.0833 H   0  0  0  0  0  0
  -20.9944  -28.3215   24.1454 H   0  0  0  0  0  0
  -20.5663  -26.2260   23.3607 H   0  0  0  0  0  0
  -21.6630  -26.7445   22.1216 H   0  0  0  0  0  0
  -19.6899  -25.6300   21.1237 H   0  0  0  0  0  0
  -19.6684  -27.3207   20.6758 H   0  0  0  0  0  0
  -17.4189  -26.6682   21.4019 H   0  0  0  0  0  0
  -18.0307  -26.0060   22.9011 H   0  0  0  0  0  0
  -19.7921  -30.7254   24.2294 H   0  0  0  0  0  0
  -17.5003  -31.6268   24.5163 H   0  0  0  0  0  0
  -15.5340  -30.2997   23.7640 H   0  0  0  0  0  0
  -15.8655  -28.0837   22.7044 H   0  0  0  0  0  0
  -24.5913  -30.7043   25.7825 H   0  0  0  0  0  0
  -24.8928  -32.2854   26.4939 H   0  0  0  0  0  0
  -25.8105  -30.8871   27.0226 H   0  0  0  0  0  0
  -26.2804  -29.6825   24.1126 H   0  0  0  0  0  0
  -27.4062  -29.7270   25.4510 H   0  0  0  0  0  0
  -27.8636  -30.4377   23.9192 H   0  0  0  0  0  0
  -27.2676  -33.3607   26.2083 H   0  0  0  0  0  0
  -28.3841  -32.6883   25.0287 H   0  0  0  0  0  0
  -28.0729  -31.8414   26.5367 H   0  0  0  0  0  0
  -28.2593  -38.0118   24.7532 H   0  0  0  0  0  0
  -28.1093  -36.2651   24.6246 H   0  0  0  0  0  0
  -27.2310  -37.1414   25.8862 H   0  0  0  0  0  0
  -20.9273  -29.8749   21.6974 H   0  0  0  0  0  0
  -26.0182  -38.2878   24.1430 H   0  0  0  0  0  0
  -30.6037  -18.0796   21.6998 H   0  0  0  0  0  0
  -29.2751  -15.9312   18.1385 H   0  0  0  0  0  0
  -28.9831  -20.9180   17.7684 H   0  0  0  0  0  0
  -27.6094  -21.9766   17.9196 H   0  0  0  0  0  0
  -27.5486  -20.3841   18.6793 H   0  0  0  0  0  0
  -30.9771  -21.6251   23.6309 H   0  0  0  0  0  0
  -31.0554  -20.1863   22.6307 H   0  0  0  0  0  0
  -29.4900  -20.8798   23.0541 H   0  0  0  0  0  0
  -28.0137  -22.9625   21.3798 H   0  0  0  0  0  0
  -26.9072  -22.8104   20.0484 H   0  0  0  0  0  0
  -30.1176  -22.9808   21.7583 H   0  0  0  0  0  0
  -31.6048  -22.2430   21.2991 H   0  0  0  0  0  0
  -29.2036  -25.4189   21.4241 H   0  0  0  0  0  0
  -27.4533  -25.4148   21.3709 H   0  0  0  0  0  0
  -29.0603  -15.2384   21.3084 H   0  0  0  0  0  0
  -31.5830  -20.2516   20.3562 H   0  0  0  0  0  0
  1 25  1  0  0  0
  1 30  2  0  0  0
  1 83  1  0  0  0
  2  3  1  0  0  0
  2 25  1  0  0  0
  2 87  1  0  0  0
  2 88  1  0  0  0
  3  4  1  0  0  0
  3 89  1  0  0  0
  3 90  1  0  0  0
  4  5  1  0  0  0
  4 91  1  0  0  0
  4 92  1  0  0  0
  5  6  1  0  0  0
  5 26  1  0  0  0
  5 93  1  0  0  0
  6 25  1  0  0  0
  6 94  1  0  0  0
  6 95  1  0  0  0
  7  8  2  0  0  0
  7 26  1  0  0  0
  7 29  1  0  0  0
  8  9  1  0  0  0
  8 22  1  0  0  0
  9 10  1  0  0  0
  9 27  2  0  0  0
 10 11  2  0  0  0
 10 15  1  0  0  0
 11 12  1  0  0  0
 11 96  1  0  0  0
 12 13  2  0  0  0
 12 97  1  0  0  0
 13 14  1  0  0  0
 13 31  1  0  0  0
 14 15  2  0  0  0
 14 98  1  0  0  0
 15 99  1  0  0  0
 16 17  2  0  0  0
 16 21  1  0  0  0
 16 31  1  0  0  0
 17 18  1  0  0  0
 17100  1  0  0  0
 18 19  2  0  0  0
 18101  1  0  0  0
 19 20  1  0  0  0
 19 24  1  0  0  0
 20 21  2  0  0  0
 20102  1  0  0  0
 21 23  1  0  0  0
 22 28  1  0  0  0
 22 32  2  0  0  0
 26 27  1  0  0  0
 28103  1  0  0  0
 28104  1  0  0  0
 29105  1  0  0  0
 29106  1  0  0  0
 33 34  1  0  0  0
 33 66  1  0  0  0
 33 70  2  0  0  0
 34 36  1  0  0  0
 34 59  1  0  0  0
 34107  1  0  0  0
 35 44  2  0  0  0
 35 45  1  0  0  0
 35 68  1  0  0  0
 36 56  1  0  0  0
 36108  1  0  0  0
 37 39  1  0  0  0
 37 47  1  0  0  0
 37 66  1  0  0  0
 37109  1  0  0  0
 38 43  2  0  0  0
 38 46  1  0  0  0
 38 47  1  0  0  0
 39 64  1  0  0  0
 39 67  2  0  0  0
 40 52  1  0  0  0
 40 53  2  0  0  0
 40 58  1  0  0  0
 41110  1  0  0  0
 41111  1  0  0  0
 41112  1  0  0  0
 41 48  1  0  0  0
 42 43  1  0  0  0
 42 66  1  0  0  0
 42113  1  0  0  0
 42114  1  0  0  0
 43 44  1  0  0  0
 44115  1  0  0  0
 45 46  2  0  0  0
 45116  1  0  0  0
 46117  1  0  0  0
 47118  1  0  0  0
 47119  1  0  0  0
 48 56  1  0  0  0
 48 65  1  0  0  0
 48120  1  0  0  0
 49 50  1  0  0  0
 49 53  1  0  0  0
 49 64  1  0  0  0
 49121  1  0  0  0
 50 51  1  0  0  0
 50122  1  0  0  0
 50123  1  0  0  0
 51 52  1  0  0  0
 51124  1  0  0  0
 51125  1  0  0  0
 52126  1  0  0  0
 52127  1  0  0  0
 53 54  1  0  0  0
 54 55  2  0  0  0
 54128  1  0  0  0
 55 57  1  0  0  0
 55129  1  0  0  0
 56 69  2  0  0  0
 57 58  2  0  0  0
 57130  1  0  0  0
 58131  1  0  0  0
 59 60  1  0  0  0
 59 61  1  0  0  0
 59 62  1  0  0  0
 60132  1  0  0  0
 60133  1  0  0  0
 60134  1  0  0  0
 61135  1  0  0  0
 61136  1  0  0  0
 61137  1  0  0  0
 62138  1  0  0  0
 62139  1  0  0  0
 62140  1  0  0  0
 63 65  1  0  0  0
 63141  1  0  0  0
 63142  1  0  0  0
 63143  1  0  0  0
 64144  1  0  0  0
 65145  1  0  0  0
 68 82  1  0  0  0
 71 73  1  0  0  0
 71 74  2  0  0  0
 71146  1  0  0  0
 72 73  2  0  0  0
 72 86  1  0  0  0
 72147  1  0  0  0
 73 83  1  0  0  0
 74 84  1  0  0  0
 74 86  1  0  0  0
 75 76  2  0  0  0
 75 78  1  0  0  0
 75 80  1  0  0  0
 76 81  1  0  0  0
 76 84  1  0  0  0
 77 80  1  0  0  0
 77 82  1  0  0  0
 77 85  2  0  0  0
 78148  1  0  0  0
 78149  1  0  0  0
 78150  1  0  0  0
 79 81  1  0  0  0
 79151  1  0  0  0
 79152  1  0  0  0
 79153  1  0  0  0
 80154  1  0  0  0
 80155  1  0  0  0
 81156  1  0  0  0
 81157  1  0  0  0
 82158  1  0  0  0
 82159  1  0  0  0
 83160  1  0  0  0
 84161  1  0  0  0
M  ISO  4   1 100  68 101  82 101  83 100
M  END
> <chiral flag>
0

> <version>
0

> <s_m_source_file>
/data/baiqing/PycharmProjects/Reinvent-master-3.2/result/LINK_invent/BTK/process_docking_weight1_custom_product_contain_oxygen_bond_distance_aromatic_linkinvent_7_9_3/rearranged_h_0163.sdf

> <i_m_source_file_index>
94

> <r_mmod_Potential_Energy-OPLS-2005>
-16.2783203125

> <r_mmod_Stretch_Energy-OPLS-2005>
32.3465232849121

> <r_mmod_Bend_Energy-OPLS-2005>
97.1643905639648

> <r_mmod_Torsional_Energy-OPLS-2005>
301.107971191406

> <r_mmod_Improper_Torsional_Energy-OPLS-2005>
12.8826751708984

> <r_mmod_Van_der_Waal_Energy-OPLS-2005>
127.052062988281

> <r_mmod_Electrostatic_Energy-OPLS-2005>
-364.887573242188

> <r_mmod_Solvation_Energy-OPLS-2005>
-233.53385925293

> <b_mmod_Minimization_Converged-OPLS-2005>
0

> <r_mmod_RMS_Derivative-OPLS-2005>
0.970420718193054

$$$$
94
                    3D
 Structure written by MMmdl.
151159  0  0  1  0            999 V2000
  -30.7108  -14.5383   20.5146 C   0  0  0  0  0  0
  -30.4127  -12.3335   19.4494 C   0  0  0  0  0  0
  -29.4953  -12.4886   18.2198 C   0  0  0  0  0  0
  -28.0184  -12.3489   18.6324 C   0  0  0  0  0  0
  -27.6524  -13.2206   19.8642 C   0  0  2  0  0  0
  -28.6964  -13.0791   20.9956 C   0  0  0  0  0  0
  -25.2552  -13.8192   20.5704 C   0  0  0  0  0  0
  -24.1821  -13.0445   20.9197 C   0  0  0  0  0  0
  -24.6392  -11.6918   20.8747 C   0  0  0  0  0  0
  -23.9061  -10.4296   21.0401 C   0  0  0  0  0  0
  -24.3611   -9.4217   21.9185 C   0  0  0  0  0  0
  -23.6289   -8.2248   22.0751 C   0  0  0  0  0  0
  -22.4270   -8.0285   21.3542 C   0  0  0  0  0  0
  -21.9903   -9.0256   20.4642 C   0  0  0  0  0  0
  -22.7231  -10.2136   20.3054 C   0  0  0  0  0  0
  -21.6851   -6.0738   22.5279 C   0  0  0  0  0  0
  -21.4013   -6.5643   23.8214 C   0  0  0  0  0  0
  -21.3657   -5.6795   24.9175 C   0  0  0  0  0  0
  -21.6044   -4.3057   24.7221 C   0  0  0  0  0  0
  -21.8820   -3.8148   23.4345 C   0  0  0  0  0  0
  -21.9190   -4.6965   22.3402 C   0  0  0  0  0  0
  -22.7841  -13.5236   21.1851 C   0  0  0  0  0  0
  -22.1651   -4.2154   21.0975 F   0  0  0  0  0  0
  -21.5635   -3.4544   25.7735 F   0  0  0  0  0  0
  -30.0185  -13.3666   20.4257 N   0  0  0  0  0  0
  -26.2987  -12.9385   20.3345 N   0  0  0  0  0  0
  -25.9326  -11.6533   20.5782 N   0  0  0  0  0  0
  -22.0476  -12.8239   22.0409 N   0  0  0  0  0  0
  -25.4253  -15.1915   20.4129 N   0  0  0  0  0  0
  -31.8759  -14.6294   20.1218 O   0  0  0  0  0  0
  -21.6634   -6.8883   21.4244 O   0  0  0  0  0  0
  -22.3535  -14.5542   20.6689 O   0  0  0  0  0  0
  -24.6210  -31.8650   23.2085 C   0  0  0  0  0  0
  -25.9088  -32.4801   23.8388 C   0  0  1  0  0  0
  -27.2197  -27.3705   20.0997 C   0  0  0  0  0  0
  -25.5931  -33.8602   24.2318 N   0  0  0  0  0  0
  -23.4106  -30.4916   21.5501 C   0  0  2  0  0  0
  -24.8536  -28.9579   20.1098 C   0  0  0  0  0  0
  -22.7441  -29.4653   22.4963 C   0  0  0  0  0  0
  -18.0278  -28.1387   22.8489 C   0  0  0  0  0  0
  -24.1484  -36.7304   23.2636 C   0  0  0  0  0  0
  -25.9475  -30.8091   21.3748 C   0  0  0  0  0  0
  -26.0186  -29.4414   20.7175 C   0  0  0  0  0  0
  -27.2013  -28.6546   20.7124 C   0  0  0  0  0  0
  -26.0362  -26.9389   19.4525 C   0  0  0  0  0  0
  -24.8615  -27.7095   19.4722 C   0  0  0  0  0  0
  -23.6206  -29.8318   20.1624 C   0  0  0  0  0  0
  -25.4108  -36.3100   24.0334 C   0  0  1  0  0  0
  -20.5874  -28.3681   23.1296 C   0  0  2  0  0  0
  -20.6772  -26.9411   22.5410 C   0  0  0  0  0  0
  -19.5748  -26.6390   21.5211 C   0  0  0  0  0  0
  -18.1926  -26.7932   22.1623 C   0  0  0  0  0  0
  -19.1530  -28.8850   23.2891 C   0  0  0  0  0  0
  -18.9456  -30.1453   23.8904 C   0  0  0  0  0  0
  -17.6458  -30.6587   24.0567 C   0  0  0  0  0  0
  -25.9042  -34.9465   23.5121 C   0  0  0  0  0  0
  -16.5350  -29.9088   23.6330 C   0  0  0  0  0  0
  -16.7267  -28.6508   23.0348 C   0  0  0  0  0  0
  -26.4495  -31.6593   25.0734 C   0  0  0  0  0  0
  -25.3749  -31.3708   26.1472 C   0  0  0  0  0  0
  -27.0332  -30.3024   24.6152 C   0  0  0  0  0  0
  -27.6064  -32.4321   25.7497 C   0  0  0  0  0  0
  -27.5578  -37.1809   24.8466 C   0  0  0  0  0  0
  -21.4161  -29.3045   22.3701 N   0  0  0  0  0  0
  -26.4291  -37.3789   23.9409 N   0  0  0  0  0  0
  -24.6780  -31.0708   22.1015 N   0  0  0  0  0  0
  -23.4195  -28.8188   23.3014 O   0  0  0  0  0  0
  -28.3632  -26.5747   20.1589 O   0  0  0  0  0  0
  -26.5591  -34.8923   22.4673 O   0  0  0  0  0  0
  -23.5392  -32.1432   23.7443 O   0  0  0  0  0  0
  -29.9939  -19.5933   20.6179 C   0  0  0  0  0  0
  -28.1666  -19.3735   21.8828 C   0  0  0  0  0  0
  -28.9485  -20.3143   21.2707 C   0  0  0  0  0  0
  -29.7971  -18.2562   20.9097 C   0  0  0  0  0  0
  -29.0111  -24.1815   20.7242 C   0  0  0  0  0  0
  -30.6237  -17.0120   20.6191 C   0  0  0  0  0  0
  -29.1171  -22.6765   20.3122 C   0  0  0  0  0  0
  -28.2670  -25.1642   19.7757 C   0  0  0  0  0  0
  -28.7538  -21.7139   21.3764 N   0  0  0  0  0  0
  -30.0301  -15.6663   20.8383 N   0  0  0  0  0  0
  -29.4842  -24.5666   21.7999 O   0  0  0  0  0  0
  -28.6688  -18.1148   21.6685 O   0  0  0  0  0  0
  -31.4595  -12.4107   19.1492 H   0  0  0  0  0  0
  -30.3034  -11.3405   19.8886 H   0  0  0  0  0  0
  -29.7443  -11.7386   17.4677 H   0  0  0  0  0  0
  -29.6589  -13.4602   17.7515 H   0  0  0  0  0  0
  -27.8413  -11.2972   18.8605 H   0  0  0  0  0  0
  -27.3665  -12.5894   17.7918 H   0  0  0  0  0  0
  -27.6750  -14.2572   19.5267 H   0  0  0  0  0  0
  -28.6819  -12.0703   21.4087 H   0  0  0  0  0  0
  -28.4627  -13.7497   21.8241 H   0  0  0  0  0  0
  -25.2751   -9.5703   22.4770 H   0  0  0  0  0  0
  -24.0005   -7.4639   22.7466 H   0  0  0  0  0  0
  -21.0836   -8.8769   19.8944 H   0  0  0  0  0  0
  -22.3683  -10.9677   19.6168 H   0  0  0  0  0  0
  -21.2000   -7.6153   23.9720 H   0  0  0  0  0  0
  -21.1477   -6.0523   25.9078 H   0  0  0  0  0  0
  -22.0596   -2.7613   23.2840 H   0  0  0  0  0  0
  -22.4079  -11.9909   22.4817 H   0  0  0  0  0  0
  -21.1093  -13.1282   22.2587 H   0  0  0  0  0  0
  -24.6588  -15.8459   20.5276 H   0  0  0  0  0  0
  -26.2798  -15.6348   20.0999 H   0  0  0  0  0  0
  -26.7151  -32.5483   23.1139 H   0  0  0  0  0  0
  -25.0116  -33.9763   25.0487 H   0  0  0  0  0  0
  -22.7019  -31.3108   21.4122 H   0  0  0  0  0  0
  -23.3744  -35.9640   23.3308 H   0  0  0  0  0  0
  -24.3580  -36.8912   22.2050 H   0  0  0  0  0  0
  -23.7241  -37.6514   23.6644 H   0  0  0  0  0  0
  -26.0741  -31.5744   20.6080 H   0  0  0  0  0  0
  -26.8309  -30.8556   21.9998 H   0  0  0  0  0  0
  -28.0951  -29.0191   21.1997 H   0  0  0  0  0  0
  -25.9765  -26.0080   18.9107 H   0  0  0  0  0  0
  -23.9714  -27.3401   18.9810 H   0  0  0  0  0  0
  -23.7365  -30.6104   19.4074 H   0  0  0  0  0  0
  -22.7413  -29.2591   19.8610 H   0  0  0  0  0  0
  -25.1286  -36.1962   25.0827 H   0  0  0  0  0  0
  -20.9967  -28.3255   24.1419 H   0  0  0  0  0  0
  -20.5677  -26.2294   23.3605 H   0  0  0  0  0  0
  -21.6643  -26.7456   22.1200 H   0  0  0  0  0  0
  -19.6910  -25.6302   21.1238 H   0  0  0  0  0  0
  -19.6685  -27.3204   20.6743 H   0  0  0  0  0  0
  -17.4199  -26.6677   21.4023 H   0  0  0  0  0  0
  -18.0327  -26.0069   22.9015 H   0  0  0  0  0  0
  -19.7931  -30.7266   24.2280 H   0  0  0  0  0  0
  -17.5013  -31.6265   24.5169 H   0  0  0  0  0  0
  -15.5351  -30.2995   23.7648 H   0  0  0  0  0  0
  -15.8669  -28.0831   22.7060 H   0  0  0  0  0  0
  -24.5928  -30.7052   25.7810 H   0  0  0  0  0  0
  -24.8935  -32.2863   26.4917 H   0  0  0  0  0  0
  -25.8098  -30.8882   27.0232 H   0  0  0  0  0  0
  -26.2893  -29.6780   24.1190 H   0  0  0  0  0  0
  -27.4063  -29.7274   25.4637 H   0  0  0  0  0  0
  -27.8749  -30.4325   23.9347 H   0  0  0  0  0  0
  -27.2679  -33.3614   26.2088 H   0  0  0  0  0  0
  -28.3863  -32.6892   25.0319 H   0  0  0  0  0  0
  -28.0740  -31.8437   26.5399 H   0  0  0  0  0  0
  -28.2602  -38.0100   24.7510 H   0  0  0  0  0  0
  -28.1068  -36.2632   24.6294 H   0  0  0  0  0  0
  -27.2295  -37.1468   25.8870 H   0  0  0  0  0  0
  -20.9330  -29.8784   21.6931 H   0  0  0  0  0  0
  -26.0176  -38.2866   24.1409 H   0  0  0  0  0  0
  -30.8235  -19.9944   20.0528 H   0  0  0  0  0  0
  -27.2796  -19.4139   22.5005 H   0  0  0  0  0  0
  -31.5365  -17.0734   21.2144 H   0  0  0  0  0  0
  -30.9537  -17.0672   19.5801 H   0  0  0  0  0  0
  -30.1414  -22.4903   19.9879 H   0  0  0  0  0  0
  -28.4805  -22.5076   19.4424 H   0  0  0  0  0  0
  -27.2449  -24.7961   19.7962 H   0  0  0  0  0  0
  -28.6392  -25.0378   18.7591 H   0  0  0  0  0  0
  -27.9764  -22.0172   21.9589 H   0  0  0  0  0  0
  -29.0642  -15.6047   21.1216 H   0  0  0  0  0  0
  1 25  1  0  0  0
  1 30  2  0  0  0
  1 80  1  0  0  0
  2  3  1  0  0  0
  2 25  1  0  0  0
  2 83  1  0  0  0
  2 84  1  0  0  0
  3  4  1  0  0  0
  3 85  1  0  0  0
  3 86  1  0  0  0
  4  5  1  0  0  0
  4 87  1  0  0  0
  4 88  1  0  0  0
  5  6  1  0  0  0
  5 26  1  0  0  0
  5 89  1  0  0  0
  6 25  1  0  0  0
  6 90  1  0  0  0
  6 91  1  0  0  0
  7  8  2  0  0  0
  7 26  1  0  0  0
  7 29  1  0  0  0
  8  9  1  0  0  0
  8 22  1  0  0  0
  9 10  1  0  0  0
  9 27  2  0  0  0
 10 11  2  0  0  0
 10 15  1  0  0  0
 11 12  1  0  0  0
 11 92  1  0  0  0
 12 13  2  0  0  0
 12 93  1  0  0  0
 13 14  1  0  0  0
 13 31  1  0  0  0
 14 15  2  0  0  0
 14 94  1  0  0  0
 15 95  1  0  0  0
 16 17  2  0  0  0
 16 21  1  0  0  0
 16 31  1  0  0  0
 17 18  1  0  0  0
 17 96  1  0  0  0
 18 19  2  0  0  0
 18 97  1  0  0  0
 19 20  1  0  0  0
 19 24  1  0  0  0
 20 21  2  0  0  0
 20 98  1  0  0  0
 21 23  1  0  0  0
 22 28  1  0  0  0
 22 32  2  0  0  0
 26 27  1  0  0  0
 28 99  1  0  0  0
 28100  1  0  0  0
 29101  1  0  0  0
 29102  1  0  0  0
 33 34  1  0  0  0
 33 66  1  0  0  0
 33 70  2  0  0  0
 34 36  1  0  0  0
 34 59  1  0  0  0
 34103  1  0  0  0
 35 44  2  0  0  0
 35 45  1  0  0  0
 35 68  1  0  0  0
 36 56  1  0  0  0
 36104  1  0  0  0
 37 39  1  0  0  0
 37 47  1  0  0  0
 37 66  1  0  0  0
 37105  1  0  0  0
 38 43  2  0  0  0
 38 46  1  0  0  0
 38 47  1  0  0  0
 39 64  1  0  0  0
 39 67  2  0  0  0
 40 52  1  0  0  0
 40 53  2  0  0  0
 40 58  1  0  0  0
 41106  1  0  0  0
 41107  1  0  0  0
 41108  1  0  0  0
 41 48  1  0  0  0
 42 43  1  0  0  0
 42 66  1  0  0  0
 42109  1  0  0  0
 42110  1  0  0  0
 43 44  1  0  0  0
 44111  1  0  0  0
 45 46  2  0  0  0
 45112  1  0  0  0
 46113  1  0  0  0
 47114  1  0  0  0
 47115  1  0  0  0
 48 56  1  0  0  0
 48 65  1  0  0  0
 48116  1  0  0  0
 49 50  1  0  0  0
 49 53  1  0  0  0
 49 64  1  0  0  0
 49117  1  0  0  0
 50 51  1  0  0  0
 50118  1  0  0  0
 50119  1  0  0  0
 51 52  1  0  0  0
 51120  1  0  0  0
 51121  1  0  0  0
 52122  1  0  0  0
 52123  1  0  0  0
 53 54  1  0  0  0
 54 55  2  0  0  0
 54124  1  0  0  0
 55 57  1  0  0  0
 55125  1  0  0  0
 56 69  2  0  0  0
 57 58  2  0  0  0
 57126  1  0  0  0
 58127  1  0  0  0
 59 60  1  0  0  0
 59 61  1  0  0  0
 59 62  1  0  0  0
 60128  1  0  0  0
 60129  1  0  0  0
 60130  1  0  0  0
 61131  1  0  0  0
 61132  1  0  0  0
 61133  1  0  0  0
 62134  1  0  0  0
 62135  1  0  0  0
 62136  1  0  0  0
 63 65  1  0  0  0
 63137  1  0  0  0
 63138  1  0  0  0
 63139  1  0  0  0
 64140  1  0  0  0
 65141  1  0  0  0
 68 78  1  0  0  0
 71 73  1  0  0  0
 71 74  2  0  0  0
 71142  1  0  0  0
 72 73  2  0  0  0
 72 82  1  0  0  0
 72143  1  0  0  0
 73 79  1  0  0  0
 74 76  1  0  0  0
 74 82  1  0  0  0
 75 77  1  0  0  0
 75 78  1  0  0  0
 75 81  2  0  0  0
 76 80  1  0  0  0
 76144  1  0  0  0
 76145  1  0  0  0
 77 79  1  0  0  0
 77146  1  0  0  0
 77147  1  0  0  0
 78148  1  0  0  0
 78149  1  0  0  0
 79150  1  0  0  0
 80151  1  0  0  0
M  ISO  4   1 100  68 101  78 101  80 100
M  END
> <chiral flag>
0

> <version>
0

> <s_m_source_file>
/data/baiqing/PycharmProjects/Reinvent-master-3.2/result/LINK_invent/BTK/process_docking_weight1_custom_product_contain_oxygen_bond_distance_aromatic_linkinvent_7_9_3/rearranged_h_0163.sdf

> <i_m_source_file_index>
95

> <r_mmod_Potential_Energy-OPLS-2005>
-71.95703125

> <r_mmod_Stretch_Energy-OPLS-2005>
48.864860534668

> <r_mmod_Bend_Energy-OPLS-2005>
128.065231323242

> <r_mmod_Torsional_Energy-OPLS-2005>
203.41650390625

> <r_mmod_Improper_Torsional_Energy-OPLS-2005>
7.30165576934814

> <r_mmod_Van_der_Waal_Energy-OPLS-2005>
130.43798828125

> <r_mmod_Electrostatic_Energy-OPLS-2005>
-367.712707519531

> <r_mmod_Solvation_Energy-OPLS-2005>
-251.6142578125

> <b_mmod_Minimization_Converged-OPLS-2005>
0

> <r_mmod_RMS_Derivative-OPLS-2005>
0.963818907737732

$$$$
95
                    3D
 Structure written by MMmdl.
155163  0  0  1  0            999 V2000
  -30.7068  -14.4891   20.5611 C   0  0  0  0  0  0
  -30.4193  -12.3147   19.4278 C   0  0  0  0  0  0
  -29.4939  -12.5012   18.2082 C   0  0  0  0  0  0
  -28.0158  -12.3604   18.6209 C   0  0  0  0  0  0
  -27.6584  -13.2101   19.8703 C   0  0  2  0  0  0
  -28.7011  -13.0140   20.9944 C   0  0  0  0  0  0
  -25.2576  -13.8168   20.5672 C   0  0  0  0  0  0
  -24.1834  -13.0441   20.9185 C   0  0  0  0  0  0
  -24.6394  -11.6910   20.8742 C   0  0  0  0  0  0
  -23.9063  -10.4294   21.0409 C   0  0  0  0  0  0
  -24.3615   -9.4207   21.9184 C   0  0  0  0  0  0
  -23.6289   -8.2242   22.0755 C   0  0  0  0  0  0
  -22.4272   -8.0281   21.3545 C   0  0  0  0  0  0
  -21.9907   -9.0256   20.4648 C   0  0  0  0  0  0
  -22.7238  -10.2135   20.3056 C   0  0  0  0  0  0
  -21.6851   -6.0734   22.5279 C   0  0  0  0  0  0
  -21.4013   -6.5638   23.8212 C   0  0  0  0  0  0
  -21.3659   -5.6792   24.9174 C   0  0  0  0  0  0
  -21.6044   -4.3055   24.7225 C   0  0  0  0  0  0
  -21.8819   -3.8145   23.4347 C   0  0  0  0  0  0
  -21.9192   -4.6961   22.3402 C   0  0  0  0  0  0
  -22.7855  -13.5237   21.1846 C   0  0  0  0  0  0
  -22.1660   -4.2148   21.0979 F   0  0  0  0  0  0
  -21.5630   -3.4539   25.7738 F   0  0  0  0  0  0
  -30.0294  -13.3140   20.4367 N   0  0  0  0  0  0
  -26.3008  -12.9343   20.3345 N   0  0  0  0  0  0
  -25.9321  -11.6502   20.5767 N   0  0  0  0  0  0
  -22.0493  -12.8228   22.0400 N   0  0  0  0  0  0
  -25.4292  -15.1885   20.4049 N   0  0  0  0  0  0
  -31.8418  -14.6376   20.1000 O   0  0  0  0  0  0
  -21.6636   -6.8878   21.4241 O   0  0  0  0  0  0
  -22.3542  -14.5543   20.6696 O   0  0  0  0  0  0
  -24.6161  -31.8670   23.2087 C   0  0  0  0  0  0
  -25.9050  -32.4818   23.8386 C   0  0  1  0  0  0
  -27.2290  -27.4241   20.1001 C   0  0  0  0  0  0
  -25.5902  -33.8614   24.2319 N   0  0  0  0  0  0
  -23.4048  -30.4905   21.5494 C   0  0  2  0  0  0
  -24.8524  -28.9577   20.1107 C   0  0  0  0  0  0
  -22.7421  -29.4659   22.4984 C   0  0  0  0  0  0
  -18.0276  -28.1379   22.8491 C   0  0  0  0  0  0
  -24.1489  -36.7311   23.2635 C   0  0  0  0  0  0
  -25.9348  -30.8312   21.3627 C   0  0  0  0  0  0
  -26.0143  -29.4658   20.7073 C   0  0  0  0  0  0
  -27.2102  -28.7074   20.6962 C   0  0  0  0  0  0
  -26.0545  -26.9366   19.4896 C   0  0  0  0  0  0
  -24.8683  -27.6934   19.4964 C   0  0  0  0  0  0
  -23.6133  -29.8235   20.1637 C   0  0  0  0  0  0
  -25.4111  -36.3106   24.0335 C   0  0  1  0  0  0
  -20.5867  -28.3671   23.1317 C   0  0  2  0  0  0
  -20.6769  -26.9408   22.5418 C   0  0  0  0  0  0
  -19.5747  -26.6390   21.5214 C   0  0  0  0  0  0
  -18.1923  -26.7927   22.1621 C   0  0  0  0  0  0
  -19.1525  -28.8841   23.2899 C   0  0  0  0  0  0
  -18.9453  -30.1444   23.8911 C   0  0  0  0  0  0
  -17.6457  -30.6586   24.0566 C   0  0  0  0  0  0
  -25.9040  -34.9472   23.5126 C   0  0  0  0  0  0
  -16.5347  -29.9089   23.6328 C   0  0  0  0  0  0
  -16.7265  -28.6504   23.0352 C   0  0  0  0  0  0
  -26.4472  -31.6593   25.0714 C   0  0  0  0  0  0
  -25.3734  -31.3708   26.1461 C   0  0  0  0  0  0
  -27.0296  -30.3031   24.6090 C   0  0  0  0  0  0
  -27.6059  -32.4296   25.7474 C   0  0  0  0  0  0
  -27.5580  -37.1809   24.8464 C   0  0  0  0  0  0
  -21.4148  -29.3034   22.3721 N   0  0  0  0  0  0
  -26.4296  -37.3791   23.9406 N   0  0  0  0  0  0
  -24.6702  -31.0766   22.0989 N   0  0  0  0  0  0
  -23.4185  -28.8204   23.3036 O   0  0  0  0  0  0
  -28.3530  -26.6266   20.1293 O   0  0  0  0  0  0
  -26.5603  -34.8922   22.4687 O   0  0  0  0  0  0
  -23.5352  -32.1422   23.7479 O   0  0  0  0  0  0
  -32.1139  -18.6376   21.4962 C   0  0  0  0  0  0
  -31.1369  -19.6476   21.4220 C   0  0  0  0  0  0
  -31.7505  -17.2825   21.3804 C   0  0  0  0  0  0
  -29.4216  -17.9398   21.0942 C   0  0  0  0  0  0
  -29.7799  -19.3130   21.2268 C   0  0  0  0  0  0
  -30.4008  -16.9092   21.1642 C   0  0  0  0  0  0
  -28.7650  -20.3894   21.2387 C   0  0  0  0  0  0
  -28.7565  -24.1526   20.3691 C   0  0  0  0  0  0
  -28.1296  -22.8273   20.8569 C   0  0  0  0  0  0
  -28.1714  -25.4569   20.9616 C   0  0  0  0  0  0
  -30.0014  -15.5294   21.0652 N   0  0  0  0  0  0
  -29.0064  -21.6249   20.7499 N   0  0  0  0  0  0
  -27.5801  -20.1508   21.7988 N   0  3  0  0  0  0
  -29.7007  -24.1514   19.5695 O   0  0  0  0  0  0
  -31.4644  -12.4040   19.1261 H   0  0  0  0  0  0
  -30.3157  -11.3087   19.8377 H   0  0  0  0  0  0
  -29.7370  -11.7704   17.4357 H   0  0  0  0  0  0
  -29.6602  -13.4836   17.7635 H   0  0  0  0  0  0
  -27.8300  -11.3052   18.8252 H   0  0  0  0  0  0
  -27.3651  -12.6255   17.7867 H   0  0  0  0  0  0
  -27.6955  -14.2542   19.5590 H   0  0  0  0  0  0
  -28.6804  -11.9848   21.3561 H   0  0  0  0  0  0
  -28.4638  -13.6335   21.8605 H   0  0  0  0  0  0
  -25.2764   -9.5677   22.4756 H   0  0  0  0  0  0
  -23.9998   -7.4631   22.7472 H   0  0  0  0  0  0
  -21.0840   -8.8775   19.8952 H   0  0  0  0  0  0
  -22.3700  -10.9671   19.6161 H   0  0  0  0  0  0
  -21.2005   -7.6146   23.9715 H   0  0  0  0  0  0
  -21.1480   -6.0522   25.9077 H   0  0  0  0  0  0
  -22.0600   -2.7608   23.2847 H   0  0  0  0  0  0
  -22.4099  -11.9880   22.4779 H   0  0  0  0  0  0
  -21.1111  -13.1254   22.2606 H   0  0  0  0  0  0
  -24.6563  -15.8396   20.4937 H   0  0  0  0  0  0
  -26.2679  -15.6196   20.0381 H   0  0  0  0  0  0
  -26.7121  -32.5534   23.1151 H   0  0  0  0  0  0
  -25.0065  -33.9776   25.0472 H   0  0  0  0  0  0
  -22.6941  -31.3076   21.4100 H   0  0  0  0  0  0
  -23.3746  -35.9651   23.3314 H   0  0  0  0  0  0
  -24.3580  -36.8913   22.2045 H   0  0  0  0  0  0
  -23.7250  -37.6524   23.6642 H   0  0  0  0  0  0
  -26.0470  -31.5989   20.5956 H   0  0  0  0  0  0
  -26.8223  -30.8842   21.9817 H   0  0  0  0  0  0
  -28.1055  -29.0904   21.1657 H   0  0  0  0  0  0
  -26.0534  -25.9638   19.0184 H   0  0  0  0  0  0
  -23.9761  -27.2977   19.0306 H   0  0  0  0  0  0
  -23.7177  -30.5986   19.4036 H   0  0  0  0  0  0
  -22.7378  -29.2414   19.8707 H   0  0  0  0  0  0
  -25.1287  -36.1971   25.0829 H   0  0  0  0  0  0
  -20.9955  -28.3239   24.1439 H   0  0  0  0  0  0
  -20.5680  -26.2281   23.3607 H   0  0  0  0  0  0
  -21.6639  -26.7459   22.1202 H   0  0  0  0  0  0
  -19.6916  -25.6306   21.1231 H   0  0  0  0  0  0
  -19.6687  -27.3213   20.6754 H   0  0  0  0  0  0
  -17.4198  -26.6684   21.4017 H   0  0  0  0  0  0
  -18.0313  -26.0065   22.9010 H   0  0  0  0  0  0
  -19.7933  -30.7250   24.2290 H   0  0  0  0  0  0
  -17.5017  -31.6270   24.5161 H   0  0  0  0  0  0
  -15.5349  -30.2995   23.7648 H   0  0  0  0  0  0
  -15.8665  -28.0828   22.7063 H   0  0  0  0  0  0
  -24.5905  -30.7061   25.7793 H   0  0  0  0  0  0
  -24.8928  -32.2869   26.4907 H   0  0  0  0  0  0
  -25.8075  -30.8871   27.0222 H   0  0  0  0  0  0
  -26.2839  -29.6798   24.1144 H   0  0  0  0  0  0
  -27.4066  -29.7263   25.4547 H   0  0  0  0  0  0
  -27.8676  -30.4344   23.9240 H   0  0  0  0  0  0
  -27.2705  -33.3610   26.2048 H   0  0  0  0  0  0
  -28.3875  -32.6825   25.0296 H   0  0  0  0  0  0
  -28.0714  -31.8409   26.5390 H   0  0  0  0  0  0
  -28.2604  -38.0099   24.7505 H   0  0  0  0  0  0
  -28.1071  -36.2632   24.6299 H   0  0  0  0  0  0
  -27.2296  -37.1472   25.8866 H   0  0  0  0  0  0
  -20.9312  -29.8756   21.6941 H   0  0  0  0  0  0
  -26.0188  -38.2873   24.1399 H   0  0  0  0  0  0
  -33.1492  -18.9003   21.6628 H   0  0  0  0  0  0
  -31.4366  -20.6794   21.5463 H   0  0  0  0  0  0
  -32.5304  -16.5420   21.4766 H   0  0  0  0  0  0
  -28.3840  -17.6765   20.9437 H   0  0  0  0  0  0
  -27.2152  -22.6599   20.2871 H   0  0  0  0  0  0
  -27.8337  -22.9632   21.8977 H   0  0  0  0  0  0
  -28.6623  -25.6418   21.9170 H   0  0  0  0  0  0
  -27.1190  -25.2819   21.1891 H   0  0  0  0  0  0
  -29.0449  -15.3174   21.3019 H   0  0  0  0  0  0
  -29.8765  -21.7798   20.2519 H   0  0  0  0  0  0
  -27.4259  -19.2650   22.2565 H   0  0  0  0  0  0
  -26.8310  -20.8207   21.7958 H   0  0  0  0  0  0
  1 25  1  0  0  0
  1 30  2  0  0  0
  1 81  1  0  0  0
  2  3  1  0  0  0
  2 25  1  0  0  0
  2 85  1  0  0  0
  2 86  1  0  0  0
  3  4  1  0  0  0
  3 87  1  0  0  0
  3 88  1  0  0  0
  4  5  1  0  0  0
  4 89  1  0  0  0
  4 90  1  0  0  0
  5  6  1  0  0  0
  5 26  1  0  0  0
  5 91  1  0  0  0
  6 25  1  0  0  0
  6 92  1  0  0  0
  6 93  1  0  0  0
  7  8  2  0  0  0
  7 26  1  0  0  0
  7 29  1  0  0  0
  8  9  1  0  0  0
  8 22  1  0  0  0
  9 10  1  0  0  0
  9 27  2  0  0  0
 10 11  2  0  0  0
 10 15  1  0  0  0
 11 12  1  0  0  0
 11 94  1  0  0  0
 12 13  2  0  0  0
 12 95  1  0  0  0
 13 14  1  0  0  0
 13 31  1  0  0  0
 14 15  2  0  0  0
 14 96  1  0  0  0
 15 97  1  0  0  0
 16 17  2  0  0  0
 16 21  1  0  0  0
 16 31  1  0  0  0
 17 18  1  0  0  0
 17 98  1  0  0  0
 18 19  2  0  0  0
 18 99  1  0  0  0
 19 20  1  0  0  0
 19 24  1  0  0  0
 20 21  2  0  0  0
 20100  1  0  0  0
 21 23  1  0  0  0
 22 28  1  0  0  0
 22 32  2  0  0  0
 26 27  1  0  0  0
 28101  1  0  0  0
 28102  1  0  0  0
 29103  1  0  0  0
 29104  1  0  0  0
 33 34  1  0  0  0
 33 66  1  0  0  0
 33 70  2  0  0  0
 34 36  1  0  0  0
 34 59  1  0  0  0
 34105  1  0  0  0
 35 44  2  0  0  0
 35 45  1  0  0  0
 35 68  1  0  0  0
 36 56  1  0  0  0
 36106  1  0  0  0
 37 39  1  0  0  0
 37 47  1  0  0  0
 37 66  1  0  0  0
 37107  1  0  0  0
 38 43  2  0  0  0
 38 46  1  0  0  0
 38 47  1  0  0  0
 39 64  1  0  0  0
 39 67  2  0  0  0
 40 52  1  0  0  0
 40 53  2  0  0  0
 40 58  1  0  0  0
 41108  1  0  0  0
 41109  1  0  0  0
 41110  1  0  0  0
 41 48  1  0  0  0
 42 43  1  0  0  0
 42 66  1  0  0  0
 42111  1  0  0  0
 42112  1  0  0  0
 43 44  1  0  0  0
 44113  1  0  0  0
 45 46  2  0  0  0
 45114  1  0  0  0
 46115  1  0  0  0
 47116  1  0  0  0
 47117  1  0  0  0
 48 56  1  0  0  0
 48 65  1  0  0  0
 48118  1  0  0  0
 49 50  1  0  0  0
 49 53  1  0  0  0
 49 64  1  0  0  0
 49119  1  0  0  0
 50 51  1  0  0  0
 50120  1  0  0  0
 50121  1  0  0  0
 51 52  1  0  0  0
 51122  1  0  0  0
 51123  1  0  0  0
 52124  1  0  0  0
 52125  1  0  0  0
 53 54  1  0  0  0
 54 55  2  0  0  0
 54126  1  0  0  0
 55 57  1  0  0  0
 55127  1  0  0  0
 56 69  2  0  0  0
 57 58  2  0  0  0
 57128  1  0  0  0
 58129  1  0  0  0
 59 60  1  0  0  0
 59 61  1  0  0  0
 59 62  1  0  0  0
 60130  1  0  0  0
 60131  1  0  0  0
 60132  1  0  0  0
 61133  1  0  0  0
 61134  1  0  0  0
 61135  1  0  0  0
 62136  1  0  0  0
 62137  1  0  0  0
 62138  1  0  0  0
 63 65  1  0  0  0
 63139  1  0  0  0
 63140  1  0  0  0
 63141  1  0  0  0
 64142  1  0  0  0
 65143  1  0  0  0
 68 80  1  0  0  0
 71 72  2  0  0  0
 71 73  1  0  0  0
 71144  1  0  0  0
 72 75  1  0  0  0
 72145  1  0  0  0
 73 76  2  0  0  0
 73146  1  0  0  0
 74 75  2  0  0  0
 74 76  1  0  0  0
 74147  1  0  0  0
 75 77  1  0  0  0
 76 81  1  0  0  0
 77 82  1  0  0  0
 77 83  2  0  0  0
 78 79  1  0  0  0
 78 80  1  0  0  0
 78 84  2  0  0  0
 79 82  1  0  0  0
 79148  1  0  0  0
 79149  1  0  0  0
 80150  1  0  0  0
 80151  1  0  0  0
 81152  1  0  0  0
 82153  1  0  0  0
 83154  1  0  0  0
 83155  1  0  0  0
M  CHG  1  83   1
M  ISO  4   1 100  68 101  80 101  81 100
M  END
> <chiral flag>
0

> <version>
0

> <s_m_source_file>
/data/baiqing/PycharmProjects/Reinvent-master-3.2/result/LINK_invent/BTK/process_docking_weight1_custom_product_contain_oxygen_bond_distance_aromatic_linkinvent_7_9_3/rearranged_h_0163.sdf

> <i_m_source_file_index>
96

> <r_mmod_Potential_Energy-OPLS-2005>
-318.358245849609

> <r_mmod_Stretch_Energy-OPLS-2005>
42.1583786010742

> <r_mmod_Bend_Energy-OPLS-2005>
93.7343063354492

> <r_mmod_Torsional_Energy-OPLS-2005>
234.673522949219

> <r_mmod_Improper_Torsional_Energy-OPLS-2005>
4.38544988632202

> <r_mmod_Van_der_Waal_Energy-OPLS-2005>
156.16276550293

> <r_mmod_Electrostatic_Energy-OPLS-2005>
-416.468658447266

> <r_mmod_Solvation_Energy-OPLS-2005>
-449.436889648438

> <b_mmod_Minimization_Converged-OPLS-2005>
0

> <r_mmod_RMS_Derivative-OPLS-2005>
0.545305848121643

$$$$
96
                    3D
 Structure written by MMmdl.
164172  0  0  1  0            999 V2000
  -30.7221  -14.4190   20.6381 C   0  0  0  0  0  0
  -30.4375  -12.2977   19.4021 C   0  0  0  0  0  0
  -29.5032  -12.5187   18.1961 C   0  0  0  0  0  0
  -28.0222  -12.3881   18.6063 C   0  0  0  0  0  0
  -27.6747  -13.2025   19.8812 C   0  0  2  0  0  0
  -28.7148  -12.9322   20.9909 C   0  0  0  0  0  0
  -25.2641  -13.8148   20.5662 C   0  0  0  0  0  0
  -24.1877  -13.0416   20.9154 C   0  0  0  0  0  0
  -24.6434  -11.6892   20.8704 C   0  0  0  0  0  0
  -23.9082  -10.4287   21.0374 C   0  0  0  0  0  0
  -24.3630   -9.4206   21.9163 C   0  0  0  0  0  0
  -23.6302   -8.2237   22.0745 C   0  0  0  0  0  0
  -22.4274   -8.0282   21.3535 C   0  0  0  0  0  0
  -21.9911   -9.0256   20.4634 C   0  0  0  0  0  0
  -22.7250  -10.2137   20.3034 C   0  0  0  0  0  0
  -21.6856   -6.0729   22.5271 C   0  0  0  0  0  0
  -21.4020   -6.5627   23.8205 C   0  0  0  0  0  0
  -21.3664   -5.6779   24.9170 C   0  0  0  0  0  0
  -21.6038   -4.3036   24.7217 C   0  0  0  0  0  0
  -21.8827   -3.8133   23.4341 C   0  0  0  0  0  0
  -21.9193   -4.6956   22.3398 C   0  0  0  0  0  0
  -22.7901  -13.5220   21.1811 C   0  0  0  0  0  0
  -22.1658   -4.2136   21.0980 F   0  0  0  0  0  0
  -21.5633   -3.4527   25.7731 F   0  0  0  0  0  0
  -30.0551  -13.2442   20.4585 N   0  0  0  0  0  0
  -26.3098  -12.9313   20.3358 N   0  0  0  0  0  0
  -25.9369  -11.6470   20.5740 N   0  0  0  0  0  0
  -22.0525  -12.8241   22.0372 N   0  0  0  0  0  0
  -25.4342  -15.1888   20.4119 N   0  0  0  0  0  0
  -31.7496  -14.7145   20.0180 O   0  0  0  0  0  0
  -21.6633   -6.8878   21.4237 O   0  0  0  0  0  0
  -22.3585  -14.5503   20.6624 O   0  0  0  0  0  0
  -24.6131  -31.8683   23.2103 C   0  0  0  0  0  0
  -25.9034  -32.4832   23.8385 C   0  0  1  0  0  0
  -27.2313  -27.4362   20.0850 C   0  0  0  0  0  0
  -25.5906  -33.8628   24.2332 N   0  0  0  0  0  0
  -23.3993  -30.4997   21.5472 C   0  0  2  0  0  0
  -24.8450  -28.9653   20.1160 C   0  0  0  0  0  0
  -22.7407  -29.4719   22.4941 C   0  0  0  0  0  0
  -18.0287  -28.1389   22.8510 C   0  0  0  0  0  0
  -24.1503  -36.7320   23.2640 C   0  0  0  0  0  0
  -25.9316  -30.8326   21.3655 C   0  0  0  0  0  0
  -26.0060  -29.4694   20.7113 C   0  0  0  0  0  0
  -27.2004  -28.7121   20.6967 C   0  0  0  0  0  0
  -26.0425  -26.9457   19.4902 C   0  0  0  0  0  0
  -24.8550  -27.6994   19.5079 C   0  0  0  0  0  0
  -23.6088  -29.8335   20.1633 C   0  0  0  0  0  0
  -25.4118  -36.3134   24.0347 C   0  0  1  0  0  0
  -20.5878  -28.3710   23.1287 C   0  0  2  0  0  0
  -20.6817  -26.9439   22.5409 C   0  0  0  0  0  0
  -19.5785  -26.6402   21.5232 C   0  0  0  0  0  0
  -18.1948  -26.7930   22.1626 C   0  0  0  0  0  0
  -19.1533  -28.8848   23.2909 C   0  0  0  0  0  0
  -18.9478  -30.1453   23.8928 C   0  0  0  0  0  0
  -17.6490  -30.6601   24.0584 C   0  0  0  0  0  0
  -25.9043  -34.9495   23.5138 C   0  0  0  0  0  0
  -16.5379  -29.9116   23.6333 C   0  0  0  0  0  0
  -16.7277  -28.6526   23.0351 C   0  0  0  0  0  0
  -26.4460  -31.6589   25.0701 C   0  0  0  0  0  0
  -25.3723  -31.3678   26.1451 C   0  0  0  0  0  0
  -27.0303  -30.3043   24.6042 C   0  0  0  0  0  0
  -27.6049  -32.4303   25.7442 C   0  0  0  0  0  0
  -27.5581  -37.1811   24.8463 C   0  0  0  0  0  0
  -21.4128  -29.3101   22.3692 N   0  0  0  0  0  0
  -26.4310  -37.3810   23.9388 N   0  0  0  0  0  0
  -24.6659  -31.0798   22.1000 N   0  0  0  0  0  0
  -23.4213  -28.8260   23.2956 O   0  0  0  0  0  0
  -28.4122  -26.7151   20.0916 O   0  0  0  0  0  0
  -26.5613  -34.8947   22.4711 O   0  0  0  0  0  0
  -23.5329  -32.1427   23.7518 O   0  0  0  0  0  0
  -30.1738  -17.0863   23.0493 C   0  0  0  0  0  0
  -29.8638  -19.3180   22.1800 C   0  0  0  0  0  0
  -29.9951  -18.4606   23.2937 C   0  0  0  0  0  0
  -30.1970  -16.5985   21.7285 C   0  0  0  0  0  0
  -29.9259  -18.7692   20.8883 C   0  0  0  0  0  0
  -29.4696  -22.0763   19.7298 C   0  0  0  0  0  0
  -29.6670  -24.6090   19.9021 C   0  0  0  0  0  0
  -29.9581  -20.4893   24.8829 C   0  0  0  0  0  0
  -29.9447  -23.3652   19.0452 C   0  0  0  0  0  0
  -30.4484  -20.8880   19.7237 C   0  0  0  0  0  0
  -28.3402  -25.3450   19.6677 C   0  0  0  0  0  0
  -29.9068  -18.9545   24.7355 C   0  0  1  0  0  0
  -30.0712  -17.4449   20.6718 N   0  0  0  0  0  0
  -30.2254  -15.1857   21.6193 N   0  0  0  0  0  0
  -29.8096  -19.5670   19.7472 N   0  0  0  0  0  0
  -28.6861  -18.4030   25.3416 N   0  3  0  0  0  0
  -28.3398  -21.9767   20.2217 O   0  0  0  0  0  0
  -30.4948  -25.0078   20.7307 O   0  0  0  0  0  0
  -31.4809  -12.4122   19.0999 H   0  0  0  0  0  0
  -30.3482  -11.2741   19.7690 H   0  0  0  0  0  0
  -29.7363  -11.7995   17.4096 H   0  0  0  0  0  0
  -29.6864  -13.5079   17.7703 H   0  0  0  0  0  0
  -27.8136  -11.3309   18.7706 H   0  0  0  0  0  0
  -27.3804  -12.6958   17.7813 H   0  0  0  0  0  0
  -27.7362  -14.2599   19.6194 H   0  0  0  0  0  0
  -28.6849  -11.8805   21.2798 H   0  0  0  0  0  0
  -28.4549  -13.4805   21.8965 H   0  0  0  0  0  0
  -25.2795   -9.5664   22.4722 H   0  0  0  0  0  0
  -24.0000   -7.4628   22.7478 H   0  0  0  0  0  0
  -21.0825   -8.8779   19.8957 H   0  0  0  0  0  0
  -22.3710  -10.9665   19.6118 H   0  0  0  0  0  0
  -21.2014   -7.6130   23.9702 H   0  0  0  0  0  0
  -21.1478   -6.0506   25.9067 H   0  0  0  0  0  0
  -22.0606   -2.7591   23.2843 H   0  0  0  0  0  0
  -22.4135  -11.9968   22.4860 H   0  0  0  0  0  0
  -21.1117  -13.1244   22.2453 H   0  0  0  0  0  0
  -24.6685  -15.8428   20.5421 H   0  0  0  0  0  0
  -26.2850  -15.6394   20.0970 H   0  0  0  0  0  0
  -26.7105  -32.5571   23.1140 H   0  0  0  0  0  0
  -25.0080  -33.9794   25.0486 H   0  0  0  0  0  0
  -22.6885  -31.3191   21.4100 H   0  0  0  0  0  0
  -23.3781  -35.9634   23.3311 H   0  0  0  0  0  0
  -24.3609  -36.8907   22.2050 H   0  0  0  0  0  0
  -23.7244  -37.6525   23.6647 H   0  0  0  0  0  0
  -26.0505  -31.5952   20.5955 H   0  0  0  0  0  0
  -26.8194  -30.8828   21.9849 H   0  0  0  0  0  0
  -28.0982  -29.0963   21.1602 H   0  0  0  0  0  0
  -25.9996  -25.9869   18.9954 H   0  0  0  0  0  0
  -23.9590  -27.3039   19.0489 H   0  0  0  0  0  0
  -23.7206  -30.6088   19.4037 H   0  0  0  0  0  0
  -22.7305  -29.2570   19.8683 H   0  0  0  0  0  0
  -25.1288  -36.1990   25.0837 H   0  0  0  0  0  0
  -21.0004  -28.3309   24.1392 H   0  0  0  0  0  0
  -20.5772  -26.2315   23.3606 H   0  0  0  0  0  0
  -21.6675  -26.7523   22.1156 H   0  0  0  0  0  0
  -19.6970  -25.6327   21.1241 H   0  0  0  0  0  0
  -19.6710  -27.3231   20.6777 H   0  0  0  0  0  0
  -17.4227  -26.6706   21.4015 H   0  0  0  0  0  0
  -18.0342  -26.0040   22.8983 H   0  0  0  0  0  0
  -19.7956  -30.7262   24.2300 H   0  0  0  0  0  0
  -17.5052  -31.6274   24.5198 H   0  0  0  0  0  0
  -15.5390  -30.3052   23.7621 H   0  0  0  0  0  0
  -15.8670  -28.0881   22.7035 H   0  0  0  0  0  0
  -24.5910  -30.7007   25.7767 H   0  0  0  0  0  0
  -24.8915  -32.2851   26.4888 H   0  0  0  0  0  0
  -25.8076  -30.8847   27.0210 H   0  0  0  0  0  0
  -26.2833  -29.6785   24.1142 H   0  0  0  0  0  0
  -27.4164  -29.7277   25.4454 H   0  0  0  0  0  0
  -27.8630  -30.4379   23.9127 H   0  0  0  0  0  0
  -27.2679  -33.3596   26.2034 H   0  0  0  0  0  0
  -28.3840  -32.6842   25.0247 H   0  0  0  0  0  0
  -28.0738  -31.8415   26.5330 H   0  0  0  0  0  0
  -28.2610  -38.0101   24.7537 H   0  0  0  0  0  0
  -28.1085  -36.2642   24.6282 H   0  0  0  0  0  0
  -27.2321  -37.1441   25.8877 H   0  0  0  0  0  0
  -20.9268  -29.8777   21.6885 H   0  0  0  0  0  0
  -26.0213  -38.2894   24.1383 H   0  0  0  0  0  0
  -30.2833  -16.3992   23.8784 H   0  0  0  0  0  0
  -29.7088  -20.3799   22.3043 H   0  0  0  0  0  0
  -30.8451  -20.9003   24.3986 H   0  0  0  0  0  0
  -29.9995  -20.7795   25.9324 H   0  0  0  0  0  0
  -29.0793  -20.9650   24.4467 H   0  0  0  0  0  0
  -29.4370  -23.4607   18.0849 H   0  0  0  0  0  0
  -31.0120  -23.2996   18.8333 H   0  0  0  0  0  0
  -31.1498  -20.9975   20.5514 H   0  0  0  0  0  0
  -31.0456  -20.9508   18.8142 H   0  0  0  0  0  0
  -27.5640  -24.8172   20.2224 H   0  0  0  0  0  0
  -28.0899  -25.2925   18.6088 H   0  0  0  0  0  0
  -30.7635  -18.5418   25.2725 H   0  0  0  0  0  0
  -29.6006  -14.7016   22.2433 H   0  0  0  0  0  0
  -29.7571  -19.0859   18.8563 H   0  0  0  0  0  0
  -27.8790  -18.6643   24.8058 H   0  0  0  0  0  0
  -28.5801  -18.7226   26.2864 H   0  0  0  0  0  0
  -28.7426  -17.4012   25.3540 H   0  0  0  0  0  0
  1 25  1  0  0  0
  1 30  2  0  0  0
  1 84  1  0  0  0
  2  3  1  0  0  0
  2 25  1  0  0  0
  2 89  1  0  0  0
  2 90  1  0  0  0
  3  4  1  0  0  0
  3 91  1  0  0  0
  3 92  1  0  0  0
  4  5  1  0  0  0
  4 93  1  0  0  0
  4 94  1  0  0  0
  5  6  1  0  0  0
  5 26  1  0  0  0
  5 95  1  0  0  0
  6 25  1  0  0  0
  6 96  1  0  0  0
  6 97  1  0  0  0
  7  8  2  0  0  0
  7 26  1  0  0  0
  7 29  1  0  0  0
  8  9  1  0  0  0
  8 22  1  0  0  0
  9 10  1  0  0  0
  9 27  2  0  0  0
 10 11  2  0  0  0
 10 15  1  0  0  0
 11 12  1  0  0  0
 11 98  1  0  0  0
 12 13  2  0  0  0
 12 99  1  0  0  0
 13 14  1  0  0  0
 13 31  1  0  0  0
 14 15  2  0  0  0
 14100  1  0  0  0
 15101  1  0  0  0
 16 17  2  0  0  0
 16 21  1  0  0  0
 16 31  1  0  0  0
 17 18  1  0  0  0
 17102  1  0  0  0
 18 19  2  0  0  0
 18103  1  0  0  0
 19 20  1  0  0  0
 19 24  1  0  0  0
 20 21  2  0  0  0
 20104  1  0  0  0
 21 23  1  0  0  0
 22 28  1  0  0  0
 22 32  2  0  0  0
 26 27  1  0  0  0
 28105  1  0  0  0
 28106  1  0  0  0
 29107  1  0  0  0
 29108  1  0  0  0
 33 34  1  0  0  0
 33 66  1  0  0  0
 33 70  2  0  0  0
 34 36  1  0  0  0
 34 59  1  0  0  0
 34109  1  0  0  0
 35 44  2  0  0  0
 35 45  1  0  0  0
 35 68  1  0  0  0
 36 56  1  0  0  0
 36110  1  0  0  0
 37 39  1  0  0  0
 37 47  1  0  0  0
 37 66  1  0  0  0
 37111  1  0  0  0
 38 43  2  0  0  0
 38 46  1  0  0  0
 38 47  1  0  0  0
 39 64  1  0  0  0
 39 67  2  0  0  0
 40 52  1  0  0  0
 40 53  2  0  0  0
 40 58  1  0  0  0
 41112  1  0  0  0
 41113  1  0  0  0
 41114  1  0  0  0
 41 48  1  0  0  0
 42 43  1  0  0  0
 42 66  1  0  0  0
 42115  1  0  0  0
 42116  1  0  0  0
 43 44  1  0  0  0
 44117  1  0  0  0
 45 46  2  0  0  0
 45118  1  0  0  0
 46119  1  0  0  0
 47120  1  0  0  0
 47121  1  0  0  0
 48 56  1  0  0  0
 48 65  1  0  0  0
 48122  1  0  0  0
 49 50  1  0  0  0
 49 53  1  0  0  0
 49 64  1  0  0  0
 49123  1  0  0  0
 50 51  1  0  0  0
 50124  1  0  0  0
 50125  1  0  0  0
 51 52  1  0  0  0
 51126  1  0  0  0
 51127  1  0  0  0
 52128  1  0  0  0
 52129  1  0  0  0
 53 54  1  0  0  0
 54 55  2  0  0  0
 54130  1  0  0  0
 55 57  1  0  0  0
 55131  1  0  0  0
 56 69  2  0  0  0
 57 58  2  0  0  0
 57132  1  0  0  0
 58133  1  0  0  0
 59 60  1  0  0  0
 59 61  1  0  0  0
 59 62  1  0  0  0
 60134  1  0  0  0
 60135  1  0  0  0
 60136  1  0  0  0
 61137  1  0  0  0
 61138  1  0  0  0
 61139  1  0  0  0
 62140  1  0  0  0
 62141  1  0  0  0
 62142  1  0  0  0
 63 65  1  0  0  0
 63143  1  0  0  0
 63144  1  0  0  0
 63145  1  0  0  0
 64146  1  0  0  0
 65147  1  0  0  0
 68 81  1  0  0  0
 71 73  2  0  0  0
 71 74  1  0  0  0
 71148  1  0  0  0
 72 73  1  0  0  0
 72 75  2  0  0  0
 72149  1  0  0  0
 73 82  1  0  0  0
 74 83  2  0  0  0
 74 84  1  0  0  0
 75 83  1  0  0  0
 75 85  1  0  0  0
 76 79  1  0  0  0
 76 80  1  0  0  0
 76 87  2  0  0  0
 77 79  1  0  0  0
 77 81  1  0  0  0
 77 88  2  0  0  0
 78150  1  0  0  0
 78151  1  0  0  0
 78152  1  0  0  0
 78 82  1  0  0  0
 79153  1  0  0  0
 79154  1  0  0  0
 80 85  1  0  0  0
 80155  1  0  0  0
 80156  1  0  0  0
 81157  1  0  0  0
 81158  1  0  0  0
 82 86  1  0  0  0
 82159  1  0  0  0
 84160  1  0  0  0
 85161  1  0  0  0
 86162  1  0  0  0
 86163  1  0  0  0
 86164  1  0  0  0
M  CHG  1  86   1
M  ISO  4   1 100  68 101  81 101  84 100
M  END
> <chiral flag>
0

> <version>
0

> <s_m_source_file>
/data/baiqing/PycharmProjects/Reinvent-master-3.2/result/LINK_invent/BTK/process_docking_weight1_custom_product_contain_oxygen_bond_distance_aromatic_linkinvent_7_9_3/rearranged_h_0163.sdf

> <i_m_source_file_index>
97

> <r_mmod_Potential_Energy-OPLS-2005>
-766.460571289062

> <r_mmod_Stretch_Energy-OPLS-2005>
36.6476364135742

> <r_mmod_Bend_Energy-OPLS-2005>
104.630233764648

> <r_mmod_Torsional_Energy-OPLS-2005>
214.536285400391

> <r_mmod_Improper_Torsional_Energy-OPLS-2005>
6.16287469863892

> <r_mmod_Van_der_Waal_Energy-OPLS-2005>
159.990142822266

> <r_mmod_Electrostatic_Energy-OPLS-2005>
-711.432983398438

> <r_mmod_Solvation_Energy-OPLS-2005>
-586.658325195312

> <b_mmod_Minimization_Converged-OPLS-2005>
0

> <r_mmod_RMS_Derivative-OPLS-2005>
3.66517877578735

$$$$
97
                    3D
 Structure written by MMmdl.
157165  0  0  1  0            999 V2000
  -30.6752  -14.4970   20.5330 C   0  0  0  0  0  0
  -30.4227  -12.3133   19.4260 C   0  0  0  0  0  0
  -29.4970  -12.5064   18.2057 C   0  0  0  0  0  0
  -28.0186  -12.3641   18.6179 C   0  0  0  0  0  0
  -27.6603  -13.2061   19.8741 C   0  0  2  0  0  0
  -28.7045  -12.9954   20.9962 C   0  0  0  0  0  0
  -25.2572  -13.8133   20.5698 C   0  0  0  0  0  0
  -24.1822  -13.0400   20.9161 C   0  0  0  0  0  0
  -24.6377  -11.6871   20.8680 C   0  0  0  0  0  0
  -23.9054  -10.4258   21.0380 C   0  0  0  0  0  0
  -24.3611   -9.4180   21.9164 C   0  0  0  0  0  0
  -23.6287   -8.2219   22.0757 C   0  0  0  0  0  0
  -22.4269   -8.0258   21.3557 C   0  0  0  0  0  0
  -21.9895   -9.0218   20.4654 C   0  0  0  0  0  0
  -22.7221  -10.2097   20.3047 C   0  0  0  0  0  0
  -21.6848   -6.0708   22.5280 C   0  0  0  0  0  0
  -21.4000   -6.5619   23.8214 C   0  0  0  0  0  0
  -21.3669   -5.6793   24.9181 C   0  0  0  0  0  0
  -21.6047   -4.3051   24.7242 C   0  0  0  0  0  0
  -21.8820   -3.8136   23.4363 C   0  0  0  0  0  0
  -21.9185   -4.6936   22.3413 C   0  0  0  0  0  0
  -22.7849  -13.5193   21.1850 C   0  0  0  0  0  0
  -22.1655   -4.2123   21.0993 F   0  0  0  0  0  0
  -21.5644   -3.4543   25.7761 F   0  0  0  0  0  0
  -30.0335  -13.3008   20.4465 N   0  0  0  0  0  0
  -26.3022  -12.9308   20.3369 N   0  0  0  0  0  0
  -25.9309  -11.6470   20.5737 N   0  0  0  0  0  0
  -22.0512  -12.8162   22.0402 N   0  0  0  0  0  0
  -25.4280  -15.1844   20.4168 N   0  0  0  0  0  0
  -31.8077  -14.6877   20.0813 O   0  0  0  0  0  0
  -21.6633   -6.8849   21.4254 O   0  0  0  0  0  0
  -22.3536  -14.5524   20.6759 O   0  0  0  0  0  0
  -24.6157  -31.8673   23.2106 C   0  0  0  0  0  0
  -25.9044  -32.4821   23.8397 C   0  0  1  0  0  0
  -27.2233  -27.4144   20.1005 C   0  0  0  0  0  0
  -25.5908  -33.8612   24.2357 N   0  0  0  0  0  0
  -23.4048  -30.4902   21.5538 C   0  0  2  0  0  0
  -24.8508  -28.9567   20.1128 C   0  0  0  0  0  0
  -22.7418  -29.4645   22.5016 C   0  0  0  0  0  0
  -18.0286  -28.1358   22.8526 C   0  0  0  0  0  0
  -24.1497  -36.7299   23.2649 C   0  0  0  0  0  0
  -25.9359  -30.8241   21.3711 C   0  0  0  0  0  0
  -26.0117  -29.4581   20.7167 C   0  0  0  0  0  0
  -27.2030  -28.6932   20.7108 C   0  0  0  0  0  0
  -26.0567  -26.9441   19.4655 C   0  0  0  0  0  0
  -24.8688  -27.6981   19.4863 C   0  0  0  0  0  0
  -23.6120  -29.8241   20.1672 C   0  0  0  0  0  0
  -25.4120  -36.3116   24.0361 C   0  0  1  0  0  0
  -20.5871  -28.3653   23.1345 C   0  0  2  0  0  0
  -20.6788  -26.9389   22.5444 C   0  0  0  0  0  0
  -19.5769  -26.6369   21.5247 C   0  0  0  0  0  0
  -18.1937  -26.7917   22.1626 C   0  0  0  0  0  0
  -19.1528  -28.8823   23.2934 C   0  0  0  0  0  0
  -18.9447  -30.1440   23.8940 C   0  0  0  0  0  0
  -17.6446  -30.6581   24.0570 C   0  0  0  0  0  0
  -25.9043  -34.9477   23.5167 C   0  0  0  0  0  0
  -16.5349  -29.9083   23.6333 C   0  0  0  0  0  0
  -16.7271  -28.6481   23.0388 C   0  0  0  0  0  0
  -26.4456  -31.6590   25.0725 C   0  0  0  0  0  0
  -25.3699  -31.3719   26.1463 C   0  0  0  0  0  0
  -27.0302  -30.3048   24.6077 C   0  0  0  0  0  0
  -27.6024  -32.4304   25.7484 C   0  0  0  0  0  0
  -27.5603  -37.1812   24.8465 C   0  0  0  0  0  0
  -21.4148  -29.3011   22.3744 N   0  0  0  0  0  0
  -26.4311  -37.3794   23.9409 N   0  0  0  0  0  0
  -24.6706  -31.0742   22.1031 N   0  0  0  0  0  0
  -23.4190  -28.8181   23.3048 O   0  0  0  0  0  0
  -28.3590  -26.6266   20.1020 O   0  0  0  0  0  0
  -26.5594  -34.8918   22.4721 O   0  0  0  0  0  0
  -23.5358  -32.1420   23.7509 O   0  0  0  0  0  0
  -29.4981  -17.9975   20.9692 C   0  0  0  0  0  0
  -29.9232  -16.8596   18.8825 C   0  0  0  0  0  0
  -29.2775  -19.1949   20.2355 C   0  0  0  0  0  0
  -29.8139  -16.7948   20.2883 C   0  0  0  0  0  0
  -29.3349  -19.1023   18.8270 C   0  0  0  0  0  0
  -29.1298  -21.8829   20.3100 C   0  0  0  0  0  0
  -28.7517  -24.1649   20.0912 C   0  0  0  0  0  0
  -27.1134  -25.1822   21.7936 C   0  0  0  0  0  0
  -29.5603  -25.7136   21.9021 C   0  0  0  0  0  0
  -28.9329  -20.5075   20.9877 C   0  0  0  0  0  0
  -28.3934  -25.4299   20.9418 C   0  0  0  0  0  0
  -29.6707  -17.9733   18.1724 N   0  0  0  0  0  0
  -28.5991  -22.9528   20.7782 N   0  0  0  0  0  0
  -29.9314  -15.5362   20.9732 N   0  0  0  0  0  0
  -29.1605  -24.3144   18.9356 O   0  0  0  0  0  0
  -29.0191  -20.1642   18.0506 F   0  0  0  0  0  0
  -31.4684  -12.4087   19.1238 H   0  0  0  0  0  0
  -30.3229  -11.3022   19.8261 H   0  0  0  0  0  0
  -29.7374  -11.7776   17.4308 H   0  0  0  0  0  0
  -29.6682  -13.4882   17.7607 H   0  0  0  0  0  0
  -27.8286  -11.3087   18.8161 H   0  0  0  0  0  0
  -27.3733  -12.6329   17.7820 H   0  0  0  0  0  0
  -27.6959  -14.2517   19.5680 H   0  0  0  0  0  0
  -28.6842  -11.9609   21.3405 H   0  0  0  0  0  0
  -28.4694  -13.5992   21.8735 H   0  0  0  0  0  0
  -25.2768   -9.5640   22.4727 H   0  0  0  0  0  0
  -23.9988   -7.4599   22.7467 H   0  0  0  0  0  0
  -21.0831   -8.8705   19.8957 H   0  0  0  0  0  0
  -22.3663  -10.9611   19.6141 H   0  0  0  0  0  0
  -21.1980   -7.6129   23.9705 H   0  0  0  0  0  0
  -21.1511   -6.0528   25.9087 H   0  0  0  0  0  0
  -22.0600   -2.7595   23.2879 H   0  0  0  0  0  0
  -22.4170  -11.9820   22.4767 H   0  0  0  0  0  0
  -21.1119  -13.1151   22.2629 H   0  0  0  0  0  0
  -24.6636  -15.8379   20.5458 H   0  0  0  0  0  0
  -26.2922  -15.6335   20.1413 H   0  0  0  0  0  0
  -26.7119  -32.5531   23.1154 H   0  0  0  0  0  0
  -25.0108  -33.9765   25.0548 H   0  0  0  0  0  0
  -22.6958  -31.3100   21.4179 H   0  0  0  0  0  0
  -23.3769  -35.9618   23.3312 H   0  0  0  0  0  0
  -24.3610  -36.8897   22.2060 H   0  0  0  0  0  0
  -23.7209  -37.6496   23.6648 H   0  0  0  0  0  0
  -26.0566  -31.5916   20.6060 H   0  0  0  0  0  0
  -26.8210  -30.8735   21.9939 H   0  0  0  0  0  0
  -28.0956  -29.0657   21.1953 H   0  0  0  0  0  0
  -26.0626  -25.9813   18.9749 H   0  0  0  0  0  0
  -23.9772  -27.3097   19.0136 H   0  0  0  0  0  0
  -23.7158  -30.5995   19.4071 H   0  0  0  0  0  0
  -22.7346  -29.2433   19.8756 H   0  0  0  0  0  0
  -25.1295  -36.2009   25.0855 H   0  0  0  0  0  0
  -20.9990  -28.3205   24.1456 H   0  0  0  0  0  0
  -20.5747  -26.2232   23.3620 H   0  0  0  0  0  0
  -21.6649  -26.7466   22.1206 H   0  0  0  0  0  0
  -19.6939  -25.6285   21.1267 H   0  0  0  0  0  0
  -19.6721  -27.3188   20.6787 H   0  0  0  0  0  0
  -17.4237  -26.6725   21.4003 H   0  0  0  0  0  0
  -18.0300  -26.0023   22.8972 H   0  0  0  0  0  0
  -19.7915  -30.7257   24.2328 H   0  0  0  0  0  0
  -17.4997  -31.6272   24.5139 H   0  0  0  0  0  0
  -15.5357  -30.2998   23.7624 H   0  0  0  0  0  0
  -15.8668  -28.0802   22.7120 H   0  0  0  0  0  0
  -24.5805  -30.7168   25.7769 H   0  0  0  0  0  0
  -24.8966  -32.2901   26.4957 H   0  0  0  0  0  0
  -25.8001  -30.8798   27.0190 H   0  0  0  0  0  0
  -26.2868  -29.6808   24.1103 H   0  0  0  0  0  0
  -27.4088  -29.7278   25.4517 H   0  0  0  0  0  0
  -27.8688  -30.4420   23.9242 H   0  0  0  0  0  0
  -27.2638  -33.3563   26.2137 H   0  0  0  0  0  0
  -28.3783  -32.6922   25.0285 H   0  0  0  0  0  0
  -28.0741  -31.8378   26.5325 H   0  0  0  0  0  0
  -28.2618  -38.0112   24.7537 H   0  0  0  0  0  0
  -28.1105  -36.2647   24.6274 H   0  0  0  0  0  0
  -27.2328  -37.1444   25.8868 H   0  0  0  0  0  0
  -20.9320  -29.8680   21.6912 H   0  0  0  0  0  0
  -26.0218  -38.2892   24.1360 H   0  0  0  0  0  0
  -29.4097  -18.0013   22.0464 H   0  0  0  0  0  0
  -30.1514  -15.9829   18.2909 H   0  0  0  0  0  0
  -29.7722  -21.8790   19.4241 H   0  0  0  0  0  0
  -26.8422  -26.0563   22.3842 H   0  0  0  0  0  0
  -27.2500  -24.3706   22.5084 H   0  0  0  0  0  0
  -26.2549  -24.9129   21.1791 H   0  0  0  0  0  0
  -29.7896  -24.8545   22.5336 H   0  0  0  0  0  0
  -29.3261  -26.5487   22.5626 H   0  0  0  0  0  0
  -30.4666  -25.9736   21.3543 H   0  0  0  0  0  0
  -29.5098  -20.5256   21.9130 H   0  0  0  0  0  0
  -27.8903  -20.4413   21.2970 H   0  0  0  0  0  0
  -29.1416  -15.2803   21.5491 H   0  0  0  0  0  0
  1 25  1  0  0  0
  1 30  2  0  0  0
  1 84  1  0  0  0
  2  3  1  0  0  0
  2 25  1  0  0  0
  2 87  1  0  0  0
  2 88  1  0  0  0
  3  4  1  0  0  0
  3 89  1  0  0  0
  3 90  1  0  0  0
  4  5  1  0  0  0
  4 91  1  0  0  0
  4 92  1  0  0  0
  5  6  1  0  0  0
  5 26  1  0  0  0
  5 93  1  0  0  0
  6 25  1  0  0  0
  6 94  1  0  0  0
  6 95  1  0  0  0
  7  8  2  0  0  0
  7 26  1  0  0  0
  7 29  1  0  0  0
  8  9  1  0  0  0
  8 22  1  0  0  0
  9 10  1  0  0  0
  9 27  2  0  0  0
 10 11  2  0  0  0
 10 15  1  0  0  0
 11 12  1  0  0  0
 11 96  1  0  0  0
 12 13  2  0  0  0
 12 97  1  0  0  0
 13 14  1  0  0  0
 13 31  1  0  0  0
 14 15  2  0  0  0
 14 98  1  0  0  0
 15 99  1  0  0  0
 16 17  2  0  0  0
 16 21  1  0  0  0
 16 31  1  0  0  0
 17 18  1  0  0  0
 17100  1  0  0  0
 18 19  2  0  0  0
 18101  1  0  0  0
 19 20  1  0  0  0
 19 24  1  0  0  0
 20 21  2  0  0  0
 20102  1  0  0  0
 21 23  1  0  0  0
 22 28  1  0  0  0
 22 32  2  0  0  0
 26 27  1  0  0  0
 28103  1  0  0  0
 28104  1  0  0  0
 29105  1  0  0  0
 29106  1  0  0  0
 33 34  1  0  0  0
 33 66  1  0  0  0
 33 70  2  0  0  0
 34 36  1  0  0  0
 34 59  1  0  0  0
 34107  1  0  0  0
 35 44  2  0  0  0
 35 45  1  0  0  0
 35 68  1  0  0  0
 36 56  1  0  0  0
 36108  1  0  0  0
 37 39  1  0  0  0
 37 47  1  0  0  0
 37 66  1  0  0  0
 37109  1  0  0  0
 38 43  2  0  0  0
 38 46  1  0  0  0
 38 47  1  0  0  0
 39 64  1  0  0  0
 39 67  2  0  0  0
 40 52  1  0  0  0
 40 53  2  0  0  0
 40 58  1  0  0  0
 41110  1  0  0  0
 41111  1  0  0  0
 41112  1  0  0  0
 41 48  1  0  0  0
 42 43  1  0  0  0
 42 66  1  0  0  0
 42113  1  0  0  0
 42114  1  0  0  0
 43 44  1  0  0  0
 44115  1  0  0  0
 45 46  2  0  0  0
 45116  1  0  0  0
 46117  1  0  0  0
 47118  1  0  0  0
 47119  1  0  0  0
 48 56  1  0  0  0
 48 65  1  0  0  0
 48120  1  0  0  0
 49 50  1  0  0  0
 49 53  1  0  0  0
 49 64  1  0  0  0
 49121  1  0  0  0
 50 51  1  0  0  0
 50122  1  0  0  0
 50123  1  0  0  0
 51 52  1  0  0  0
 51124  1  0  0  0
 51125  1  0  0  0
 52126  1  0  0  0
 52127  1  0  0  0
 53 54  1  0  0  0
 54 55  2  0  0  0
 54128  1  0  0  0
 55 57  1  0  0  0
 55129  1  0  0  0
 56 69  2  0  0  0
 57 58  2  0  0  0
 57130  1  0  0  0
 58131  1  0  0  0
 59 60  1  0  0  0
 59 61  1  0  0  0
 59 62  1  0  0  0
 60132  1  0  0  0
 60133  1  0  0  0
 60134  1  0  0  0
 61135  1  0  0  0
 61136  1  0  0  0
 61137  1  0  0  0
 62138  1  0  0  0
 62139  1  0  0  0
 62140  1  0  0  0
 63 65  1  0  0  0
 63141  1  0  0  0
 63142  1  0  0  0
 63143  1  0  0  0
 64144  1  0  0  0
 65145  1  0  0  0
 68 81  1  0  0  0
 71 73  2  0  0  0
 71 74  1  0  0  0
 71146  1  0  0  0
 72 74  2  0  0  0
 72 82  1  0  0  0
 72147  1  0  0  0
 73 75  1  0  0  0
 73 80  1  0  0  0
 74 84  1  0  0  0
 75 82  2  0  0  0
 75 86  1  0  0  0
 76 80  1  0  0  0
 76 83  2  0  0  0
 76148  1  0  0  0
 77 81  1  0  0  0
 77 83  1  0  0  0
 77 85  2  0  0  0
 78149  1  0  0  0
 78150  1  0  0  0
 78151  1  0  0  0
 78 81  1  0  0  0
 79 81  1  0  0  0
 79152  1  0  0  0
 79153  1  0  0  0
 79154  1  0  0  0
 80155  1  0  0  0
 80156  1  0  0  0
 84157  1  0  0  0
M  ISO  4   1 100  68 101  81 101  84 100
M  END
> <chiral flag>
0

> <version>
0

> <s_m_source_file>
/data/baiqing/PycharmProjects/Reinvent-master-3.2/result/LINK_invent/BTK/process_docking_weight1_custom_product_contain_oxygen_bond_distance_aromatic_linkinvent_7_9_3/rearranged_h_0163.sdf

> <i_m_source_file_index>
98

> <r_mmod_Potential_Energy-OPLS-2005>
-245.655334472656

> <r_mmod_Stretch_Energy-OPLS-2005>
48.4750556945801

> <r_mmod_Bend_Energy-OPLS-2005>
114.964454650879

> <r_mmod_Torsional_Energy-OPLS-2005>
264.124938964844

> <r_mmod_Improper_Torsional_Energy-OPLS-2005>
6.44629526138306

> <r_mmod_Van_der_Waal_Energy-OPLS-2005>
170.602676391602

> <r_mmod_Electrostatic_Energy-OPLS-2005>
-649.250427246094

> <r_mmod_Solvation_Energy-OPLS-2005>
-217.722503662109

> <b_mmod_Minimization_Converged-OPLS-2005>
0

> <r_mmod_RMS_Derivative-OPLS-2005>
3.15354013442993

$$$$
98
                    3D
 Structure written by MMmdl.
167176  0  0  1  0            999 V2000
  -30.6388  -14.5867   20.6184 C   0  0  0  0  0  0
  -30.4478  -12.3861   19.4509 C   0  0  0  0  0  0
  -29.5131  -12.5374   18.2292 C   0  0  0  0  0  0
  -28.0356  -12.3668   18.6346 C   0  0  0  0  0  0
  -27.6640  -13.2128   19.8795 C   0  0  2  0  0  0
  -28.6999  -13.0042   21.0065 C   0  0  0  0  0  0
  -25.2581  -13.8150   20.5672 C   0  0  0  0  0  0
  -24.1833  -13.0440   20.9175 C   0  0  0  0  0  0
  -24.6383  -11.6909   20.8726 C   0  0  0  0  0  0
  -23.9044  -10.4289   21.0414 C   0  0  0  0  0  0
  -24.3598   -9.4213   21.9185 C   0  0  0  0  0  0
  -23.6282   -8.2237   22.0740 C   0  0  0  0  0  0
  -22.4266   -8.0267   21.3533 C   0  0  0  0  0  0
  -21.9905   -9.0241   20.4642 C   0  0  0  0  0  0
  -22.7226  -10.2123   20.3058 C   0  0  0  0  0  0
  -21.6843   -6.0736   22.5275 C   0  0  0  0  0  0
  -21.4006   -6.5629   23.8223 C   0  0  0  0  0  0
  -21.3667   -5.6779   24.9165 C   0  0  0  0  0  0
  -21.6044   -4.3039   24.7207 C   0  0  0  0  0  0
  -21.8822   -3.8141   23.4327 C   0  0  0  0  0  0
  -21.9196   -4.6962   22.3395 C   0  0  0  0  0  0
  -22.7852  -13.5255   21.1849 C   0  0  0  0  0  0
  -22.1673   -4.2163   21.0966 F   0  0  0  0  0  0
  -21.5629   -3.4513   25.7712 F   0  0  0  0  0  0
  -30.0329  -13.3620   20.4792 N   0  0  0  0  0  0
  -26.3022  -12.9341   20.3349 N   0  0  0  0  0  0
  -25.9311  -11.6498   20.5730 N   0  0  0  0  0  0
  -22.0474  -12.8252   22.0394 N   0  0  0  0  0  0
  -25.4331  -15.1858   20.4101 N   0  0  0  0  0  0
  -31.6980  -14.8558   20.0392 O   0  0  0  0  0  0
  -21.6625   -6.8868   21.4241 O   0  0  0  0  0  0
  -22.3563  -14.5575   20.6709 O   0  0  0  0  0  0
  -24.6270  -31.8590   23.2016 C   0  0  0  0  0  0
  -25.9117  -32.4766   23.8352 C   0  0  1  0  0  0
  -27.2444  -27.3384   20.0976 C   0  0  0  0  0  0
  -25.5925  -33.8559   24.2294 N   0  0  0  0  0  0
  -23.4192  -30.4843   21.5421 C   0  0  2  0  0  0
  -24.8669  -28.9377   20.1122 C   0  0  0  0  0  0
  -22.7459  -29.4647   22.4912 C   0  0  0  0  0  0
  -18.0285  -28.1373   22.8470 C   0  0  0  0  0  0
  -24.1476  -36.7281   23.2646 C   0  0  0  0  0  0
  -25.9602  -30.7934   21.3702 C   0  0  0  0  0  0
  -26.0348  -29.4219   20.7133 C   0  0  0  0  0  0
  -27.2236  -28.6347   20.6962 C   0  0  0  0  0  0
  -26.0441  -26.8986   19.4842 C   0  0  0  0  0  0
  -24.8734  -27.6797   19.4911 C   0  0  0  0  0  0
  -23.6328  -29.8139   20.1594 C   0  0  0  0  0  0
  -25.4095  -36.3077   24.0355 C   0  0  1  0  0  0
  -20.5882  -28.3686   23.1254 C   0  0  2  0  0  0
  -20.6754  -26.9405   22.5383 C   0  0  0  0  0  0
  -19.5742  -26.6381   21.5167 C   0  0  0  0  0  0
  -18.1929  -26.7916   22.1602 C   0  0  0  0  0  0
  -19.1534  -28.8841   23.2867 C   0  0  0  0  0  0
  -18.9465  -30.1440   23.8891 C   0  0  0  0  0  0
  -17.6471  -30.6585   24.0545 C   0  0  0  0  0  0
  -25.9040  -34.9445   23.5130 C   0  0  0  0  0  0
  -16.5356  -29.9084   23.6319 C   0  0  0  0  0  0
  -16.7273  -28.6490   23.0353 C   0  0  0  0  0  0
  -26.4504  -31.6573   25.0719 C   0  0  0  0  0  0
  -25.3761  -31.3680   26.1466 C   0  0  0  0  0  0
  -27.0347  -30.3006   24.6160 C   0  0  0  0  0  0
  -27.6083  -32.4293   25.7475 C   0  0  0  0  0  0
  -27.5578  -37.1786   24.8475 C   0  0  0  0  0  0
  -21.4171  -29.3063   22.3659 N   0  0  0  0  0  0
  -26.4276  -37.3779   23.9440 N   0  0  0  0  0  0
  -24.6872  -31.0624   22.0949 N   0  0  0  0  0  0
  -23.4187  -28.8185   23.2985 O   0  0  0  0  0  0
  -28.3925  -26.5274   20.1358 O   0  0  0  0  0  0
  -26.5606  -34.8923   22.4693 O   0  0  0  0  0  0
  -23.5439  -32.1371   23.7359 O   0  0  0  0  0  0
  -28.1855  -16.7842   22.0533 C   0  0  0  0  0  0
  -27.5151  -17.9995   22.1409 C   0  0  0  0  0  0
  -29.4457  -16.7449   21.4286 C   0  0  0  0  0  0
  -29.2264  -19.0756   21.0839 C   0  0  0  0  0  0
  -30.8600  -22.6943   21.7198 C   0  0  0  0  0  0
  -30.3609  -21.2340   21.9333 C   0  0  0  0  0  0
  -28.7311  -21.4269   19.9822 C   0  0  0  0  0  0
  -29.7731  -23.7867   21.4656 C   0  0  0  0  0  0
  -29.2812  -22.6921   19.2237 C   0  0  0  0  0  0
  -29.7813  -20.4940   20.6985 C   0  0  2  0  0  0
  -29.4741  -24.0764   19.9720 C   0  0  1  0  0  0
  -30.7620  -25.0366   18.1149 C   0  0  0  0  0  0
  -28.2748  -25.1121   19.7378 C   0  0  0  0  0  0
  -28.0340  -19.1273   21.6698 N   0  0  0  0  0  0
  -29.9634  -17.9339   20.9549 N   0  0  0  0  0  0
  -26.2675  -18.0984   22.7280 N   0  0  0  0  0  0
  -30.0335  -15.4192   21.5093 N   0  0  0  0  0  0
  -30.6907  -24.6692   19.4918 O   0  0  0  0  0  0
  -31.4897  -12.5227   19.1556 H   0  0  0  0  0  0
  -30.3861  -11.3743   19.8559 H   0  0  0  0  0  0
  -29.7786  -11.8076   17.4628 H   0  0  0  0  0  0
  -29.6574  -13.5222   17.7795 H   0  0  0  0  0  0
  -27.8682  -11.3093   18.8451 H   0  0  0  0  0  0
  -27.3844  -12.6196   17.7969 H   0  0  0  0  0  0
  -27.7044  -14.2603   19.5774 H   0  0  0  0  0  0
  -28.6976  -11.9638   21.3346 H   0  0  0  0  0  0
  -28.4149  -13.5731   21.8906 H   0  0  0  0  0  0
  -25.2736   -9.5693   22.4773 H   0  0  0  0  0  0
  -24.0002   -7.4624   22.7437 H   0  0  0  0  0  0
  -21.0845   -8.8761   19.8944 H   0  0  0  0  0  0
  -22.3692  -10.9657   19.6163 H   0  0  0  0  0  0
  -21.1991   -7.6142   23.9727 H   0  0  0  0  0  0
  -21.1495   -6.0493   25.9081 H   0  0  0  0  0  0
  -22.0600   -2.7604   23.2799 H   0  0  0  0  0  0
  -22.4046  -11.9901   22.4813 H   0  0  0  0  0  0
  -21.1099  -13.1315   22.2566 H   0  0  0  0  0  0
  -24.6827  -15.8512   20.5540 H   0  0  0  0  0  0
  -26.2963  -15.6256   20.1214 H   0  0  0  0  0  0
  -26.7176  -32.5435   23.1088 H   0  0  0  0  0  0
  -25.0052  -33.9670   25.0430 H   0  0  0  0  0  0
  -22.7160  -31.3068   21.3952 H   0  0  0  0  0  0
  -23.3748  -35.9602   23.3297 H   0  0  0  0  0  0
  -24.3574  -36.8901   22.2063 H   0  0  0  0  0  0
  -23.7202  -37.6479   23.6649 H   0  0  0  0  0  0
  -26.0933  -31.5552   20.6005 H   0  0  0  0  0  0
  -26.8411  -30.8384   21.9991 H   0  0  0  0  0  0
  -28.1220  -29.0094   21.1664 H   0  0  0  0  0  0
  -25.9750  -25.9387   18.9945 H   0  0  0  0  0  0
  -23.9785  -27.3026   19.0154 H   0  0  0  0  0  0
  -23.7466  -30.5836   19.3946 H   0  0  0  0  0  0
  -22.7548  -29.2372   19.8627 H   0  0  0  0  0  0
  -25.1256  -36.1934   25.0845 H   0  0  0  0  0  0
  -20.9984  -28.3255   24.1369 H   0  0  0  0  0  0
  -20.5576  -26.2309   23.3586 H   0  0  0  0  0  0
  -21.6636  -26.7383   22.1233 H   0  0  0  0  0  0
  -19.6898  -25.6282   21.1218 H   0  0  0  0  0  0
  -19.6684  -27.3164   20.6673 H   0  0  0  0  0  0
  -17.4181  -26.6634   21.4027 H   0  0  0  0  0  0
  -18.0381  -26.0058   22.9009 H   0  0  0  0  0  0
  -19.7946  -30.7236   24.2285 H   0  0  0  0  0  0
  -17.5035  -31.6267   24.5147 H   0  0  0  0  0  0
  -15.5363  -30.2995   23.7639 H   0  0  0  0  0  0
  -15.8671  -28.0809   22.7092 H   0  0  0  0  0  0
  -24.5940  -30.7016   25.7807 H   0  0  0  0  0  0
  -24.8940  -32.2820   26.4943 H   0  0  0  0  0  0
  -25.8126  -30.8834   27.0208 H   0  0  0  0  0  0
  -26.2900  -29.6738   24.1236 H   0  0  0  0  0  0
  -27.4110  -29.7284   25.4650 H   0  0  0  0  0  0
  -27.8747  -30.4308   23.9332 H   0  0  0  0  0  0
  -27.2730  -33.3614   26.2032 H   0  0  0  0  0  0
  -28.3899  -32.6809   25.0292 H   0  0  0  0  0  0
  -28.0736  -31.8414   26.5395 H   0  0  0  0  0  0
  -28.2595  -38.0087   24.7542 H   0  0  0  0  0  0
  -28.1071  -36.2622   24.6258 H   0  0  0  0  0  0
  -27.2312  -37.1401   25.8883 H   0  0  0  0  0  0
  -20.9341  -29.8833   21.6915 H   0  0  0  0  0  0
  -26.0165  -38.2859   24.1433 H   0  0  0  0  0  0
  -27.7272  -15.8978   22.4706 H   0  0  0  0  0  0
  -31.6197  -22.7192   20.9373 H   0  0  0  0  0  0
  -31.3915  -22.9785   22.6293 H   0  0  0  0  0  0
  -29.6204  -21.2308   22.7340 H   0  0  0  0  0  0
  -31.1943  -20.6390   22.3094 H   0  0  0  0  0  0
  -28.2224  -20.8084   19.2426 H   0  0  0  0  0  0
  -27.9485  -21.7198   20.6830 H   0  0  0  0  0  0
  -30.1087  -24.7187   21.9226 H   0  0  0  0  0  0
  -28.8555  -23.5275   21.9938 H   0  0  0  0  0  0
  -28.6427  -22.8671   18.3577 H   0  0  0  0  0  0
  -30.2343  -22.3858   18.7920 H   0  0  0  0  0  0
  -30.5952  -20.3146   19.9957 H   0  0  0  0  0  0
  -30.5866  -24.1932   17.4465 H   0  0  0  0  0  0
  -31.7633  -25.4092   17.8983 H   0  0  0  0  0  0
  -30.0612  -25.8326   17.8629 H   0  0  0  0  0  0
  -27.3937  -24.6826   20.2122 H   0  0  0  0  0  0
  -28.0583  -25.1305   18.6691 H   0  0  0  0  0  0
  -25.9316  -17.3496   23.3219 H   0  0  0  0  0  0
  -25.8980  -19.0140   22.9496 H   0  0  0  0  0  0
  -29.4779  -14.8377   22.1134 H   0  0  0  0  0  0
  1 25  1  0  0  0
  1 30  2  0  0  0
  1 87  1  0  0  0
  2  3  1  0  0  0
  2 25  1  0  0  0
  2 89  1  0  0  0
  2 90  1  0  0  0
  3  4  1  0  0  0
  3 91  1  0  0  0
  3 92  1  0  0  0
  4  5  1  0  0  0
  4 93  1  0  0  0
  4 94  1  0  0  0
  5  6  1  0  0  0
  5 26  1  0  0  0
  5 95  1  0  0  0
  6 25  1  0  0  0
  6 96  1  0  0  0
  6 97  1  0  0  0
  7  8  2  0  0  0
  7 26  1  0  0  0
  7 29  1  0  0  0
  8  9  1  0  0  0
  8 22  1  0  0  0
  9 10  1  0  0  0
  9 27  2  0  0  0
 10 11  2  0  0  0
 10 15  1  0  0  0
 11 12  1  0  0  0
 11 98  1  0  0  0
 12 13  2  0  0  0
 12 99  1  0  0  0
 13 14  1  0  0  0
 13 31  1  0  0  0
 14 15  2  0  0  0
 14100  1  0  0  0
 15101  1  0  0  0
 16 17  2  0  0  0
 16 21  1  0  0  0
 16 31  1  0  0  0
 17 18  1  0  0  0
 17102  1  0  0  0
 18 19  2  0  0  0
 18103  1  0  0  0
 19 20  1  0  0  0
 19 24  1  0  0  0
 20 21  2  0  0  0
 20104  1  0  0  0
 21 23  1  0  0  0
 22 28  1  0  0  0
 22 32  2  0  0  0
 26 27  1  0  0  0
 28105  1  0  0  0
 28106  1  0  0  0
 29107  1  0  0  0
 29108  1  0  0  0
 33 34  1  0  0  0
 33 66  1  0  0  0
 33 70  2  0  0  0
 34 36  1  0  0  0
 34 59  1  0  0  0
 34109  1  0  0  0
 35 44  2  0  0  0
 35 45  1  0  0  0
 35 68  1  0  0  0
 36 56  1  0  0  0
 36110  1  0  0  0
 37 39  1  0  0  0
 37 47  1  0  0  0
 37 66  1  0  0  0
 37111  1  0  0  0
 38 43  2  0  0  0
 38 46  1  0  0  0
 38 47  1  0  0  0
 39 64  1  0  0  0
 39 67  2  0  0  0
 40 52  1  0  0  0
 40 53  2  0  0  0
 40 58  1  0  0  0
 41112  1  0  0  0
 41113  1  0  0  0
 41114  1  0  0  0
 41 48  1  0  0  0
 42 43  1  0  0  0
 42 66  1  0  0  0
 42115  1  0  0  0
 42116  1  0  0  0
 43 44  1  0  0  0
 44117  1  0  0  0
 45 46  2  0  0  0
 45118  1  0  0  0
 46119  1  0  0  0
 47120  1  0  0  0
 47121  1  0  0  0
 48 56  1  0  0  0
 48 65  1  0  0  0
 48122  1  0  0  0
 49 50  1  0  0  0
 49 53  1  0  0  0
 49 64  1  0  0  0
 49123  1  0  0  0
 50 51  1  0  0  0
 50124  1  0  0  0
 50125  1  0  0  0
 51 52  1  0  0  0
 51126  1  0  0  0
 51127  1  0  0  0
 52128  1  0  0  0
 52129  1  0  0  0
 53 54  1  0  0  0
 54 55  2  0  0  0
 54130  1  0  0  0
 55 57  1  0  0  0
 55131  1  0  0  0
 56 69  2  0  0  0
 57 58  2  0  0  0
 57132  1  0  0  0
 58133  1  0  0  0
 59 60  1  0  0  0
 59 61  1  0  0  0
 59 62  1  0  0  0
 60134  1  0  0  0
 60135  1  0  0  0
 60136  1  0  0  0
 61137  1  0  0  0
 61138  1  0  0  0
 61139  1  0  0  0
 62140  1  0  0  0
 62141  1  0  0  0
 62142  1  0  0  0
 63 65  1  0  0  0
 63143  1  0  0  0
 63144  1  0  0  0
 63145  1  0  0  0
 64146  1  0  0  0
 65147  1  0  0  0
 68 83  1  0  0  0
 71 72  2  0  0  0
 71 73  1  0  0  0
 71148  1  0  0  0
 72 84  1  0  0  0
 72 86  1  0  0  0
 73 85  2  0  0  0
 73 87  1  0  0  0
 74 84  2  0  0  0
 74 85  1  0  0  0
 74 80  1  0  0  0
 75 76  1  0  0  0
 75 78  1  0  0  0
 75149  1  0  0  0
 75150  1  0  0  0
 76 80  1  0  0  0
 76151  1  0  0  0
 76152  1  0  0  0
 77 79  1  0  0  0
 77 80  1  0  0  0
 77153  1  0  0  0
 77154  1  0  0  0
 78 81  1  0  0  0
 78155  1  0  0  0
 78156  1  0  0  0
 79 81  1  0  0  0
 79157  1  0  0  0
 79158  1  0  0  0
 80159  1  0  0  0
 81 83  1  0  0  0
 81 88  1  0  0  0
 82 88  1  0  0  0
 82160  1  0  0  0
 82161  1  0  0  0
 82162  1  0  0  0
 83163  1  0  0  0
 83164  1  0  0  0
 86165  1  0  0  0
 86166  1  0  0  0
 87167  1  0  0  0
M  ISO  4   1 100  68 101  83 101  87 100
M  END
> <chiral flag>
0

> <version>
0

> <s_m_source_file>
/data/baiqing/PycharmProjects/Reinvent-master-3.2/result/LINK_invent/BTK/process_docking_weight1_custom_product_contain_oxygen_bond_distance_aromatic_linkinvent_7_9_3/rearranged_h_0163.sdf

> <i_m_source_file_index>
99

> <r_mmod_Potential_Energy-OPLS-2005>
-383.371978759766

> <r_mmod_Stretch_Energy-OPLS-2005>
81.0876312255859

> <r_mmod_Bend_Energy-OPLS-2005>
181.59504699707

> <r_mmod_Torsional_Energy-OPLS-2005>
252.211944580078

> <r_mmod_Improper_Torsional_Energy-OPLS-2005>
8.54848289489746

> <r_mmod_Van_der_Waal_Energy-OPLS-2005>
155.142990112305

> <r_mmod_Electrostatic_Energy-OPLS-2005>
-851.753784179688

> <r_mmod_Solvation_Energy-OPLS-2005>
-246.473129272461

> <b_mmod_Minimization_Converged-OPLS-2005>
0

> <r_mmod_RMS_Derivative-OPLS-2005>
3.00072479248047

$$$$
