0
                    3D
 Structure written by MMmdl.
147155  0  0  1  0            999 V2000
  -30.5048  -15.0798   20.4006 C   0  0  0  0  0  0
  -30.4400  -12.6750   19.5162 C   0  0  0  0  0  0
  -29.5285  -12.5524   18.2714 C   0  0  0  0  0  0
  -28.0655  -12.3154   18.6882 C   0  0  0  0  0  0
  -27.6228  -13.2617   19.8336 C   0  0  2  0  0  0
  -28.6627  -13.3483   20.9720 C   0  0  0  0  0  0
  -25.2429  -13.8240   20.5731 C   0  0  0  0  0  0
  -24.1764  -13.0441   20.9246 C   0  0  0  0  0  0
  -24.6397  -11.6933   20.8755 C   0  0  0  0  0  0
  -23.9088  -10.4297   21.0403 C   0  0  0  0  0  0
  -24.3636   -9.4210   21.9179 C   0  0  0  0  0  0
  -23.6306   -8.2246   22.0750 C   0  0  0  0  0  0
  -22.4284   -8.0287   21.3543 C   0  0  0  0  0  0
  -21.9925   -9.0261   20.4642 C   0  0  0  0  0  0
  -22.7259  -10.2135   20.3051 C   0  0  0  0  0  0
  -21.6857   -6.0739   22.5281 C   0  0  0  0  0  0
  -21.4018   -6.5642   23.8214 C   0  0  0  0  0  0
  -21.3660   -5.6793   24.9175 C   0  0  0  0  0  0
  -21.6044   -4.3057   24.7224 C   0  0  0  0  0  0
  -21.8817   -3.8148   23.4344 C   0  0  0  0  0  0
  -21.9194   -4.6966   22.3401 C   0  0  0  0  0  0
  -22.7777  -13.5199   21.1898 C   0  0  0  0  0  0
  -22.1662   -4.2151   21.0979 F   0  0  0  0  0  0
  -21.5627   -3.4541   25.7735 F   0  0  0  0  0  0
  -29.9250  -13.7970   20.3672 N   0  0  0  0  0  0
  -26.2857  -12.9492   20.3236 N   0  0  0  0  0  0
  -25.9333  -11.6609   20.5728 N   0  0  0  0  0  0
  -22.0439  -12.8177   22.0455 N   0  0  0  0  0  0
  -25.4075  -15.1975   20.4161 N   0  0  0  0  0  0
  -31.7140  -15.0995   20.1425 O   0  0  0  0  0  0
  -21.6645   -6.8884   21.4242 O   0  0  0  0  0  0
  -22.3452  -14.5500   20.6742 O   0  0  0  0  0  0
  -24.6517  -31.8368   23.1841 C   0  0  0  0  0  0
  -25.9253  -32.4659   23.8255 C   0  0  1  0  0  0
  -27.2047  -27.0320   20.1806 C   0  0  0  0  0  0
  -25.5975  -33.8471   24.2159 N   0  0  0  0  0  0
  -23.4610  -30.4547   21.5309 C   0  0  2  0  0  0
  -24.9136  -28.8689   20.1127 C   0  0  0  0  0  0
  -22.7613  -29.4513   22.4829 C   0  0  0  0  0  0
  -18.0321  -28.1404   22.8464 C   0  0  0  0  0  0
  -24.1493  -36.7239   23.2642 C   0  0  0  0  0  0
  -26.0244  -30.6743   21.4049 C   0  0  0  0  0  0
  -26.0912  -29.2748   20.7529 C   0  0  0  0  0  0
  -27.2353  -28.3730   20.7732 C   0  0  0  0  0  0
  -26.0219  -26.7862   19.4490 C   0  0  0  0  0  0
  -24.8977  -27.6405   19.4403 C   0  0  0  0  0  0
  -23.6960  -29.7834   20.1518 C   0  0  0  0  0  0
  -25.4129  -36.3010   24.0308 C   0  0  1  0  0  0
  -20.5936  -28.3741   23.1212 C   0  0  2  0  0  0
  -20.6811  -26.9438   22.5394 C   0  0  0  0  0  0
  -19.5788  -26.6382   21.5208 C   0  0  0  0  0  0
  -18.1968  -26.7939   22.1613 C   0  0  0  0  0  0
  -19.1575  -28.8891   23.2830 C   0  0  0  0  0  0
  -18.9485  -30.1483   23.8861 C   0  0  0  0  0  0
  -17.6479  -30.6593   24.0557 C   0  0  0  0  0  0
  -25.9084  -34.9390   23.5044 C   0  0  0  0  0  0
  -16.5372  -29.9081   23.6337 C   0  0  0  0  0  0
  -16.7302  -28.6504   23.0352 C   0  0  0  0  0  0
  -26.4545  -31.6559   25.0732 C   0  0  0  0  0  0
  -25.3700  -31.3781   26.1404 C   0  0  0  0  0  0
  -27.0429  -30.2938   24.6396 C   0  0  0  0  0  0
  -27.6057  -32.4345   25.7528 C   0  0  0  0  0  0
  -27.5573  -37.1784   24.8466 C   0  0  0  0  0  0
  -21.4292  -29.3063   22.3582 N   0  0  0  0  0  0
  -26.4288  -37.3731   23.9401 N   0  0  0  0  0  0
  -24.7327  -31.0126   22.0938 N   0  0  0  0  0  0
  -23.4213  -28.8056   23.3011 O   0  0  0  0  0  0
  -28.2197  -25.9702   20.2091 O   0  0  0  0  0  0
  -26.5670  -34.8897   22.4621 O   0  0  0  0  0  0
  -23.5612  -32.1300   23.6992 O   0  0  0  0  0  0
  -29.9134  -17.8382   20.3724 C   0  0  0  0  0  0
  -31.0488  -18.4098   19.8306 C   0  0  0  0  0  0
  -29.4251  -20.3415   20.3395 C   0  0  0  0  0  0
  -28.9413  -23.1043   20.2196 C   0  0  0  0  0  0
  -26.5002  -23.9799   20.5484 C   0  0  0  0  0  0
  -27.9686  -24.4361   20.6445 C   0  0  1  0  0  0
  -29.0062  -19.0116   20.6486 N   0  0  0  0  0  0
  -29.7196  -16.2889   20.5619 N   0  0  0  0  0  0
  -28.6929  -21.7126   20.5480 N   0  0  0  0  0  0
  -29.9572  -23.3752   19.5747 O   0  0  0  0  0  0
  -32.1245  -17.7027   19.4115 F   0  0  0  0  0  0
  -31.0549  -20.1871   19.6565 S   0  0  0  0  0  0
  -31.4696  -12.8442   19.1987 H   0  0  0  0  0  0
  -30.4562  -11.7401   20.0787 H   0  0  0  0  0  0
  -29.8711  -11.7431   17.6249 H   0  0  0  0  0  0
  -29.5957  -13.4670   17.6797 H   0  0  0  0  0  0
  -27.9802  -11.2780   19.0139 H   0  0  0  0  0  0
  -27.4023  -12.4204   17.8283 H   0  0  0  0  0  0
  -27.5659  -14.2510   19.3786 H   0  0  0  0  0  0
  -28.7805  -12.3880   21.4759 H   0  0  0  0  0  0
  -28.3375  -14.0591   21.7330 H   0  0  0  0  0  0
  -25.2778   -9.5685   22.4756 H   0  0  0  0  0  0
  -24.0014   -7.4633   22.7468 H   0  0  0  0  0  0
  -21.0856   -8.8780   19.8944 H   0  0  0  0  0  0
  -22.3718  -10.9674   19.6162 H   0  0  0  0  0  0
  -21.2014   -7.6150   23.9720 H   0  0  0  0  0  0
  -21.1484   -6.0522   25.9079 H   0  0  0  0  0  0
  -22.0596   -2.7610   23.2843 H   0  0  0  0  0  0
  -22.4075  -11.9845   22.4841 H   0  0  0  0  0  0
  -21.1044  -13.1172   22.2661 H   0  0  0  0  0  0
  -24.6337  -15.8444   20.5254 H   0  0  0  0  0  0
  -26.2417  -15.6410   20.0541 H   0  0  0  0  0  0
  -26.7319  -32.5233   23.0978 H   0  0  0  0  0  0
  -25.0117  -33.9576   25.0305 H   0  0  0  0  0  0
  -22.7687  -31.2835   21.3711 H   0  0  0  0  0  0
  -23.3760  -35.9564   23.3292 H   0  0  0  0  0  0
  -24.3570  -36.8887   22.2058 H   0  0  0  0  0  0
  -23.7248  -37.6431   23.6691 H   0  0  0  0  0  0
  -26.1930  -31.4193   20.6262 H   0  0  0  0  0  0
  -26.8901  -30.7296   22.0527 H   0  0  0  0  0  0
  -28.1268  -28.6781   21.3032 H   0  0  0  0  0  0
  -25.9375  -25.8777   18.8758 H   0  0  0  0  0  0
  -24.0137  -27.3366   18.8962 H   0  0  0  0  0  0
  -23.8438  -30.5581   19.3985 H   0  0  0  0  0  0
  -22.8089  -29.2337   19.8329 H   0  0  0  0  0  0
  -25.1323  -36.1835   25.0801 H   0  0  0  0  0  0
  -21.0020  -28.3335   24.1338 H   0  0  0  0  0  0
  -20.5720  -26.2350   23.3615 H   0  0  0  0  0  0
  -21.6677  -26.7449   22.1188 H   0  0  0  0  0  0
  -19.6953  -25.6285   21.1262 H   0  0  0  0  0  0
  -19.6732  -27.3173   20.6723 H   0  0  0  0  0  0
  -17.4240  -26.6675   21.4013 H   0  0  0  0  0  0
  -18.0365  -26.0092   22.9019 H   0  0  0  0  0  0
  -19.7960  -30.7313   24.2213 H   0  0  0  0  0  0
  -17.5030  -31.6265   24.5172 H   0  0  0  0  0  0
  -15.5370  -30.2970   23.7691 H   0  0  0  0  0  0
  -15.8700  -28.0815   22.7083 H   0  0  0  0  0  0
  -24.5886  -30.7124   25.7722 H   0  0  0  0  0  0
  -24.8881  -32.2974   26.4743 H   0  0  0  0  0  0
  -25.7954  -30.9011   27.0240 H   0  0  0  0  0  0
  -26.3077  -29.6638   24.1377 H   0  0  0  0  0  0
  -27.3971  -29.7274   25.5020 H   0  0  0  0  0  0
  -27.9018  -30.4146   23.9790 H   0  0  0  0  0  0
  -27.2634  -33.3669   26.2031 H   0  0  0  0  0  0
  -28.3912  -32.6869   25.0392 H   0  0  0  0  0  0
  -28.0675  -31.8522   26.5511 H   0  0  0  0  0  0
  -28.2590  -38.0081   24.7496 H   0  0  0  0  0  0
  -28.1074  -36.2610   24.6318 H   0  0  0  0  0  0
  -27.2283  -37.1456   25.8867 H   0  0  0  0  0  0
  -20.9516  -29.8764   21.6738 H   0  0  0  0  0  0
  -26.0149  -38.2799   24.1396 H   0  0  0  0  0  0
  -26.1880  -23.8452   19.5138 H   0  0  0  0  0  0
  -25.8252  -24.6771   21.0429 H   0  0  0  0  0  0
  -26.3483  -23.0225   21.0460 H   0  0  0  0  0  0
  -28.1555  -24.4996   21.7171 H   0  0  0  0  0  0
  -28.7729  -16.0615   20.8180 H   0  0  0  0  0  0
  -27.8253  -21.6073   21.0530 H   0  0  0  0  0  0
  1 25  1  0  0  0
  1 30  2  0  0  0
  1 78  1  0  0  0
  2  3  1  0  0  0
  2 25  1  0  0  0
  2 83  1  0  0  0
  2 84  1  0  0  0
  3  4  1  0  0  0
  3 85  1  0  0  0
  3 86  1  0  0  0
  4  5  1  0  0  0
  4 87  1  0  0  0
  4 88  1  0  0  0
  5  6  1  0  0  0
  5 26  1  0  0  0
  5 89  1  0  0  0
  6 25  1  0  0  0
  6 90  1  0  0  0
  6 91  1  0  0  0
  7  8  2  0  0  0
  7 26  1  0  0  0
  7 29  1  0  0  0
  8  9  1  0  0  0
  8 22  1  0  0  0
  9 10  1  0  0  0
  9 27  2  0  0  0
 10 11  2  0  0  0
 10 15  1  0  0  0
 11 12  1  0  0  0
 11 92  1  0  0  0
 12 13  2  0  0  0
 12 93  1  0  0  0
 13 14  1  0  0  0
 13 31  1  0  0  0
 14 15  2  0  0  0
 14 94  1  0  0  0
 15 95  1  0  0  0
 16 17  2  0  0  0
 16 21  1  0  0  0
 16 31  1  0  0  0
 17 18  1  0  0  0
 17 96  1  0  0  0
 18 19  2  0  0  0
 18 97  1  0  0  0
 19 20  1  0  0  0
 19 24  1  0  0  0
 20 21  2  0  0  0
 20 98  1  0  0  0
 21 23  1  0  0  0
 22 28  1  0  0  0
 22 32  2  0  0  0
 26 27  1  0  0  0
 28 99  1  0  0  0
 28100  1  0  0  0
 29101  1  0  0  0
 29102  1  0  0  0
 33 34  1  0  0  0
 33 66  1  0  0  0
 33 70  2  0  0  0
 34 36  1  0  0  0
 34 59  1  0  0  0
 34103  1  0  0  0
 35 44  2  0  0  0
 35 45  1  0  0  0
 35 68  1  0  0  0
 36 56  1  0  0  0
 36104  1  0  0  0
 37 39  1  0  0  0
 37 47  1  0  0  0
 37 66  1  0  0  0
 37105  1  0  0  0
 38 43  2  0  0  0
 38 46  1  0  0  0
 38 47  1  0  0  0
 39 64  1  0  0  0
 39 67  2  0  0  0
 40 52  1  0  0  0
 40 53  2  0  0  0
 40 58  1  0  0  0
 41106  1  0  0  0
 41107  1  0  0  0
 41108  1  0  0  0
 41 48  1  0  0  0
 42 43  1  0  0  0
 42 66  1  0  0  0
 42109  1  0  0  0
 42110  1  0  0  0
 43 44  1  0  0  0
 44111  1  0  0  0
 45 46  2  0  0  0
 45112  1  0  0  0
 46113  1  0  0  0
 47114  1  0  0  0
 47115  1  0  0  0
 48 56  1  0  0  0
 48 65  1  0  0  0
 48116  1  0  0  0
 49 50  1  0  0  0
 49 53  1  0  0  0
 49 64  1  0  0  0
 49117  1  0  0  0
 50 51  1  0  0  0
 50118  1  0  0  0
 50119  1  0  0  0
 51 52  1  0  0  0
 51120  1  0  0  0
 51121  1  0  0  0
 52122  1  0  0  0
 52123  1  0  0  0
 53 54  1  0  0  0
 54 55  2  0  0  0
 54124  1  0  0  0
 55 57  1  0  0  0
 55125  1  0  0  0
 56 69  2  0  0  0
 57 58  2  0  0  0
 57126  1  0  0  0
 58127  1  0  0  0
 59 60  1  0  0  0
 59 61  1  0  0  0
 59 62  1  0  0  0
 60128  1  0  0  0
 60129  1  0  0  0
 60130  1  0  0  0
 61131  1  0  0  0
 61132  1  0  0  0
 61133  1  0  0  0
 62134  1  0  0  0
 62135  1  0  0  0
 62136  1  0  0  0
 63 65  1  0  0  0
 63137  1  0  0  0
 63138  1  0  0  0
 63139  1  0  0  0
 64140  1  0  0  0
 65141  1  0  0  0
 68 76  1  0  0  0
 71 72  2  0  0  0
 71 77  1  0  0  0
 71 78  1  0  0  0
 72 81  1  0  0  0
 72 82  1  0  0  0
 73 77  2  0  0  0
 73 79  1  0  0  0
 73 82  1  0  0  0
 74 76  1  0  0  0
 74 79  1  0  0  0
 74 80  2  0  0  0
 75142  1  0  0  0
 75143  1  0  0  0
 75144  1  0  0  0
 75 76  1  0  0  0
 76145  1  0  0  0
 78146  1  0  0  0
 79147  1  0  0  0
M  ISO  4   1 100  68 101  76 101  78 100
M  END
> <chiral flag>
0

> <version>
0

> <s_m_source_file>
/data/baiqing/PycharmProjects/Reinvent-master-3.2/result/LINK_invent/BTK/process_docking_weight1_custom_product_contain_oxygen_bond_distance_aromatic_linkinvent_7_9_3/rearranged_h_0184.sdf

> <i_m_source_file_index>
1

> <r_mmod_Potential_Energy-OPLS-2005>
645.838989257812

> <r_mmod_Stretch_Energy-OPLS-2005>
363.397735595703

> <r_mmod_Bend_Energy-OPLS-2005>
308.082794189453

> <r_mmod_Torsional_Energy-OPLS-2005>
237.939010620117

> <r_mmod_Improper_Torsional_Energy-OPLS-2005>
3.3632276058197

> <r_mmod_Van_der_Waal_Energy-OPLS-2005>
116.069290161133

> <r_mmod_Electrostatic_Energy-OPLS-2005>
-426.934600830078

> <r_mmod_Solvation_Energy-OPLS-2005>
-250.868179321289

> <b_mmod_Minimization_Converged-OPLS-2005>
0

> <r_mmod_RMS_Derivative-OPLS-2005>
0.887840628623962

$$$$
1
                    3D
 Structure written by MMmdl.
163171  0  0  1  0            999 V2000
  -30.5933  -14.7255   20.4712 C   0  0  0  0  0  0
  -30.4408  -12.4411   19.4725 C   0  0  0  0  0  0
  -29.5137  -12.5113   18.2374 C   0  0  0  0  0  0
  -28.0387  -12.3356   18.6490 C   0  0  0  0  0  0
  -27.6486  -13.2247   19.8594 C   0  0  2  0  0  0
  -28.6920  -13.1248   20.9948 C   0  0  0  0  0  0
  -25.2542  -13.8184   20.5693 C   0  0  0  0  0  0
  -24.1819  -13.0440   20.9196 C   0  0  0  0  0  0
  -24.6398  -11.6913   20.8742 C   0  0  0  0  0  0
  -23.9070  -10.4293   21.0406 C   0  0  0  0  0  0
  -24.3620   -9.4207   21.9184 C   0  0  0  0  0  0
  -23.6294   -8.2244   22.0755 C   0  0  0  0  0  0
  -22.4275   -8.0281   21.3545 C   0  0  0  0  0  0
  -21.9911   -9.0256   20.4648 C   0  0  0  0  0  0
  -22.7242  -10.2135   20.3056 C   0  0  0  0  0  0
  -21.6853   -6.0734   22.5278 C   0  0  0  0  0  0
  -21.4014   -6.5639   23.8212 C   0  0  0  0  0  0
  -21.3659   -5.6792   24.9174 C   0  0  0  0  0  0
  -21.6043   -4.3055   24.7224 C   0  0  0  0  0  0
  -21.8819   -3.8146   23.4347 C   0  0  0  0  0  0
  -21.9193   -4.6962   22.3402 C   0  0  0  0  0  0
  -22.7840  -13.5228   21.1856 C   0  0  0  0  0  0
  -22.1662   -4.2148   21.0980 F   0  0  0  0  0  0
  -21.5628   -3.4539   25.7737 F   0  0  0  0  0  0
  -30.0000  -13.4836   20.4272 N   0  0  0  0  0  0
  -26.2969  -12.9378   20.3307 N   0  0  0  0  0  0
  -25.9329  -11.6527   20.5757 N   0  0  0  0  0  0
  -22.0485  -12.8219   22.0412 N   0  0  0  0  0  0
  -25.4254  -15.1907   20.4114 N   0  0  0  0  0  0
  -31.7597  -14.8701   20.0911 O   0  0  0  0  0  0
  -21.6641   -6.8877   21.4240 O   0  0  0  0  0  0
  -22.3527  -14.5535   20.6703 O   0  0  0  0  0  0
  -24.6307  -31.8551   23.1985 C   0  0  0  0  0  0
  -25.9136  -32.4754   23.8326 C   0  0  1  0  0  0
  -27.2215  -27.2647   20.1208 C   0  0  0  0  0  0
  -25.5933  -33.8557   24.2247 N   0  0  0  0  0  0
  -23.4270  -30.4787   21.5420 C   0  0  2  0  0  0
  -24.8731  -28.9274   20.1086 C   0  0  0  0  0  0
  -22.7499  -29.4602   22.4910 C   0  0  0  0  0  0
  -18.0290  -28.1388   22.8483 C   0  0  0  0  0  0
  -24.1490  -36.7280   23.2641 C   0  0  0  0  0  0
  -25.9730  -30.7684   21.3783 C   0  0  0  0  0  0
  -26.0446  -29.3919   20.7188 C   0  0  0  0  0  0
  -27.2187  -28.5727   20.7145 C   0  0  0  0  0  0
  -26.0237  -26.8702   19.4800 C   0  0  0  0  0  0
  -24.8682  -27.6745   19.4789 C   0  0  0  0  0  0
  -23.6444  -29.8141   20.1574 C   0  0  0  0  0  0
  -25.4118  -36.3067   24.0325 C   0  0  1  0  0  0
  -20.5895  -28.3698   23.1268 C   0  0  2  0  0  0
  -20.6781  -26.9417   22.5407 C   0  0  0  0  0  0
  -19.5758  -26.6383   21.5211 C   0  0  0  0  0  0
  -18.1936  -26.7930   22.1622 C   0  0  0  0  0  0
  -19.1544  -28.8860   23.2871 C   0  0  0  0  0  0
  -18.9469  -30.1461   23.8890 C   0  0  0  0  0  0
  -17.6469  -30.6591   24.0564 C   0  0  0  0  0  0
  -25.9059  -34.9440   23.5088 C   0  0  0  0  0  0
  -16.5359  -29.9090   23.6333 C   0  0  0  0  0  0
  -16.7277  -28.6508   23.0351 C   0  0  0  0  0  0
  -26.4504  -31.6584   25.0718 C   0  0  0  0  0  0
  -25.3726  -31.3736   26.1439 C   0  0  0  0  0  0
  -27.0356  -30.3002   24.6209 C   0  0  0  0  0  0
  -27.6054  -32.4331   25.7491 C   0  0  0  0  0  0
  -27.5579  -37.1792   24.8464 C   0  0  0  0  0  0
  -21.4206  -29.3045   22.3656 N   0  0  0  0  0  0
  -26.4287  -37.3771   23.9414 N   0  0  0  0  0  0
  -24.6961  -31.0520   22.0958 N   0  0  0  0  0  0
  -23.4202  -28.8142   23.3006 O   0  0  0  0  0  0
  -28.3320  -26.3878   20.1956 O   0  0  0  0  0  0
  -26.5634  -34.8918   22.4658 O   0  0  0  0  0  0
  -23.5458  -32.1370   23.7283 O   0  0  0  0  0  0
  -30.7273  -17.9264   19.7630 C   0  0  0  0  0  0
  -30.4876  -19.3615   19.7471 C   0  0  0  0  0  0
  -29.4616  -19.8345   20.5373 C   0  0  0  0  0  0
  -29.8871  -17.1871   20.5794 C   0  0  0  0  0  0
  -28.9300  -21.2397   20.9310 C   0  0  0  0  0  0
  -31.1132  -23.5756   23.1864 C   0  0  0  0  0  0
  -32.9714  -24.1394   21.5790 C   0  0  0  0  0  0
  -28.4879  -24.7925   18.3430 C   0  0  0  0  0  0
  -30.5687  -24.3997   20.8184 C   0  0  0  0  0  0
  -31.5420  -23.5911   21.7097 C   0  0  0  0  0  0
  -29.1236  -23.8540   20.6846 C   0  0  1  0  0  0
  -28.2298  -24.9223   19.8541 C   0  0  1  0  0  0
  -29.7908  -15.8025   20.8100 N   0  0  0  0  0  0
  -29.1979  -22.3923   20.2161 N   0  0  0  0  0  0
  -28.2511  -21.3285   21.9559 O   0  0  0  0  0  0
  -31.2390  -20.1586   19.0208 F   0  0  0  0  0  0
  -28.7822  -18.3815   21.3351 S   0  0  0  0  0  0
  -31.4809  -12.5740   19.1696 H   0  0  0  0  0  0
  -30.3905  -11.4555   19.9378 H   0  0  0  0  0  0
  -29.7927  -11.7455   17.5121 H   0  0  0  0  0  0
  -29.6424  -13.4709   17.7340 H   0  0  0  0  0  0
  -27.8916  -11.2849   18.9020 H   0  0  0  0  0  0
  -27.3817  -12.5379   17.8023 H   0  0  0  0  0  0
  -27.6533  -14.2521   19.4949 H   0  0  0  0  0  0
  -28.7208  -12.1144   21.4052 H   0  0  0  0  0  0
  -28.4243  -13.7779   21.8267 H   0  0  0  0  0  0
  -25.2766   -9.5682   22.4759 H   0  0  0  0  0  0
  -24.0000   -7.4635   22.7475 H   0  0  0  0  0  0
  -21.0842   -8.8777   19.8955 H   0  0  0  0  0  0
  -22.3702  -10.9673   19.6165 H   0  0  0  0  0  0
  -21.2008   -7.6148   23.9714 H   0  0  0  0  0  0
  -21.1481   -6.0524   25.9076 H   0  0  0  0  0  0
  -22.0599   -2.7608   23.2847 H   0  0  0  0  0  0
  -22.4101  -11.9880   22.4796 H   0  0  0  0  0  0
  -21.1105  -13.1247   22.2621 H   0  0  0  0  0  0
  -24.6573  -15.8442   20.5194 H   0  0  0  0  0  0
  -26.2712  -15.6294   20.0703 H   0  0  0  0  0  0
  -26.7198  -32.5400   23.1062 H   0  0  0  0  0  0
  -25.0082  -33.9696   25.0394 H   0  0  0  0  0  0
  -22.7234  -31.3009   21.3970 H   0  0  0  0  0  0
  -23.3759  -35.9606   23.3294 H   0  0  0  0  0  0
  -24.3582  -36.8911   22.2057 H   0  0  0  0  0  0
  -23.7235  -37.6474   23.6674 H   0  0  0  0  0  0
  -26.1131  -31.5298   20.6097 H   0  0  0  0  0  0
  -26.8502  -30.8149   22.0122 H   0  0  0  0  0  0
  -28.1146  -28.9234   21.2074 H   0  0  0  0  0  0
  -25.9409  -25.9182   18.9803 H   0  0  0  0  0  0
  -23.9719  -27.3145   18.9922 H   0  0  0  0  0  0
  -23.7689  -30.5912   19.4023 H   0  0  0  0  0  0
  -22.7626  -29.2481   19.8521 H   0  0  0  0  0  0
  -25.1300  -36.1906   25.0817 H   0  0  0  0  0  0
  -20.9987  -28.3276   24.1389 H   0  0  0  0  0  0
  -20.5680  -26.2309   23.3611 H   0  0  0  0  0  0
  -21.6649  -26.7442   22.1201 H   0  0  0  0  0  0
  -19.6923  -25.6294   21.1243 H   0  0  0  0  0  0
  -19.6697  -27.3193   20.6742 H   0  0  0  0  0  0
  -17.4206  -26.6675   21.4024 H   0  0  0  0  0  0
  -18.0339  -26.0072   22.9018 H   0  0  0  0  0  0
  -19.7947  -30.7277   24.2253 H   0  0  0  0  0  0
  -17.5027  -31.6271   24.5167 H   0  0  0  0  0  0
  -15.5360  -30.2994   23.7665 H   0  0  0  0  0  0
  -15.8675  -28.0830   22.7069 H   0  0  0  0  0  0
  -24.5910  -30.7074   25.7768 H   0  0  0  0  0  0
  -24.8911  -32.2907   26.4844 H   0  0  0  0  0  0
  -25.8043  -30.8929   27.0226 H   0  0  0  0  0  0
  -26.2943  -29.6740   24.1231 H   0  0  0  0  0  0
  -27.4037  -29.7273   25.4729 H   0  0  0  0  0  0
  -27.8820  -30.4277   23.9456 H   0  0  0  0  0  0
  -27.2662  -33.3643   26.2042 H   0  0  0  0  0  0
  -28.3880  -32.6869   25.0328 H   0  0  0  0  0  0
  -28.0708  -31.8473   26.5427 H   0  0  0  0  0  0
  -28.2585  -38.0102   24.7526 H   0  0  0  0  0  0
  -28.1083  -36.2631   24.6267 H   0  0  0  0  0  0
  -27.2300  -37.1413   25.8867 H   0  0  0  0  0  0
  -20.9388  -29.8767   21.6863 H   0  0  0  0  0  0
  -26.0159  -38.2837   24.1432 H   0  0  0  0  0  0
  -31.5144  -17.4972   19.1605 H   0  0  0  0  0  0
  -31.8286  -23.0231   23.7966 H   0  0  0  0  0  0
  -30.1446  -23.0943   23.3209 H   0  0  0  0  0  0
  -31.0435  -24.5855   23.5924 H   0  0  0  0  0  0
  -33.6752  -23.5565   22.1744 H   0  0  0  0  0  0
  -33.0341  -25.1760   21.9125 H   0  0  0  0  0  0
  -33.3161  -24.1027   20.5446 H   0  0  0  0  0  0
  -28.3275  -23.7708   17.9991 H   0  0  0  0  0  0
  -29.5099  -25.0732   18.0905 H   0  0  0  0  0  0
  -27.8262  -25.4335   17.7626 H   0  0  0  0  0  0
  -30.9984  -24.4755   19.8192 H   0  0  0  0  0  0
  -30.5269  -25.4238   21.1920 H   0  0  0  0  0  0
  -31.5734  -22.5598   21.3570 H   0  0  0  0  0  0
  -28.6951  -23.8499   21.6873 H   0  0  0  0  0  0
  -27.2084  -24.5971   20.0467 H   0  0  0  0  0  0
  -28.9168  -15.5124   21.2231 H   0  0  0  0  0  0
  -29.6974  -22.2513   19.3481 H   0  0  0  0  0  0
  1 25  1  0  0  0
  1 30  2  0  0  0
  1 83  1  0  0  0
  2  3  1  0  0  0
  2 25  1  0  0  0
  2 88  1  0  0  0
  2 89  1  0  0  0
  3  4  1  0  0  0
  3 90  1  0  0  0
  3 91  1  0  0  0
  4  5  1  0  0  0
  4 92  1  0  0  0
  4 93  1  0  0  0
  5  6  1  0  0  0
  5 26  1  0  0  0
  5 94  1  0  0  0
  6 25  1  0  0  0
  6 95  1  0  0  0
  6 96  1  0  0  0
  7  8  2  0  0  0
  7 26  1  0  0  0
  7 29  1  0  0  0
  8  9  1  0  0  0
  8 22  1  0  0  0
  9 10  1  0  0  0
  9 27  2  0  0  0
 10 11  2  0  0  0
 10 15  1  0  0  0
 11 12  1  0  0  0
 11 97  1  0  0  0
 12 13  2  0  0  0
 12 98  1  0  0  0
 13 14  1  0  0  0
 13 31  1  0  0  0
 14 15  2  0  0  0
 14 99  1  0  0  0
 15100  1  0  0  0
 16 17  2  0  0  0
 16 21  1  0  0  0
 16 31  1  0  0  0
 17 18  1  0  0  0
 17101  1  0  0  0
 18 19  2  0  0  0
 18102  1  0  0  0
 19 20  1  0  0  0
 19 24  1  0  0  0
 20 21  2  0  0  0
 20103  1  0  0  0
 21 23  1  0  0  0
 22 28  1  0  0  0
 22 32  2  0  0  0
 26 27  1  0  0  0
 28104  1  0  0  0
 28105  1  0  0  0
 29106  1  0  0  0
 29107  1  0  0  0
 33 34  1  0  0  0
 33 66  1  0  0  0
 33 70  2  0  0  0
 34 36  1  0  0  0
 34 59  1  0  0  0
 34108  1  0  0  0
 35 44  2  0  0  0
 35 45  1  0  0  0
 35 68  1  0  0  0
 36 56  1  0  0  0
 36109  1  0  0  0
 37 39  1  0  0  0
 37 47  1  0  0  0
 37 66  1  0  0  0
 37110  1  0  0  0
 38 43  2  0  0  0
 38 46  1  0  0  0
 38 47  1  0  0  0
 39 64  1  0  0  0
 39 67  2  0  0  0
 40 52  1  0  0  0
 40 53  2  0  0  0
 40 58  1  0  0  0
 41111  1  0  0  0
 41112  1  0  0  0
 41113  1  0  0  0
 41 48  1  0  0  0
 42 43  1  0  0  0
 42 66  1  0  0  0
 42114  1  0  0  0
 42115  1  0  0  0
 43 44  1  0  0  0
 44116  1  0  0  0
 45 46  2  0  0  0
 45117  1  0  0  0
 46118  1  0  0  0
 47119  1  0  0  0
 47120  1  0  0  0
 48 56  1  0  0  0
 48 65  1  0  0  0
 48121  1  0  0  0
 49 50  1  0  0  0
 49 53  1  0  0  0
 49 64  1  0  0  0
 49122  1  0  0  0
 50 51  1  0  0  0
 50123  1  0  0  0
 50124  1  0  0  0
 51 52  1  0  0  0
 51125  1  0  0  0
 51126  1  0  0  0
 52127  1  0  0  0
 52128  1  0  0  0
 53 54  1  0  0  0
 54 55  2  0  0  0
 54129  1  0  0  0
 55 57  1  0  0  0
 55130  1  0  0  0
 56 69  2  0  0  0
 57 58  2  0  0  0
 57131  1  0  0  0
 58132  1  0  0  0
 59 60  1  0  0  0
 59 61  1  0  0  0
 59 62  1  0  0  0
 60133  1  0  0  0
 60134  1  0  0  0
 60135  1  0  0  0
 61136  1  0  0  0
 61137  1  0  0  0
 61138  1  0  0  0
 62139  1  0  0  0
 62140  1  0  0  0
 62141  1  0  0  0
 63 65  1  0  0  0
 63142  1  0  0  0
 63143  1  0  0  0
 63144  1  0  0  0
 64145  1  0  0  0
 65146  1  0  0  0
 68 82  1  0  0  0
 71 72  1  0  0  0
 71 74  2  0  0  0
 71147  1  0  0  0
 72 73  2  0  0  0
 72 86  1  0  0  0
 73 75  1  0  0  0
 73 87  1  0  0  0
 74 83  1  0  0  0
 74 87  1  0  0  0
 75 84  1  0  0  0
 75 85  2  0  0  0
 76148  1  0  0  0
 76149  1  0  0  0
 76150  1  0  0  0
 76 80  1  0  0  0
 77 80  1  0  0  0
 77151  1  0  0  0
 77152  1  0  0  0
 77153  1  0  0  0
 78154  1  0  0  0
 78155  1  0  0  0
 78156  1  0  0  0
 78 82  1  0  0  0
 79 80  1  0  0  0
 79157  1  0  0  0
 79158  1  0  0  0
 79 81  1  0  0  0
 80159  1  0  0  0
 81 82  1  0  0  0
 81 84  1  0  0  0
 81160  1  0  0  0
 82161  1  0  0  0
 83162  1  0  0  0
 84163  1  0  0  0
M  ISO  4   1 100  68 101  82 101  83 100
M  END
> <chiral flag>
0

> <version>
0

> <s_m_source_file>
/data/baiqing/PycharmProjects/Reinvent-master-3.2/result/LINK_invent/BTK/process_docking_weight1_custom_product_contain_oxygen_bond_distance_aromatic_linkinvent_7_9_3/rearranged_h_0184.sdf

> <i_m_source_file_index>
2

> <r_mmod_Potential_Energy-OPLS-2005>
90.9604110717773

> <r_mmod_Stretch_Energy-OPLS-2005>
112.73314666748

> <r_mmod_Bend_Energy-OPLS-2005>
170.693923950195

> <r_mmod_Torsional_Energy-OPLS-2005>
238.579849243164

> <r_mmod_Improper_Torsional_Energy-OPLS-2005>
4.48147583007812

> <r_mmod_Van_der_Waal_Energy-OPLS-2005>
115.81177520752

> <r_mmod_Electrostatic_Energy-OPLS-2005>
-413.226806640625

> <r_mmod_Solvation_Energy-OPLS-2005>
-216.292938232422

> <b_mmod_Minimization_Converged-OPLS-2005>
0

> <r_mmod_RMS_Derivative-OPLS-2005>
0.420176386833191

$$$$
2
                    3D
 Structure written by MMmdl.
159167  0  0  1  0            999 V2000
  -30.6252  -14.5564   20.5827 C   0  0  0  0  0  0
  -30.4289  -12.3515   19.4548 C   0  0  0  0  0  0
  -29.5088  -12.5242   18.2262 C   0  0  0  0  0  0
  -28.0274  -12.3691   18.6244 C   0  0  0  0  0  0
  -27.6564  -13.2085   19.8764 C   0  0  2  0  0  0
  -28.6876  -12.9958   21.0056 C   0  0  0  0  0  0
  -25.2545  -13.8153   20.5681 C   0  0  0  0  0  0
  -24.1803  -13.0421   20.9188 C   0  0  0  0  0  0
  -24.6362  -11.6893   20.8711 C   0  0  0  0  0  0
  -23.9031  -10.4279   21.0376 C   0  0  0  0  0  0
  -24.3602   -9.4203   21.9169 C   0  0  0  0  0  0
  -23.6290   -8.2235   22.0732 C   0  0  0  0  0  0
  -22.4268   -8.0280   21.3530 C   0  0  0  0  0  0
  -21.9901   -9.0222   20.4607 C   0  0  0  0  0  0
  -22.7206  -10.2110   20.3011 C   0  0  0  0  0  0
  -21.6849   -6.0730   22.5273 C   0  0  0  0  0  0
  -21.4004   -6.5618   23.8211 C   0  0  0  0  0  0
  -21.3668   -5.6774   24.9175 C   0  0  0  0  0  0
  -21.6057   -4.3038   24.7209 C   0  0  0  0  0  0
  -21.8816   -3.8133   23.4324 C   0  0  0  0  0  0
  -21.9187   -4.6959   22.3388 C   0  0  0  0  0  0
  -22.7831  -13.5210   21.1872 C   0  0  0  0  0  0
  -22.1662   -4.2142   21.0963 F   0  0  0  0  0  0
  -21.5640   -3.4528   25.7716 F   0  0  0  0  0  0
  -30.0159  -13.3372   20.4722 N   0  0  0  0  0  0
  -26.2969  -12.9332   20.3317 N   0  0  0  0  0  0
  -25.9278  -11.6486   20.5703 N   0  0  0  0  0  0
  -22.0473  -12.8181   22.0421 N   0  0  0  0  0  0
  -25.4275  -15.1874   20.4116 N   0  0  0  0  0  0
  -31.7470  -14.7653   20.1066 O   0  0  0  0  0  0
  -21.6638   -6.8872   21.4239 O   0  0  0  0  0  0
  -22.3529  -14.5530   20.6738 O   0  0  0  0  0  0
  -24.6181  -31.8630   23.2054 C   0  0  0  0  0  0
  -25.9053  -32.4793   23.8364 C   0  0  1  0  0  0
  -27.2348  -27.3697   20.1127 C   0  0  0  0  0  0
  -25.5873  -33.8598   24.2277 N   0  0  0  0  0  0
  -23.4116  -30.4827   21.5470 C   0  0  2  0  0  0
  -24.8607  -28.9452   20.1078 C   0  0  0  0  0  0
  -22.7453  -29.4622   22.4977 C   0  0  0  0  0  0
  -18.0258  -28.1389   22.8492 C   0  0  0  0  0  0
  -24.1480  -36.7313   23.2646 C   0  0  0  0  0  0
  -25.9459  -30.8090   21.3704 C   0  0  0  0  0  0
  -26.0209  -29.4409   20.7129 C   0  0  0  0  0  0
  -27.2056  -28.6584   20.7140 C   0  0  0  0  0  0
  -26.0543  -26.9107   19.4858 C   0  0  0  0  0  0
  -24.8765  -27.6832   19.4896 C   0  0  0  0  0  0
  -23.6219  -29.8131   20.1613 C   0  0  0  0  0  0
  -25.4109  -36.3094   24.0331 C   0  0  1  0  0  0
  -20.5863  -28.3677   23.1322 C   0  0  2  0  0  0
  -20.6755  -26.9405   22.5440 C   0  0  0  0  0  0
  -19.5733  -26.6385   21.5236 C   0  0  0  0  0  0
  -18.1909  -26.7931   22.1638 C   0  0  0  0  0  0
  -19.1508  -28.8851   23.2889 C   0  0  0  0  0  0
  -18.9442  -30.1457   23.8901 C   0  0  0  0  0  0
  -17.6446  -30.6600   24.0562 C   0  0  0  0  0  0
  -25.9053  -34.9469   23.5122 C   0  0  0  0  0  0
  -16.5332  -29.9108   23.6327 C   0  0  0  0  0  0
  -16.7241  -28.6527   23.0342 C   0  0  0  0  0  0
  -26.4437  -31.6619   25.0752 C   0  0  0  0  0  0
  -25.3653  -31.3737   26.1451 C   0  0  0  0  0  0
  -27.0324  -30.3065   24.6228 C   0  0  0  0  0  0
  -27.6005  -32.4361   25.7508 C   0  0  0  0  0  0
  -27.5577  -37.1807   24.8440 C   0  0  0  0  0  0
  -21.4169  -29.3033   22.3726 N   0  0  0  0  0  0
  -26.4267  -37.3810   23.9409 N   0  0  0  0  0  0
  -24.6771  -31.0683   22.0980 N   0  0  0  0  0  0
  -23.4203  -28.8155   23.3033 O   0  0  0  0  0  0
  -28.3937  -26.5990   20.1900 O   0  0  0  0  0  0
  -26.5666  -34.8927   22.4711 O   0  0  0  0  0  0
  -23.5365  -32.1405   23.7418 O   0  0  0  0  0  0
  -29.6104  -19.4695   21.2834 C   0  0  0  0  0  0
  -30.2191  -19.0224   20.1307 C   0  0  0  0  0  0
  -29.8942  -16.9593   21.0648 C   0  0  0  0  0  0
  -28.4331  -23.1533   21.1589 C   0  0  0  0  0  0
  -30.0416  -25.0882   19.2931 C   0  0  0  0  0  0
  -31.3552  -20.3794   23.5328 C   0  0  0  0  0  0
  -27.8068  -24.0285   20.0325 C   0  0  0  0  0  0
  -29.4686  -20.9082   21.8213 C   0  0  1  0  0  0
  -28.5357  -25.3266   19.4930 C   0  0  1  0  0  0
  -30.7981  -21.3711   22.4968 C   0  0  0  0  0  0
  -30.3867  -17.6255   20.0129 N   0  0  0  0  0  0
  -29.8823  -15.5209   21.1934 N   0  0  0  0  0  0
  -28.9710  -21.9372   20.8585 N   0  0  0  0  0  0
  -28.3311  -23.5540   22.3197 O   0  0  0  0  0  0
  -30.6575  -19.8419   19.2047 F   0  0  0  0  0  0
  -30.6504  -22.5257   23.1450 F   0  0  0  0  0  0
  -31.7279  -21.5488   21.5569 F   0  0  0  0  0  0
  -29.1334  -18.0592   22.2400 S   0  0  0  0  0  0
  -31.4757  -12.4635   19.1726 H   0  0  0  0  0  0
  -30.3423  -11.3385   19.8529 H   0  0  0  0  0  0
  -29.7721  -11.8001   17.4536 H   0  0  0  0  0  0
  -29.6694  -13.5103   17.7876 H   0  0  0  0  0  0
  -27.8446  -11.3123   18.8191 H   0  0  0  0  0  0
  -27.3820  -12.6355   17.7865 H   0  0  0  0  0  0
  -27.6953  -14.2560   19.5765 H   0  0  0  0  0  0
  -28.6772  -11.9529   21.3264 H   0  0  0  0  0  0
  -28.4231  -13.5706   21.8945 H   0  0  0  0  0  0
  -25.2740   -9.5698   22.4758 H   0  0  0  0  0  0
  -24.0002   -7.4622   22.7442 H   0  0  0  0  0  0
  -21.0840   -8.8692   19.8907 H   0  0  0  0  0  0
  -22.3644  -10.9637   19.6115 H   0  0  0  0  0  0
  -21.1987   -7.6122   23.9716 H   0  0  0  0  0  0
  -21.1522   -6.0498   25.9083 H   0  0  0  0  0  0
  -22.0599   -2.7598   23.2805 H   0  0  0  0  0  0
  -22.4054  -11.9801   22.4756 H   0  0  0  0  0  0
  -21.1078  -13.1185   22.2592 H   0  0  0  0  0  0
  -24.6548  -15.8371   20.5089 H   0  0  0  0  0  0
  -26.2720  -15.6264   20.0674 H   0  0  0  0  0  0
  -26.7143  -32.5464   23.1135 H   0  0  0  0  0  0
  -24.9868  -33.9714   25.0303 H   0  0  0  0  0  0
  -22.7041  -31.3012   21.4060 H   0  0  0  0  0  0
  -23.3749  -35.9634   23.3266 H   0  0  0  0  0  0
  -24.3581  -36.8984   22.2071 H   0  0  0  0  0  0
  -23.7204  -37.6493   23.6699 H   0  0  0  0  0  0
  -26.0746  -31.5777   20.6067 H   0  0  0  0  0  0
  -26.8271  -30.8533   22.0004 H   0  0  0  0  0  0
  -28.0959  -29.0348   21.1993 H   0  0  0  0  0  0
  -26.0107  -25.9445   19.0050 H   0  0  0  0  0  0
  -23.9843  -27.2960   19.0179 H   0  0  0  0  0  0
  -23.7232  -30.5857   19.3988 H   0  0  0  0  0  0
  -22.7456  -29.2298   19.8722 H   0  0  0  0  0  0
  -25.1284  -36.1960   25.0829 H   0  0  0  0  0  0
  -20.9919  -28.3239   24.1450 H   0  0  0  0  0  0
  -20.5667  -26.2289   23.3632 H   0  0  0  0  0  0
  -21.6627  -26.7463   22.1215 H   0  0  0  0  0  0
  -19.6906  -25.6306   21.1244 H   0  0  0  0  0  0
  -19.6677  -27.3218   20.6786 H   0  0  0  0  0  0
  -17.4186  -26.6661   21.4033 H   0  0  0  0  0  0
  -18.0296  -26.0068   22.9031 H   0  0  0  0  0  0
  -19.7917  -30.7257   24.2294 H   0  0  0  0  0  0
  -17.5002  -31.6268   24.5178 H   0  0  0  0  0  0
  -15.5339  -30.3016   23.7673 H   0  0  0  0  0  0
  -15.8620  -28.0858   22.7078 H   0  0  0  0  0  0
  -24.5782  -30.7171   25.7718 H   0  0  0  0  0  0
  -24.8871  -32.2895   26.4953 H   0  0  0  0  0  0
  -25.7911  -30.8801   27.0190 H   0  0  0  0  0  0
  -26.2946  -29.6801   24.1208 H   0  0  0  0  0  0
  -27.3975  -29.7353   25.4774 H   0  0  0  0  0  0
  -27.8808  -30.4383   23.9509 H   0  0  0  0  0  0
  -27.2626  -33.3647   26.2118 H   0  0  0  0  0  0
  -28.3781  -32.6952   25.0315 H   0  0  0  0  0  0
  -28.0706  -31.8459   26.5378 H   0  0  0  0  0  0
  -28.2556  -38.0145   24.7568 H   0  0  0  0  0  0
  -28.1103  -36.2687   24.6156 H   0  0  0  0  0  0
  -27.2299  -37.1322   25.8836 H   0  0  0  0  0  0
  -20.9364  -29.8765   21.6930 H   0  0  0  0  0  0
  -26.0147  -38.2874   24.1450 H   0  0  0  0  0  0
  -30.2202  -24.1812   18.7139 H   0  0  0  0  0  0
  -30.5649  -24.9825   20.2439 H   0  0  0  0  0  0
  -30.5032  -25.9134   18.7536 H   0  0  0  0  0  0
  -30.6116  -20.1509   24.2954 H   0  0  0  0  0  0
  -32.2267  -20.7905   24.0399 H   0  0  0  0  0  0
  -31.6631  -19.4393   23.0778 H   0  0  0  0  0  0
  -26.8068  -24.2961   20.3719 H   0  0  0  0  0  0
  -27.6394  -23.3640   19.1825 H   0  0  0  0  0  0
  -28.7189  -20.8673   22.6152 H   0  0  0  0  0  0
  -28.1486  -25.4921   18.4864 H   0  0  0  0  0  0
  -29.1015  -15.1629   21.7208 H   0  0  0  0  0  0
  -29.0347  -21.6886   19.8822 H   0  0  0  0  0  0
  1 25  1  0  0  0
  1 30  2  0  0  0
  1 82  1  0  0  0
  2  3  1  0  0  0
  2 25  1  0  0  0
  2 89  1  0  0  0
  2 90  1  0  0  0
  3  4  1  0  0  0
  3 91  1  0  0  0
  3 92  1  0  0  0
  4  5  1  0  0  0
  4 93  1  0  0  0
  4 94  1  0  0  0
  5  6  1  0  0  0
  5 26  1  0  0  0
  5 95  1  0  0  0
  6 25  1  0  0  0
  6 96  1  0  0  0
  6 97  1  0  0  0
  7  8  2  0  0  0
  7 26  1  0  0  0
  7 29  1  0  0  0
  8  9  1  0  0  0
  8 22  1  0  0  0
  9 10  1  0  0  0
  9 27  2  0  0  0
 10 11  2  0  0  0
 10 15  1  0  0  0
 11 12  1  0  0  0
 11 98  1  0  0  0
 12 13  2  0  0  0
 12 99  1  0  0  0
 13 14  1  0  0  0
 13 31  1  0  0  0
 14 15  2  0  0  0
 14100  1  0  0  0
 15101  1  0  0  0
 16 17  2  0  0  0
 16 21  1  0  0  0
 16 31  1  0  0  0
 17 18  1  0  0  0
 17102  1  0  0  0
 18 19  2  0  0  0
 18103  1  0  0  0
 19 20  1  0  0  0
 19 24  1  0  0  0
 20 21  2  0  0  0
 20104  1  0  0  0
 21 23  1  0  0  0
 22 28  1  0  0  0
 22 32  2  0  0  0
 26 27  1  0  0  0
 28105  1  0  0  0
 28106  1  0  0  0
 29107  1  0  0  0
 29108  1  0  0  0
 33 34  1  0  0  0
 33 66  1  0  0  0
 33 70  2  0  0  0
 34 36  1  0  0  0
 34 59  1  0  0  0
 34109  1  0  0  0
 35 44  2  0  0  0
 35 45  1  0  0  0
 35 68  1  0  0  0
 36 56  1  0  0  0
 36110  1  0  0  0
 37 39  1  0  0  0
 37 47  1  0  0  0
 37 66  1  0  0  0
 37111  1  0  0  0
 38 43  2  0  0  0
 38 46  1  0  0  0
 38 47  1  0  0  0
 39 64  1  0  0  0
 39 67  2  0  0  0
 40 52  1  0  0  0
 40 53  2  0  0  0
 40 58  1  0  0  0
 41112  1  0  0  0
 41113  1  0  0  0
 41114  1  0  0  0
 41 48  1  0  0  0
 42 43  1  0  0  0
 42 66  1  0  0  0
 42115  1  0  0  0
 42116  1  0  0  0
 43 44  1  0  0  0
 44117  1  0  0  0
 45 46  2  0  0  0
 45118  1  0  0  0
 46119  1  0  0  0
 47120  1  0  0  0
 47121  1  0  0  0
 48 56  1  0  0  0
 48 65  1  0  0  0
 48122  1  0  0  0
 49 50  1  0  0  0
 49 53  1  0  0  0
 49 64  1  0  0  0
 49123  1  0  0  0
 50 51  1  0  0  0
 50124  1  0  0  0
 50125  1  0  0  0
 51 52  1  0  0  0
 51126  1  0  0  0
 51127  1  0  0  0
 52128  1  0  0  0
 52129  1  0  0  0
 53 54  1  0  0  0
 54 55  2  0  0  0
 54130  1  0  0  0
 55 57  1  0  0  0
 55131  1  0  0  0
 56 69  2  0  0  0
 57 58  2  0  0  0
 57132  1  0  0  0
 58133  1  0  0  0
 59 60  1  0  0  0
 59 61  1  0  0  0
 59 62  1  0  0  0
 60134  1  0  0  0
 60135  1  0  0  0
 60136  1  0  0  0
 61137  1  0  0  0
 61138  1  0  0  0
 61139  1  0  0  0
 62140  1  0  0  0
 62141  1  0  0  0
 62142  1  0  0  0
 63 65  1  0  0  0
 63143  1  0  0  0
 63144  1  0  0  0
 63145  1  0  0  0
 64146  1  0  0  0
 65147  1  0  0  0
 68 79  1  0  0  0
 71 72  2  0  0  0
 71 78  1  0  0  0
 71 88  1  0  0  0
 72 81  1  0  0  0
 72 85  1  0  0  0
 73 81  2  0  0  0
 73 82  1  0  0  0
 73 88  1  0  0  0
 74 77  1  0  0  0
 74 83  1  0  0  0
 74 84  2  0  0  0
 75148  1  0  0  0
 75149  1  0  0  0
 75150  1  0  0  0
 75 79  1  0  0  0
 76151  1  0  0  0
 76152  1  0  0  0
 76153  1  0  0  0
 76 80  1  0  0  0
 77 79  1  0  0  0
 77154  1  0  0  0
 77155  1  0  0  0
 78 80  1  0  0  0
 78 83  1  0  0  0
 78156  1  0  0  0
 79157  1  0  0  0
 80 86  1  0  0  0
 80 87  1  0  0  0
 82158  1  0  0  0
 83159  1  0  0  0
M  ISO  4   1 100  68 101  79 101  82 100
M  END
> <chiral flag>
0

> <version>
0

> <s_m_source_file>
/data/baiqing/PycharmProjects/Reinvent-master-3.2/result/LINK_invent/BTK/process_docking_weight1_custom_product_contain_oxygen_bond_distance_aromatic_linkinvent_7_9_3/rearranged_h_0184.sdf

> <i_m_source_file_index>
3

> <r_mmod_Potential_Energy-OPLS-2005>
-164.021560668945

> <r_mmod_Stretch_Energy-OPLS-2005>
56.8203048706055

> <r_mmod_Bend_Energy-OPLS-2005>
142.107604980469

> <r_mmod_Torsional_Energy-OPLS-2005>
186.417877197266

> <r_mmod_Improper_Torsional_Energy-OPLS-2005>
4.28760004043579

> <r_mmod_Van_der_Waal_Energy-OPLS-2005>
124.293792724609

> <r_mmod_Electrostatic_Energy-OPLS-2005>
-451.802551269531

> <r_mmod_Solvation_Energy-OPLS-2005>
-253.487182617188

> <b_mmod_Minimization_Converged-OPLS-2005>
0

> <r_mmod_RMS_Derivative-OPLS-2005>
2.91139149665833

$$$$
3
                    3D
 Structure written by MMmdl.
159167  0  0  1  0            999 V2000
  -30.7238  -14.5109   20.5283 C   0  0  0  0  0  0
  -30.4227  -12.3187   19.4398 C   0  0  0  0  0  0
  -29.4975  -12.4712   18.2148 C   0  0  0  0  0  0
  -28.0214  -12.3341   18.6342 C   0  0  0  0  0  0
  -27.6598  -13.2114   19.8631 C   0  0  2  0  0  0
  -28.7049  -13.0554   20.9927 C   0  0  0  0  0  0
  -25.2604  -13.8175   20.5679 C   0  0  0  0  0  0
  -24.1857  -13.0450   20.9188 C   0  0  0  0  0  0
  -24.6417  -11.6921   20.8768 C   0  0  0  0  0  0
  -23.9084  -10.4303   21.0424 C   0  0  0  0  0  0
  -24.3623   -9.4212   21.9202 C   0  0  0  0  0  0
  -23.6292   -8.2250   22.0765 C   0  0  0  0  0  0
  -22.4281   -8.0298   21.3543 C   0  0  0  0  0  0
  -21.9933   -9.0275   20.4650 C   0  0  0  0  0  0
  -22.7263  -10.2149   20.3068 C   0  0  0  0  0  0
  -21.6848   -6.0755   22.5277 C   0  0  0  0  0  0
  -21.4008   -6.5646   23.8214 C   0  0  0  0  0  0
  -21.3653   -5.6795   24.9172 C   0  0  0  0  0  0
  -21.6039   -4.3058   24.7221 C   0  0  0  0  0  0
  -21.8824   -3.8157   23.4340 C   0  0  0  0  0  0
  -21.9190   -4.6982   22.3392 C   0  0  0  0  0  0
  -22.7871  -13.5243   21.1833 C   0  0  0  0  0  0
  -22.1661   -4.2168   21.0976 F   0  0  0  0  0  0
  -21.5632   -3.4536   25.7732 F   0  0  0  0  0  0
  -30.0313  -13.3422   20.4248 N   0  0  0  0  0  0
  -26.3033  -12.9351   20.3343 N   0  0  0  0  0  0
  -25.9346  -11.6513   20.5798 N   0  0  0  0  0  0
  -22.0492  -12.8243   22.0382 N   0  0  0  0  0  0
  -25.4321  -15.1895   20.4042 N   0  0  0  0  0  0
  -31.8801  -14.6177   20.1126 O   0  0  0  0  0  0
  -21.6635   -6.8898   21.4242 O   0  0  0  0  0  0
  -22.3582  -14.5558   20.6681 O   0  0  0  0  0  0
  -24.6200  -31.8671   23.2101 C   0  0  0  0  0  0
  -25.9084  -32.4818   23.8404 C   0  0  1  0  0  0
  -27.2328  -27.4045   20.1051 C   0  0  0  0  0  0
  -25.5915  -33.8614   24.2321 N   0  0  0  0  0  0
  -23.4083  -30.4923   21.5483 C   0  0  2  0  0  0
  -24.8560  -28.9580   20.1081 C   0  0  0  0  0  0
  -22.7417  -29.4677   22.4969 C   0  0  0  0  0  0
  -18.0263  -28.1359   22.8492 C   0  0  0  0  0  0
  -24.1506  -36.7315   23.2635 C   0  0  0  0  0  0
  -25.9410  -30.8271   21.3654 C   0  0  0  0  0  0
  -26.0201  -29.4613   20.7044 C   0  0  0  0  0  0
  -27.2120  -28.6962   20.6915 C   0  0  0  0  0  0
  -26.0523  -26.9344   19.4822 C   0  0  0  0  0  0
  -24.8715  -27.6978   19.4896 C   0  0  0  0  0  0
  -23.6173  -29.8240   20.1635 C   0  0  0  0  0  0
  -25.4122  -36.3104   24.0338 C   0  0  1  0  0  0
  -20.5858  -28.3673   23.1291 C   0  0  2  0  0  0
  -20.6749  -26.9406   22.5413 C   0  0  0  0  0  0
  -19.5730  -26.6382   21.5203 C   0  0  0  0  0  0
  -18.1897  -26.7908   22.1614 C   0  0  0  0  0  0
  -19.1511  -28.8818   23.2891 C   0  0  0  0  0  0
  -18.9466  -30.1409   23.8935 C   0  0  0  0  0  0
  -17.6474  -30.6569   24.0555 C   0  0  0  0  0  0
  -25.9049  -34.9468   23.5114 C   0  0  0  0  0  0
  -16.5356  -29.9088   23.6323 C   0  0  0  0  0  0
  -16.7261  -28.6499   23.0366 C   0  0  0  0  0  0
  -26.4507  -31.6595   25.0727 C   0  0  0  0  0  0
  -25.3758  -31.3675   26.1455 C   0  0  0  0  0  0
  -27.0348  -30.3043   24.6098 C   0  0  0  0  0  0
  -27.6093  -32.4306   25.7487 C   0  0  0  0  0  0
  -27.5591  -37.1803   24.8459 C   0  0  0  0  0  0
  -21.4134  -29.3067   22.3711 N   0  0  0  0  0  0
  -26.4308  -37.3780   23.9400 N   0  0  0  0  0  0
  -24.6735  -31.0765   22.0997 N   0  0  0  0  0  0
  -23.4174  -28.8188   23.2995 O   0  0  0  0  0  0
  -28.3782  -26.6216   20.1672 O   0  0  0  0  0  0
  -26.5625  -34.8934   22.4689 O   0  0  0  0  0  0
  -23.5388  -32.1438   23.7495 O   0  0  0  0  0  0
  -31.6907  -17.4322   20.7612 C   0  0  0  0  0  0
  -30.4111  -16.9129   20.7923 C   0  0  0  0  0  0
  -30.5722  -19.3940   20.3486 C   0  0  0  0  0  0
  -30.3620  -20.8193   19.8773 C   0  0  0  0  0  0
  -27.7076  -25.0884   21.9610 C   0  0  0  0  0  0
  -26.7406  -23.9578   22.2946 C   0  0  0  0  0  0
  -30.5747  -25.0951   19.4402 C   0  0  0  0  0  0
  -29.3025  -21.7565   20.5006 C   0  0  0  0  0  0
  -28.2040  -25.2073   20.4973 C   0  0  2  0  0  0
  -29.5137  -24.3481   20.2837 C   0  0  1  0  0  0
  -31.7668  -18.8014   20.4796 N   0  0  0  0  0  0
  -30.0246  -15.6008   20.9314 N   0  0  0  0  0  0
  -29.2669  -22.9971   19.6630 N   0  3  0  0  0  0
  -31.1122  -21.2764   19.0018 O   0  0  0  0  0  0
  -28.0803  -25.8656   22.8461 O   0  0  0  0  0  0
  -29.2504  -18.2380   20.6109 S   0  0  0  0  0  0
  -31.4680  -12.4003   19.1352 H   0  0  0  0  0  0
  -30.3212  -11.3241   19.8772 H   0  0  0  0  0  0
  -29.7385  -11.7097   17.4708 H   0  0  0  0  0  0
  -29.6623  -13.4352   17.7313 H   0  0  0  0  0  0
  -27.8469  -11.2838   18.8716 H   0  0  0  0  0  0
  -27.3653  -12.5655   17.7945 H   0  0  0  0  0  0
  -27.6876  -14.2462   19.5226 H   0  0  0  0  0  0
  -28.6903  -12.0400   21.3910 H   0  0  0  0  0  0
  -28.4708  -13.7078   21.8354 H   0  0  0  0  0  0
  -25.2768   -9.5678   22.4788 H   0  0  0  0  0  0
  -23.9991   -7.4642   22.7495 H   0  0  0  0  0  0
  -21.0870   -8.8809   19.8951 H   0  0  0  0  0  0
  -22.3740  -10.9696   19.6190 H   0  0  0  0  0  0
  -21.1993   -7.6153   23.9725 H   0  0  0  0  0  0
  -21.1469   -6.0522   25.9079 H   0  0  0  0  0  0
  -22.0605   -2.7627   23.2832 H   0  0  0  0  0  0
  -22.4083  -11.9890   22.4760 H   0  0  0  0  0  0
  -21.1116  -13.1304   22.2562 H   0  0  0  0  0  0
  -24.6623  -15.8429   20.5021 H   0  0  0  0  0  0
  -26.2756  -15.6220   20.0472 H   0  0  0  0  0  0
  -26.7157  -32.5547   23.1182 H   0  0  0  0  0  0
  -25.0063  -33.9765   25.0462 H   0  0  0  0  0  0
  -22.7004  -31.3125   21.4065 H   0  0  0  0  0  0
  -23.3783  -35.9635   23.3288 H   0  0  0  0  0  0
  -24.3605  -36.8944   22.2050 H   0  0  0  0  0  0
  -23.7254  -37.6507   23.6677 H   0  0  0  0  0  0
  -26.0613  -31.6005   20.6025 H   0  0  0  0  0  0
  -26.8233  -30.8733   21.9892 H   0  0  0  0  0  0
  -28.1072  -29.0758   21.1651 H   0  0  0  0  0  0
  -26.0200  -25.9801   18.9771 H   0  0  0  0  0  0
  -23.9807  -27.3120   19.0123 H   0  0  0  0  0  0
  -23.7194  -30.5985   19.4026 H   0  0  0  0  0  0
  -22.7398  -29.2414   19.8762 H   0  0  0  0  0  0
  -25.1303  -36.1979   25.0831 H   0  0  0  0  0  0
  -20.9936  -28.3283   24.1414 H   0  0  0  0  0  0
  -20.5637  -26.2304   23.3630 H   0  0  0  0  0  0
  -21.6618  -26.7441   22.1192 H   0  0  0  0  0  0
  -19.6914  -25.6300   21.1232 H   0  0  0  0  0  0
  -19.6666  -27.3195   20.6733 H   0  0  0  0  0  0
  -17.4168  -26.6670   21.4014 H   0  0  0  0  0  0
  -18.0269  -26.0044   22.8997 H   0  0  0  0  0  0
  -19.7952  -30.7152   24.2368 H   0  0  0  0  0  0
  -17.5061  -31.6281   24.5115 H   0  0  0  0  0  0
  -15.5360  -30.3010   23.7612 H   0  0  0  0  0  0
  -15.8652  -28.0806   22.7094 H   0  0  0  0  0  0
  -24.5964  -30.7002   25.7758 H   0  0  0  0  0  0
  -24.8913  -32.2799   26.4923 H   0  0  0  0  0  0
  -25.8086  -30.8827   27.0209 H   0  0  0  0  0  0
  -26.2876  -29.6758   24.1230 H   0  0  0  0  0  0
  -27.4200  -29.7320   25.4547 H   0  0  0  0  0  0
  -27.8683  -30.4356   23.9193 H   0  0  0  0  0  0
  -27.2753  -33.3641   26.2027 H   0  0  0  0  0  0
  -28.3913  -32.6793   25.0298 H   0  0  0  0  0  0
  -28.0748  -31.8446   26.5416 H   0  0  0  0  0  0
  -28.2576  -38.0130   24.7529 H   0  0  0  0  0  0
  -28.1112  -36.2659   24.6261 H   0  0  0  0  0  0
  -27.2297  -37.1373   25.8854 H   0  0  0  0  0  0
  -20.9294  -29.8890   21.7022 H   0  0  0  0  0  0
  -26.0224  -38.2864   24.1413 H   0  0  0  0  0  0
  -32.6225  -16.8930   20.8750 H   0  0  0  0  0  0
  -26.9250  -23.0733   21.6846 H   0  0  0  0  0  0
  -25.7150  -24.2859   22.1271 H   0  0  0  0  0  0
  -26.8359  -23.6778   23.3422 H   0  0  0  0  0  0
  -30.8555  -26.0428   19.9046 H   0  0  0  0  0  0
  -30.2185  -25.3186   18.4341 H   0  0  0  0  0  0
  -31.4954  -24.5159   19.3458 H   0  0  0  0  0  0
  -29.5783  -21.9666   21.5341 H   0  0  0  0  0  0
  -28.3304  -21.2634   20.5017 H   0  0  0  0  0  0
  -27.4358  -24.7874   19.8513 H   0  0  0  0  0  0
  -29.9918  -24.1882   21.2518 H   0  0  0  0  0  0
  -29.0619  -15.4308   21.1798 H   0  0  0  0  0  0
  -28.4640  -22.9837   19.0533 H   0  0  0  0  0  0
  -30.0617  -22.8083   19.0598 H   0  0  0  0  0  0
  1 25  1  0  0  0
  1 30  2  0  0  0
  1 82  1  0  0  0
  2  3  1  0  0  0
  2 25  1  0  0  0
  2 87  1  0  0  0
  2 88  1  0  0  0
  3  4  1  0  0  0
  3 89  1  0  0  0
  3 90  1  0  0  0
  4  5  1  0  0  0
  4 91  1  0  0  0
  4 92  1  0  0  0
  5  6  1  0  0  0
  5 26  1  0  0  0
  5 93  1  0  0  0
  6 25  1  0  0  0
  6 94  1  0  0  0
  6 95  1  0  0  0
  7  8  2  0  0  0
  7 26  1  0  0  0
  7 29  1  0  0  0
  8  9  1  0  0  0
  8 22  1  0  0  0
  9 10  1  0  0  0
  9 27  2  0  0  0
 10 11  2  0  0  0
 10 15  1  0  0  0
 11 12  1  0  0  0
 11 96  1  0  0  0
 12 13  2  0  0  0
 12 97  1  0  0  0
 13 14  1  0  0  0
 13 31  1  0  0  0
 14 15  2  0  0  0
 14 98  1  0  0  0
 15 99  1  0  0  0
 16 17  2  0  0  0
 16 21  1  0  0  0
 16 31  1  0  0  0
 17 18  1  0  0  0
 17100  1  0  0  0
 18 19  2  0  0  0
 18101  1  0  0  0
 19 20  1  0  0  0
 19 24  1  0  0  0
 20 21  2  0  0  0
 20102  1  0  0  0
 21 23  1  0  0  0
 22 28  1  0  0  0
 22 32  2  0  0  0
 26 27  1  0  0  0
 28103  1  0  0  0
 28104  1  0  0  0
 29105  1  0  0  0
 29106  1  0  0  0
 33 34  1  0  0  0
 33 66  1  0  0  0
 33 70  2  0  0  0
 34 36  1  0  0  0
 34 59  1  0  0  0
 34107  1  0  0  0
 35 44  2  0  0  0
 35 45  1  0  0  0
 35 68  1  0  0  0
 36 56  1  0  0  0
 36108  1  0  0  0
 37 39  1  0  0  0
 37 47  1  0  0  0
 37 66  1  0  0  0
 37109  1  0  0  0
 38 43  2  0  0  0
 38 46  1  0  0  0
 38 47  1  0  0  0
 39 64  1  0  0  0
 39 67  2  0  0  0
 40 52  1  0  0  0
 40 53  2  0  0  0
 40 58  1  0  0  0
 41110  1  0  0  0
 41111  1  0  0  0
 41112  1  0  0  0
 41 48  1  0  0  0
 42 43  1  0  0  0
 42 66  1  0  0  0
 42113  1  0  0  0
 42114  1  0  0  0
 43 44  1  0  0  0
 44115  1  0  0  0
 45 46  2  0  0  0
 45116  1  0  0  0
 46117  1  0  0  0
 47118  1  0  0  0
 47119  1  0  0  0
 48 56  1  0  0  0
 48 65  1  0  0  0
 48120  1  0  0  0
 49 50  1  0  0  0
 49 53  1  0  0  0
 49 64  1  0  0  0
 49121  1  0  0  0
 50 51  1  0  0  0
 50122  1  0  0  0
 50123  1  0  0  0
 51 52  1  0  0  0
 51124  1  0  0  0
 51125  1  0  0  0
 52126  1  0  0  0
 52127  1  0  0  0
 53 54  1  0  0  0
 54 55  2  0  0  0
 54128  1  0  0  0
 55 57  1  0  0  0
 55129  1  0  0  0
 56 69  2  0  0  0
 57 58  2  0  0  0
 57130  1  0  0  0
 58131  1  0  0  0
 59 60  1  0  0  0
 59 61  1  0  0  0
 59 62  1  0  0  0
 60132  1  0  0  0
 60133  1  0  0  0
 60134  1  0  0  0
 61135  1  0  0  0
 61136  1  0  0  0
 61137  1  0  0  0
 62138  1  0  0  0
 62139  1  0  0  0
 62140  1  0  0  0
 63 65  1  0  0  0
 63141  1  0  0  0
 63142  1  0  0  0
 63143  1  0  0  0
 64144  1  0  0  0
 65145  1  0  0  0
 68 79  1  0  0  0
 71 72  2  0  0  0
 71 81  1  0  0  0
 71146  1  0  0  0
 72 82  1  0  0  0
 72 86  1  0  0  0
 73 74  1  0  0  0
 73 81  2  0  0  0
 73 86  1  0  0  0
 74 78  1  0  0  0
 74 84  2  0  0  0
 75 76  1  0  0  0
 75 79  1  0  0  0
 75 85  2  0  0  0
 76147  1  0  0  0
 76148  1  0  0  0
 76149  1  0  0  0
 77150  1  0  0  0
 77151  1  0  0  0
 77152  1  0  0  0
 77 80  1  0  0  0
 78 83  1  0  0  0
 78153  1  0  0  0
 78154  1  0  0  0
 79 80  1  0  0  0
 79155  1  0  0  0
 80 83  1  0  0  0
 80156  1  0  0  0
 82157  1  0  0  0
 83158  1  0  0  0
 83159  1  0  0  0
M  CHG  1  83   1
M  ISO  4   1 100  68 101  79 101  82 100
M  END
> <chiral flag>
0

> <version>
0

> <s_m_source_file>
/data/baiqing/PycharmProjects/Reinvent-master-3.2/result/LINK_invent/BTK/process_docking_weight1_custom_product_contain_oxygen_bond_distance_aromatic_linkinvent_7_9_3/rearranged_h_0184.sdf

> <i_m_source_file_index>
4

> <r_mmod_Potential_Energy-OPLS-2005>
-169.382995605469

> <r_mmod_Stretch_Energy-OPLS-2005>
49.9122009277344

> <r_mmod_Bend_Energy-OPLS-2005>
116.31706237793

> <r_mmod_Torsional_Energy-OPLS-2005>
259.263427734375

> <r_mmod_Improper_Torsional_Energy-OPLS-2005>
5.43771076202393

> <r_mmod_Van_der_Waal_Energy-OPLS-2005>
134.070297241211

> <r_mmod_Electrostatic_Energy-OPLS-2005>
-231.225387573242

> <r_mmod_Solvation_Energy-OPLS-2005>
-525.659484863281

> <b_mmod_Minimization_Converged-OPLS-2005>
0

> <r_mmod_RMS_Derivative-OPLS-2005>
3.07090759277344

$$$$
4
                    3D
 Structure written by MMmdl.
153161  0  0  1  0            999 V2000
  -30.6115  -14.7219   20.4604 C   0  0  0  0  0  0
  -30.4303  -12.4340   19.4758 C   0  0  0  0  0  0
  -29.5121  -12.5086   18.2357 C   0  0  0  0  0  0
  -28.0343  -12.3442   18.6417 C   0  0  0  0  0  0
  -27.6438  -13.2311   19.8547 C   0  0  2  0  0  0
  -28.6877  -13.1391   20.9901 C   0  0  0  0  0  0
  -25.2516  -13.8200   20.5694 C   0  0  0  0  0  0
  -24.1802  -13.0438   20.9200 C   0  0  0  0  0  0
  -24.6395  -11.6919   20.8750 C   0  0  0  0  0  0
  -23.9078  -10.4297   21.0416 C   0  0  0  0  0  0
  -24.3626   -9.4212   21.9190 C   0  0  0  0  0  0
  -23.6293   -8.2252   22.0758 C   0  0  0  0  0  0
  -22.4278   -8.0290   21.3549 C   0  0  0  0  0  0
  -21.9913   -9.0269   20.4655 C   0  0  0  0  0  0
  -22.7248  -10.2143   20.3064 C   0  0  0  0  0  0
  -21.6846   -6.0747   22.5287 C   0  0  0  0  0  0
  -21.4015   -6.5646   23.8223 C   0  0  0  0  0  0
  -21.3662   -5.6791   24.9177 C   0  0  0  0  0  0
  -21.6045   -4.3056   24.7223 C   0  0  0  0  0  0
  -21.8815   -3.8154   23.4341 C   0  0  0  0  0  0
  -21.9192   -4.6977   22.3403 C   0  0  0  0  0  0
  -22.7827  -13.5235   21.1855 C   0  0  0  0  0  0
  -22.1655   -4.2158   21.0980 F   0  0  0  0  0  0
  -21.5626   -3.4537   25.7739 F   0  0  0  0  0  0
  -29.9932  -13.4911   20.4169 N   0  0  0  0  0  0
  -26.2939  -12.9405   20.3288 N   0  0  0  0  0  0
  -25.9321  -11.6550   20.5752 N   0  0  0  0  0  0
  -22.0448  -12.8243   22.0408 N   0  0  0  0  0  0
  -25.4201  -15.1929   20.4137 N   0  0  0  0  0  0
  -31.7946  -14.8145   20.1212 O   0  0  0  0  0  0
  -21.6637   -6.8889   21.4249 O   0  0  0  0  0  0
  -22.3521  -14.5537   20.6694 O   0  0  0  0  0  0
  -24.6305  -31.8536   23.1974 C   0  0  0  0  0  0
  -25.9136  -32.4748   23.8313 C   0  0  1  0  0  0
  -27.2191  -27.2561   20.1303 C   0  0  0  0  0  0
  -25.5926  -33.8548   24.2238 N   0  0  0  0  0  0
  -23.4272  -30.4752   21.5397 C   0  0  2  0  0  0
  -24.8768  -28.9221   20.1069 C   0  0  0  0  0  0
  -22.7497  -29.4590   22.4906 C   0  0  0  0  0  0
  -18.0286  -28.1384   22.8485 C   0  0  0  0  0  0
  -24.1486  -36.7276   23.2634 C   0  0  0  0  0  0
  -25.9725  -30.7658   21.3769 C   0  0  0  0  0  0
  -26.0464  -29.3876   20.7194 C   0  0  0  0  0  0
  -27.2196  -28.5664   20.7214 C   0  0  0  0  0  0
  -26.0266  -26.8598   19.4836 C   0  0  0  0  0  0
  -24.8726  -27.6677   19.4777 C   0  0  0  0  0  0
  -23.6458  -29.8075   20.1567 C   0  0  0  0  0  0
  -25.4113  -36.3058   24.0316 C   0  0  1  0  0  0
  -20.5890  -28.3690   23.1274 C   0  0  2  0  0  0
  -20.6767  -26.9406   22.5412 C   0  0  0  0  0  0
  -19.5746  -26.6383   21.5209 C   0  0  0  0  0  0
  -18.1932  -26.7924   22.1629 C   0  0  0  0  0  0
  -19.1540  -28.8854   23.2874 C   0  0  0  0  0  0
  -18.9463  -30.1457   23.8894 C   0  0  0  0  0  0
  -17.6460  -30.6588   24.0558 C   0  0  0  0  0  0
  -25.9060  -34.9432   23.5082 C   0  0  0  0  0  0
  -16.5351  -29.9081   23.6331 C   0  0  0  0  0  0
  -16.7275  -28.6497   23.0360 C   0  0  0  0  0  0
  -26.4501  -31.6573   25.0700 C   0  0  0  0  0  0
  -25.3724  -31.3730   26.1425 C   0  0  0  0  0  0
  -27.0335  -30.2978   24.6188 C   0  0  0  0  0  0
  -27.6052  -32.4310   25.7487 C   0  0  0  0  0  0
  -27.5574  -37.1789   24.8462 C   0  0  0  0  0  0
  -21.4203  -29.3032   22.3659 N   0  0  0  0  0  0
  -26.4283  -37.3762   23.9410 N   0  0  0  0  0  0
  -24.6956  -31.0500   22.0945 N   0  0  0  0  0  0
  -23.4196  -28.8141   23.3015 O   0  0  0  0  0  0
  -28.3084  -26.3560   20.2185 O   0  0  0  0  0  0
  -26.5640  -34.8908   22.4654 O   0  0  0  0  0  0
  -23.5461  -32.1369   23.7270 O   0  0  0  0  0  0
  -30.8702  -19.5298   19.6347 C   0  0  0  0  0  0
  -29.6846  -19.6390   20.3355 C   0  0  0  0  0  0
  -30.0844  -17.2722   20.4248 C   0  0  0  0  0  0
  -28.6709  -23.6019   20.5581 C   0  0  0  0  0  0
  -31.7013  -20.6232   19.0472 C   0  0  0  0  0  0
  -27.5976  -21.9303   18.8922 C   0  0  0  0  0  0
  -28.1619  -24.9205   19.7717 C   0  0  0  0  0  0
  -28.8050  -22.1480   19.8220 C   0  0  2  0  0  0
  -29.2710  -18.3246   20.7791 N   0  0  0  0  0  0
  -28.9988  -20.8922   20.6621 N   0  0  0  0  0  0
  -29.8356  -15.8419   20.7234 N   0  0  0  0  0  0
  -28.9790  -23.7032   21.7517 O   0  0  0  0  0  0
  -31.4568  -17.8712   19.5001 S   0  0  0  0  0  0
  -31.4749  -12.5427   19.1788 H   0  0  0  0  0  0
  -30.3575  -11.4520   19.9464 H   0  0  0  0  0  0
  -29.7868  -11.7404   17.5121 H   0  0  0  0  0  0
  -29.6521  -13.4661   17.7310 H   0  0  0  0  0  0
  -27.8746  -11.2937   18.8857 H   0  0  0  0  0  0
  -27.3830  -12.5587   17.7939 H   0  0  0  0  0  0
  -27.6462  -14.2584   19.4904 H   0  0  0  0  0  0
  -28.7147  -12.1305   21.4047 H   0  0  0  0  0  0
  -28.4274  -13.8008   21.8177 H   0  0  0  0  0  0
  -25.2770   -9.5682   22.4756 H   0  0  0  0  0  0
  -24.0004   -7.4639   22.7471 H   0  0  0  0  0  0
  -21.0843   -8.8801   19.8955 H   0  0  0  0  0  0
  -22.3721  -10.9685   19.6172 H   0  0  0  0  0  0
  -21.2012   -7.6151   23.9733 H   0  0  0  0  0  0
  -21.1480   -6.0516   25.9082 H   0  0  0  0  0  0
  -22.0591   -2.7615   23.2842 H   0  0  0  0  0  0
  -22.4050  -11.9921   22.4842 H   0  0  0  0  0  0
  -21.1069  -13.1287   22.2593 H   0  0  0  0  0  0
  -24.6482  -15.8410   20.5262 H   0  0  0  0  0  0
  -26.2635  -15.6413   20.0799 H   0  0  0  0  0  0
  -26.7190  -32.5393   23.1044 H   0  0  0  0  0  0
  -25.0033  -33.9680   25.0356 H   0  0  0  0  0  0
  -22.7216  -31.2964   21.3926 H   0  0  0  0  0  0
  -23.3746  -35.9615   23.3302 H   0  0  0  0  0  0
  -24.3573  -36.8905   22.2050 H   0  0  0  0  0  0
  -23.7257  -37.6477   23.6668 H   0  0  0  0  0  0
  -26.1086  -31.5248   20.6052 H   0  0  0  0  0  0
  -26.8503  -30.8162   22.0098 H   0  0  0  0  0  0
  -28.1130  -28.9153   21.2200 H   0  0  0  0  0  0
  -25.9537  -25.8967   19.0001 H   0  0  0  0  0  0
  -23.9763  -27.3075   18.9920 H   0  0  0  0  0  0
  -23.7682  -30.5822   19.3988 H   0  0  0  0  0  0
  -22.7647  -29.2383   19.8545 H   0  0  0  0  0  0
  -25.1300  -36.1882   25.0808 H   0  0  0  0  0  0
  -20.9983  -28.3264   24.1393 H   0  0  0  0  0  0
  -20.5653  -26.2295   23.3611 H   0  0  0  0  0  0
  -21.6635  -26.7418   22.1214 H   0  0  0  0  0  0
  -19.6905  -25.6294   21.1238 H   0  0  0  0  0  0
  -19.6690  -27.3194   20.6736 H   0  0  0  0  0  0
  -17.4195  -26.6670   21.4039 H   0  0  0  0  0  0
  -18.0344  -26.0062   22.9025 H   0  0  0  0  0  0
  -19.7935  -30.7276   24.2268 H   0  0  0  0  0  0
  -17.5012  -31.6272   24.5153 H   0  0  0  0  0  0
  -15.5354  -30.2985   23.7653 H   0  0  0  0  0  0
  -15.8673  -28.0814   22.7087 H   0  0  0  0  0  0
  -24.5914  -30.7055   25.7765 H   0  0  0  0  0  0
  -24.8897  -32.2898   26.4811 H   0  0  0  0  0  0
  -25.8046  -30.8943   27.0221 H   0  0  0  0  0  0
  -26.2917  -29.6749   24.1170 H   0  0  0  0  0  0
  -27.3956  -29.7217   25.4715 H   0  0  0  0  0  0
  -27.8825  -30.4241   23.9469 H   0  0  0  0  0  0
  -27.2657  -33.3620   26.2042 H   0  0  0  0  0  0
  -28.3885  -32.6855   25.0333 H   0  0  0  0  0  0
  -28.0687  -31.8438   26.5427 H   0  0  0  0  0  0
  -28.2578  -38.0097   24.7506 H   0  0  0  0  0  0
  -28.1081  -36.2621   24.6287 H   0  0  0  0  0  0
  -27.2285  -37.1436   25.8863 H   0  0  0  0  0  0
  -20.9386  -29.8746   21.6856 H   0  0  0  0  0  0
  -26.0149  -38.2826   24.1428 H   0  0  0  0  0  0
  -32.7167  -20.2787   18.8506 H   0  0  0  0  0  0
  -31.7736  -21.4704   19.7293 H   0  0  0  0  0  0
  -31.2781  -20.9674   18.1041 H   0  0  0  0  0  0
  -26.6746  -21.7861   19.4563 H   0  0  0  0  0  0
  -27.7392  -21.0538   18.2588 H   0  0  0  0  0  0
  -27.4463  -22.7758   18.2198 H   0  0  0  0  0  0
  -29.2440  -25.0226   19.6926 H   0  0  0  0  0  0
  -27.4454  -24.8812   20.5930 H   0  0  0  0  0  0
  -29.6745  -22.2275   19.1746 H   0  0  0  0  0  0
  -28.2963  -20.7958   21.3878 H   0  0  0  0  0  0
  -28.9101  -15.6387   21.0645 H   0  0  0  0  0  0
  1 25  1  0  0  0
  1 30  2  0  0  0
  1 81  1  0  0  0
  2  3  1  0  0  0
  2 25  1  0  0  0
  2 84  1  0  0  0
  2 85  1  0  0  0
  3  4  1  0  0  0
  3 86  1  0  0  0
  3 87  1  0  0  0
  4  5  1  0  0  0
  4 88  1  0  0  0
  4 89  1  0  0  0
  5  6  1  0  0  0
  5 26  1  0  0  0
  5 90  1  0  0  0
  6 25  1  0  0  0
  6 91  1  0  0  0
  6 92  1  0  0  0
  7  8  2  0  0  0
  7 26  1  0  0  0
  7 29  1  0  0  0
  8  9  1  0  0  0
  8 22  1  0  0  0
  9 10  1  0  0  0
  9 27  2  0  0  0
 10 11  2  0  0  0
 10 15  1  0  0  0
 11 12  1  0  0  0
 11 93  1  0  0  0
 12 13  2  0  0  0
 12 94  1  0  0  0
 13 14  1  0  0  0
 13 31  1  0  0  0
 14 15  2  0  0  0
 14 95  1  0  0  0
 15 96  1  0  0  0
 16 17  2  0  0  0
 16 21  1  0  0  0
 16 31  1  0  0  0
 17 18  1  0  0  0
 17 97  1  0  0  0
 18 19  2  0  0  0
 18 98  1  0  0  0
 19 20  1  0  0  0
 19 24  1  0  0  0
 20 21  2  0  0  0
 20 99  1  0  0  0
 21 23  1  0  0  0
 22 28  1  0  0  0
 22 32  2  0  0  0
 26 27  1  0  0  0
 28100  1  0  0  0
 28101  1  0  0  0
 29102  1  0  0  0
 29103  1  0  0  0
 33 34  1  0  0  0
 33 66  1  0  0  0
 33 70  2  0  0  0
 34 36  1  0  0  0
 34 59  1  0  0  0
 34104  1  0  0  0
 35 44  2  0  0  0
 35 45  1  0  0  0
 35 68  1  0  0  0
 36 56  1  0  0  0
 36105  1  0  0  0
 37 39  1  0  0  0
 37 47  1  0  0  0
 37 66  1  0  0  0
 37106  1  0  0  0
 38 43  2  0  0  0
 38 46  1  0  0  0
 38 47  1  0  0  0
 39 64  1  0  0  0
 39 67  2  0  0  0
 40 52  1  0  0  0
 40 53  2  0  0  0
 40 58  1  0  0  0
 41107  1  0  0  0
 41108  1  0  0  0
 41109  1  0  0  0
 41 48  1  0  0  0
 42 43  1  0  0  0
 42 66  1  0  0  0
 42110  1  0  0  0
 42111  1  0  0  0
 43 44  1  0  0  0
 44112  1  0  0  0
 45 46  2  0  0  0
 45113  1  0  0  0
 46114  1  0  0  0
 47115  1  0  0  0
 47116  1  0  0  0
 48 56  1  0  0  0
 48 65  1  0  0  0
 48117  1  0  0  0
 49 50  1  0  0  0
 49 53  1  0  0  0
 49 64  1  0  0  0
 49118  1  0  0  0
 50 51  1  0  0  0
 50119  1  0  0  0
 50120  1  0  0  0
 51 52  1  0  0  0
 51121  1  0  0  0
 51122  1  0  0  0
 52123  1  0  0  0
 52124  1  0  0  0
 53 54  1  0  0  0
 54 55  2  0  0  0
 54125  1  0  0  0
 55 57  1  0  0  0
 55126  1  0  0  0
 56 69  2  0  0  0
 57 58  2  0  0  0
 57127  1  0  0  0
 58128  1  0  0  0
 59 60  1  0  0  0
 59 61  1  0  0  0
 59 62  1  0  0  0
 60129  1  0  0  0
 60130  1  0  0  0
 60131  1  0  0  0
 61132  1  0  0  0
 61133  1  0  0  0
 61134  1  0  0  0
 62135  1  0  0  0
 62136  1  0  0  0
 62137  1  0  0  0
 63 65  1  0  0  0
 63138  1  0  0  0
 63139  1  0  0  0
 63140  1  0  0  0
 64141  1  0  0  0
 65142  1  0  0  0
 68 77  1  0  0  0
 71 72  2  0  0  0
 71 75  1  0  0  0
 71 83  1  0  0  0
 72 79  1  0  0  0
 72 80  1  0  0  0
 73 79  2  0  0  0
 73 81  1  0  0  0
 73 83  1  0  0  0
 74 77  1  0  0  0
 74 78  1  0  0  0
 74 82  2  0  0  0
 75143  1  0  0  0
 75144  1  0  0  0
 75145  1  0  0  0
 76146  1  0  0  0
 76147  1  0  0  0
 76148  1  0  0  0
 76 78  1  0  0  0
 77149  1  0  0  0
 77150  1  0  0  0
 78 80  1  0  0  0
 78151  1  0  0  0
 80152  1  0  0  0
 81153  1  0  0  0
M  ISO  4   1 100  68 101  77 101  81 100
M  END
> <chiral flag>
0

> <version>
0

> <s_m_source_file>
/data/baiqing/PycharmProjects/Reinvent-master-3.2/result/LINK_invent/BTK/process_docking_weight1_custom_product_contain_oxygen_bond_distance_aromatic_linkinvent_7_9_3/rearranged_h_0184.sdf

> <i_m_source_file_index>
5

> <r_mmod_Potential_Energy-OPLS-2005>
259.608337402344

> <r_mmod_Stretch_Energy-OPLS-2005>
123.329681396484

> <r_mmod_Bend_Energy-OPLS-2005>
369.531402587891

> <r_mmod_Torsional_Energy-OPLS-2005>
210.361221313477

> <r_mmod_Improper_Torsional_Energy-OPLS-2005>
5.60043287277222

> <r_mmod_Van_der_Waal_Energy-OPLS-2005>
122.263687133789

> <r_mmod_Electrostatic_Energy-OPLS-2005>
-417.172546386719

> <r_mmod_Solvation_Energy-OPLS-2005>
-235.831207275391

> <b_mmod_Minimization_Converged-OPLS-2005>
0

> <r_mmod_RMS_Derivative-OPLS-2005>
1.7569317817688

$$$$
5
                    3D
 Structure written by MMmdl.
157165  0  0  1  0            999 V2000
  -30.6757  -14.7189   20.5106 C   0  0  0  0  0  0
  -30.4373  -12.4493   19.4861 C   0  0  0  0  0  0
  -29.5198  -12.5201   18.2480 C   0  0  0  0  0  0
  -28.0487  -12.3332   18.6614 C   0  0  0  0  0  0
  -27.6525  -13.2325   19.8624 C   0  0  2  0  0  0
  -28.6936  -13.1613   20.9987 C   0  0  0  0  0  0
  -25.2557  -13.8205   20.5697 C   0  0  0  0  0  0
  -24.1831  -13.0450   20.9177 C   0  0  0  0  0  0
  -24.6416  -11.6913   20.8737 C   0  0  0  0  0  0
  -23.9075  -10.4291   21.0377 C   0  0  0  0  0  0
  -24.3611   -9.4201   21.9163 C   0  0  0  0  0  0
  -23.6273   -8.2251   22.0738 C   0  0  0  0  0  0
  -22.4258   -8.0271   21.3536 C   0  0  0  0  0  0
  -21.9897   -9.0245   20.4643 C   0  0  0  0  0  0
  -22.7234  -10.2130   20.3036 C   0  0  0  0  0  0
  -21.6858   -6.0718   22.5277 C   0  0  0  0  0  0
  -21.4006   -6.5626   23.8205 C   0  0  0  0  0  0
  -21.3646   -5.6782   24.9161 C   0  0  0  0  0  0
  -21.6035   -4.3049   24.7216 C   0  0  0  0  0  0
  -21.8827   -3.8132   23.4349 C   0  0  0  0  0  0
  -21.9196   -4.6947   22.3398 C   0  0  0  0  0  0
  -22.7839  -13.5214   21.1850 C   0  0  0  0  0  0
  -22.1659   -4.2132   21.0978 F   0  0  0  0  0  0
  -21.5630   -3.4535   25.7725 F   0  0  0  0  0  0
  -30.0037  -13.5147   20.4272 N   0  0  0  0  0  0
  -26.3007  -12.9414   20.3341 N   0  0  0  0  0  0
  -25.9357  -11.6549   20.5768 N   0  0  0  0  0  0
  -22.0512  -12.8194   22.0423 N   0  0  0  0  0  0
  -25.4307  -15.1909   20.4103 N   0  0  0  0  0  0
  -31.8331  -14.7858   20.0839 O   0  0  0  0  0  0
  -21.6639   -6.8848   21.4238 O   0  0  0  0  0  0
  -22.3519  -14.5537   20.6725 O   0  0  0  0  0  0
  -24.6276  -31.8569   23.2016 C   0  0  0  0  0  0
  -25.9106  -32.4764   23.8340 C   0  0  1  0  0  0
  -27.2138  -27.2762   20.1092 C   0  0  0  0  0  0
  -25.5946  -33.8568   24.2265 N   0  0  0  0  0  0
  -23.4239  -30.4828   21.5436 C   0  0  2  0  0  0
  -24.8705  -28.9404   20.1075 C   0  0  0  0  0  0
  -22.7497  -29.4620   22.4914 C   0  0  0  0  0  0
  -18.0283  -28.1388   22.8510 C   0  0  0  0  0  0
  -24.1466  -36.7232   23.2656 C   0  0  0  0  0  0
  -25.9724  -30.7743   21.3808 C   0  0  0  0  0  0
  -26.0452  -29.3992   20.7195 C   0  0  0  0  0  0
  -27.2199  -28.5784   20.7145 C   0  0  0  0  0  0
  -26.0189  -26.9016   19.4495 C   0  0  0  0  0  0
  -24.8620  -27.6980   19.4643 C   0  0  0  0  0  0
  -23.6400  -29.8213   20.1585 C   0  0  0  0  0  0
  -25.4104  -36.3067   24.0348 C   0  0  1  0  0  0
  -20.5904  -28.3683   23.1286 C   0  0  2  0  0  0
  -20.6777  -26.9402   22.5425 C   0  0  0  0  0  0
  -19.5760  -26.6358   21.5229 C   0  0  0  0  0  0
  -18.1921  -26.7946   22.1592 C   0  0  0  0  0  0
  -19.1551  -28.8846   23.2895 C   0  0  0  0  0  0
  -18.9488  -30.1456   23.8900 C   0  0  0  0  0  0
  -17.6488  -30.6600   24.0568 C   0  0  0  0  0  0
  -25.9055  -34.9456   23.5103 C   0  0  0  0  0  0
  -16.5364  -29.9109   23.6356 C   0  0  0  0  0  0
  -16.7270  -28.6520   23.0386 C   0  0  0  0  0  0
  -26.4476  -31.6606   25.0729 C   0  0  0  0  0  0
  -25.3715  -31.3830   26.1491 C   0  0  0  0  0  0
  -27.0259  -30.3001   24.6215 C   0  0  0  0  0  0
  -27.6088  -32.4319   25.7437 C   0  0  0  0  0  0
  -27.5564  -37.1778   24.8494 C   0  0  0  0  0  0
  -21.4202  -29.3030   22.3674 N   0  0  0  0  0  0
  -26.4266  -37.3784   23.9450 N   0  0  0  0  0  0
  -24.6929  -31.0578   22.0958 N   0  0  0  0  0  0
  -23.4226  -28.8153   23.2985 O   0  0  0  0  0  0
  -28.2846  -26.3497   20.1789 O   0  0  0  0  0  0
  -26.5612  -34.8942   22.4665 O   0  0  0  0  0  0
  -23.5423  -32.1365   23.7329 O   0  0  0  0  0  0
  -30.6068  -20.8835   20.7734 C   0  0  0  0  0  0
  -30.9580  -19.4687   20.7254 C   0  0  0  0  0  0
  -29.9486  -18.6326   20.2807 C   0  0  0  0  0  0
  -29.3249  -21.2143   20.3781 C   0  0  0  0  0  0
  -29.0545  -23.7713   20.3653 C   0  0  0  0  0  0
  -32.3372  -18.9721   21.0604 C   0  0  0  0  0  0
  -27.2122  -24.8349   21.7865 C   0  0  0  0  0  0
  -29.6102  -16.2555   22.1325 C   0  0  0  0  0  0
  -30.0318  -17.1163   19.8315 C   0  0  0  0  0  0
  -27.9193  -24.9023   20.4153 C   0  0  1  0  0  0
  -28.6559  -22.4446   20.3123 N   0  0  0  0  0  0
  -29.9788  -15.9039   20.7604 N   0  0  0  0  0  0
  -30.2452  -24.0979   20.3642 O   0  0  0  0  0  0
  -28.5316  -19.6660   19.9662 S   0  0  0  0  0  0
  -31.4810  -12.5486   19.1848 H   0  0  0  0  0  0
  -30.3662  -11.4700   19.9609 H   0  0  0  0  0  0
  -29.8087  -11.7593   17.5215 H   0  0  0  0  0  0
  -29.6456  -13.4841   17.7511 H   0  0  0  0  0  0
  -27.9177  -11.2845   18.9300 H   0  0  0  0  0  0
  -27.3859  -12.5175   17.8156 H   0  0  0  0  0  0
  -27.6525  -14.2581   19.4901 H   0  0  0  0  0  0
  -28.7291  -12.1642   21.4397 H   0  0  0  0  0  0
  -28.4057  -13.8304   21.8061 H   0  0  0  0  0  0
  -25.2759   -9.5678   22.4745 H   0  0  0  0  0  0
  -23.9973   -7.4628   22.7452 H   0  0  0  0  0  0
  -21.0828   -8.8761   19.8942 H   0  0  0  0  0  0
  -22.3685  -10.9656   19.6137 H   0  0  0  0  0  0
  -21.1986   -7.6135   23.9700 H   0  0  0  0  0  0
  -21.1455   -6.0512   25.9065 H   0  0  0  0  0  0
  -22.0618   -2.7598   23.2853 H   0  0  0  0  0  0
  -22.4104  -11.9824   22.4759 H   0  0  0  0  0  0
  -21.1138  -13.1216   22.2662 H   0  0  0  0  0  0
  -24.6747  -15.8578   20.5260 H   0  0  0  0  0  0
  -26.2950  -15.6219   20.1061 H   0  0  0  0  0  0
  -26.7175  -32.5403   23.1082 H   0  0  0  0  0  0
  -25.0192  -33.9727   25.0468 H   0  0  0  0  0  0
  -22.7188  -31.3038   21.4005 H   0  0  0  0  0  0
  -23.3800  -35.9494   23.3276 H   0  0  0  0  0  0
  -24.3550  -36.8868   22.2078 H   0  0  0  0  0  0
  -23.7121  -37.6379   23.6685 H   0  0  0  0  0  0
  -26.1173  -31.5379   20.6154 H   0  0  0  0  0  0
  -26.8479  -30.8158   22.0166 H   0  0  0  0  0  0
  -28.1126  -28.9195   21.2202 H   0  0  0  0  0  0
  -25.9334  -25.9673   18.9192 H   0  0  0  0  0  0
  -23.9646  -27.3457   18.9708 H   0  0  0  0  0  0
  -23.7591  -30.5978   19.4039 H   0  0  0  0  0  0
  -22.7594  -29.2524   19.8538 H   0  0  0  0  0  0
  -25.1295  -36.1888   25.0841 H   0  0  0  0  0  0
  -20.9981  -28.3229   24.1408 H   0  0  0  0  0  0
  -20.5663  -26.2303   23.3635 H   0  0  0  0  0  0
  -21.6652  -26.7412   22.1203 H   0  0  0  0  0  0
  -19.6927  -25.6267   21.1255 H   0  0  0  0  0  0
  -19.6715  -27.3181   20.6780 H   0  0  0  0  0  0
  -17.4218  -26.6768   21.3963 H   0  0  0  0  0  0
  -18.0257  -26.0057   22.8943 H   0  0  0  0  0  0
  -19.7967  -30.7280   24.2247 H   0  0  0  0  0  0
  -17.5055  -31.6299   24.5157 H   0  0  0  0  0  0
  -15.5378  -30.3023   23.7719 H   0  0  0  0  0  0
  -15.8656  -28.0837   22.7130 H   0  0  0  0  0  0
  -24.5850  -30.7213   25.7857 H   0  0  0  0  0  0
  -24.8969  -32.3035   26.4900 H   0  0  0  0  0  0
  -25.8023  -30.9010   27.0267 H   0  0  0  0  0  0
  -26.2802  -29.6780   24.1263 H   0  0  0  0  0  0
  -27.3945  -29.7252   25.4706 H   0  0  0  0  0  0
  -27.8693  -30.4235   23.9431 H   0  0  0  0  0  0
  -27.2799  -33.3731   26.1839 H   0  0  0  0  0  0
  -28.3970  -32.6645   25.0271 H   0  0  0  0  0  0
  -28.0650  -31.8520   26.5460 H   0  0  0  0  0  0
  -28.2633  -38.0025   24.7493 H   0  0  0  0  0  0
  -28.0986  -36.2562   24.6338 H   0  0  0  0  0  0
  -27.2301  -37.1447   25.8905 H   0  0  0  0  0  0
  -20.9396  -29.8749   21.6876 H   0  0  0  0  0  0
  -26.0126  -38.2840   24.1497 H   0  0  0  0  0  0
  -31.3346  -21.6201   21.0900 H   0  0  0  0  0  0
  -32.8844  -19.6754   21.6900 H   0  0  0  0  0  0
  -32.9272  -18.8201   20.1560 H   0  0  0  0  0  0
  -32.3051  -18.0228   21.5944 H   0  0  0  0  0  0
  -26.9744  -23.8120   22.0788 H   0  0  0  0  0  0
  -26.2717  -25.3836   21.7800 H   0  0  0  0  0  0
  -27.8381  -25.2723   22.5653 H   0  0  0  0  0  0
  -28.6407  -16.7577   22.1480 H   0  0  0  0  0  0
  -30.3461  -16.9367   22.5627 H   0  0  0  0  0  0
  -29.5569  -15.3953   22.7997 H   0  0  0  0  0  0
  -30.9370  -17.0219   19.2306 H   0  0  0  0  0  0
  -29.2331  -16.9567   19.1044 H   0  0  0  0  0  0
  -27.2272  -24.5697   19.6444 H   0  0  0  0  0  0
  -27.6535  -22.3536   20.2255 H   0  0  0  0  0  0
  1 25  1  0  0  0
  1 30  2  0  0  0
  1 82  1  0  0  0
  2  3  1  0  0  0
  2 25  1  0  0  0
  2 85  1  0  0  0
  2 86  1  0  0  0
  3  4  1  0  0  0
  3 87  1  0  0  0
  3 88  1  0  0  0
  4  5  1  0  0  0
  4 89  1  0  0  0
  4 90  1  0  0  0
  5  6  1  0  0  0
  5 26  1  0  0  0
  5 91  1  0  0  0
  6 25  1  0  0  0
  6 92  1  0  0  0
  6 93  1  0  0  0
  7  8  2  0  0  0
  7 26  1  0  0  0
  7 29  1  0  0  0
  8  9  1  0  0  0
  8 22  1  0  0  0
  9 10  1  0  0  0
  9 27  2  0  0  0
 10 11  2  0  0  0
 10 15  1  0  0  0
 11 12  1  0  0  0
 11 94  1  0  0  0
 12 13  2  0  0  0
 12 95  1  0  0  0
 13 14  1  0  0  0
 13 31  1  0  0  0
 14 15  2  0  0  0
 14 96  1  0  0  0
 15 97  1  0  0  0
 16 17  2  0  0  0
 16 21  1  0  0  0
 16 31  1  0  0  0
 17 18  1  0  0  0
 17 98  1  0  0  0
 18 19  2  0  0  0
 18 99  1  0  0  0
 19 20  1  0  0  0
 19 24  1  0  0  0
 20 21  2  0  0  0
 20100  1  0  0  0
 21 23  1  0  0  0
 22 28  1  0  0  0
 22 32  2  0  0  0
 26 27  1  0  0  0
 28101  1  0  0  0
 28102  1  0  0  0
 29103  1  0  0  0
 29104  1  0  0  0
 33 34  1  0  0  0
 33 66  1  0  0  0
 33 70  2  0  0  0
 34 36  1  0  0  0
 34 59  1  0  0  0
 34105  1  0  0  0
 35 44  2  0  0  0
 35 45  1  0  0  0
 35 68  1  0  0  0
 36 56  1  0  0  0
 36106  1  0  0  0
 37 39  1  0  0  0
 37 47  1  0  0  0
 37 66  1  0  0  0
 37107  1  0  0  0
 38 43  2  0  0  0
 38 46  1  0  0  0
 38 47  1  0  0  0
 39 64  1  0  0  0
 39 67  2  0  0  0
 40 52  1  0  0  0
 40 53  2  0  0  0
 40 58  1  0  0  0
 41108  1  0  0  0
 41109  1  0  0  0
 41110  1  0  0  0
 41 48  1  0  0  0
 42 43  1  0  0  0
 42 66  1  0  0  0
 42111  1  0  0  0
 42112  1  0  0  0
 43 44  1  0  0  0
 44113  1  0  0  0
 45 46  2  0  0  0
 45114  1  0  0  0
 46115  1  0  0  0
 47116  1  0  0  0
 47117  1  0  0  0
 48 56  1  0  0  0
 48 65  1  0  0  0
 48118  1  0  0  0
 49 50  1  0  0  0
 49 53  1  0  0  0
 49 64  1  0  0  0
 49119  1  0  0  0
 50 51  1  0  0  0
 50120  1  0  0  0
 50121  1  0  0  0
 51 52  1  0  0  0
 51122  1  0  0  0
 51123  1  0  0  0
 52124  1  0  0  0
 52125  1  0  0  0
 53 54  1  0  0  0
 54 55  2  0  0  0
 54126  1  0  0  0
 55 57  1  0  0  0
 55127  1  0  0  0
 56 69  2  0  0  0
 57 58  2  0  0  0
 57128  1  0  0  0
 58129  1  0  0  0
 59 60  1  0  0  0
 59 61  1  0  0  0
 59 62  1  0  0  0
 60130  1  0  0  0
 60131  1  0  0  0
 60132  1  0  0  0
 61133  1  0  0  0
 61134  1  0  0  0
 61135  1  0  0  0
 62136  1  0  0  0
 62137  1  0  0  0
 62138  1  0  0  0
 63 65  1  0  0  0
 63139  1  0  0  0
 63140  1  0  0  0
 63141  1  0  0  0
 64142  1  0  0  0
 65143  1  0  0  0
 68 80  1  0  0  0
 71 72  1  0  0  0
 71 74  2  0  0  0
 71144  1  0  0  0
 72 73  2  0  0  0
 72 76  1  0  0  0
 73 79  1  0  0  0
 73 84  1  0  0  0
 74 81  1  0  0  0
 74 84  1  0  0  0
 75 80  1  0  0  0
 75 81  1  0  0  0
 75 83  2  0  0  0
 76145  1  0  0  0
 76146  1  0  0  0
 76147  1  0  0  0
 77148  1  0  0  0
 77149  1  0  0  0
 77150  1  0  0  0
 77 80  1  0  0  0
 78 82  1  0  0  0
 78151  1  0  0  0
 78152  1  0  0  0
 78153  1  0  0  0
 79 82  1  0  0  0
 79154  1  0  0  0
 79155  1  0  0  0
 80156  1  0  0  0
 81157  1  0  0  0
M  ISO  4   1 100  68 101  80 101  82 100
M  END
> <chiral flag>
0

> <version>
0

> <s_m_source_file>
/data/baiqing/PycharmProjects/Reinvent-master-3.2/result/LINK_invent/BTK/process_docking_weight1_custom_product_contain_oxygen_bond_distance_aromatic_linkinvent_7_9_3/rearranged_h_0184.sdf

> <i_m_source_file_index>
6

> <r_mmod_Potential_Energy-OPLS-2005>
246.230926513672

> <r_mmod_Stretch_Energy-OPLS-2005>
113.844749450684

> <r_mmod_Bend_Energy-OPLS-2005>
180.205078125

> <r_mmod_Torsional_Energy-OPLS-2005>
291.614044189453

> <r_mmod_Improper_Torsional_Energy-OPLS-2005>
10.6748609542847

> <r_mmod_Van_der_Waal_Energy-OPLS-2005>
119.918190002441

> <r_mmod_Electrostatic_Energy-OPLS-2005>
-328.396789550781

> <r_mmod_Solvation_Energy-OPLS-2005>
-219.550094604492

> <b_mmod_Minimization_Converged-OPLS-2005>
0

> <r_mmod_RMS_Derivative-OPLS-2005>
3.81010460853577

$$$$
6
                    3D
 Structure written by MMmdl.
149157  0  0  1  0            999 V2000
  -30.5839  -14.7681   20.4627 C   0  0  0  0  0  0
  -30.4423  -12.4631   19.4828 C   0  0  0  0  0  0
  -29.5188  -12.5111   18.2434 C   0  0  0  0  0  0
  -28.0439  -12.3286   18.6529 C   0  0  0  0  0  0
  -27.6457  -13.2284   19.8528 C   0  0  2  0  0  0
  -28.6872  -13.1525   20.9890 C   0  0  0  0  0  0
  -25.2539  -13.8186   20.5693 C   0  0  0  0  0  0
  -24.1814  -13.0443   20.9191 C   0  0  0  0  0  0
  -24.6394  -11.6915   20.8733 C   0  0  0  0  0  0
  -23.9064  -10.4296   21.0400 C   0  0  0  0  0  0
  -24.3615   -9.4212   21.9178 C   0  0  0  0  0  0
  -23.6291   -8.2245   22.0752 C   0  0  0  0  0  0
  -22.4274   -8.0284   21.3543 C   0  0  0  0  0  0
  -21.9908   -9.0258   20.4647 C   0  0  0  0  0  0
  -22.7236  -10.2137   20.3053 C   0  0  0  0  0  0
  -21.6855   -6.0734   22.5277 C   0  0  0  0  0  0
  -21.4018   -6.5638   23.8211 C   0  0  0  0  0  0
  -21.3658   -5.6791   24.9173 C   0  0  0  0  0  0
  -21.6042   -4.3053   24.7223 C   0  0  0  0  0  0
  -21.8818   -3.8144   23.4343 C   0  0  0  0  0  0
  -21.9196   -4.6961   22.3401 C   0  0  0  0  0  0
  -22.7838  -13.5236   21.1859 C   0  0  0  0  0  0
  -22.1661   -4.2148   21.0979 F   0  0  0  0  0  0
  -21.5631   -3.4534   25.7736 F   0  0  0  0  0  0
  -29.9934  -13.5192   20.4222 N   0  0  0  0  0  0
  -26.2959  -12.9384   20.3279 N   0  0  0  0  0  0
  -25.9326  -11.6528   20.5732 N   0  0  0  0  0  0
  -22.0480  -12.8233   22.0417 N   0  0  0  0  0  0
  -25.4267  -15.1908   20.4147 N   0  0  0  0  0  0
  -31.7684  -14.8586   20.1059 O   0  0  0  0  0  0
  -21.6643   -6.8877   21.4237 O   0  0  0  0  0  0
  -22.3521  -14.5542   20.6707 O   0  0  0  0  0  0
  -24.6325  -31.8542   23.1974 C   0  0  0  0  0  0
  -25.9142  -32.4750   23.8327 C   0  0  1  0  0  0
  -27.2191  -27.2495   20.1351 C   0  0  0  0  0  0
  -25.5928  -33.8552   24.2246 N   0  0  0  0  0  0
  -23.4308  -30.4756   21.5415 C   0  0  2  0  0  0
  -24.8794  -28.9211   20.1116 C   0  0  0  0  0  0
  -22.7513  -29.4594   22.4912 C   0  0  0  0  0  0
  -18.0292  -28.1388   22.8486 C   0  0  0  0  0  0
  -24.1492  -36.7286   23.2641 C   0  0  0  0  0  0
  -25.9780  -30.7635   21.3795 C   0  0  0  0  0  0
  -26.0522  -29.3845   20.7224 C   0  0  0  0  0  0
  -27.2277  -28.5628   20.7205 C   0  0  0  0  0  0
  -26.0279  -26.8631   19.4840 C   0  0  0  0  0  0
  -24.8732  -27.6688   19.4793 C   0  0  0  0  0  0
  -23.6501  -29.8086   20.1584 C   0  0  0  0  0  0
  -25.4119  -36.3068   24.0325 C   0  0  1  0  0  0
  -20.5900  -28.3702   23.1266 C   0  0  2  0  0  0
  -20.6783  -26.9419   22.5405 C   0  0  0  0  0  0
  -19.5756  -26.6385   21.5213 C   0  0  0  0  0  0
  -18.1937  -26.7929   22.1630 C   0  0  0  0  0  0
  -19.1547  -28.8862   23.2870 C   0  0  0  0  0  0
  -18.9466  -30.1463   23.8890 C   0  0  0  0  0  0
  -17.6466  -30.6591   24.0560 C   0  0  0  0  0  0
  -25.9057  -34.9439   23.5090 C   0  0  0  0  0  0
  -16.5356  -29.9086   23.6333 C   0  0  0  0  0  0
  -16.7279  -28.6502   23.0356 C   0  0  0  0  0  0
  -26.4507  -31.6579   25.0720 C   0  0  0  0  0  0
  -25.3730  -31.3738   26.1443 C   0  0  0  0  0  0
  -27.0353  -30.2990   24.6218 C   0  0  0  0  0  0
  -27.6058  -32.4329   25.7487 C   0  0  0  0  0  0
  -27.5581  -37.1794   24.8463 C   0  0  0  0  0  0
  -21.4219  -29.3045   22.3653 N   0  0  0  0  0  0
  -26.4292  -37.3770   23.9409 N   0  0  0  0  0  0
  -24.6997  -31.0491   22.0957 N   0  0  0  0  0  0
  -23.4204  -28.8135   23.3018 O   0  0  0  0  0  0
  -28.2953  -26.3265   20.1694 O   0  0  0  0  0  0
  -26.5638  -34.8917   22.4665 O   0  0  0  0  0  0
  -23.5469  -32.1373   23.7254 O   0  0  0  0  0  0
  -29.6565  -18.7077   20.4769 C   0  0  0  0  0  0
  -30.6980  -19.0903   19.6642 C   0  0  0  0  0  0
  -29.3255  -21.0866   20.3210 C   0  0  0  0  0  0
  -29.2940  -17.2752   20.9627 C   0  0  0  0  0  0
  -29.6914  -15.9332   20.8703 C   0  0  0  0  0  0
  -28.9533  -23.7023   20.1973 C   0  0  0  0  0  0
  -28.0264  -25.0245   22.2026 C   0  0  0  0  0  0
  -28.0079  -24.9240   20.6678 C   0  0  1  0  0  0
  -28.8851  -19.8840   20.8323 N   0  0  0  0  0  0
  -28.6590  -22.3925   20.5735 N   0  0  0  0  0  0
  -29.9354  -23.9619   19.4975 O   0  0  0  0  0  0
  -31.6107  -18.2350   19.1408 F   0  0  0  0  0  0
  -30.7751  -20.8234   19.3309 S   0  0  0  0  0  0
  -31.4826  -12.5913   19.1812 H   0  0  0  0  0  0
  -30.3921  -11.4843   19.9623 H   0  0  0  0  0  0
  -29.8071  -11.7387   17.5296 H   0  0  0  0  0  0
  -29.6423  -13.4654   17.7289 H   0  0  0  0  0  0
  -27.9075  -11.2798   18.9197 H   0  0  0  0  0  0
  -27.3859  -12.5135   17.8030 H   0  0  0  0  0  0
  -27.6444  -14.2517   19.4772 H   0  0  0  0  0  0
  -28.7249  -12.1483   21.4142 H   0  0  0  0  0  0
  -28.4090  -13.8144   21.8104 H   0  0  0  0  0  0
  -25.2756   -9.5695   22.4754 H   0  0  0  0  0  0
  -24.0004   -7.4639   22.7472 H   0  0  0  0  0  0
  -21.0837   -8.8773   19.8956 H   0  0  0  0  0  0
  -22.3685  -10.9675   19.6165 H   0  0  0  0  0  0
  -21.2009   -7.6144   23.9716 H   0  0  0  0  0  0
  -21.1482   -6.0518   25.9077 H   0  0  0  0  0  0
  -22.0599   -2.7607   23.2843 H   0  0  0  0  0  0
  -22.4096  -11.9904   22.4820 H   0  0  0  0  0  0
  -21.1097  -13.1266   22.2616 H   0  0  0  0  0  0
  -24.6680  -15.8522   20.5399 H   0  0  0  0  0  0
  -26.2920  -15.6296   20.1248 H   0  0  0  0  0  0
  -26.7207  -32.5400   23.1065 H   0  0  0  0  0  0
  -25.0043  -33.9688   25.0369 H   0  0  0  0  0  0
  -22.7282  -31.2986   21.3939 H   0  0  0  0  0  0
  -23.3756  -35.9614   23.3293 H   0  0  0  0  0  0
  -24.3582  -36.8924   22.2057 H   0  0  0  0  0  0
  -23.7240  -37.6481   23.6676 H   0  0  0  0  0  0
  -26.1174  -31.5232   20.6095 H   0  0  0  0  0  0
  -26.8550  -30.8134   22.0132 H   0  0  0  0  0  0
  -28.1254  -28.9118   21.2110 H   0  0  0  0  0  0
  -25.9727  -25.9106   18.9778 H   0  0  0  0  0  0
  -23.9788  -27.3124   18.9870 H   0  0  0  0  0  0
  -23.7748  -30.5841   19.4016 H   0  0  0  0  0  0
  -22.7687  -29.2414   19.8539 H   0  0  0  0  0  0
  -25.1301  -36.1914   25.0816 H   0  0  0  0  0  0
  -20.9991  -28.3276   24.1387 H   0  0  0  0  0  0
  -20.5692  -26.2308   23.3607 H   0  0  0  0  0  0
  -21.6648  -26.7448   22.1190 H   0  0  0  0  0  0
  -19.6916  -25.6292   21.1246 H   0  0  0  0  0  0
  -19.6687  -27.3190   20.6738 H   0  0  0  0  0  0
  -17.4203  -26.6668   21.4038 H   0  0  0  0  0  0
  -18.0345  -26.0076   22.9034 H   0  0  0  0  0  0
  -19.7941  -30.7279   24.2259 H   0  0  0  0  0  0
  -17.5018  -31.6272   24.5157 H   0  0  0  0  0  0
  -15.5356  -30.2983   23.7661 H   0  0  0  0  0  0
  -15.8678  -28.0815   22.7080 H   0  0  0  0  0  0
  -24.5842  -30.7178   25.7746 H   0  0  0  0  0  0
  -24.9006  -32.2921   26.4941 H   0  0  0  0  0  0
  -25.8027  -30.8819   27.0179 H   0  0  0  0  0  0
  -26.2934  -29.6729   24.1247 H   0  0  0  0  0  0
  -27.4030  -29.7266   25.4745 H   0  0  0  0  0  0
  -27.8818  -30.4258   23.9466 H   0  0  0  0  0  0
  -27.2656  -33.3619   26.2078 H   0  0  0  0  0  0
  -28.3852  -32.6916   25.0305 H   0  0  0  0  0  0
  -28.0752  -31.8457   26.5392 H   0  0  0  0  0  0
  -28.2592  -38.0099   24.7521 H   0  0  0  0  0  0
  -28.1086  -36.2629   24.6276 H   0  0  0  0  0  0
  -27.2300  -37.1425   25.8867 H   0  0  0  0  0  0
  -20.9408  -29.8758   21.6848 H   0  0  0  0  0  0
  -26.0171  -38.2841   24.1419 H   0  0  0  0  0  0
  -28.4215  -17.3446   21.5952 H   0  0  0  0  0  0
  -30.3557  -16.4379   20.1930 H   0  0  0  0  0  0
  -27.8103  -24.0672   22.6775 H   0  0  0  0  0  0
  -27.2806  -25.7347   22.5591 H   0  0  0  0  0  0
  -29.0004  -25.3606   22.5586 H   0  0  0  0  0  0
  -27.0058  -24.6181   20.3718 H   0  0  0  0  0  0
  -27.8293  -22.3186   21.1430 H   0  0  0  0  0  0
  1 25  1  0  0  0
  1 30  2  0  0  0
  1 75  1  0  0  0
  2  3  1  0  0  0
  2 25  1  0  0  0
  2 84  1  0  0  0
  2 85  1  0  0  0
  3  4  1  0  0  0
  3 86  1  0  0  0
  3 87  1  0  0  0
  4  5  1  0  0  0
  4 88  1  0  0  0
  4 89  1  0  0  0
  5  6  1  0  0  0
  5 26  1  0  0  0
  5 90  1  0  0  0
  6 25  1  0  0  0
  6 91  1  0  0  0
  6 92  1  0  0  0
  7  8  2  0  0  0
  7 26  1  0  0  0
  7 29  1  0  0  0
  8  9  1  0  0  0
  8 22  1  0  0  0
  9 10  1  0  0  0
  9 27  2  0  0  0
 10 11  2  0  0  0
 10 15  1  0  0  0
 11 12  1  0  0  0
 11 93  1  0  0  0
 12 13  2  0  0  0
 12 94  1  0  0  0
 13 14  1  0  0  0
 13 31  1  0  0  0
 14 15  2  0  0  0
 14 95  1  0  0  0
 15 96  1  0  0  0
 16 17  2  0  0  0
 16 21  1  0  0  0
 16 31  1  0  0  0
 17 18  1  0  0  0
 17 97  1  0  0  0
 18 19  2  0  0  0
 18 98  1  0  0  0
 19 20  1  0  0  0
 19 24  1  0  0  0
 20 21  2  0  0  0
 20 99  1  0  0  0
 21 23  1  0  0  0
 22 28  1  0  0  0
 22 32  2  0  0  0
 26 27  1  0  0  0
 28100  1  0  0  0
 28101  1  0  0  0
 29102  1  0  0  0
 29103  1  0  0  0
 33 34  1  0  0  0
 33 66  1  0  0  0
 33 70  2  0  0  0
 34 36  1  0  0  0
 34 59  1  0  0  0
 34104  1  0  0  0
 35 44  2  0  0  0
 35 45  1  0  0  0
 35 68  1  0  0  0
 36 56  1  0  0  0
 36105  1  0  0  0
 37 39  1  0  0  0
 37 47  1  0  0  0
 37 66  1  0  0  0
 37106  1  0  0  0
 38 43  2  0  0  0
 38 46  1  0  0  0
 38 47  1  0  0  0
 39 64  1  0  0  0
 39 67  2  0  0  0
 40 52  1  0  0  0
 40 53  2  0  0  0
 40 58  1  0  0  0
 41107  1  0  0  0
 41108  1  0  0  0
 41109  1  0  0  0
 41 48  1  0  0  0
 42 43  1  0  0  0
 42 66  1  0  0  0
 42110  1  0  0  0
 42111  1  0  0  0
 43 44  1  0  0  0
 44112  1  0  0  0
 45 46  2  0  0  0
 45113  1  0  0  0
 46114  1  0  0  0
 47115  1  0  0  0
 47116  1  0  0  0
 48 56  1  0  0  0
 48 65  1  0  0  0
 48117  1  0  0  0
 49 50  1  0  0  0
 49 53  1  0  0  0
 49 64  1  0  0  0
 49118  1  0  0  0
 50 51  1  0  0  0
 50119  1  0  0  0
 50120  1  0  0  0
 51 52  1  0  0  0
 51121  1  0  0  0
 51122  1  0  0  0
 52123  1  0  0  0
 52124  1  0  0  0
 53 54  1  0  0  0
 54 55  2  0  0  0
 54125  1  0  0  0
 55 57  1  0  0  0
 55126  1  0  0  0
 56 69  2  0  0  0
 57 58  2  0  0  0
 57127  1  0  0  0
 58128  1  0  0  0
 59 60  1  0  0  0
 59 61  1  0  0  0
 59 62  1  0  0  0
 60129  1  0  0  0
 60130  1  0  0  0
 60131  1  0  0  0
 61132  1  0  0  0
 61133  1  0  0  0
 61134  1  0  0  0
 62135  1  0  0  0
 62136  1  0  0  0
 62137  1  0  0  0
 63 65  1  0  0  0
 63138  1  0  0  0
 63139  1  0  0  0
 63140  1  0  0  0
 64141  1  0  0  0
 65142  1  0  0  0
 68 78  1  0  0  0
 71 72  2  0  0  0
 71 74  1  0  0  0
 71 79  1  0  0  0
 72 82  1  0  0  0
 72 83  1  0  0  0
 73 79  2  0  0  0
 73 80  1  0  0  0
 73 83  1  0  0  0
 74 75  2  0  0  0
 74143  1  0  0  0
 75144  1  0  0  0
 76 78  1  0  0  0
 76 80  1  0  0  0
 76 81  2  0  0  0
 77145  1  0  0  0
 77146  1  0  0  0
 77147  1  0  0  0
 77 78  1  0  0  0
 78148  1  0  0  0
 80149  1  0  0  0
M  ISO  4   1 100  68 101  75 100  78 101
M  END
> <chiral flag>
0

> <version>
0

> <s_m_source_file>
/data/baiqing/PycharmProjects/Reinvent-master-3.2/result/LINK_invent/BTK/process_docking_weight1_custom_product_contain_oxygen_bond_distance_aromatic_linkinvent_7_9_3/rearranged_h_0184.sdf

> <i_m_source_file_index>
7

> <r_mmod_Potential_Energy-OPLS-2005>
396.935424804688

> <r_mmod_Stretch_Energy-OPLS-2005>
131.973556518555

> <r_mmod_Bend_Energy-OPLS-2005>
461.863159179688

> <r_mmod_Torsional_Energy-OPLS-2005>
200.312210083008

> <r_mmod_Improper_Torsional_Energy-OPLS-2005>
2.89470100402832

> <r_mmod_Van_der_Waal_Energy-OPLS-2005>
127.677658081055

> <r_mmod_Electrostatic_Energy-OPLS-2005>
-395.69091796875

> <r_mmod_Solvation_Energy-OPLS-2005>
-224.941482543945

> <b_mmod_Minimization_Converged-OPLS-2005>
0

> <r_mmod_RMS_Derivative-OPLS-2005>
0.81987065076828

$$$$
7
                    3D
 Structure written by MMmdl.
158166  0  0  1  0            999 V2000
  -30.6705  -14.4910   20.5421 C   0  0  0  0  0  0
  -30.4339  -12.2990   19.4378 C   0  0  0  0  0  0
  -29.5105  -12.4937   18.2179 C   0  0  0  0  0  0
  -28.0294  -12.3535   18.6275 C   0  0  0  0  0  0
  -27.6619  -13.2050   19.8727 C   0  0  2  0  0  0
  -28.7025  -12.9837   20.9971 C   0  0  0  0  0  0
  -25.2548  -13.8146   20.5657 C   0  0  0  0  0  0
  -24.1817  -13.0423   20.9169 C   0  0  0  0  0  0
  -24.6370  -11.6898   20.8703 C   0  0  0  0  0  0
  -23.9031  -10.4279   21.0397 C   0  0  0  0  0  0
  -24.3573   -9.4200   21.9182 C   0  0  0  0  0  0
  -23.6256   -8.2230   22.0751 C   0  0  0  0  0  0
  -22.4246   -8.0257   21.3540 C   0  0  0  0  0  0
  -21.9879   -9.0234   20.4635 C   0  0  0  0  0  0
  -22.7197  -10.2112   20.3043 C   0  0  0  0  0  0
  -21.6842   -6.0691   22.5263 C   0  0  0  0  0  0
  -21.4018   -6.5597   23.8193 C   0  0  0  0  0  0
  -21.3672   -5.6768   24.9165 C   0  0  0  0  0  0
  -21.6052   -4.3036   24.7224 C   0  0  0  0  0  0
  -21.8818   -3.8104   23.4352 C   0  0  0  0  0  0
  -21.9187   -4.6912   22.3395 C   0  0  0  0  0  0
  -22.7829  -13.5238   21.1847 C   0  0  0  0  0  0
  -22.1650   -4.2101   21.0976 F   0  0  0  0  0  0
  -21.5645   -3.4519   25.7739 F   0  0  0  0  0  0
  -30.0400  -13.2873   20.4518 N   0  0  0  0  0  0
  -26.3008  -12.9327   20.3336 N   0  0  0  0  0  0
  -25.9293  -11.6488   20.5733 N   0  0  0  0  0  0
  -22.0430  -12.8246   22.0394 N   0  0  0  0  0  0
  -25.4220  -15.1863   20.4059 N   0  0  0  0  0  0
  -31.8099  -14.6847   20.1075 O   0  0  0  0  0  0
  -21.6626   -6.8840   21.4231 O   0  0  0  0  0  0
  -22.3520  -14.5543   20.6684 O   0  0  0  0  0  0
  -24.6115  -31.8680   23.2063 C   0  0  0  0  0  0
  -25.8995  -32.4837   23.8383 C   0  0  1  0  0  0
  -27.2359  -27.4226   20.1002 C   0  0  0  0  0  0
  -25.5841  -33.8636   24.2313 N   0  0  0  0  0  0
  -23.4051  -30.4833   21.5479 C   0  0  2  0  0  0
  -24.8556  -28.9483   20.1150 C   0  0  0  0  0  0
  -22.7429  -29.4624   22.5008 C   0  0  0  0  0  0
  -18.0259  -28.1372   22.8509 C   0  0  0  0  0  0
  -24.1474  -36.7298   23.2653 C   0  0  0  0  0  0
  -25.9335  -30.8243   21.3634 C   0  0  0  0  0  0
  -26.0168  -29.4603   20.7088 C   0  0  0  0  0  0
  -27.2147  -28.7073   20.6941 C   0  0  0  0  0  0
  -26.0618  -26.9296   19.4962 C   0  0  0  0  0  0
  -24.8765  -27.6839   19.4996 C   0  0  0  0  0  0
  -23.6164  -29.8105   20.1643 C   0  0  0  0  0  0
  -25.4112  -36.3141   24.0357 C   0  0  1  0  0  0
  -20.5870  -28.3653   23.1344 C   0  0  2  0  0  0
  -20.6761  -26.9397   22.5425 C   0  0  0  0  0  0
  -19.5737  -26.6390   21.5217 C   0  0  0  0  0  0
  -18.1916  -26.7929   22.1621 C   0  0  0  0  0  0
  -19.1513  -28.8837   23.2909 C   0  0  0  0  0  0
  -18.9448  -30.1457   23.8904 C   0  0  0  0  0  0
  -17.6453  -30.6602   24.0584 C   0  0  0  0  0  0
  -25.9026  -34.9510   23.5154 C   0  0  0  0  0  0
  -16.5337  -29.9106   23.6348 C   0  0  0  0  0  0
  -16.7249  -28.6516   23.0386 C   0  0  0  0  0  0
  -26.4434  -31.6611   25.0701 C   0  0  0  0  0  0
  -25.3701  -31.3714   26.1456 C   0  0  0  0  0  0
  -27.0267  -30.3058   24.6048 C   0  0  0  0  0  0
  -27.6019  -32.4327   25.7456 C   0  0  0  0  0  0
  -27.5594  -37.1819   24.8490 C   0  0  0  0  0  0
  -21.4160  -29.3017   22.3761 N   0  0  0  0  0  0
  -26.4301  -37.3821   23.9439 N   0  0  0  0  0  0
  -24.6679  -31.0754   22.0969 N   0  0  0  0  0  0
  -23.4206  -28.8181   23.3067 O   0  0  0  0  0  0
  -28.3661  -26.6306   20.1258 O   0  0  0  0  0  0
  -26.5612  -34.8970   22.4721 O   0  0  0  0  0  0
  -23.5299  -32.1417   23.7441 O   0  0  0  0  0  0
  -29.5191  -19.3355   20.9319 C   0  0  0  0  0  0
  -30.8531  -18.9820   20.8086 C   0  0  0  0  0  0
  -29.9486  -16.8874   20.8899 C   0  0  0  0  0  0
  -28.7911  -20.6274   21.1331 C   0  0  0  0  0  0
  -28.5790  -26.0352   22.4303 C   0  0  0  0  0  0
  -29.1646  -24.2950   20.5730 C   0  0  0  0  0  0
  -29.1809  -23.0597   21.5397 C   0  0  2  0  0  0
  -28.2686  -25.4994   21.0214 C   0  0  2  0  0  0
  -30.2635  -23.1822   22.6398 C   0  0  0  0  0  0
  -31.0752  -17.5982   20.7404 N   0  0  0  0  0  0
  -31.9620  -19.8316   20.7826 N   0  0  0  0  0  0
  -29.8734  -15.4715   21.0130 N   0  0  0  0  0  0
  -29.4409  -21.7750   20.8602 N   0  0  0  0  0  0
  -27.6401  -20.6292   21.5822 O   0  0  0  0  0  0
  -30.1435  -22.2068   23.5409 F   0  0  0  0  0  0
  -31.4879  -23.1242   22.1099 F   0  0  0  0  0  0
  -28.5167  -17.8968   21.0275 S   0  0  0  0  0  0
  -31.4821  -12.3878   19.1481 H   0  0  0  0  0  0
  -30.3222  -11.2902   19.8398 H   0  0  0  0  0  0
  -29.7561  -11.7666   17.4423 H   0  0  0  0  0  0
  -29.6820  -13.4780   17.7764 H   0  0  0  0  0  0
  -27.8535  -11.3008   18.8480 H   0  0  0  0  0  0
  -27.3761  -12.5998   17.7900 H   0  0  0  0  0  0
  -27.7056  -14.2501   19.5675 H   0  0  0  0  0  0
  -28.6707  -11.9475   21.3408 H   0  0  0  0  0  0
  -28.4603  -13.5782   21.8803 H   0  0  0  0  0  0
  -25.2708   -9.5685   22.4768 H   0  0  0  0  0  0
  -23.9940   -7.4635   22.7493 H   0  0  0  0  0  0
  -21.0793   -8.8748   19.8964 H   0  0  0  0  0  0
  -22.3645  -10.9639   19.6142 H   0  0  0  0  0  0
  -21.2011   -7.6104   23.9690 H   0  0  0  0  0  0
  -21.1514   -6.0493   25.9073 H   0  0  0  0  0  0
  -22.0593   -2.7564   23.2859 H   0  0  0  0  0  0
  -22.3992  -11.9899   22.4812 H   0  0  0  0  0  0
  -21.1059  -13.1320   22.2588 H   0  0  0  0  0  0
  -24.6419  -15.8287   20.5043 H   0  0  0  0  0  0
  -26.2576  -15.6329   20.0507 H   0  0  0  0  0  0
  -26.7056  -32.5569   23.1147 H   0  0  0  0  0  0
  -25.0002  -33.9751   25.0470 H   0  0  0  0  0  0
  -22.6877  -31.2952   21.4037 H   0  0  0  0  0  0
  -23.3762  -35.9596   23.3342 H   0  0  0  0  0  0
  -24.3549  -36.8857   22.2053 H   0  0  0  0  0  0
  -23.7168  -37.6498   23.6616 H   0  0  0  0  0  0
  -26.0408  -31.5835   20.5880 H   0  0  0  0  0  0
  -26.8238  -30.8816   21.9810 H   0  0  0  0  0  0
  -28.1120  -29.0907   21.1593 H   0  0  0  0  0  0
  -26.0700  -25.9511   19.0365 H   0  0  0  0  0  0
  -23.9877  -27.2806   19.0361 H   0  0  0  0  0  0
  -23.7257  -30.5809   19.4001 H   0  0  0  0  0  0
  -22.7441  -29.2257   19.8698 H   0  0  0  0  0  0
  -25.1274  -36.2038   25.0839 H   0  0  0  0  0  0
  -20.9913  -28.3190   24.1493 H   0  0  0  0  0  0
  -20.5682  -26.2233   23.3588 H   0  0  0  0  0  0
  -21.6626  -26.7463   22.1212 H   0  0  0  0  0  0
  -19.6879  -25.6308   21.1234 H   0  0  0  0  0  0
  -19.6695  -27.3223   20.6772 H   0  0  0  0  0  0
  -17.4193  -26.6716   21.4016 H   0  0  0  0  0  0
  -18.0311  -26.0029   22.8981 H   0  0  0  0  0  0
  -19.7915  -30.7306   24.2241 H   0  0  0  0  0  0
  -17.5002  -31.6286   24.5194 H   0  0  0  0  0  0
  -15.5342  -30.3040   23.7664 H   0  0  0  0  0  0
  -15.8631  -28.0859   22.7111 H   0  0  0  0  0  0
  -24.5898  -30.6997   25.7838 H   0  0  0  0  0  0
  -24.8853  -32.2867   26.4876 H   0  0  0  0  0  0
  -25.8085  -30.8955   27.0235 H   0  0  0  0  0  0
  -26.2793  -29.6817   24.1117 H   0  0  0  0  0  0
  -27.4067  -29.7280   25.4482 H   0  0  0  0  0  0
  -27.8621  -30.4398   23.9162 H   0  0  0  0  0  0
  -27.2638  -33.3640   26.2012 H   0  0  0  0  0  0
  -28.3847  -32.6840   25.0287 H   0  0  0  0  0  0
  -28.0632  -31.8436   26.5386 H   0  0  0  0  0  0
  -28.2668  -38.0079   24.7556 H   0  0  0  0  0  0
  -28.1032  -36.2615   24.6307 H   0  0  0  0  0  0
  -27.2297  -37.1466   25.8890 H   0  0  0  0  0  0
  -20.9302  -29.8715   21.6978 H   0  0  0  0  0  0
  -26.0207  -38.2900   24.1450 H   0  0  0  0  0  0
  -28.3978  -25.2848   23.1971 H   0  0  0  0  0  0
  -27.9397  -26.8778   22.6923 H   0  0  0  0  0  0
  -29.6141  -26.3729   22.5025 H   0  0  0  0  0  0
  -28.8017  -23.9723   19.5972 H   0  0  0  0  0  0
  -30.1876  -24.6356   20.4032 H   0  0  0  0  0  0
  -28.2044  -23.0228   22.0274 H   0  0  0  0  0  0
  -27.2455  -25.1212   21.0326 H   0  0  0  0  0  0
  -30.2155  -24.1126   23.1987 H   0  0  0  0  0  0
  -31.9017  -20.7049   21.2951 H   0  0  0  0  0  0
  -32.8663  -19.3890   20.9054 H   0  0  0  0  0  0
  -28.9784  -15.1276   21.3247 H   0  0  0  0  0  0
  -30.3449  -21.6813   20.4173 H   0  0  0  0  0  0
  1 25  1  0  0  0
  1 30  2  0  0  0
  1 82  1  0  0  0
  2  3  1  0  0  0
  2 25  1  0  0  0
  2 88  1  0  0  0
  2 89  1  0  0  0
  3  4  1  0  0  0
  3 90  1  0  0  0
  3 91  1  0  0  0
  4  5  1  0  0  0
  4 92  1  0  0  0
  4 93  1  0  0  0
  5  6  1  0  0  0
  5 26  1  0  0  0
  5 94  1  0  0  0
  6 25  1  0  0  0
  6 95  1  0  0  0
  6 96  1  0  0  0
  7  8  2  0  0  0
  7 26  1  0  0  0
  7 29  1  0  0  0
  8  9  1  0  0  0
  8 22  1  0  0  0
  9 10  1  0  0  0
  9 27  2  0  0  0
 10 11  2  0  0  0
 10 15  1  0  0  0
 11 12  1  0  0  0
 11 97  1  0  0  0
 12 13  2  0  0  0
 12 98  1  0  0  0
 13 14  1  0  0  0
 13 31  1  0  0  0
 14 15  2  0  0  0
 14 99  1  0  0  0
 15100  1  0  0  0
 16 17  2  0  0  0
 16 21  1  0  0  0
 16 31  1  0  0  0
 17 18  1  0  0  0
 17101  1  0  0  0
 18 19  2  0  0  0
 18102  1  0  0  0
 19 20  1  0  0  0
 19 24  1  0  0  0
 20 21  2  0  0  0
 20103  1  0  0  0
 21 23  1  0  0  0
 22 28  1  0  0  0
 22 32  2  0  0  0
 26 27  1  0  0  0
 28104  1  0  0  0
 28105  1  0  0  0
 29106  1  0  0  0
 29107  1  0  0  0
 33 34  1  0  0  0
 33 66  1  0  0  0
 33 70  2  0  0  0
 34 36  1  0  0  0
 34 59  1  0  0  0
 34108  1  0  0  0
 35 44  2  0  0  0
 35 45  1  0  0  0
 35 68  1  0  0  0
 36 56  1  0  0  0
 36109  1  0  0  0
 37 39  1  0  0  0
 37 47  1  0  0  0
 37 66  1  0  0  0
 37110  1  0  0  0
 38 43  2  0  0  0
 38 46  1  0  0  0
 38 47  1  0  0  0
 39 64  1  0  0  0
 39 67  2  0  0  0
 40 52  1  0  0  0
 40 53  2  0  0  0
 40 58  1  0  0  0
 41111  1  0  0  0
 41112  1  0  0  0
 41113  1  0  0  0
 41 48  1  0  0  0
 42 43  1  0  0  0
 42 66  1  0  0  0
 42114  1  0  0  0
 42115  1  0  0  0
 43 44  1  0  0  0
 44116  1  0  0  0
 45 46  2  0  0  0
 45117  1  0  0  0
 46118  1  0  0  0
 47119  1  0  0  0
 47120  1  0  0  0
 48 56  1  0  0  0
 48 65  1  0  0  0
 48121  1  0  0  0
 49 50  1  0  0  0
 49 53  1  0  0  0
 49 64  1  0  0  0
 49122  1  0  0  0
 50 51  1  0  0  0
 50123  1  0  0  0
 50124  1  0  0  0
 51 52  1  0  0  0
 51125  1  0  0  0
 51126  1  0  0  0
 52127  1  0  0  0
 52128  1  0  0  0
 53 54  1  0  0  0
 54 55  2  0  0  0
 54129  1  0  0  0
 55 57  1  0  0  0
 55130  1  0  0  0
 56 69  2  0  0  0
 57 58  2  0  0  0
 57131  1  0  0  0
 58132  1  0  0  0
 59 60  1  0  0  0
 59 61  1  0  0  0
 59 62  1  0  0  0
 60133  1  0  0  0
 60134  1  0  0  0
 60135  1  0  0  0
 61136  1  0  0  0
 61137  1  0  0  0
 61138  1  0  0  0
 62139  1  0  0  0
 62140  1  0  0  0
 62141  1  0  0  0
 63 65  1  0  0  0
 63142  1  0  0  0
 63143  1  0  0  0
 63144  1  0  0  0
 64145  1  0  0  0
 65146  1  0  0  0
 68 78  1  0  0  0
 71 72  2  0  0  0
 71 74  1  0  0  0
 71 87  1  0  0  0
 72 80  1  0  0  0
 72 81  1  0  0  0
 73 80  2  0  0  0
 73 82  1  0  0  0
 73 87  1  0  0  0
 74 83  1  0  0  0
 74 84  2  0  0  0
 75147  1  0  0  0
 75148  1  0  0  0
 75149  1  0  0  0
 75 78  1  0  0  0
 76 78  1  0  0  0
 76150  1  0  0  0
 76151  1  0  0  0
 76 77  1  0  0  0
 77 79  1  0  0  0
 77 83  1  0  0  0
 77152  1  0  0  0
 78153  1  0  0  0
 79 85  1  0  0  0
 79 86  1  0  0  0
 79154  1  0  0  0
 81155  1  0  0  0
 81156  1  0  0  0
 82157  1  0  0  0
 83158  1  0  0  0
M  ISO  4   1 100  68 101  78 101  82 100
M  END
> <chiral flag>
0

> <version>
0

> <s_m_source_file>
/data/baiqing/PycharmProjects/Reinvent-master-3.2/result/LINK_invent/BTK/process_docking_weight1_custom_product_contain_oxygen_bond_distance_aromatic_linkinvent_7_9_3/rearranged_h_0184.sdf

> <i_m_source_file_index>
8

> <r_mmod_Potential_Energy-OPLS-2005>
-144.00341796875

> <r_mmod_Stretch_Energy-OPLS-2005>
41.0613288879395

> <r_mmod_Bend_Energy-OPLS-2005>
108.361701965332

> <r_mmod_Torsional_Energy-OPLS-2005>
265.681518554688

> <r_mmod_Improper_Torsional_Energy-OPLS-2005>
10.0142059326172

> <r_mmod_Van_der_Waal_Energy-OPLS-2005>
131.846618652344

> <r_mmod_Electrostatic_Energy-OPLS-2005>
-473.533660888672

> <r_mmod_Solvation_Energy-OPLS-2005>
-243.958129882812

> <b_mmod_Minimization_Converged-OPLS-2005>
0

> <r_mmod_RMS_Derivative-OPLS-2005>
3.89849162101746

$$$$
8
                    3D
 Structure written by MMmdl.
156164  0  0  1  0            999 V2000
  -30.6596  -14.4921   20.5631 C   0  0  0  0  0  0
  -30.4406  -12.3135   19.4250 C   0  0  0  0  0  0
  -29.5020  -12.4948   18.2111 C   0  0  0  0  0  0
  -28.0224  -12.3514   18.6244 C   0  0  0  0  0  0
  -27.6641  -13.1959   19.8754 C   0  0  2  0  0  0
  -28.7046  -12.9625   20.9948 C   0  0  0  0  0  0
  -25.2605  -13.8149   20.5662 C   0  0  0  0  0  0
  -24.1832  -13.0449   20.9161 C   0  0  0  0  0  0
  -24.6367  -11.6908   20.8745 C   0  0  0  0  0  0
  -23.9036  -10.4301   21.0415 C   0  0  0  0  0  0
  -24.3594   -9.4215   21.9183 C   0  0  0  0  0  0
  -23.6273   -8.2255   22.0754 C   0  0  0  0  0  0
  -22.4255   -8.0290   21.3553 C   0  0  0  0  0  0
  -21.9887   -9.0261   20.4654 C   0  0  0  0  0  0
  -22.7215  -10.2141   20.3065 C   0  0  0  0  0  0
  -21.6847   -6.0737   22.5283 C   0  0  0  0  0  0
  -21.4008   -6.5638   23.8217 C   0  0  0  0  0  0
  -21.3658   -5.6790   24.9175 C   0  0  0  0  0  0
  -21.6041   -4.3055   24.7223 C   0  0  0  0  0  0
  -21.8816   -3.8149   23.4345 C   0  0  0  0  0  0
  -21.9185   -4.6964   22.3403 C   0  0  0  0  0  0
  -22.7862  -13.5263   21.1845 C   0  0  0  0  0  0
  -22.1658   -4.2150   21.0983 F   0  0  0  0  0  0
  -21.5628   -3.4539   25.7737 F   0  0  0  0  0  0
  -30.0390  -13.2851   20.4512 N   0  0  0  0  0  0
  -26.3027  -12.9290   20.3355 N   0  0  0  0  0  0
  -25.9290  -11.6465   20.5765 N   0  0  0  0  0  0
  -22.0493  -12.8265   22.0410 N   0  0  0  0  0  0
  -25.4386  -15.1864   20.4090 N   0  0  0  0  0  0
  -31.7874  -14.7180   20.1120 O   0  0  0  0  0  0
  -21.6634   -6.8880   21.4244 O   0  0  0  0  0  0
  -22.3557  -14.5578   20.6707 O   0  0  0  0  0  0
  -24.6138  -31.8678   23.2116 C   0  0  0  0  0  0
  -25.9036  -32.4823   23.8405 C   0  0  1  0  0  0
  -27.2386  -27.4443   20.0933 C   0  0  0  0  0  0
  -25.5890  -33.8624   24.2335 N   0  0  0  0  0  0
  -23.4022  -30.4913   21.5504 C   0  0  2  0  0  0
  -24.8491  -28.9544   20.1184 C   0  0  0  0  0  0
  -22.7406  -29.4660   22.4991 C   0  0  0  0  0  0
  -18.0266  -28.1377   22.8494 C   0  0  0  0  0  0
  -24.1479  -36.7324   23.2641 C   0  0  0  0  0  0
  -25.9310  -30.8361   21.3641 C   0  0  0  0  0  0
  -26.0099  -29.4713   20.7108 C   0  0  0  0  0  0
  -27.2097  -28.7257   20.6900 C   0  0  0  0  0  0
  -26.0642  -26.9379   19.4998 C   0  0  0  0  0  0
  -24.8707  -27.6862   19.5106 C   0  0  0  0  0  0
  -23.6114  -29.8215   20.1655 C   0  0  0  0  0  0
  -25.4098  -36.3118   24.0340 C   0  0  1  0  0  0
  -20.5856  -28.3663   23.1312 C   0  0  2  0  0  0
  -20.6752  -26.9401   22.5411 C   0  0  0  0  0  0
  -19.5728  -26.6385   21.5208 C   0  0  0  0  0  0
  -18.1911  -26.7924   22.1627 C   0  0  0  0  0  0
  -19.1520  -28.8838   23.2903 C   0  0  0  0  0  0
  -18.9450  -30.1445   23.8910 C   0  0  0  0  0  0
  -17.6455  -30.6584   24.0568 C   0  0  0  0  0  0
  -25.9023  -34.9481   23.5137 C   0  0  0  0  0  0
  -16.5344  -29.9087   23.6332 C   0  0  0  0  0  0
  -16.7259  -28.6505   23.0355 C   0  0  0  0  0  0
  -26.4482  -31.6611   25.0740 C   0  0  0  0  0  0
  -25.3763  -31.3724   26.1507 C   0  0  0  0  0  0
  -27.0329  -30.3052   24.6138 C   0  0  0  0  0  0
  -27.6062  -32.4344   25.7481 C   0  0  0  0  0  0
  -27.5582  -37.1810   24.8463 C   0  0  0  0  0  0
  -21.4140  -29.3035   22.3724 N   0  0  0  0  0  0
  -26.4289  -37.3801   23.9416 N   0  0  0  0  0  0
  -24.6674  -31.0783   22.1003 N   0  0  0  0  0  0
  -23.4188  -28.8200   23.3025 O   0  0  0  0  0  0
  -28.4093  -26.7198   20.0574 O   0  0  0  0  0  0
  -26.5590  -34.8934   22.4702 O   0  0  0  0  0  0
  -23.5334  -32.1426   23.7520 O   0  0  0  0  0  0
  -30.0540  -19.2977   20.5287 C   0  0  0  0  0  0
  -28.7610  -18.8105   20.4733 C   0  0  0  0  0  0
  -29.8442  -16.8310   20.8063 C   0  0  0  0  0  0
  -29.6666  -21.7746   19.8255 C   0  0  0  0  0  0
  -32.0084  -20.9299   20.1309 C   0  0  0  0  0  0
  -29.1646  -22.9932   20.6203 C   0  0  0  0  0  0
  -28.3721  -25.4309   20.6902 C   0  0  0  0  0  0
  -30.5443  -20.7452   20.5753 C   0  0  2  0  0  0
  -29.0136  -24.3178   19.8286 C   0  0  1  0  0  0
  -28.6610  -17.4299   20.6585 N   0  0  0  0  0  0
  -27.5806  -19.5351   20.3199 N   0  0  0  0  0  0
  -29.8729  -15.4433   21.0955 N   0  0  0  0  0  0
  -29.3585  -21.6084   18.6419 O   0  0  0  0  0  0
  -30.2226  -24.7159   19.4242 F   0  0  0  0  0  0
  -31.1927  -17.9579   20.7266 S   0  0  0  0  0  0
  -31.4814  -12.4385   19.1211 H   0  0  0  0  0  0
  -30.3650  -11.3020   19.8272 H   0  0  0  0  0  0
  -29.7468  -11.7668   17.4364 H   0  0  0  0  0  0
  -29.6610  -13.4773   17.7638 H   0  0  0  0  0  0
  -27.8372  -11.2960   18.8298 H   0  0  0  0  0  0
  -27.3691  -12.6166   17.7926 H   0  0  0  0  0  0
  -27.7114  -14.2431   19.5756 H   0  0  0  0  0  0
  -28.6824  -11.9208   21.3166 H   0  0  0  0  0  0
  -28.4555  -13.5383   21.8877 H   0  0  0  0  0  0
  -25.2737   -9.5682   22.4753 H   0  0  0  0  0  0
  -23.9984   -7.4635   22.7459 H   0  0  0  0  0  0
  -21.0821   -8.8782   19.8953 H   0  0  0  0  0  0
  -22.3677  -10.9680   19.6178 H   0  0  0  0  0  0
  -21.2010   -7.6145   23.9715 H   0  0  0  0  0  0
  -21.1481   -6.0525   25.9077 H   0  0  0  0  0  0
  -22.0594   -2.7610   23.2851 H   0  0  0  0  0  0
  -22.4099  -11.9916   22.4789 H   0  0  0  0  0  0
  -21.1132  -13.1333   22.2646 H   0  0  0  0  0  0
  -24.6824  -15.8522   20.5275 H   0  0  0  0  0  0
  -26.3052  -15.6222   20.1185 H   0  0  0  0  0  0
  -26.7112  -32.5537   23.1174 H   0  0  0  0  0  0
  -25.0053  -33.9786   25.0487 H   0  0  0  0  0  0
  -22.6907  -31.3078   21.4091 H   0  0  0  0  0  0
  -23.3740  -35.9659   23.3306 H   0  0  0  0  0  0
  -24.3581  -36.8943   22.2057 H   0  0  0  0  0  0
  -23.7232  -37.6531   23.6655 H   0  0  0  0  0  0
  -26.0470  -31.6047   20.5990 H   0  0  0  0  0  0
  -26.8170  -30.8852   21.9858 H   0  0  0  0  0  0
  -28.1095  -29.1248   21.1378 H   0  0  0  0  0  0
  -26.0739  -25.9698   19.0189 H   0  0  0  0  0  0
  -23.9799  -27.2837   19.0470 H   0  0  0  0  0  0
  -23.7218  -30.5964   19.4056 H   0  0  0  0  0  0
  -22.7351  -29.2421   19.8675 H   0  0  0  0  0  0
  -25.1270  -36.1993   25.0832 H   0  0  0  0  0  0
  -20.9949  -28.3231   24.1431 H   0  0  0  0  0  0
  -20.5641  -26.2280   23.3602 H   0  0  0  0  0  0
  -21.6623  -26.7430   22.1210 H   0  0  0  0  0  0
  -19.6885  -25.6301   21.1224 H   0  0  0  0  0  0
  -19.6658  -27.3208   20.6746 H   0  0  0  0  0  0
  -17.4174  -26.6682   21.4035 H   0  0  0  0  0  0
  -18.0310  -26.0060   22.9015 H   0  0  0  0  0  0
  -19.7928  -30.7257   24.2288 H   0  0  0  0  0  0
  -17.5010  -31.6262   24.5174 H   0  0  0  0  0  0
  -15.5348  -30.2993   23.7647 H   0  0  0  0  0  0
  -15.8659  -28.0825   22.7065 H   0  0  0  0  0  0
  -24.5905  -30.7098   25.7865 H   0  0  0  0  0  0
  -24.8986  -32.2881   26.4997 H   0  0  0  0  0  0
  -25.8124  -30.8870   27.0245 H   0  0  0  0  0  0
  -26.2879  -29.6783   24.1227 H   0  0  0  0  0  0
  -27.4132  -29.7331   25.4612 H   0  0  0  0  0  0
  -27.8697  -30.4372   23.9277 H   0  0  0  0  0  0
  -27.2685  -33.3640   26.2075 H   0  0  0  0  0  0
  -28.3845  -32.6919   25.0284 H   0  0  0  0  0  0
  -28.0763  -31.8470   26.5379 H   0  0  0  0  0  0
  -28.2600  -38.0108   24.7523 H   0  0  0  0  0  0
  -28.1076  -36.2644   24.6259 H   0  0  0  0  0  0
  -27.2310  -37.1429   25.8870 H   0  0  0  0  0  0
  -20.9302  -29.8780   21.6965 H   0  0  0  0  0  0
  -26.0184  -38.2884   24.1424 H   0  0  0  0  0  0
  -32.6963  -20.4146   20.8007 H   0  0  0  0  0  0
  -32.2958  -21.9827   20.1423 H   0  0  0  0  0  0
  -32.1706  -20.5500   19.1217 H   0  0  0  0  0  0
  -29.8406  -23.1610   21.4580 H   0  0  0  0  0  0
  -28.2016  -22.7219   21.0506 H   0  0  0  0  0  0
  -28.9171  -25.5196   21.6301 H   0  0  0  0  0  0
  -27.3591  -25.1326   20.9658 H   0  0  0  0  0  0
  -30.5012  -21.0435   21.6221 H   0  0  0  0  0  0
  -28.4171  -24.1638   18.9274 H   0  0  0  0  0  0
  -27.6326  -20.3986   19.7900 H   0  0  0  0  0  0
  -26.7391  -19.0074   20.1181 H   0  0  0  0  0  0
  -29.0021  -15.0765   21.4413 H   0  0  0  0  0  0
  1 25  1  0  0  0
  1 30  2  0  0  0
  1 82  1  0  0  0
  2  3  1  0  0  0
  2 25  1  0  0  0
  2 86  1  0  0  0
  2 87  1  0  0  0
  3  4  1  0  0  0
  3 88  1  0  0  0
  3 89  1  0  0  0
  4  5  1  0  0  0
  4 90  1  0  0  0
  4 91  1  0  0  0
  5  6  1  0  0  0
  5 26  1  0  0  0
  5 92  1  0  0  0
  6 25  1  0  0  0
  6 93  1  0  0  0
  6 94  1  0  0  0
  7  8  2  0  0  0
  7 26  1  0  0  0
  7 29  1  0  0  0
  8  9  1  0  0  0
  8 22  1  0  0  0
  9 10  1  0  0  0
  9 27  2  0  0  0
 10 11  2  0  0  0
 10 15  1  0  0  0
 11 12  1  0  0  0
 11 95  1  0  0  0
 12 13  2  0  0  0
 12 96  1  0  0  0
 13 14  1  0  0  0
 13 31  1  0  0  0
 14 15  2  0  0  0
 14 97  1  0  0  0
 15 98  1  0  0  0
 16 17  2  0  0  0
 16 21  1  0  0  0
 16 31  1  0  0  0
 17 18  1  0  0  0
 17 99  1  0  0  0
 18 19  2  0  0  0
 18100  1  0  0  0
 19 20  1  0  0  0
 19 24  1  0  0  0
 20 21  2  0  0  0
 20101  1  0  0  0
 21 23  1  0  0  0
 22 28  1  0  0  0
 22 32  2  0  0  0
 26 27  1  0  0  0
 28102  1  0  0  0
 28103  1  0  0  0
 29104  1  0  0  0
 29105  1  0  0  0
 33 34  1  0  0  0
 33 66  1  0  0  0
 33 70  2  0  0  0
 34 36  1  0  0  0
 34 59  1  0  0  0
 34106  1  0  0  0
 35 44  2  0  0  0
 35 45  1  0  0  0
 35 68  1  0  0  0
 36 56  1  0  0  0
 36107  1  0  0  0
 37 39  1  0  0  0
 37 47  1  0  0  0
 37 66  1  0  0  0
 37108  1  0  0  0
 38 43  2  0  0  0
 38 46  1  0  0  0
 38 47  1  0  0  0
 39 64  1  0  0  0
 39 67  2  0  0  0
 40 52  1  0  0  0
 40 53  2  0  0  0
 40 58  1  0  0  0
 41109  1  0  0  0
 41110  1  0  0  0
 41111  1  0  0  0
 41 48  1  0  0  0
 42 43  1  0  0  0
 42 66  1  0  0  0
 42112  1  0  0  0
 42113  1  0  0  0
 43 44  1  0  0  0
 44114  1  0  0  0
 45 46  2  0  0  0
 45115  1  0  0  0
 46116  1  0  0  0
 47117  1  0  0  0
 47118  1  0  0  0
 48 56  1  0  0  0
 48 65  1  0  0  0
 48119  1  0  0  0
 49 50  1  0  0  0
 49 53  1  0  0  0
 49 64  1  0  0  0
 49120  1  0  0  0
 50 51  1  0  0  0
 50121  1  0  0  0
 50122  1  0  0  0
 51 52  1  0  0  0
 51123  1  0  0  0
 51124  1  0  0  0
 52125  1  0  0  0
 52126  1  0  0  0
 53 54  1  0  0  0
 54 55  2  0  0  0
 54127  1  0  0  0
 55 57  1  0  0  0
 55128  1  0  0  0
 56 69  2  0  0  0
 57 58  2  0  0  0
 57129  1  0  0  0
 58130  1  0  0  0
 59 60  1  0  0  0
 59 61  1  0  0  0
 59 62  1  0  0  0
 60131  1  0  0  0
 60132  1  0  0  0
 60133  1  0  0  0
 61134  1  0  0  0
 61135  1  0  0  0
 61136  1  0  0  0
 62137  1  0  0  0
 62138  1  0  0  0
 62139  1  0  0  0
 63 65  1  0  0  0
 63140  1  0  0  0
 63141  1  0  0  0
 63142  1  0  0  0
 64143  1  0  0  0
 65144  1  0  0  0
 68 77  1  0  0  0
 71 72  2  0  0  0
 71 78  1  0  0  0
 71 85  1  0  0  0
 72 80  1  0  0  0
 72 81  1  0  0  0
 73 80  2  0  0  0
 73 82  1  0  0  0
 73 85  1  0  0  0
 74 76  1  0  0  0
 74 78  1  0  0  0
 74 83  2  0  0  0
 75145  1  0  0  0
 75146  1  0  0  0
 75147  1  0  0  0
 75 78  1  0  0  0
 76 79  1  0  0  0
 76148  1  0  0  0
 76149  1  0  0  0
 77 79  1  0  0  0
 77150  1  0  0  0
 77151  1  0  0  0
 78152  1  0  0  0
 79 84  1  0  0  0
 79153  1  0  0  0
 81154  1  0  0  0
 81155  1  0  0  0
 82156  1  0  0  0
M  ISO  4   1 100  68 101  77 101  82 100
M  END
> <chiral flag>
0

> <version>
0

> <s_m_source_file>
/data/baiqing/PycharmProjects/Reinvent-master-3.2/result/LINK_invent/BTK/process_docking_weight1_custom_product_contain_oxygen_bond_distance_aromatic_linkinvent_7_9_3/rearranged_h_0184.sdf

> <i_m_source_file_index>
9

> <r_mmod_Potential_Energy-OPLS-2005>
-232.949569702148

> <r_mmod_Stretch_Energy-OPLS-2005>
36.7455253601074

> <r_mmod_Bend_Energy-OPLS-2005>
104.71736907959

> <r_mmod_Torsional_Energy-OPLS-2005>
232.699508666992

> <r_mmod_Improper_Torsional_Energy-OPLS-2005>
9.163818359375

> <r_mmod_Van_der_Waal_Energy-OPLS-2005>
129.393127441406

> <r_mmod_Electrostatic_Energy-OPLS-2005>
-538.202209472656

> <r_mmod_Solvation_Energy-OPLS-2005>
-220.599792480469

> <b_mmod_Minimization_Converged-OPLS-2005>
0

> <r_mmod_RMS_Derivative-OPLS-2005>
1.94473993778229

$$$$
9
                    3D
 Structure written by MMmdl.
151159  0  0  1  0            999 V2000
  -30.6391  -14.7296   20.4770 C   0  0  0  0  0  0
  -30.4331  -12.4565   19.4561 C   0  0  0  0  0  0
  -29.5022  -12.4952   18.2253 C   0  0  0  0  0  0
  -28.0326  -12.3172   18.6509 C   0  0  0  0  0  0
  -27.6405  -13.2284   19.8446 C   0  0  2  0  0  0
  -28.6904  -13.1735   20.9753 C   0  0  0  0  0  0
  -25.2515  -13.8188   20.5688 C   0  0  0  0  0  0
  -24.1804  -13.0435   20.9203 C   0  0  0  0  0  0
  -24.6397  -11.6912   20.8762 C   0  0  0  0  0  0
  -23.9068  -10.4290   21.0417 C   0  0  0  0  0  0
  -24.3619   -9.4203   21.9193 C   0  0  0  0  0  0
  -23.6288   -8.2239   22.0761 C   0  0  0  0  0  0
  -22.4272   -8.0285   21.3545 C   0  0  0  0  0  0
  -21.9909   -9.0260   20.4651 C   0  0  0  0  0  0
  -22.7241  -10.2134   20.3065 C   0  0  0  0  0  0
  -21.6858   -6.0729   22.5278 C   0  0  0  0  0  0
  -21.4015   -6.5636   23.8207 C   0  0  0  0  0  0
  -21.3654   -5.6797   24.9173 C   0  0  0  0  0  0
  -21.6037   -4.3058   24.7227 C   0  0  0  0  0  0
  -21.8816   -3.8142   23.4351 C   0  0  0  0  0  0
  -21.9193   -4.6957   22.3403 C   0  0  0  0  0  0
  -22.7830  -13.5227   21.1856 C   0  0  0  0  0  0
  -22.1659   -4.2136   21.0981 F   0  0  0  0  0  0
  -21.5629   -3.4549   25.7740 F   0  0  0  0  0  0
  -29.9869  -13.5222   20.3802 N   0  0  0  0  0  0
  -26.2941  -12.9390   20.3275 N   0  0  0  0  0  0
  -25.9330  -11.6539   20.5774 N   0  0  0  0  0  0
  -22.0477  -12.8229   22.0419 N   0  0  0  0  0  0
  -25.4207  -15.1911   20.4079 N   0  0  0  0  0  0
  -31.8374  -14.8051   20.1967 O   0  0  0  0  0  0
  -21.6642   -6.8876   21.4242 O   0  0  0  0  0  0
  -22.3516  -14.5529   20.6695 O   0  0  0  0  0  0
  -24.6326  -31.8573   23.2009 C   0  0  0  0  0  0
  -25.9148  -32.4763   23.8344 C   0  0  1  0  0  0
  -27.2107  -27.2541   20.1134 C   0  0  0  0  0  0
  -25.5949  -33.8563   24.2269 N   0  0  0  0  0  0
  -23.4276  -30.4829   21.5472 C   0  0  2  0  0  0
  -24.8705  -28.9383   20.1116 C   0  0  0  0  0  0
  -22.7509  -29.4607   22.4937 C   0  0  0  0  0  0
  -18.0289  -28.1379   22.8492 C   0  0  0  0  0  0
  -24.1491  -36.7282   23.2640 C   0  0  0  0  0  0
  -25.9767  -30.7672   21.3825 C   0  0  0  0  0  0
  -26.0467  -29.3903   20.7225 C   0  0  0  0  0  0
  -27.2176  -28.5618   20.7155 C   0  0  0  0  0  0
  -25.9996  -26.8803   19.4798 C   0  0  0  0  0  0
  -24.8535  -27.6908   19.4805 C   0  0  0  0  0  0
  -23.6433  -29.8253   20.1614 C   0  0  0  0  0  0
  -25.4119  -36.3074   24.0328 C   0  0  1  0  0  0
  -20.5899  -28.3689   23.1276 C   0  0  2  0  0  0
  -20.6780  -26.9410   22.5411 C   0  0  0  0  0  0
  -19.5748  -26.6381   21.5217 C   0  0  0  0  0  0
  -18.1929  -26.7922   22.1632 C   0  0  0  0  0  0
  -19.1545  -28.8853   23.2874 C   0  0  0  0  0  0
  -18.9461  -30.1456   23.8890 C   0  0  0  0  0  0
  -17.6459  -30.6583   24.0561 C   0  0  0  0  0  0
  -25.9062  -34.9444   23.5098 C   0  0  0  0  0  0
  -16.5351  -29.9080   23.6332 C   0  0  0  0  0  0
  -16.7275  -28.6495   23.0359 C   0  0  0  0  0  0
  -26.4514  -31.6582   25.0733 C   0  0  0  0  0  0
  -25.3732  -31.3728   26.1451 C   0  0  0  0  0  0
  -27.0368  -30.3000   24.6214 C   0  0  0  0  0  0
  -27.6065  -32.4327   25.7511 C   0  0  0  0  0  0
  -27.5578  -37.1796   24.8467 C   0  0  0  0  0  0
  -21.4218  -29.3040   22.3674 N   0  0  0  0  0  0
  -26.4290  -37.3774   23.9413 N   0  0  0  0  0  0
  -24.6986  -31.0528   22.1000 N   0  0  0  0  0  0
  -23.4214  -28.8138   23.3023 O   0  0  0  0  0  0
  -28.3005  -26.3418   20.1708 O   0  0  0  0  0  0
  -26.5633  -34.8918   22.4669 O   0  0  0  0  0  0
  -23.5475  -32.1396   23.7302 O   0  0  0  0  0  0
  -30.6513  -20.9271   20.0129 C   0  0  0  0  0  0
  -31.0440  -19.5444   20.1783 C   0  0  0  0  0  0
  -30.1024  -18.6605   20.6650 C   0  0  0  0  0  0
  -29.3458  -21.2169   20.3515 C   0  0  0  0  0  0
  -29.0807  -23.7585   20.2534 C   0  0  0  0  0  0
  -28.2949  -24.9352   18.1642 C   0  0  0  0  0  0
  -30.4083  -17.2173   21.2452 C   0  0  0  0  0  0
  -28.1161  -24.9165   19.6975 C   0  0  2  0  0  0
  -28.6532  -22.4361   20.2466 N   0  0  0  0  0  0
  -29.9024  -15.8779   20.7190 N   0  0  0  0  0  0
  -30.2036  -24.0647   20.6631 O   0  0  0  0  0  0
  -32.2815  -19.1778   19.9353 F   0  0  0  0  0  0
  -28.6206  -19.6475   20.8734 S   0  0  0  0  0  0
  -31.4701  -12.5876   19.1414 H   0  0  0  0  0  0
  -30.3899  -11.4833   19.9467 H   0  0  0  0  0  0
  -29.7819  -11.7129   17.5186 H   0  0  0  0  0  0
  -29.6199  -13.4434   17.6976 H   0  0  0  0  0  0
  -27.9018  -11.2713   18.9327 H   0  0  0  0  0  0
  -27.3680  -12.4899   17.8039 H   0  0  0  0  0  0
  -27.6326  -14.2452   19.4535 H   0  0  0  0  0  0
  -28.7305  -12.1821   21.4278 H   0  0  0  0  0  0
  -28.4293  -13.8647   21.7780 H   0  0  0  0  0  0
  -25.2761   -9.5676   22.4770 H   0  0  0  0  0  0
  -23.9989   -7.4633   22.7492 H   0  0  0  0  0  0
  -21.0830   -8.8786   19.8967 H   0  0  0  0  0  0
  -22.3699  -10.9678   19.6179 H   0  0  0  0  0  0
  -21.2015   -7.6147   23.9704 H   0  0  0  0  0  0
  -21.1478   -6.0530   25.9069 H   0  0  0  0  0  0
  -22.0600   -2.7604   23.2860 H   0  0  0  0  0  0
  -22.4095  -11.9896   22.4817 H   0  0  0  0  0  0
  -21.1095  -13.1258   22.2618 H   0  0  0  0  0  0
  -24.6544  -15.8450   20.5262 H   0  0  0  0  0  0
  -26.2637  -15.6314   20.0623 H   0  0  0  0  0  0
  -26.7216  -32.5409   23.1083 H   0  0  0  0  0  0
  -25.0092  -33.9700   25.0412 H   0  0  0  0  0  0
  -22.7228  -31.3055   21.4067 H   0  0  0  0  0  0
  -23.3753  -35.9611   23.3305 H   0  0  0  0  0  0
  -24.3577  -36.8901   22.2051 H   0  0  0  0  0  0
  -23.7236  -37.6482   23.6664 H   0  0  0  0  0  0
  -26.1150  -31.5282   20.6130 H   0  0  0  0  0  0
  -26.8549  -30.8149   22.0146 H   0  0  0  0  0  0
  -28.1150  -28.9043   21.2116 H   0  0  0  0  0  0
  -25.8771  -25.9337   18.9802 H   0  0  0  0  0  0
  -23.9529  -27.3392   18.9948 H   0  0  0  0  0  0
  -23.7672  -30.6041   19.4086 H   0  0  0  0  0  0
  -22.7608  -29.2607   19.8564 H   0  0  0  0  0  0
  -25.1295  -36.1924   25.0817 H   0  0  0  0  0  0
  -20.9978  -28.3257   24.1400 H   0  0  0  0  0  0
  -20.5681  -26.2297   23.3610 H   0  0  0  0  0  0
  -21.6643  -26.7434   22.1195 H   0  0  0  0  0  0
  -19.6908  -25.6292   21.1238 H   0  0  0  0  0  0
  -19.6676  -27.3201   20.6752 H   0  0  0  0  0  0
  -17.4199  -26.6675   21.4034 H   0  0  0  0  0  0
  -18.0325  -26.0060   22.9023 H   0  0  0  0  0  0
  -19.7940  -30.7279   24.2251 H   0  0  0  0  0  0
  -17.5014  -31.6261   24.5167 H   0  0  0  0  0  0
  -15.5353  -30.2980   23.7654 H   0  0  0  0  0  0
  -15.8678  -28.0809   22.7085 H   0  0  0  0  0  0
  -24.5908  -30.7079   25.7772 H   0  0  0  0  0  0
  -24.8927  -32.2900   26.4868 H   0  0  0  0  0  0
  -25.8044  -30.8907   27.0233 H   0  0  0  0  0  0
  -26.2962  -29.6744   24.1220 H   0  0  0  0  0  0
  -27.4039  -29.7257   25.4730 H   0  0  0  0  0  0
  -27.8844  -30.4280   23.9476 H   0  0  0  0  0  0
  -27.2666  -33.3622   26.2088 H   0  0  0  0  0  0
  -28.3878  -32.6892   25.0346 H   0  0  0  0  0  0
  -28.0737  -31.8457   26.5427 H   0  0  0  0  0  0
  -28.2597  -38.0092   24.7517 H   0  0  0  0  0  0
  -28.1071  -36.2622   24.6295 H   0  0  0  0  0  0
  -27.2296  -37.1452   25.8869 H   0  0  0  0  0  0
  -20.9408  -29.8779   21.6895 H   0  0  0  0  0  0
  -26.0167  -38.2845   24.1422 H   0  0  0  0  0  0
  -31.3563  -21.6603   19.6492 H   0  0  0  0  0  0
  -29.2902  -25.2930   17.8976 H   0  0  0  0  0  0
  -27.5795  -25.5822   17.6611 H   0  0  0  0  0  0
  -28.1777  -23.9389   17.7356 H   0  0  0  0  0  0
  -30.0946  -17.2342   22.2895 H   0  0  0  0  0  0
  -31.4937  -17.1299   21.3150 H   0  0  0  0  0  0
  -27.1185  -24.5689   19.9640 H   0  0  0  0  0  0
  -27.6625  -22.3365   20.0647 H   0  0  0  0  0  0
  -28.9064  -15.7375   20.7902 H   0  0  0  0  0  0
  1 25  1  0  0  0
  1 30  2  0  0  0
  1 80  1  0  0  0
  2  3  1  0  0  0
  2 25  1  0  0  0
  2 84  1  0  0  0
  2 85  1  0  0  0
  3  4  1  0  0  0
  3 86  1  0  0  0
  3 87  1  0  0  0
  4  5  1  0  0  0
  4 88  1  0  0  0
  4 89  1  0  0  0
  5  6  1  0  0  0
  5 26  1  0  0  0
  5 90  1  0  0  0
  6 25  1  0  0  0
  6 91  1  0  0  0
  6 92  1  0  0  0
  7  8  2  0  0  0
  7 26  1  0  0  0
  7 29  1  0  0  0
  8  9  1  0  0  0
  8 22  1  0  0  0
  9 10  1  0  0  0
  9 27  2  0  0  0
 10 11  2  0  0  0
 10 15  1  0  0  0
 11 12  1  0  0  0
 11 93  1  0  0  0
 12 13  2  0  0  0
 12 94  1  0  0  0
 13 14  1  0  0  0
 13 31  1  0  0  0
 14 15  2  0  0  0
 14 95  1  0  0  0
 15 96  1  0  0  0
 16 17  2  0  0  0
 16 21  1  0  0  0
 16 31  1  0  0  0
 17 18  1  0  0  0
 17 97  1  0  0  0
 18 19  2  0  0  0
 18 98  1  0  0  0
 19 20  1  0  0  0
 19 24  1  0  0  0
 20 21  2  0  0  0
 20 99  1  0  0  0
 21 23  1  0  0  0
 22 28  1  0  0  0
 22 32  2  0  0  0
 26 27  1  0  0  0
 28100  1  0  0  0
 28101  1  0  0  0
 29102  1  0  0  0
 29103  1  0  0  0
 33 34  1  0  0  0
 33 66  1  0  0  0
 33 70  2  0  0  0
 34 36  1  0  0  0
 34 59  1  0  0  0
 34104  1  0  0  0
 35 44  2  0  0  0
 35 45  1  0  0  0
 35 68  1  0  0  0
 36 56  1  0  0  0
 36105  1  0  0  0
 37 39  1  0  0  0
 37 47  1  0  0  0
 37 66  1  0  0  0
 37106  1  0  0  0
 38 43  2  0  0  0
 38 46  1  0  0  0
 38 47  1  0  0  0
 39 64  1  0  0  0
 39 67  2  0  0  0
 40 52  1  0  0  0
 40 53  2  0  0  0
 40 58  1  0  0  0
 41107  1  0  0  0
 41108  1  0  0  0
 41109  1  0  0  0
 41 48  1  0  0  0
 42 43  1  0  0  0
 42 66  1  0  0  0
 42110  1  0  0  0
 42111  1  0  0  0
 43 44  1  0  0  0
 44112  1  0  0  0
 45 46  2  0  0  0
 45113  1  0  0  0
 46114  1  0  0  0
 47115  1  0  0  0
 47116  1  0  0  0
 48 56  1  0  0  0
 48 65  1  0  0  0
 48117  1  0  0  0
 49 50  1  0  0  0
 49 53  1  0  0  0
 49 64  1  0  0  0
 49118  1  0  0  0
 50 51  1  0  0  0
 50119  1  0  0  0
 50120  1  0  0  0
 51 52  1  0  0  0
 51121  1  0  0  0
 51122  1  0  0  0
 52123  1  0  0  0
 52124  1  0  0  0
 53 54  1  0  0  0
 54 55  2  0  0  0
 54125  1  0  0  0
 55 57  1  0  0  0
 55126  1  0  0  0
 56 69  2  0  0  0
 57 58  2  0  0  0
 57127  1  0  0  0
 58128  1  0  0  0
 59 60  1  0  0  0
 59 61  1  0  0  0
 59 62  1  0  0  0
 60129  1  0  0  0
 60130  1  0  0  0
 60131  1  0  0  0
 61132  1  0  0  0
 61133  1  0  0  0
 61134  1  0  0  0
 62135  1  0  0  0
 62136  1  0  0  0
 62137  1  0  0  0
 63 65  1  0  0  0
 63138  1  0  0  0
 63139  1  0  0  0
 63140  1  0  0  0
 64141  1  0  0  0
 65142  1  0  0  0
 68 78  1  0  0  0
 71 72  1  0  0  0
 71 74  2  0  0  0
 71143  1  0  0  0
 72 73  2  0  0  0
 72 82  1  0  0  0
 73 77  1  0  0  0
 73 83  1  0  0  0
 74 79  1  0  0  0
 74 83  1  0  0  0
 75 78  1  0  0  0
 75 79  1  0  0  0
 75 81  2  0  0  0
 76144  1  0  0  0
 76145  1  0  0  0
 76146  1  0  0  0
 76 78  1  0  0  0
 77 80  1  0  0  0
 77147  1  0  0  0
 77148  1  0  0  0
 78149  1  0  0  0
 79150  1  0  0  0
 80151  1  0  0  0
M  ISO  4   1 100  68 101  78 101  80 100
M  END
> <chiral flag>
0

> <version>
0

> <s_m_source_file>
/data/baiqing/PycharmProjects/Reinvent-master-3.2/result/LINK_invent/BTK/process_docking_weight1_custom_product_contain_oxygen_bond_distance_aromatic_linkinvent_7_9_3/rearranged_h_0184.sdf

> <i_m_source_file_index>
10

> <r_mmod_Potential_Energy-OPLS-2005>
119.065238952637

> <r_mmod_Stretch_Energy-OPLS-2005>
114.854644775391

> <r_mmod_Bend_Energy-OPLS-2005>
184.640228271484

> <r_mmod_Torsional_Energy-OPLS-2005>
231.693267822266

> <r_mmod_Improper_Torsional_Energy-OPLS-2005>
6.69743061065674

> <r_mmod_Van_der_Waal_Energy-OPLS-2005>
125.77717590332

> <r_mmod_Electrostatic_Energy-OPLS-2005>
-387.551666259766

> <r_mmod_Solvation_Energy-OPLS-2005>
-243.844848632812

> <b_mmod_Minimization_Converged-OPLS-2005>
0

> <r_mmod_RMS_Derivative-OPLS-2005>
1.47018802165985

$$$$
10
                    3D
 Structure written by MMmdl.
156164  0  0  1  0            999 V2000
  -30.6909  -14.4937   20.5660 C   0  0  0  0  0  0
  -30.4288  -12.3175   19.4273 C   0  0  0  0  0  0
  -29.4987  -12.5069   18.2102 C   0  0  0  0  0  0
  -28.0194  -12.3639   18.6213 C   0  0  0  0  0  0
  -27.6626  -13.2064   19.8748 C   0  0  2  0  0  0
  -28.7050  -12.9930   20.9968 C   0  0  0  0  0  0
  -25.2593  -13.8158   20.5670 C   0  0  0  0  0  0
  -24.1844  -13.0434   20.9175 C   0  0  0  0  0  0
  -24.6401  -11.6902   20.8739 C   0  0  0  0  0  0
  -23.9066  -10.4289   21.0409 C   0  0  0  0  0  0
  -24.3617   -9.4204   21.9185 C   0  0  0  0  0  0
  -23.6289   -8.2242   22.0757 C   0  0  0  0  0  0
  -22.4270   -8.0285   21.3546 C   0  0  0  0  0  0
  -21.9909   -9.0259   20.4649 C   0  0  0  0  0  0
  -22.7241  -10.2135   20.3056 C   0  0  0  0  0  0
  -21.6852   -6.0736   22.5277 C   0  0  0  0  0  0
  -21.4017   -6.5640   23.8212 C   0  0  0  0  0  0
  -21.3657   -5.6792   24.9174 C   0  0  0  0  0  0
  -21.6043   -4.3054   24.7226 C   0  0  0  0  0  0
  -21.8819   -3.8148   23.4345 C   0  0  0  0  0  0
  -21.9193   -4.6963   22.3401 C   0  0  0  0  0  0
  -22.7868  -13.5238   21.1832 C   0  0  0  0  0  0
  -22.1660   -4.2149   21.0977 F   0  0  0  0  0  0
  -21.5626   -3.4538   25.7738 F   0  0  0  0  0  0
  -30.0370  -13.3036   20.4472 N   0  0  0  0  0  0
  -26.3031  -12.9326   20.3359 N   0  0  0  0  0  0
  -25.9330  -11.6488   20.5768 N   0  0  0  0  0  0
  -22.0508  -12.8234   22.0394 N   0  0  0  0  0  0
  -25.4308  -15.1876   20.4062 N   0  0  0  0  0  0
  -31.8202  -14.6800   20.1008 O   0  0  0  0  0  0
  -21.6637   -6.8881   21.4239 O   0  0  0  0  0  0
  -22.3559  -14.5547   20.6685 O   0  0  0  0  0  0
  -24.6182  -31.8674   23.2111 C   0  0  0  0  0  0
  -25.9073  -32.4815   23.8394 C   0  0  1  0  0  0
  -27.2204  -27.3994   20.0940 C   0  0  0  0  0  0
  -25.5928  -33.8616   24.2318 N   0  0  0  0  0  0
  -23.4059  -30.4941   21.5541 C   0  0  2  0  0  0
  -24.8485  -28.9653   20.1118 C   0  0  0  0  0  0
  -22.7430  -29.4658   22.4998 C   0  0  0  0  0  0
  -18.0274  -28.1371   22.8488 C   0  0  0  0  0  0
  -24.1489  -36.7313   23.2637 C   0  0  0  0  0  0
  -25.9405  -30.8206   21.3723 C   0  0  0  0  0  0
  -26.0142  -29.4567   20.7121 C   0  0  0  0  0  0
  -27.2035  -28.6834   20.6981 C   0  0  0  0  0  0
  -26.0344  -26.9494   19.4639 C   0  0  0  0  0  0
  -24.8562  -27.7129   19.4827 C   0  0  0  0  0  0
  -23.6142  -29.8360   20.1659 C   0  0  0  0  0  0
  -25.4112  -36.3106   24.0330 C   0  0  1  0  0  0
  -20.5863  -28.3665   23.1309 C   0  0  2  0  0  0
  -20.6765  -26.9402   22.5411 C   0  0  0  0  0  0
  -19.5746  -26.6382   21.5206 C   0  0  0  0  0  0
  -18.1925  -26.7916   22.1620 C   0  0  0  0  0  0
  -19.1522  -28.8836   23.2891 C   0  0  0  0  0  0
  -18.9455  -30.1441   23.8904 C   0  0  0  0  0  0
  -17.6460  -30.6585   24.0558 C   0  0  0  0  0  0
  -25.9046  -34.9475   23.5117 C   0  0  0  0  0  0
  -16.5351  -29.9084   23.6324 C   0  0  0  0  0  0
  -16.7263  -28.6495   23.0351 C   0  0  0  0  0  0
  -26.4483  -31.6602   25.0736 C   0  0  0  0  0  0
  -25.3731  -31.3730   26.1476 C   0  0  0  0  0  0
  -27.0309  -30.3033   24.6136 C   0  0  0  0  0  0
  -27.6057  -32.4326   25.7504 C   0  0  0  0  0  0
  -27.5580  -37.1813   24.8464 C   0  0  0  0  0  0
  -21.4156  -29.3036   22.3730 N   0  0  0  0  0  0
  -26.4297  -37.3792   23.9404 N   0  0  0  0  0  0
  -24.6733  -31.0747   22.1034 N   0  0  0  0  0  0
  -23.4192  -28.8190   23.3042 O   0  0  0  0  0  0
  -28.3648  -26.6087   20.1342 O   0  0  0  0  0  0
  -26.5608  -34.8933   22.4677 O   0  0  0  0  0  0
  -23.5373  -32.1448   23.7498 O   0  0  0  0  0  0
  -29.8275  -19.2450   20.0740 C   0  0  0  0  0  0
  -30.9781  -18.9809   20.7972 C   0  0  0  0  0  0
  -30.0820  -16.8773   20.8086 C   0  0  0  0  0  0
  -29.3564  -20.4682   19.4125 C   0  0  0  0  0  0
  -29.1264  -22.9757   19.3386 C   0  0  0  0  0  0
  -27.6687  -24.9488   21.7953 C   0  0  0  0  0  0
  -29.4420  -24.3062   20.0718 C   0  0  0  0  0  0
  -28.1767  -25.1796   20.3585 C   0  0  2  0  0  0
  -31.0985  -17.6470   21.2226 N   0  0  0  0  0  0
  -31.9911  -19.8854   21.1316 N   0  0  0  0  0  0
  -29.9679  -15.4893   21.1156 N   0  0  0  0  0  0
  -29.5551  -21.7192   19.9407 N   0  0  0  0  0  0
  -28.7108  -20.3007   18.2395 N   0  3  0  0  0  0
  -28.5333  -22.9912   18.2508 O   0  0  0  0  0  0
  -28.8497  -17.7844   19.9396 S   0  0  0  0  0  0
  -31.4724  -12.4206   19.1246 H   0  0  0  0  0  0
  -30.3341  -11.3075   19.8290 H   0  0  0  0  0  0
  -29.7423  -11.7793   17.4349 H   0  0  0  0  0  0
  -29.6623  -13.4911   17.7681 H   0  0  0  0  0  0
  -27.8328  -11.3082   18.8209 H   0  0  0  0  0  0
  -27.3692  -12.6334   17.7882 H   0  0  0  0  0  0
  -27.7040  -14.2530   19.5732 H   0  0  0  0  0  0
  -28.6842  -11.9571   21.3387 H   0  0  0  0  0  0
  -28.4613  -13.5903   21.8764 H   0  0  0  0  0  0
  -25.2766   -9.5675   22.4755 H   0  0  0  0  0  0
  -23.9997   -7.4634   22.7479 H   0  0  0  0  0  0
  -21.0840   -8.8783   19.8956 H   0  0  0  0  0  0
  -22.3707  -10.9674   19.6164 H   0  0  0  0  0  0
  -21.2012   -7.6151   23.9716 H   0  0  0  0  0  0
  -21.1477   -6.0523   25.9076 H   0  0  0  0  0  0
  -22.0601   -2.7610   23.2847 H   0  0  0  0  0  0
  -22.4117  -11.9891   22.4776 H   0  0  0  0  0  0
  -21.1129  -13.1269   22.2601 H   0  0  0  0  0  0
  -24.6588  -15.8383   20.5037 H   0  0  0  0  0  0
  -26.2732  -15.6248   20.0556 H   0  0  0  0  0  0
  -26.7142  -32.5509   23.1154 H   0  0  0  0  0  0
  -25.0070  -33.9768   25.0457 H   0  0  0  0  0  0
  -22.6956  -31.3123   21.4197 H   0  0  0  0  0  0
  -23.3750  -35.9649   23.3312 H   0  0  0  0  0  0
  -24.3579  -36.8918   22.2050 H   0  0  0  0  0  0
  -23.7242  -37.6521   23.6650 H   0  0  0  0  0  0
  -26.0604  -31.5887   20.6071 H   0  0  0  0  0  0
  -26.8256  -30.8660   21.9953 H   0  0  0  0  0  0
  -28.0986  -29.0554   21.1763 H   0  0  0  0  0  0
  -25.9820  -26.0111   18.9352 H   0  0  0  0  0  0
  -23.9649  -27.3346   19.0006 H   0  0  0  0  0  0
  -23.7269  -30.6162   19.4121 H   0  0  0  0  0  0
  -22.7352  -29.2622   19.8662 H   0  0  0  0  0  0
  -25.1285  -36.1974   25.0823 H   0  0  0  0  0  0
  -20.9933  -28.3231   24.1436 H   0  0  0  0  0  0
  -20.5671  -26.2275   23.3601 H   0  0  0  0  0  0
  -21.6636  -26.7452   22.1203 H   0  0  0  0  0  0
  -19.6914  -25.6292   21.1236 H   0  0  0  0  0  0
  -19.6685  -27.3196   20.6739 H   0  0  0  0  0  0
  -17.4190  -26.6660   21.4028 H   0  0  0  0  0  0
  -18.0331  -26.0053   22.9011 H   0  0  0  0  0  0
  -19.7937  -30.7238   24.2293 H   0  0  0  0  0  0
  -17.5024  -31.6270   24.5152 H   0  0  0  0  0  0
  -15.5351  -30.2991   23.7652 H   0  0  0  0  0  0
  -15.8658  -28.0821   22.7065 H   0  0  0  0  0  0
  -24.5896  -30.7088   25.7811 H   0  0  0  0  0  0
  -24.8938  -32.2900   26.4920 H   0  0  0  0  0  0
  -25.8069  -30.8896   27.0238 H   0  0  0  0  0  0
  -26.2857  -29.6809   24.1170 H   0  0  0  0  0  0
  -27.4033  -29.7265   25.4611 H   0  0  0  0  0  0
  -27.8721  -30.4333   23.9321 H   0  0  0  0  0  0
  -27.2666  -33.3622   26.2092 H   0  0  0  0  0  0
  -28.3867  -32.6889   25.0330 H   0  0  0  0  0  0
  -28.0721  -31.8437   26.5415 H   0  0  0  0  0  0
  -28.2602  -38.0105   24.7507 H   0  0  0  0  0  0
  -28.1066  -36.2636   24.6294 H   0  0  0  0  0  0
  -27.2295  -37.1466   25.8866 H   0  0  0  0  0  0
  -20.9330  -29.8771   21.6954 H   0  0  0  0  0  0
  -26.0188  -38.2870   24.1407 H   0  0  0  0  0  0
  -27.4916  -23.8894   21.9827 H   0  0  0  0  0  0
  -26.7279  -25.4668   21.9837 H   0  0  0  0  0  0
  -28.3918  -25.2986   22.5323 H   0  0  0  0  0  0
  -30.1066  -24.8600   19.4098 H   0  0  0  0  0  0
  -30.0133  -24.1201   20.9810 H   0  0  0  0  0  0
  -27.4084  -24.8037   19.6896 H   0  0  0  0  0  0
  -32.2177  -20.6239   20.4753 H   0  0  0  0  0  0
  -32.8277  -19.4887   21.5464 H   0  0  0  0  0  0
  -29.0560  -15.1907   21.4225 H   0  0  0  0  0  0
  -30.0412  -21.7067   20.8238 H   0  0  0  0  0  0
  -28.5654  -19.3897   17.8327 H   0  0  0  0  0  0
  -28.3804  -21.1209   17.7400 H   0  0  0  0  0  0
  1 25  1  0  0  0
  1 30  2  0  0  0
  1 81  1  0  0  0
  2  3  1  0  0  0
  2 25  1  0  0  0
  2 86  1  0  0  0
  2 87  1  0  0  0
  3  4  1  0  0  0
  3 88  1  0  0  0
  3 89  1  0  0  0
  4  5  1  0  0  0
  4 90  1  0  0  0
  4 91  1  0  0  0
  5  6  1  0  0  0
  5 26  1  0  0  0
  5 92  1  0  0  0
  6 25  1  0  0  0
  6 93  1  0  0  0
  6 94  1  0  0  0
  7  8  2  0  0  0
  7 26  1  0  0  0
  7 29  1  0  0  0
  8  9  1  0  0  0
  8 22  1  0  0  0
  9 10  1  0  0  0
  9 27  2  0  0  0
 10 11  2  0  0  0
 10 15  1  0  0  0
 11 12  1  0  0  0
 11 95  1  0  0  0
 12 13  2  0  0  0
 12 96  1  0  0  0
 13 14  1  0  0  0
 13 31  1  0  0  0
 14 15  2  0  0  0
 14 97  1  0  0  0
 15 98  1  0  0  0
 16 17  2  0  0  0
 16 21  1  0  0  0
 16 31  1  0  0  0
 17 18  1  0  0  0
 17 99  1  0  0  0
 18 19  2  0  0  0
 18100  1  0  0  0
 19 20  1  0  0  0
 19 24  1  0  0  0
 20 21  2  0  0  0
 20101  1  0  0  0
 21 23  1  0  0  0
 22 28  1  0  0  0
 22 32  2  0  0  0
 26 27  1  0  0  0
 28102  1  0  0  0
 28103  1  0  0  0
 29104  1  0  0  0
 29105  1  0  0  0
 33 34  1  0  0  0
 33 66  1  0  0  0
 33 70  2  0  0  0
 34 36  1  0  0  0
 34 59  1  0  0  0
 34106  1  0  0  0
 35 44  2  0  0  0
 35 45  1  0  0  0
 35 68  1  0  0  0
 36 56  1  0  0  0
 36107  1  0  0  0
 37 39  1  0  0  0
 37 47  1  0  0  0
 37 66  1  0  0  0
 37108  1  0  0  0
 38 43  2  0  0  0
 38 46  1  0  0  0
 38 47  1  0  0  0
 39 64  1  0  0  0
 39 67  2  0  0  0
 40 52  1  0  0  0
 40 53  2  0  0  0
 40 58  1  0  0  0
 41109  1  0  0  0
 41110  1  0  0  0
 41111  1  0  0  0
 41 48  1  0  0  0
 42 43  1  0  0  0
 42 66  1  0  0  0
 42112  1  0  0  0
 42113  1  0  0  0
 43 44  1  0  0  0
 44114  1  0  0  0
 45 46  2  0  0  0
 45115  1  0  0  0
 46116  1  0  0  0
 47117  1  0  0  0
 47118  1  0  0  0
 48 56  1  0  0  0
 48 65  1  0  0  0
 48119  1  0  0  0
 49 50  1  0  0  0
 49 53  1  0  0  0
 49 64  1  0  0  0
 49120  1  0  0  0
 50 51  1  0  0  0
 50121  1  0  0  0
 50122  1  0  0  0
 51 52  1  0  0  0
 51123  1  0  0  0
 51124  1  0  0  0
 52125  1  0  0  0
 52126  1  0  0  0
 53 54  1  0  0  0
 54 55  2  0  0  0
 54127  1  0  0  0
 55 57  1  0  0  0
 55128  1  0  0  0
 56 69  2  0  0  0
 57 58  2  0  0  0
 57129  1  0  0  0
 58130  1  0  0  0
 59 60  1  0  0  0
 59 61  1  0  0  0
 59 62  1  0  0  0
 60131  1  0  0  0
 60132  1  0  0  0
 60133  1  0  0  0
 61134  1  0  0  0
 61135  1  0  0  0
 61136  1  0  0  0
 62137  1  0  0  0
 62138  1  0  0  0
 62139  1  0  0  0
 63 65  1  0  0  0
 63140  1  0  0  0
 63141  1  0  0  0
 63142  1  0  0  0
 64143  1  0  0  0
 65144  1  0  0  0
 68 78  1  0  0  0
 71 72  2  0  0  0
 71 74  1  0  0  0
 71 85  1  0  0  0
 72 79  1  0  0  0
 72 80  1  0  0  0
 73 79  2  0  0  0
 73 81  1  0  0  0
 73 85  1  0  0  0
 74 82  1  0  0  0
 74 83  2  0  0  0
 75 77  1  0  0  0
 75 82  1  0  0  0
 75 84  2  0  0  0
 76145  1  0  0  0
 76146  1  0  0  0
 76147  1  0  0  0
 76 78  1  0  0  0
 77 78  1  0  0  0
 77148  1  0  0  0
 77149  1  0  0  0
 78150  1  0  0  0
 80151  1  0  0  0
 80152  1  0  0  0
 81153  1  0  0  0
 82154  1  0  0  0
 83155  1  0  0  0
 83156  1  0  0  0
M  CHG  1  83   1
M  ISO  4   1 100  68 101  78 101  81 100
M  END
> <chiral flag>
0

> <version>
0

> <s_m_source_file>
/data/baiqing/PycharmProjects/Reinvent-master-3.2/result/LINK_invent/BTK/process_docking_weight1_custom_product_contain_oxygen_bond_distance_aromatic_linkinvent_7_9_3/rearranged_h_0184.sdf

> <i_m_source_file_index>
11

> <r_mmod_Potential_Energy-OPLS-2005>
-257.252044677734

> <r_mmod_Stretch_Energy-OPLS-2005>
46.1015472412109

> <r_mmod_Bend_Energy-OPLS-2005>
112.406204223633

> <r_mmod_Torsional_Energy-OPLS-2005>
233.028656005859

> <r_mmod_Improper_Torsional_Energy-OPLS-2005>
9.01150321960449

> <r_mmod_Van_der_Waal_Energy-OPLS-2005>
145.820098876953

> <r_mmod_Electrostatic_Energy-OPLS-2005>
-318.363677978516

> <r_mmod_Solvation_Energy-OPLS-2005>
-503.390960693359

> <b_mmod_Minimization_Converged-OPLS-2005>
0

> <r_mmod_RMS_Derivative-OPLS-2005>
0.897694230079651

$$$$
11
                    3D
 Structure written by MMmdl.
152160  0  0  1  0            999 V2000
  -30.5554  -14.8241   20.4519 C   0  0  0  0  0  0
  -30.4443  -12.5042   19.4769 C   0  0  0  0  0  0
  -29.5180  -12.5281   18.2385 C   0  0  0  0  0  0
  -28.0442  -12.3373   18.6490 C   0  0  0  0  0  0
  -27.6419  -13.2328   19.8503 C   0  0  2  0  0  0
  -28.6871  -13.1753   20.9857 C   0  0  0  0  0  0
  -25.2520  -13.8181   20.5668 C   0  0  0  0  0  0
  -24.1816  -13.0427   20.9201 C   0  0  0  0  0  0
  -24.6419  -11.6909   20.8751 C   0  0  0  0  0  0
  -23.9095  -10.4287   21.0422 C   0  0  0  0  0  0
  -24.3643   -9.4196   21.9194 C   0  0  0  0  0  0
  -23.6306   -8.2241   22.0764 C   0  0  0  0  0  0
  -22.4282   -8.0292   21.3556 C   0  0  0  0  0  0
  -21.9932   -9.0265   20.4651 C   0  0  0  0  0  0
  -22.7274  -10.2134   20.3060 C   0  0  0  0  0  0
  -21.6854   -6.0742   22.5284 C   0  0  0  0  0  0
  -21.4020   -6.5646   23.8216 C   0  0  0  0  0  0
  -21.3657   -5.6797   24.9176 C   0  0  0  0  0  0
  -21.6042   -4.3058   24.7225 C   0  0  0  0  0  0
  -21.8815   -3.8152   23.4345 C   0  0  0  0  0  0
  -21.9192   -4.6972   22.3406 C   0  0  0  0  0  0
  -22.7836  -13.5216   21.1852 C   0  0  0  0  0  0
  -22.1661   -4.2158   21.0983 F   0  0  0  0  0  0
  -21.5625   -3.4541   25.7736 F   0  0  0  0  0  0
  -29.9807  -13.5645   20.4066 N   0  0  0  0  0  0
  -26.2948  -12.9392   20.3264 N   0  0  0  0  0  0
  -25.9351  -11.6536   20.5750 N   0  0  0  0  0  0
  -22.0482  -12.8212   22.0408 N   0  0  0  0  0  0
  -25.4167  -15.1909   20.4030 N   0  0  0  0  0  0
  -31.7468  -14.9457   20.1440 O   0  0  0  0  0  0
  -21.6640   -6.8888   21.4245 O   0  0  0  0  0  0
  -22.3527  -14.5521   20.6693 O   0  0  0  0  0  0
  -24.6370  -31.8488   23.1925 C   0  0  0  0  0  0
  -25.9153  -32.4737   23.8302 C   0  0  1  0  0  0
  -27.2261  -27.2018   20.1493 C   0  0  0  0  0  0
  -25.5908  -33.8535   24.2218 N   0  0  0  0  0  0
  -23.4394  -30.4707   21.5341 C   0  0  2  0  0  0
  -24.8922  -28.9099   20.1092 C   0  0  0  0  0  0
  -22.7549  -29.4554   22.4838 C   0  0  0  0  0  0
  -18.0306  -28.1417   22.8487 C   0  0  0  0  0  0
  -24.1484  -36.7271   23.2647 C   0  0  0  0  0  0
  -25.9921  -30.7472   21.3803 C   0  0  0  0  0  0
  -26.0661  -29.3636   20.7239 C   0  0  0  0  0  0
  -27.2364  -28.5266   20.7266 C   0  0  0  0  0  0
  -26.0295  -26.8349   19.4955 C   0  0  0  0  0  0
  -24.8828  -27.6565   19.4800 C   0  0  0  0  0  0
  -23.6671  -29.8067   20.1503 C   0  0  0  0  0  0
  -25.4112  -36.3057   24.0330 C   0  0  1  0  0  0
  -20.5923  -28.3715   23.1261 C   0  0  2  0  0  0
  -20.6788  -26.9418   22.5421 C   0  0  0  0  0  0
  -19.5755  -26.6389   21.5237 C   0  0  0  0  0  0
  -18.1934  -26.7951   22.1640 C   0  0  0  0  0  0
  -19.1569  -28.8877   23.2878 C   0  0  0  0  0  0
  -18.9489  -30.1482   23.8897 C   0  0  0  0  0  0
  -17.6488  -30.6610   24.0571 C   0  0  0  0  0  0
  -25.9052  -34.9432   23.5085 C   0  0  0  0  0  0
  -16.5379  -29.9110   23.6338 C   0  0  0  0  0  0
  -16.7298  -28.6534   23.0350 C   0  0  0  0  0  0
  -26.4487  -31.6579   25.0716 C   0  0  0  0  0  0
  -25.3684  -31.3787   26.1426 C   0  0  0  0  0  0
  -27.0322  -30.2981   24.6232 C   0  0  0  0  0  0
  -27.6043  -32.4306   25.7504 C   0  0  0  0  0  0
  -27.5569  -37.1790   24.8466 C   0  0  0  0  0  0
  -21.4237  -29.3055   22.3626 N   0  0  0  0  0  0
  -26.4277  -37.3764   23.9418 N   0  0  0  0  0  0
  -24.7089  -31.0408   22.0924 N   0  0  0  0  0  0
  -23.4223  -28.8084   23.2944 O   0  0  0  0  0  0
  -28.2979  -26.2534   20.2119 O   0  0  0  0  0  0
  -26.5659  -34.8917   22.4678 O   0  0  0  0  0  0
  -23.5496  -32.1330   23.7173 O   0  0  0  0  0  0
  -30.6026  -19.6215   20.4103 C   0  0  0  0  0  0
  -29.2849  -20.0268   20.6105 C   0  0  0  0  0  0
  -29.7587  -17.4133   20.5689 C   0  0  0  0  0  0
  -31.7862  -20.5293   20.2846 C   0  0  0  0  0  0
  -28.9669  -23.4682   20.2511 C   0  0  0  0  0  0
  -28.0294  -24.7909   20.6364 C   0  0  1  0  0  0
  -27.7561  -24.7810   22.1699 C   0  0  0  0  0  0
  -30.8413  -18.1954   20.3667 N   0  0  0  0  0  0
  -29.6994  -15.9123   20.6600 N   0  0  0  0  0  0
  -27.0562  -21.5137   20.6441 O   0  0  0  0  0  0
  -28.7296  -21.8244   22.4844 O   0  0  0  0  0  0
  -27.2312  -25.9246   22.6060 F   0  0  0  0  0  0
  -26.8771  -23.8306   22.4817 F   0  0  0  0  0  0
  -28.8936  -24.5884   22.8391 F   0  0  0  0  0  0
  -28.3302  -18.5084   20.7550 S   0  0  0  0  0  0
  -28.4610  -21.7152   21.0398 S   0  0  0  0  0  0
  -31.4825  -12.6522   19.1742 H   0  0  0  0  0  0
  -30.4104  -11.5277   19.9622 H   0  0  0  0  0  0
  -29.8125  -11.7527   17.5297 H   0  0  0  0  0  0
  -29.6320  -13.4784   17.7136 H   0  0  0  0  0  0
  -27.9071  -11.2866   18.9083 H   0  0  0  0  0  0
  -27.3879  -12.5294   17.7997 H   0  0  0  0  0  0
  -27.6301  -14.2531   19.4677 H   0  0  0  0  0  0
  -28.7417  -12.1731   21.4142 H   0  0  0  0  0  0
  -28.4063  -13.8391   21.8049 H   0  0  0  0  0  0
  -25.2793   -9.5659   22.4764 H   0  0  0  0  0  0
  -24.0003   -7.4632   22.7491 H   0  0  0  0  0  0
  -21.0862   -8.8797   19.8959 H   0  0  0  0  0  0
  -22.3754  -10.9676   19.6163 H   0  0  0  0  0  0
  -21.2018   -7.6153   23.9725 H   0  0  0  0  0  0
  -21.1481   -6.0525   25.9080 H   0  0  0  0  0  0
  -22.0595   -2.7614   23.2844 H   0  0  0  0  0  0
  -22.4098  -11.9875   22.4797 H   0  0  0  0  0  0
  -21.1104  -13.1239   22.2613 H   0  0  0  0  0  0
  -24.6297  -15.8267   20.4803 H   0  0  0  0  0  0
  -26.2365  -15.6283   20.0047 H   0  0  0  0  0  0
  -26.7215  -32.5363   23.1035 H   0  0  0  0  0  0
  -24.9971  -33.9652   25.0307 H   0  0  0  0  0  0
  -22.7409  -31.2958   21.3824 H   0  0  0  0  0  0
  -23.3748  -35.9600   23.3298 H   0  0  0  0  0  0
  -24.3570  -36.8907   22.2063 H   0  0  0  0  0  0
  -23.7237  -37.6470   23.6682 H   0  0  0  0  0  0
  -26.1363  -31.5037   20.6080 H   0  0  0  0  0  0
  -26.8674  -30.7986   22.0166 H   0  0  0  0  0  0
  -28.1317  -28.8695   21.2252 H   0  0  0  0  0  0
  -25.9543  -25.8813   18.9953 H   0  0  0  0  0  0
  -23.9878  -27.3070   18.9856 H   0  0  0  0  0  0
  -23.8095  -30.5870   19.4011 H   0  0  0  0  0  0
  -22.7846  -29.2507   19.8306 H   0  0  0  0  0  0
  -25.1300  -36.1884   25.0819 H   0  0  0  0  0  0
  -21.0036  -28.3284   24.1374 H   0  0  0  0  0  0
  -20.5683  -26.2311   23.3631 H   0  0  0  0  0  0
  -21.6644  -26.7413   22.1210 H   0  0  0  0  0  0
  -19.6899  -25.6297   21.1269 H   0  0  0  0  0  0
  -19.6705  -27.3189   20.6764 H   0  0  0  0  0  0
  -17.4205  -26.6723   21.4038 H   0  0  0  0  0  0
  -18.0309  -26.0119   22.9055 H   0  0  0  0  0  0
  -19.7969  -30.7305   24.2250 H   0  0  0  0  0  0
  -17.5050  -31.6286   24.5173 H   0  0  0  0  0  0
  -15.5377  -30.3025   23.7665 H   0  0  0  0  0  0
  -15.8696  -28.0866   22.7055 H   0  0  0  0  0  0
  -24.5884  -30.7092   25.7776 H   0  0  0  0  0  0
  -24.8844  -32.2982   26.4733 H   0  0  0  0  0  0
  -25.7972  -30.9068   27.0271 H   0  0  0  0  0  0
  -26.2909  -29.6733   24.1238 H   0  0  0  0  0  0
  -27.3968  -29.7242   25.4759 H   0  0  0  0  0  0
  -27.8801  -30.4240   23.9501 H   0  0  0  0  0  0
  -27.2679  -33.3657   26.1979 H   0  0  0  0  0  0
  -28.3921  -32.6745   25.0368 H   0  0  0  0  0  0
  -28.0607  -31.8463   26.5502 H   0  0  0  0  0  0
  -28.2582  -38.0088   24.7504 H   0  0  0  0  0  0
  -28.1068  -36.2620   24.6296 H   0  0  0  0  0  0
  -27.2292  -37.1447   25.8870 H   0  0  0  0  0  0
  -20.9412  -29.8818   21.6876 H   0  0  0  0  0  0
  -26.0148  -38.2828   24.1439 H   0  0  0  0  0  0
  -31.7681  -21.3201   21.0351 H   0  0  0  0  0  0
  -31.8151  -21.0032   19.3034 H   0  0  0  0  0  0
  -32.7227  -19.9852   20.4123 H   0  0  0  0  0  0
  -29.9910  -23.6518   20.5672 H   0  0  0  0  0  0
  -29.0013  -23.3338   19.1750 H   0  0  0  0  0  0
  -27.0768  -24.5363   20.1784 H   0  0  0  0  0  0
  -28.7709  -15.5879   20.8765 H   0  0  0  0  0  0
  1 25  1  0  0  0
  1 30  2  0  0  0
  1 79  1  0  0  0
  2  3  1  0  0  0
  2 25  1  0  0  0
  2 87  1  0  0  0
  2 88  1  0  0  0
  3  4  1  0  0  0
  3 89  1  0  0  0
  3 90  1  0  0  0
  4  5  1  0  0  0
  4 91  1  0  0  0
  4 92  1  0  0  0
  5  6  1  0  0  0
  5 26  1  0  0  0
  5 93  1  0  0  0
  6 25  1  0  0  0
  6 94  1  0  0  0
  6 95  1  0  0  0
  7  8  2  0  0  0
  7 26  1  0  0  0
  7 29  1  0  0  0
  8  9  1  0  0  0
  8 22  1  0  0  0
  9 10  1  0  0  0
  9 27  2  0  0  0
 10 11  2  0  0  0
 10 15  1  0  0  0
 11 12  1  0  0  0
 11 96  1  0  0  0
 12 13  2  0  0  0
 12 97  1  0  0  0
 13 14  1  0  0  0
 13 31  1  0  0  0
 14 15  2  0  0  0
 14 98  1  0  0  0
 15 99  1  0  0  0
 16 17  2  0  0  0
 16 21  1  0  0  0
 16 31  1  0  0  0
 17 18  1  0  0  0
 17100  1  0  0  0
 18 19  2  0  0  0
 18101  1  0  0  0
 19 20  1  0  0  0
 19 24  1  0  0  0
 20 21  2  0  0  0
 20102  1  0  0  0
 21 23  1  0  0  0
 22 28  1  0  0  0
 22 32  2  0  0  0
 26 27  1  0  0  0
 28103  1  0  0  0
 28104  1  0  0  0
 29105  1  0  0  0
 29106  1  0  0  0
 33 34  1  0  0  0
 33 66  1  0  0  0
 33 70  2  0  0  0
 34 36  1  0  0  0
 34 59  1  0  0  0
 34107  1  0  0  0
 35 44  2  0  0  0
 35 45  1  0  0  0
 35 68  1  0  0  0
 36 56  1  0  0  0
 36108  1  0  0  0
 37 39  1  0  0  0
 37 47  1  0  0  0
 37 66  1  0  0  0
 37109  1  0  0  0
 38 43  2  0  0  0
 38 46  1  0  0  0
 38 47  1  0  0  0
 39 64  1  0  0  0
 39 67  2  0  0  0
 40 52  1  0  0  0
 40 53  2  0  0  0
 40 58  1  0  0  0
 41110  1  0  0  0
 41111  1  0  0  0
 41112  1  0  0  0
 41 48  1  0  0  0
 42 43  1  0  0  0
 42 66  1  0  0  0
 42113  1  0  0  0
 42114  1  0  0  0
 43 44  1  0  0  0
 44115  1  0  0  0
 45 46  2  0  0  0
 45116  1  0  0  0
 46117  1  0  0  0
 47118  1  0  0  0
 47119  1  0  0  0
 48 56  1  0  0  0
 48 65  1  0  0  0
 48120  1  0  0  0
 49 50  1  0  0  0
 49 53  1  0  0  0
 49 64  1  0  0  0
 49121  1  0  0  0
 50 51  1  0  0  0
 50122  1  0  0  0
 50123  1  0  0  0
 51 52  1  0  0  0
 51124  1  0  0  0
 51125  1  0  0  0
 52126  1  0  0  0
 52127  1  0  0  0
 53 54  1  0  0  0
 54 55  2  0  0  0
 54128  1  0  0  0
 55 57  1  0  0  0
 55129  1  0  0  0
 56 69  2  0  0  0
 57 58  2  0  0  0
 57130  1  0  0  0
 58131  1  0  0  0
 59 60  1  0  0  0
 59 61  1  0  0  0
 59 62  1  0  0  0
 60132  1  0  0  0
 60133  1  0  0  0
 60134  1  0  0  0
 61135  1  0  0  0
 61136  1  0  0  0
 61137  1  0  0  0
 62138  1  0  0  0
 62139  1  0  0  0
 62140  1  0  0  0
 63 65  1  0  0  0
 63141  1  0  0  0
 63142  1  0  0  0
 63143  1  0  0  0
 64144  1  0  0  0
 65145  1  0  0  0
 68 76  1  0  0  0
 71 72  2  0  0  0
 71 74  1  0  0  0
 71 78  1  0  0  0
 72 85  1  0  0  0
 72 86  1  0  0  0
 73 78  2  0  0  0
 73 79  1  0  0  0
 73 85  1  0  0  0
 74146  1  0  0  0
 74147  1  0  0  0
 74148  1  0  0  0
 75149  1  0  0  0
 75150  1  0  0  0
 75 76  1  0  0  0
 75 86  1  0  0  0
 76 77  1  0  0  0
 76151  1  0  0  0
 77 82  1  0  0  0
 77 83  1  0  0  0
 77 84  1  0  0  0
 79152  1  0  0  0
 80 86  2  0  0  0
 81 86  2  0  0  0
M  ISO  4   1 100  68 101  76 101  79 100
M  END
> <chiral flag>
0

> <version>
0

> <s_m_source_file>
/data/baiqing/PycharmProjects/Reinvent-master-3.2/result/LINK_invent/BTK/process_docking_weight1_custom_product_contain_oxygen_bond_distance_aromatic_linkinvent_7_9_3/rearranged_h_0184.sdf

> <i_m_source_file_index>
12

> <r_mmod_Potential_Energy-OPLS-2005>
48.5266723632812

> <r_mmod_Stretch_Energy-OPLS-2005>
177.344940185547

> <r_mmod_Bend_Energy-OPLS-2005>
247.349533081055

> <r_mmod_Torsional_Energy-OPLS-2005>
212.070861816406

> <r_mmod_Improper_Torsional_Energy-OPLS-2005>
6.62807416915894

> <r_mmod_Van_der_Waal_Energy-OPLS-2005>
112.421424865723

> <r_mmod_Electrostatic_Energy-OPLS-2005>
-563.213989257812

> <r_mmod_Solvation_Energy-OPLS-2005>
-269.389495849609

> <b_mmod_Minimization_Converged-OPLS-2005>
0

> <r_mmod_RMS_Derivative-OPLS-2005>
2.05740022659302

$$$$
12
                    3D
 Structure written by MMmdl.
153161  0  0  1  0            999 V2000
  -30.7193  -14.4753   20.5278 C   0  0  0  0  0  0
  -30.4162  -12.2952   19.4295 C   0  0  0  0  0  0
  -29.4895  -12.4681   18.2088 C   0  0  0  0  0  0
  -28.0160  -12.3315   18.6308 C   0  0  0  0  0  0
  -27.6587  -13.2045   19.8625 C   0  0  2  0  0  0
  -28.7012  -13.0172   20.9916 C   0  0  0  0  0  0
  -25.2523  -13.8224   20.5492 C   0  0  0  0  0  0
  -24.1773  -13.0489   20.9094 C   0  0  0  0  0  0
  -24.6339  -11.6964   20.8658 C   0  0  0  0  0  0
  -23.9024  -10.4321   21.0307 C   0  0  0  0  0  0
  -24.3583   -9.4298   21.9142 C   0  0  0  0  0  0
  -23.6318   -8.2296   22.0686 C   0  0  0  0  0  0
  -22.4324   -8.0298   21.3443 C   0  0  0  0  0  0
  -21.9980   -9.0193   20.4454 C   0  0  0  0  0  0
  -22.7279  -10.2108   20.2844 C   0  0  0  0  0  0
  -21.6894   -6.0772   22.5253 C   0  0  0  0  0  0
  -21.4020   -6.5586   23.8236 C   0  0  0  0  0  0
  -21.3649   -5.6662   24.9137 C   0  0  0  0  0  0
  -21.6058   -4.2947   24.7099 C   0  0  0  0  0  0
  -21.8889   -3.8108   23.4195 C   0  0  0  0  0  0
  -21.9272   -4.7011   22.3341 C   0  0  0  0  0  0
  -22.7827  -13.5269   21.1883 C   0  0  0  0  0  0
  -22.1717   -4.2244   21.0887 F   0  0  0  0  0  0
  -21.5673   -3.4389   25.7579 F   0  0  0  0  0  0
  -30.0271  -13.3079   20.4243 N   0  0  0  0  0  0
  -26.2974  -12.9400   20.3243 N   0  0  0  0  0  0
  -25.9277  -11.6561   20.5761 N   0  0  0  0  0  0
  -22.0547  -12.8163   22.0481 N   0  0  0  0  0  0
  -25.4158  -15.1924   20.3738 N   0  0  0  0  0  0
  -31.8783  -14.5731   20.1184 O   0  0  0  0  0  0
  -21.6647   -6.8916   21.4209 O   0  0  0  0  0  0
  -22.3483  -14.5599   20.6817 O   0  0  0  0  0  0
  -24.6164  -31.8690   23.2087 C   0  0  0  0  0  0
  -25.9042  -32.4840   23.8405 C   0  0  1  0  0  0
  -27.2262  -27.4107   20.1275 C   0  0  0  0  0  0
  -25.5886  -33.8641   24.2342 N   0  0  0  0  0  0
  -23.4080  -30.4880   21.5488 C   0  0  2  0  0  0
  -24.8569  -28.9526   20.1144 C   0  0  0  0  0  0
  -22.7456  -29.4620   22.4986 C   0  0  0  0  0  0
  -18.0284  -28.1359   22.8526 C   0  0  0  0  0  0
  -24.1475  -36.7318   23.2648 C   0  0  0  0  0  0
  -25.9383  -30.8245   21.3725 C   0  0  0  0  0  0
  -26.0148  -29.4589   20.7202 C   0  0  0  0  0  0
  -27.2040  -28.6931   20.7260 C   0  0  0  0  0  0
  -26.0584  -26.9311   19.4954 C   0  0  0  0  0  0
  -24.8708  -27.6857   19.5032 C   0  0  0  0  0  0
  -23.6220  -29.8224   20.1628 C   0  0  0  0  0  0
  -25.4097  -36.3124   24.0351 C   0  0  1  0  0  0
  -20.5875  -28.3643   23.1329 C   0  0  2  0  0  0
  -20.6775  -26.9375   22.5410 C   0  0  0  0  0  0
  -19.5732  -26.6370   21.5230 C   0  0  0  0  0  0
  -18.1919  -26.7910   22.1655 C   0  0  0  0  0  0
  -19.1528  -28.8828   23.2925 C   0  0  0  0  0  0
  -18.9442  -30.1439   23.8912 C   0  0  0  0  0  0
  -17.6440  -30.6566   24.0562 C   0  0  0  0  0  0
  -25.9018  -34.9489   23.5147 C   0  0  0  0  0  0
  -16.5338  -29.9048   23.6339 C   0  0  0  0  0  0
  -16.7272  -28.6469   23.0369 C   0  0  0  0  0  0
  -26.4459  -31.6647   25.0760 C   0  0  0  0  0  0
  -25.3714  -31.3772   26.1500 C   0  0  0  0  0  0
  -27.0316  -30.3089   24.6199 C   0  0  0  0  0  0
  -27.6014  -32.4405   25.7512 C   0  0  0  0  0  0
  -27.5585  -37.1805   24.8471 C   0  0  0  0  0  0
  -21.4172  -29.3027   22.3759 N   0  0  0  0  0  0
  -26.4315  -37.3792   23.9406 N   0  0  0  0  0  0
  -24.6723  -31.0721   22.1039 N   0  0  0  0  0  0
  -23.4197  -28.8180   23.3070 O   0  0  0  0  0  0
  -28.3599  -26.6244   20.1645 O   0  0  0  0  0  0
  -26.5573  -34.8940   22.4698 O   0  0  0  0  0  0
  -23.5340  -32.1493   23.7416 O   0  0  0  0  0  0
  -30.1666  -19.2031   20.6491 C   0  0  0  0  0  0
  -31.5414  -19.1049   20.6838 C   0  0  0  0  0  0
  -30.4382  -16.9247   20.8379 C   0  0  0  0  0  0
  -29.8034  -21.6906   20.4061 C   0  0  0  0  0  0
  -28.9623  -22.8276   22.4865 C   0  0  0  0  0  0
  -29.1320  -24.2438   20.3319 C   0  0  0  0  0  0
  -28.1918  -25.3649   20.8551 C   0  0  0  0  0  0
  -28.8811  -22.8189   20.9451 C   0  0  1  0  0  0
  -29.5440  -17.9337   20.7471 N   0  0  0  0  0  0
  -29.4104  -20.4187   20.6491 N   0  0  0  0  0  0
  -30.0033  -15.5600   20.8988 N   0  0  0  0  0  0
  -30.7993  -21.9837   19.7414 O   0  0  0  0  0  0
  -32.4188  -20.1359   20.6656 F   0  0  0  0  0  0
  -32.1225  -17.4789   20.8783 S   0  0  0  0  0  0
  -31.4617  -12.3629   19.1232 H   0  0  0  0  0  0
  -30.3082  -11.2991   19.8544 H   0  0  0  0  0  0
  -29.7300  -11.7174   17.4538 H   0  0  0  0  0  0
  -29.6470  -13.4410   17.7420 H   0  0  0  0  0  0
  -27.8522  -11.2777   18.8680 H   0  0  0  0  0  0
  -27.3524  -12.5548   17.7957 H   0  0  0  0  0  0
  -27.7012  -14.2407   19.5370 H   0  0  0  0  0  0
  -28.6766  -11.9900   21.3605 H   0  0  0  0  0  0
  -28.4730  -13.6449   21.8562 H   0  0  0  0  0  0
  -25.2742   -9.5874   22.4683 H   0  0  0  0  0  0
  -24.0139   -7.4705   22.7346 H   0  0  0  0  0  0
  -21.1059   -8.8570   19.8600 H   0  0  0  0  0  0
  -22.3846  -10.9527   19.5744 H   0  0  0  0  0  0
  -21.1913   -7.6044   23.9790 H   0  0  0  0  0  0
  -21.1377   -6.0284   25.9070 H   0  0  0  0  0  0
  -22.0680   -2.7591   23.2559 H   0  0  0  0  0  0
  -22.4247  -11.9773   22.4694 H   0  0  0  0  0  0
  -21.1287  -13.1207   22.3099 H   0  0  0  0  0  0
  -26.2286  -15.6157   19.9413 H   0  0  0  0  0  0
  -24.6180  -15.8190   20.3845 H   0  0  0  0  0  0
  -26.7121  -32.5520   23.1157 H   0  0  0  0  0  0
  -25.0076  -33.9807   25.0518 H   0  0  0  0  0  0
  -22.6964  -31.3033   21.4075 H   0  0  0  0  0  0
  -23.3761  -35.9630   23.3338 H   0  0  0  0  0  0
  -24.3560  -36.8907   22.2054 H   0  0  0  0  0  0
  -23.7210  -37.6524   23.6651 H   0  0  0  0  0  0
  -26.0519  -31.5907   20.6027 H   0  0  0  0  0  0
  -26.8246  -30.8743   21.9938 H   0  0  0  0  0  0
  -28.0946  -29.0638   21.2122 H   0  0  0  0  0  0
  -26.0664  -25.9697   18.9990 H   0  0  0  0  0  0
  -23.9806  -27.2916   19.0346 H   0  0  0  0  0  0
  -23.7383  -30.5978   19.4074 H   0  0  0  0  0  0
  -22.7513  -29.2392   19.8631 H   0  0  0  0  0  0
  -25.1268  -36.2017   25.0857 H   0  0  0  0  0  0
  -20.9940  -28.3154   24.1463 H   0  0  0  0  0  0
  -20.5688  -26.2230   23.3574 H   0  0  0  0  0  0
  -21.6638  -26.7424   22.1174 H   0  0  0  0  0  0
  -19.6872  -25.6283   21.1240 H   0  0  0  0  0  0
  -19.6655  -27.3210   20.6773 H   0  0  0  0  0  0
  -17.4188  -26.6703   21.4046 H   0  0  0  0  0  0
  -18.0294  -26.0013   22.9012 H   0  0  0  0  0  0
  -19.7904  -30.7282   24.2256 H   0  0  0  0  0  0
  -17.4971  -31.6242   24.5157 H   0  0  0  0  0  0
  -15.5326  -30.2943   23.7626 H   0  0  0  0  0  0
  -15.8689  -28.0768   22.7073 H   0  0  0  0  0  0
  -24.5813  -30.7236   25.7814 H   0  0  0  0  0  0
  -24.9000  -32.2938   26.5049 H   0  0  0  0  0  0
  -25.8012  -30.8831   27.0219 H   0  0  0  0  0  0
  -26.2891  -29.6811   24.1274 H   0  0  0  0  0  0
  -27.4100  -29.7368   25.4689 H   0  0  0  0  0  0
  -27.8716  -30.4443   23.9385 H   0  0  0  0  0  0
  -27.2615  -33.3662   26.2172 H   0  0  0  0  0  0
  -28.3734  -32.7060   25.0282 H   0  0  0  0  0  0
  -28.0806  -31.8527   26.5343 H   0  0  0  0  0  0
  -28.2610  -38.0094   24.7506 H   0  0  0  0  0  0
  -28.1062  -36.2615   24.6317 H   0  0  0  0  0  0
  -27.2293  -37.1491   25.8874 H   0  0  0  0  0  0
  -20.9319  -29.8777   21.7032 H   0  0  0  0  0  0
  -26.0208  -38.2894   24.1380 H   0  0  0  0  0  0
  -28.1523  -23.4121   22.9211 H   0  0  0  0  0  0
  -29.9090  -23.2449   22.8315 H   0  0  0  0  0  0
  -28.8778  -21.8261   22.9051 H   0  0  0  0  0  0
  -28.9967  -24.1848   19.2497 H   0  0  0  0  0  0
  -30.1679  -24.5460   20.4960 H   0  0  0  0  0  0
  -28.3777  -25.5449   21.9167 H   0  0  0  0  0  0
  -27.1692  -24.9959   20.8000 H   0  0  0  0  0  0
  -27.8669  -22.5226   20.6769 H   0  0  0  0  0  0
  -28.4726  -20.3247   21.0037 H   0  0  0  0  0  0
  -29.0319  -15.3998   21.1045 H   0  0  0  0  0  0
  1 25  1  0  0  0
  1 30  2  0  0  0
  1 81  1  0  0  0
  2  3  1  0  0  0
  2 25  1  0  0  0
  2 85  1  0  0  0
  2 86  1  0  0  0
  3  4  1  0  0  0
  3 87  1  0  0  0
  3 88  1  0  0  0
  4  5  1  0  0  0
  4 89  1  0  0  0
  4 90  1  0  0  0
  5  6  1  0  0  0
  5 26  1  0  0  0
  5 91  1  0  0  0
  6 25  1  0  0  0
  6 92  1  0  0  0
  6 93  1  0  0  0
  7  8  2  0  0  0
  7 26  1  0  0  0
  7 29  1  0  0  0
  8  9  1  0  0  0
  8 22  1  0  0  0
  9 10  1  0  0  0
  9 27  2  0  0  0
 10 11  2  0  0  0
 10 15  1  0  0  0
 11 12  1  0  0  0
 11 94  1  0  0  0
 12 13  2  0  0  0
 12 95  1  0  0  0
 13 14  1  0  0  0
 13 31  1  0  0  0
 14 15  2  0  0  0
 14 96  1  0  0  0
 15 97  1  0  0  0
 16 17  2  0  0  0
 16 21  1  0  0  0
 16 31  1  0  0  0
 17 18  1  0  0  0
 17 98  1  0  0  0
 18 19  2  0  0  0
 18 99  1  0  0  0
 19 20  1  0  0  0
 19 24  1  0  0  0
 20 21  2  0  0  0
 20100  1  0  0  0
 21 23  1  0  0  0
 22 28  1  0  0  0
 22 32  2  0  0  0
 26 27  1  0  0  0
 28101  1  0  0  0
 28102  1  0  0  0
 29103  1  0  0  0
 29104  1  0  0  0
 33 34  1  0  0  0
 33 66  1  0  0  0
 33 70  2  0  0  0
 34 36  1  0  0  0
 34 59  1  0  0  0
 34105  1  0  0  0
 35 44  2  0  0  0
 35 45  1  0  0  0
 35 68  1  0  0  0
 36 56  1  0  0  0
 36106  1  0  0  0
 37 39  1  0  0  0
 37 47  1  0  0  0
 37 66  1  0  0  0
 37107  1  0  0  0
 38 43  2  0  0  0
 38 46  1  0  0  0
 38 47  1  0  0  0
 39 64  1  0  0  0
 39 67  2  0  0  0
 40 52  1  0  0  0
 40 53  2  0  0  0
 40 58  1  0  0  0
 41108  1  0  0  0
 41109  1  0  0  0
 41110  1  0  0  0
 41 48  1  0  0  0
 42 43  1  0  0  0
 42 66  1  0  0  0
 42111  1  0  0  0
 42112  1  0  0  0
 43 44  1  0  0  0
 44113  1  0  0  0
 45 46  2  0  0  0
 45114  1  0  0  0
 46115  1  0  0  0
 47116  1  0  0  0
 47117  1  0  0  0
 48 56  1  0  0  0
 48 65  1  0  0  0
 48118  1  0  0  0
 49 50  1  0  0  0
 49 53  1  0  0  0
 49 64  1  0  0  0
 49119  1  0  0  0
 50 51  1  0  0  0
 50120  1  0  0  0
 50121  1  0  0  0
 51 52  1  0  0  0
 51122  1  0  0  0
 51123  1  0  0  0
 52124  1  0  0  0
 52125  1  0  0  0
 53 54  1  0  0  0
 54 55  2  0  0  0
 54126  1  0  0  0
 55 57  1  0  0  0
 55127  1  0  0  0
 56 69  2  0  0  0
 57 58  2  0  0  0
 57128  1  0  0  0
 58129  1  0  0  0
 59 60  1  0  0  0
 59 61  1  0  0  0
 59 62  1  0  0  0
 60130  1  0  0  0
 60131  1  0  0  0
 60132  1  0  0  0
 61133  1  0  0  0
 61134  1  0  0  0
 61135  1  0  0  0
 62136  1  0  0  0
 62137  1  0  0  0
 62138  1  0  0  0
 63 65  1  0  0  0
 63139  1  0  0  0
 63140  1  0  0  0
 63141  1  0  0  0
 64142  1  0  0  0
 65143  1  0  0  0
 68 77  1  0  0  0
 71 72  2  0  0  0
 71 79  1  0  0  0
 71 80  1  0  0  0
 72 83  1  0  0  0
 72 84  1  0  0  0
 73 79  2  0  0  0
 73 81  1  0  0  0
 73 84  1  0  0  0
 74 78  1  0  0  0
 74 80  1  0  0  0
 74 82  2  0  0  0
 75144  1  0  0  0
 75145  1  0  0  0
 75146  1  0  0  0
 75 78  1  0  0  0
 76 77  1  0  0  0
 76 78  1  0  0  0
 76147  1  0  0  0
 76148  1  0  0  0
 77149  1  0  0  0
 77150  1  0  0  0
 78151  1  0  0  0
 80152  1  0  0  0
 81153  1  0  0  0
M  ISO  4   1 100  68 101  77 101  81 100
M  END
> <chiral flag>
0

> <version>
0

> <s_m_source_file>
/data/baiqing/PycharmProjects/Reinvent-master-3.2/result/LINK_invent/BTK/process_docking_weight1_custom_product_contain_oxygen_bond_distance_aromatic_linkinvent_7_9_3/rearranged_h_0184.sdf

> <i_m_source_file_index>
13

> <r_mmod_Potential_Energy-OPLS-2005>
-127.516494750977

> <r_mmod_Stretch_Energy-OPLS-2005>
41.7755813598633

> <r_mmod_Bend_Energy-OPLS-2005>
107.690521240234

> <r_mmod_Torsional_Energy-OPLS-2005>
251.931884765625

> <r_mmod_Improper_Torsional_Energy-OPLS-2005>
6.8378267288208

> <r_mmod_Van_der_Waal_Energy-OPLS-2005>
139.016387939453

> <r_mmod_Electrostatic_Energy-OPLS-2005>
-464.282501220703

> <r_mmod_Solvation_Energy-OPLS-2005>
-231.472564697266

> <b_mmod_Minimization_Converged-OPLS-2005>
0

> <r_mmod_RMS_Derivative-OPLS-2005>
6.8449821472168

$$$$
13
                    3D
 Structure written by MMmdl.
156164  0  0  1  0            999 V2000
  -30.6250  -14.7330   20.4640 C   0  0  0  0  0  0
  -30.4258  -12.4496   19.4721 C   0  0  0  0  0  0
  -29.5058  -12.5032   18.2336 C   0  0  0  0  0  0
  -28.0323  -12.3297   18.6487 C   0  0  0  0  0  0
  -27.6391  -13.2324   19.8488 C   0  0  2  0  0  0
  -28.6833  -13.1717   20.9844 C   0  0  0  0  0  0
  -25.2500  -13.8199   20.5693 C   0  0  0  0  0  0
  -24.1799  -13.0443   20.9222 C   0  0  0  0  0  0
  -24.6390  -11.6921   20.8761 C   0  0  0  0  0  0
  -23.9068  -10.4294   21.0413 C   0  0  0  0  0  0
  -24.3620   -9.4207   21.9186 C   0  0  0  0  0  0
  -23.6295   -8.2242   22.0754 C   0  0  0  0  0  0
  -22.4277   -8.0281   21.3545 C   0  0  0  0  0  0
  -21.9913   -9.0255   20.4647 C   0  0  0  0  0  0
  -22.7242  -10.2135   20.3059 C   0  0  0  0  0  0
  -21.6853   -6.0735   22.5278 C   0  0  0  0  0  0
  -21.4014   -6.5640   23.8211 C   0  0  0  0  0  0
  -21.3659   -5.6794   24.9174 C   0  0  0  0  0  0
  -21.6043   -4.3056   24.7224 C   0  0  0  0  0  0
  -21.8820   -3.8146   23.4346 C   0  0  0  0  0  0
  -21.9193   -4.6963   22.3402 C   0  0  0  0  0  0
  -22.7821  -13.5226   21.1873 C   0  0  0  0  0  0
  -22.1662   -4.2148   21.0979 F   0  0  0  0  0  0
  -21.5627   -3.4539   25.7737 F   0  0  0  0  0  0
  -29.9825  -13.5177   20.3979 N   0  0  0  0  0  0
  -26.2922  -12.9406   20.3276 N   0  0  0  0  0  0
  -25.9318  -11.6549   20.5759 N   0  0  0  0  0  0
  -22.0466  -12.8214   22.0427 N   0  0  0  0  0  0
  -25.4183  -15.1916   20.4060 N   0  0  0  0  0  0
  -31.8113  -14.8068   20.1365 O   0  0  0  0  0  0
  -21.6642   -6.8878   21.4239 O   0  0  0  0  0  0
  -22.3505  -14.5529   20.6713 O   0  0  0  0  0  0
  -24.6305  -31.8538   23.1955 C   0  0  0  0  0  0
  -25.9131  -32.4746   23.8305 C   0  0  1  0  0  0
  -27.2257  -27.2645   20.1179 C   0  0  0  0  0  0
  -25.5931  -33.8549   24.2233 N   0  0  0  0  0  0
  -23.4262  -30.4747   21.5391 C   0  0  2  0  0  0
  -24.8717  -28.9168   20.1071 C   0  0  0  0  0  0
  -22.7493  -29.4590   22.4907 C   0  0  0  0  0  0
  -18.0289  -28.1385   22.8484 C   0  0  0  0  0  0
  -24.1492  -36.7274   23.2641 C   0  0  0  0  0  0
  -25.9701  -30.7680   21.3714 C   0  0  0  0  0  0
  -26.0415  -29.3905   20.7118 C   0  0  0  0  0  0
  -27.2159  -28.5754   20.7051 C   0  0  0  0  0  0
  -26.0224  -26.8403   19.5163 C   0  0  0  0  0  0
  -24.8666  -27.6493   19.5012 C   0  0  0  0  0  0
  -23.6426  -29.8045   20.1556 C   0  0  0  0  0  0
  -25.4120  -36.3062   24.0323 C   0  0  1  0  0  0
  -20.5892  -28.3694   23.1272 C   0  0  2  0  0  0
  -20.6777  -26.9412   22.5408 C   0  0  0  0  0  0
  -19.5755  -26.6380   21.5212 C   0  0  0  0  0  0
  -18.1934  -26.7927   22.1622 C   0  0  0  0  0  0
  -19.1543  -28.8856   23.2873 C   0  0  0  0  0  0
  -18.9467  -30.1458   23.8891 C   0  0  0  0  0  0
  -17.6468  -30.6588   24.0562 C   0  0  0  0  0  0
  -25.9061  -34.9436   23.5081 C   0  0  0  0  0  0
  -16.5359  -29.9086   23.6332 C   0  0  0  0  0  0
  -16.7276  -28.6503   23.0352 C   0  0  0  0  0  0
  -26.4500  -31.6581   25.0702 C   0  0  0  0  0  0
  -25.3724  -31.3735   26.1424 C   0  0  0  0  0  0
  -27.0352  -30.3001   24.6186 C   0  0  0  0  0  0
  -27.6047  -32.4330   25.7481 C   0  0  0  0  0  0
  -27.5578  -37.1792   24.8466 C   0  0  0  0  0  0
  -21.4202  -29.3039   22.3659 N   0  0  0  0  0  0
  -26.4291  -37.3765   23.9412 N   0  0  0  0  0  0
  -24.6949  -31.0505   22.0921 N   0  0  0  0  0  0
  -23.4198  -28.8139   23.3007 O   0  0  0  0  0  0
  -28.3620  -26.4291   20.2071 O   0  0  0  0  0  0
  -26.5636  -34.8918   22.4654 O   0  0  0  0  0  0
  -23.5458  -32.1358   23.7258 O   0  0  0  0  0  0
  -28.3932  -19.0709   21.0164 C   0  0  0  0  0  0
  -29.6506  -18.6379   20.6095 C   0  0  0  0  0  0
  -29.0988  -21.1726   20.2465 C   0  0  0  0  0  0
  -28.3017  -23.7135   20.2151 C   0  0  0  0  0  0
  -27.3515  -18.2391   21.7000 C   0  0  0  0  0  0
  -28.2579  -25.1244   18.0103 C   0  0  0  0  0  0
  -30.4700  -17.2962   20.8704 C   0  0  1  0  0  0
  -28.6259  -25.1219   19.5057 C   0  0  1  0  0  0
  -31.1341  -17.3773   22.2727 C   0  0  0  0  0  0
  -28.1036  -20.4603   20.8075 N   0  0  0  0  0  0
  -29.0922  -22.6159   19.9062 N   0  0  0  0  0  0
  -29.8941  -15.8868   20.7057 N   0  0  0  0  0  0
  -27.3633  -23.6464   21.0134 O   0  0  0  0  0  0
  -31.7422  -18.5520   22.4384 F   0  0  0  0  0  0
  -30.1982  -17.2511   23.2142 F   0  0  0  0  0  0
  -32.0465  -16.4260   22.4657 F   0  0  0  0  0  0
  -30.4651  -20.0619   19.8931 S   0  0  0  0  0  0
  -31.4679  -12.5647   19.1690 H   0  0  0  0  0  0
  -30.3638  -11.4747   19.9583 H   0  0  0  0  0  0
  -29.7866  -11.7282   17.5192 H   0  0  0  0  0  0
  -29.6338  -13.4563   17.7180 H   0  0  0  0  0  0
  -27.8887  -11.2815   18.9138 H   0  0  0  0  0  0
  -27.3742  -12.5200   17.8000 H   0  0  0  0  0  0
  -27.6324  -14.2530   19.4655 H   0  0  0  0  0  0
  -28.7177  -12.1765   21.4300 H   0  0  0  0  0  0
  -28.4206  -13.8591   21.7902 H   0  0  0  0  0  0
  -25.2763   -9.5682   22.4764 H   0  0  0  0  0  0
  -24.0003   -7.4631   22.7471 H   0  0  0  0  0  0
  -21.0845   -8.8773   19.8951 H   0  0  0  0  0  0
  -22.3699  -10.9675   19.6170 H   0  0  0  0  0  0
  -21.2009   -7.6148   23.9714 H   0  0  0  0  0  0
  -21.1480   -6.0524   25.9077 H   0  0  0  0  0  0
  -22.0600   -2.7608   23.2846 H   0  0  0  0  0  0
  -22.4089  -11.9879   22.4817 H   0  0  0  0  0  0
  -21.1081  -13.1232   22.2630 H   0  0  0  0  0  0
  -24.6375  -15.8336   20.4868 H   0  0  0  0  0  0
  -26.2401  -15.6171   19.9985 H   0  0  0  0  0  0
  -26.7193  -32.5389   23.1040 H   0  0  0  0  0  0
  -25.0088  -33.9686   25.0386 H   0  0  0  0  0  0
  -22.7227  -31.2967   21.3916 H   0  0  0  0  0  0
  -23.3759  -35.9602   23.3305 H   0  0  0  0  0  0
  -24.3578  -36.8895   22.2054 H   0  0  0  0  0  0
  -23.7242  -37.6473   23.6668 H   0  0  0  0  0  0
  -26.1085  -31.5292   20.6023 H   0  0  0  0  0  0
  -26.8478  -30.8155   22.0045 H   0  0  0  0  0  0
  -28.1140  -28.9351   21.1875 H   0  0  0  0  0  0
  -25.9345  -25.8512   19.0997 H   0  0  0  0  0  0
  -23.9628  -27.2708   19.0441 H   0  0  0  0  0  0
  -23.7663  -30.5794   19.3982 H   0  0  0  0  0  0
  -22.7605  -29.2376   19.8526 H   0  0  0  0  0  0
  -25.1304  -36.1900   25.0814 H   0  0  0  0  0  0
  -20.9987  -28.3271   24.1391 H   0  0  0  0  0  0
  -20.5675  -26.2304   23.3610 H   0  0  0  0  0  0
  -21.6645  -26.7431   22.1205 H   0  0  0  0  0  0
  -19.6920  -25.6289   21.1245 H   0  0  0  0  0  0
  -19.6697  -27.3188   20.6744 H   0  0  0  0  0  0
  -17.4203  -26.6672   21.4025 H   0  0  0  0  0  0
  -18.0335  -26.0067   22.9018 H   0  0  0  0  0  0
  -19.7946  -30.7272   24.2258 H   0  0  0  0  0  0
  -17.5027  -31.6270   24.5160 H   0  0  0  0  0  0
  -15.5361  -30.2990   23.7662 H   0  0  0  0  0  0
  -15.8673  -28.0823   22.7074 H   0  0  0  0  0  0
  -24.5904  -30.7076   25.7756 H   0  0  0  0  0  0
  -24.8911  -32.2908   26.4829 H   0  0  0  0  0  0
  -25.8039  -30.8930   27.0214 H   0  0  0  0  0  0
  -26.2935  -29.6742   24.1209 H   0  0  0  0  0  0
  -27.4041  -29.7268   25.4701 H   0  0  0  0  0  0
  -27.8805  -30.4281   23.9421 H   0  0  0  0  0  0
  -27.2646  -33.3637   26.2038 H   0  0  0  0  0  0
  -28.3868  -32.6883   25.0317 H   0  0  0  0  0  0
  -28.0706  -31.8472   26.5414 H   0  0  0  0  0  0
  -28.2589  -38.0096   24.7515 H   0  0  0  0  0  0
  -28.1077  -36.2624   24.6287 H   0  0  0  0  0  0
  -27.2295  -37.1429   25.8869 H   0  0  0  0  0  0
  -20.9385  -29.8756   21.6860 H   0  0  0  0  0  0
  -26.0163  -38.2834   24.1422 H   0  0  0  0  0  0
  -27.7620  -17.3129   22.0997 H   0  0  0  0  0  0
  -26.5502  -17.9710   21.0116 H   0  0  0  0  0  0
  -26.9000  -18.7748   22.5352 H   0  0  0  0  0  0
  -28.9008  -24.4390   17.4574 H   0  0  0  0  0  0
  -28.3890  -26.1137   17.5722 H   0  0  0  0  0  0
  -27.2365  -24.7967   17.8270 H   0  0  0  0  0  0
  -31.2937  -17.3360   20.1561 H   0  0  0  0  0  0
  -29.7164  -25.1314   19.5065 H   0  0  0  0  0  0
  -29.8587  -22.8682   19.2994 H   0  0  0  0  0  0
  -28.9159  -15.7711   20.9096 H   0  0  0  0  0  0
  1 25  1  0  0  0
  1 30  2  0  0  0
  1 82  1  0  0  0
  2  3  1  0  0  0
  2 25  1  0  0  0
  2 88  1  0  0  0
  2 89  1  0  0  0
  3  4  1  0  0  0
  3 90  1  0  0  0
  3 91  1  0  0  0
  4  5  1  0  0  0
  4 92  1  0  0  0
  4 93  1  0  0  0
  5  6  1  0  0  0
  5 26  1  0  0  0
  5 94  1  0  0  0
  6 25  1  0  0  0
  6 95  1  0  0  0
  6 96  1  0  0  0
  7  8  2  0  0  0
  7 26  1  0  0  0
  7 29  1  0  0  0
  8  9  1  0  0  0
  8 22  1  0  0  0
  9 10  1  0  0  0
  9 27  2  0  0  0
 10 11  2  0  0  0
 10 15  1  0  0  0
 11 12  1  0  0  0
 11 97  1  0  0  0
 12 13  2  0  0  0
 12 98  1  0  0  0
 13 14  1  0  0  0
 13 31  1  0  0  0
 14 15  2  0  0  0
 14 99  1  0  0  0
 15100  1  0  0  0
 16 17  2  0  0  0
 16 21  1  0  0  0
 16 31  1  0  0  0
 17 18  1  0  0  0
 17101  1  0  0  0
 18 19  2  0  0  0
 18102  1  0  0  0
 19 20  1  0  0  0
 19 24  1  0  0  0
 20 21  2  0  0  0
 20103  1  0  0  0
 21 23  1  0  0  0
 22 28  1  0  0  0
 22 32  2  0  0  0
 26 27  1  0  0  0
 28104  1  0  0  0
 28105  1  0  0  0
 29106  1  0  0  0
 29107  1  0  0  0
 33 34  1  0  0  0
 33 66  1  0  0  0
 33 70  2  0  0  0
 34 36  1  0  0  0
 34 59  1  0  0  0
 34108  1  0  0  0
 35 44  2  0  0  0
 35 45  1  0  0  0
 35 68  1  0  0  0
 36 56  1  0  0  0
 36109  1  0  0  0
 37 39  1  0  0  0
 37 47  1  0  0  0
 37 66  1  0  0  0
 37110  1  0  0  0
 38 43  2  0  0  0
 38 46  1  0  0  0
 38 47  1  0  0  0
 39 64  1  0  0  0
 39 67  2  0  0  0
 40 52  1  0  0  0
 40 53  2  0  0  0
 40 58  1  0  0  0
 41111  1  0  0  0
 41112  1  0  0  0
 41113  1  0  0  0
 41 48  1  0  0  0
 42 43  1  0  0  0
 42 66  1  0  0  0
 42114  1  0  0  0
 42115  1  0  0  0
 43 44  1  0  0  0
 44116  1  0  0  0
 45 46  2  0  0  0
 45117  1  0  0  0
 46118  1  0  0  0
 47119  1  0  0  0
 47120  1  0  0  0
 48 56  1  0  0  0
 48 65  1  0  0  0
 48121  1  0  0  0
 49 50  1  0  0  0
 49 53  1  0  0  0
 49 64  1  0  0  0
 49122  1  0  0  0
 50 51  1  0  0  0
 50123  1  0  0  0
 50124  1  0  0  0
 51 52  1  0  0  0
 51125  1  0  0  0
 51126  1  0  0  0
 52127  1  0  0  0
 52128  1  0  0  0
 53 54  1  0  0  0
 54 55  2  0  0  0
 54129  1  0  0  0
 55 57  1  0  0  0
 55130  1  0  0  0
 56 69  2  0  0  0
 57 58  2  0  0  0
 57131  1  0  0  0
 58132  1  0  0  0
 59 60  1  0  0  0
 59 61  1  0  0  0
 59 62  1  0  0  0
 60133  1  0  0  0
 60134  1  0  0  0
 60135  1  0  0  0
 61136  1  0  0  0
 61137  1  0  0  0
 61138  1  0  0  0
 62139  1  0  0  0
 62140  1  0  0  0
 62141  1  0  0  0
 63 65  1  0  0  0
 63142  1  0  0  0
 63143  1  0  0  0
 63144  1  0  0  0
 64145  1  0  0  0
 65146  1  0  0  0
 68 78  1  0  0  0
 71 72  2  0  0  0
 71 75  1  0  0  0
 71 80  1  0  0  0
 72 77  1  0  0  0
 72 87  1  0  0  0
 73 80  2  0  0  0
 73 81  1  0  0  0
 73 87  1  0  0  0
 74 78  1  0  0  0
 74 81  1  0  0  0
 74 83  2  0  0  0
 75147  1  0  0  0
 75148  1  0  0  0
 75149  1  0  0  0
 76150  1  0  0  0
 76151  1  0  0  0
 76152  1  0  0  0
 76 78  1  0  0  0
 77 79  1  0  0  0
 77 82  1  0  0  0
 77153  1  0  0  0
 78154  1  0  0  0
 79 84  1  0  0  0
 79 85  1  0  0  0
 79 86  1  0  0  0
 81155  1  0  0  0
 82156  1  0  0  0
M  ISO  4   1 100  68 101  78 101  82 100
M  END
> <chiral flag>
0

> <version>
0

> <s_m_source_file>
/data/baiqing/PycharmProjects/Reinvent-master-3.2/result/LINK_invent/BTK/process_docking_weight1_custom_product_contain_oxygen_bond_distance_aromatic_linkinvent_7_9_3/rearranged_h_0184.sdf

> <i_m_source_file_index>
14

> <r_mmod_Potential_Energy-OPLS-2005>
-17.1243419647217

> <r_mmod_Stretch_Energy-OPLS-2005>
116.511283874512

> <r_mmod_Bend_Energy-OPLS-2005>
217.151138305664

> <r_mmod_Torsional_Energy-OPLS-2005>
205.816390991211

> <r_mmod_Improper_Torsional_Energy-OPLS-2005>
5.74976682662964

> <r_mmod_Van_der_Waal_Energy-OPLS-2005>
111.645973205566

> <r_mmod_Electrostatic_Energy-OPLS-2005>
-503.630554199219

> <r_mmod_Solvation_Energy-OPLS-2005>
-249.607666015625

> <b_mmod_Minimization_Converged-OPLS-2005>
0

> <r_mmod_RMS_Derivative-OPLS-2005>
0.476007878780365

$$$$
14
                    3D
 Structure written by MMmdl.
158166  0  0  1  0            999 V2000
  -30.6899  -14.4733   20.5803 C   0  0  0  0  0  0
  -30.4294  -12.3081   19.4218 C   0  0  0  0  0  0
  -29.4992  -12.5131   18.2074 C   0  0  0  0  0  0
  -28.0192  -12.3703   18.6173 C   0  0  0  0  0  0
  -27.6656  -13.2040   19.8776 C   0  0  2  0  0  0
  -28.7056  -12.9677   20.9972 C   0  0  0  0  0  0
  -25.2609  -13.8153   20.5682 C   0  0  0  0  0  0
  -24.1851  -13.0438   20.9171 C   0  0  0  0  0  0
  -24.6395  -11.6900   20.8722 C   0  0  0  0  0  0
  -23.9051  -10.4290   21.0400 C   0  0  0  0  0  0
  -24.3603   -9.4211   21.9182 C   0  0  0  0  0  0
  -23.6284   -8.2244   22.0756 C   0  0  0  0  0  0
  -22.4266   -8.0279   21.3549 C   0  0  0  0  0  0
  -21.9897   -9.0253   20.4651 C   0  0  0  0  0  0
  -22.7221  -10.2135   20.3058 C   0  0  0  0  0  0
  -21.6853   -6.0732   22.5280 C   0  0  0  0  0  0
  -21.4013   -6.5636   23.8213 C   0  0  0  0  0  0
  -21.3659   -5.6791   24.9174 C   0  0  0  0  0  0
  -21.6047   -4.3056   24.7226 C   0  0  0  0  0  0
  -21.8816   -3.8144   23.4348 C   0  0  0  0  0  0
  -21.9192   -4.6960   22.3404 C   0  0  0  0  0  0
  -22.7872  -13.5249   21.1828 C   0  0  0  0  0  0
  -22.1663   -4.2146   21.0981 F   0  0  0  0  0  0
  -21.5631   -3.4538   25.7740 F   0  0  0  0  0  0
  -30.0419  -13.2812   20.4558 N   0  0  0  0  0  0
  -26.3042  -12.9314   20.3356 N   0  0  0  0  0  0
  -25.9322  -11.6479   20.5744 N   0  0  0  0  0  0
  -22.0498  -12.8261   22.0387 N   0  0  0  0  0  0
  -25.4354  -15.1868   20.4097 N   0  0  0  0  0  0
  -31.8054  -14.6765   20.0876 O   0  0  0  0  0  0
  -21.6640   -6.8873   21.4240 O   0  0  0  0  0  0
  -22.3565  -14.5560   20.6680 O   0  0  0  0  0  0
  -24.6139  -31.8679   23.2082 C   0  0  0  0  0  0
  -25.9032  -32.4817   23.8391 C   0  0  1  0  0  0
  -27.2356  -27.4326   20.1032 C   0  0  0  0  0  0
  -25.5882  -33.8610   24.2322 N   0  0  0  0  0  0
  -23.4039  -30.4900   21.5491 C   0  0  2  0  0  0
  -24.8530  -28.9557   20.1140 C   0  0  0  0  0  0
  -22.7417  -29.4661   22.4992 C   0  0  0  0  0  0
  -18.0274  -28.1382   22.8491 C   0  0  0  0  0  0
  -24.1486  -36.7322   23.2645 C   0  0  0  0  0  0
  -25.9329  -30.8334   21.3625 C   0  0  0  0  0  0
  -26.0128  -29.4682   20.7095 C   0  0  0  0  0  0
  -27.2105  -28.7149   20.6981 C   0  0  0  0  0  0
  -26.0622  -26.9374   19.4960 C   0  0  0  0  0  0
  -24.8727  -27.6901   19.5020 C   0  0  0  0  0  0
  -23.6128  -29.8198   20.1649 C   0  0  0  0  0  0
  -25.4103  -36.3107   24.0344 C   0  0  1  0  0  0
  -20.5863  -28.3668   23.1322 C   0  0  2  0  0  0
  -20.6760  -26.9405   22.5419 C   0  0  0  0  0  0
  -19.5737  -26.6391   21.5217 C   0  0  0  0  0  0
  -18.1916  -26.7929   22.1627 C   0  0  0  0  0  0
  -19.1522  -28.8843   23.2900 C   0  0  0  0  0  0
  -18.9449  -30.1450   23.8910 C   0  0  0  0  0  0
  -17.6451  -30.6586   24.0570 C   0  0  0  0  0  0
  -25.9031  -34.9471   23.5133 C   0  0  0  0  0  0
  -16.5341  -29.9089   23.6334 C   0  0  0  0  0  0
  -16.7263  -28.6509   23.0350 C   0  0  0  0  0  0
  -26.4457  -31.6587   25.0718 C   0  0  0  0  0  0
  -25.3725  -31.3693   26.1473 C   0  0  0  0  0  0
  -27.0291  -30.3027   24.6099 C   0  0  0  0  0  0
  -27.6047  -32.4301   25.7466 C   0  0  0  0  0  0
  -27.5583  -37.1812   24.8466 C   0  0  0  0  0  0
  -21.4144  -29.3035   22.3730 N   0  0  0  0  0  0
  -26.4290  -37.3789   23.9415 N   0  0  0  0  0  0
  -24.6685  -31.0782   22.0984 N   0  0  0  0  0  0
  -23.4189  -28.8218   23.3046 O   0  0  0  0  0  0
  -28.3785  -26.6589   20.1156 O   0  0  0  0  0  0
  -26.5605  -34.8924   22.4703 O   0  0  0  0  0  0
  -23.5328  -32.1429   23.7474 O   0  0  0  0  0  0
  -29.1720  -19.1463   20.3966 C   0  0  0  0  0  0
  -30.4880  -18.8695   20.0732 C   0  0  0  0  0  0
  -29.9034  -16.8197   20.9009 C   0  0  0  0  0  0
  -28.2814  -22.8117   20.5795 C   0  0  0  0  0  0
  -27.4793  -20.1436   18.8337 C   0  0  0  0  0  0
  -29.0033  -25.6502   22.1973 C   0  0  0  0  0  0
  -28.8006  -24.1874   20.0851 C   0  0  0  0  0  0
  -28.2670  -20.3429   20.1394 C   0  0  2  0  0  0
  -28.2657  -25.4296   20.8676 C   0  0  2  0  0  0
  -30.8894  -17.5603   20.3776 N   0  0  0  0  0  0
  -31.4084  -19.7199   19.4597 N   0  0  0  0  0  0
  -29.9833  -15.4296   21.2122 N   0  0  0  0  0  0
  -28.8801  -21.6895   20.1214 N   0  0  0  0  0  0
  -27.2962  -22.7568   21.3190 O   0  0  0  0  0  0
  -28.4287  -17.7394   21.1433 S   0  0  0  0  0  0
  -31.4735  -12.4101   19.1217 H   0  0  0  0  0  0
  -30.3329  -11.2930   19.8099 H   0  0  0  0  0  0
  -29.7406  -11.7955   17.4224 H   0  0  0  0  0  0
  -29.6683  -13.5015   17.7766 H   0  0  0  0  0  0
  -27.8278  -11.3131   18.8075 H   0  0  0  0  0  0
  -27.3707  -12.6512   17.7869 H   0  0  0  0  0  0
  -27.7147  -14.2541   19.5878 H   0  0  0  0  0  0
  -28.6816  -11.9256   21.3202 H   0  0  0  0  0  0
  -28.4584  -13.5458   21.8879 H   0  0  0  0  0  0
  -25.2748   -9.5698   22.4751 H   0  0  0  0  0  0
  -24.0002   -7.4639   22.7475 H   0  0  0  0  0  0
  -21.0830   -8.8769   19.8959 H   0  0  0  0  0  0
  -22.3677  -10.9672   19.6167 H   0  0  0  0  0  0
  -21.2006   -7.6146   23.9717 H   0  0  0  0  0  0
  -21.1484   -6.0521   25.9079 H   0  0  0  0  0  0
  -22.0596   -2.7607   23.2849 H   0  0  0  0  0  0
  -22.4093  -11.9925   22.4797 H   0  0  0  0  0  0
  -21.1122  -13.1315   22.2579 H   0  0  0  0  0  0
  -24.6687  -15.8422   20.5155 H   0  0  0  0  0  0
  -26.2846  -15.6229   20.0754 H   0  0  0  0  0  0
  -26.7115  -32.5539   23.1169 H   0  0  0  0  0  0
  -24.9986  -33.9767   25.0436 H   0  0  0  0  0  0
  -22.6916  -31.3059   21.4086 H   0  0  0  0  0  0
  -23.3731  -35.9674   23.3309 H   0  0  0  0  0  0
  -24.3585  -36.8931   22.2060 H   0  0  0  0  0  0
  -23.7257  -37.6537   23.6654 H   0  0  0  0  0  0
  -26.0464  -31.5990   20.5935 H   0  0  0  0  0  0
  -26.8203  -30.8860   21.9818 H   0  0  0  0  0  0
  -28.1059  -29.1031   21.1629 H   0  0  0  0  0  0
  -26.0672  -25.9625   19.0286 H   0  0  0  0  0  0
  -23.9819  -27.2900   19.0387 H   0  0  0  0  0  0
  -23.7169  -30.5926   19.4022 H   0  0  0  0  0  0
  -22.7380  -29.2359   19.8733 H   0  0  0  0  0  0
  -25.1274  -36.1972   25.0836 H   0  0  0  0  0  0
  -20.9951  -28.3232   24.1445 H   0  0  0  0  0  0
  -20.5668  -26.2271   23.3602 H   0  0  0  0  0  0
  -21.6629  -26.7455   22.1208 H   0  0  0  0  0  0
  -19.6892  -25.6308   21.1235 H   0  0  0  0  0  0
  -19.6675  -27.3212   20.6754 H   0  0  0  0  0  0
  -17.4187  -26.6683   21.4028 H   0  0  0  0  0  0
  -18.0310  -26.0071   22.9019 H   0  0  0  0  0  0
  -19.7925  -30.7263   24.2278 H   0  0  0  0  0  0
  -17.5011  -31.6270   24.5166 H   0  0  0  0  0  0
  -15.5343  -30.2997   23.7656 H   0  0  0  0  0  0
  -15.8660  -28.0840   22.7056 H   0  0  0  0  0  0
  -24.5883  -30.7057   25.7811 H   0  0  0  0  0  0
  -24.8927  -32.2845   26.4950 H   0  0  0  0  0  0
  -25.8075  -30.8839   27.0217 H   0  0  0  0  0  0
  -26.2839  -29.6786   24.1150 H   0  0  0  0  0  0
  -27.4053  -29.7263   25.4561 H   0  0  0  0  0  0
  -27.8676  -30.4340   23.9254 H   0  0  0  0  0  0
  -27.2683  -33.3591   26.2078 H   0  0  0  0  0  0
  -28.3823  -32.6872   25.0262 H   0  0  0  0  0  0
  -28.0750  -31.8399   26.5341 H   0  0  0  0  0  0
  -28.2601  -38.0107   24.7500 H   0  0  0  0  0  0
  -28.1068  -36.2636   24.6284 H   0  0  0  0  0  0
  -27.2306  -37.1468   25.8870 H   0  0  0  0  0  0
  -20.9304  -29.8744   21.6939 H   0  0  0  0  0  0
  -26.0175  -38.2872   24.1387 H   0  0  0  0  0  0
  -26.9069  -19.2158   18.8578 H   0  0  0  0  0  0
  -28.1456  -20.0950   17.9718 H   0  0  0  0  0  0
  -26.7727  -20.9564   18.6639 H   0  0  0  0  0  0
  -28.9262  -24.7756   22.8441 H   0  0  0  0  0  0
  -28.5857  -26.4995   22.7395 H   0  0  0  0  0  0
  -30.0622  -25.8491   22.0326 H   0  0  0  0  0  0
  -28.4870  -24.2747   19.0446 H   0  0  0  0  0  0
  -29.8910  -24.1884   20.0758 H   0  0  0  0  0  0
  -27.5282  -20.3316   20.9426 H   0  0  0  0  0  0
  -27.2192  -25.2474   21.1191 H   0  0  0  0  0  0
  -31.0837  -20.5252   18.9408 H   0  0  0  0  0  0
  -32.2633  -19.3191   19.0900 H   0  0  0  0  0  0
  -29.1645  -15.0668   21.6739 H   0  0  0  0  0  0
  -29.7087  -21.8108   19.5582 H   0  0  0  0  0  0
  1 25  1  0  0  0
  1 30  2  0  0  0
  1 82  1  0  0  0
  2  3  1  0  0  0
  2 25  1  0  0  0
  2 86  1  0  0  0
  2 87  1  0  0  0
  3  4  1  0  0  0
  3 88  1  0  0  0
  3 89  1  0  0  0
  4  5  1  0  0  0
  4 90  1  0  0  0
  4 91  1  0  0  0
  5  6  1  0  0  0
  5 26  1  0  0  0
  5 92  1  0  0  0
  6 25  1  0  0  0
  6 93  1  0  0  0
  6 94  1  0  0  0
  7  8  2  0  0  0
  7 26  1  0  0  0
  7 29  1  0  0  0
  8  9  1  0  0  0
  8 22  1  0  0  0
  9 10  1  0  0  0
  9 27  2  0  0  0
 10 11  2  0  0  0
 10 15  1  0  0  0
 11 12  1  0  0  0
 11 95  1  0  0  0
 12 13  2  0  0  0
 12 96  1  0  0  0
 13 14  1  0  0  0
 13 31  1  0  0  0
 14 15  2  0  0  0
 14 97  1  0  0  0
 15 98  1  0  0  0
 16 17  2  0  0  0
 16 21  1  0  0  0
 16 31  1  0  0  0
 17 18  1  0  0  0
 17 99  1  0  0  0
 18 19  2  0  0  0
 18100  1  0  0  0
 19 20  1  0  0  0
 19 24  1  0  0  0
 20 21  2  0  0  0
 20101  1  0  0  0
 21 23  1  0  0  0
 22 28  1  0  0  0
 22 32  2  0  0  0
 26 27  1  0  0  0
 28102  1  0  0  0
 28103  1  0  0  0
 29104  1  0  0  0
 29105  1  0  0  0
 33 34  1  0  0  0
 33 66  1  0  0  0
 33 70  2  0  0  0
 34 36  1  0  0  0
 34 59  1  0  0  0
 34106  1  0  0  0
 35 44  2  0  0  0
 35 45  1  0  0  0
 35 68  1  0  0  0
 36 56  1  0  0  0
 36107  1  0  0  0
 37 39  1  0  0  0
 37 47  1  0  0  0
 37 66  1  0  0  0
 37108  1  0  0  0
 38 43  2  0  0  0
 38 46  1  0  0  0
 38 47  1  0  0  0
 39 64  1  0  0  0
 39 67  2  0  0  0
 40 52  1  0  0  0
 40 53  2  0  0  0
 40 58  1  0  0  0
 41109  1  0  0  0
 41110  1  0  0  0
 41111  1  0  0  0
 41 48  1  0  0  0
 42 43  1  0  0  0
 42 66  1  0  0  0
 42112  1  0  0  0
 42113  1  0  0  0
 43 44  1  0  0  0
 44114  1  0  0  0
 45 46  2  0  0  0
 45115  1  0  0  0
 46116  1  0  0  0
 47117  1  0  0  0
 47118  1  0  0  0
 48 56  1  0  0  0
 48 65  1  0  0  0
 48119  1  0  0  0
 49 50  1  0  0  0
 49 53  1  0  0  0
 49 64  1  0  0  0
 49120  1  0  0  0
 50 51  1  0  0  0
 50121  1  0  0  0
 50122  1  0  0  0
 51 52  1  0  0  0
 51123  1  0  0  0
 51124  1  0  0  0
 52125  1  0  0  0
 52126  1  0  0  0
 53 54  1  0  0  0
 54 55  2  0  0  0
 54127  1  0  0  0
 55 57  1  0  0  0
 55128  1  0  0  0
 56 69  2  0  0  0
 57 58  2  0  0  0
 57129  1  0  0  0
 58130  1  0  0  0
 59 60  1  0  0  0
 59 61  1  0  0  0
 59 62  1  0  0  0
 60131  1  0  0  0
 60132  1  0  0  0
 60133  1  0  0  0
 61134  1  0  0  0
 61135  1  0  0  0
 61136  1  0  0  0
 62137  1  0  0  0
 62138  1  0  0  0
 62139  1  0  0  0
 63 65  1  0  0  0
 63140  1  0  0  0
 63141  1  0  0  0
 63142  1  0  0  0
 64143  1  0  0  0
 65144  1  0  0  0
 68 79  1  0  0  0
 71 72  2  0  0  0
 71 78  1  0  0  0
 71 85  1  0  0  0
 72 80  1  0  0  0
 72 81  1  0  0  0
 73 80  2  0  0  0
 73 82  1  0  0  0
 73 85  1  0  0  0
 74 77  1  0  0  0
 74 83  1  0  0  0
 74 84  2  0  0  0
 75145  1  0  0  0
 75146  1  0  0  0
 75147  1  0  0  0
 75 78  1  0  0  0
 76148  1  0  0  0
 76149  1  0  0  0
 76150  1  0  0  0
 76 79  1  0  0  0
 77 79  1  0  0  0
 77151  1  0  0  0
 77152  1  0  0  0
 78 83  1  0  0  0
 78153  1  0  0  0
 79154  1  0  0  0
 81155  1  0  0  0
 81156  1  0  0  0
 82157  1  0  0  0
 83158  1  0  0  0
M  ISO  4   1 100  68 101  79 101  82 100
M  END
> <chiral flag>
0

> <version>
0

> <s_m_source_file>
/data/baiqing/PycharmProjects/Reinvent-master-3.2/result/LINK_invent/BTK/process_docking_weight1_custom_product_contain_oxygen_bond_distance_aromatic_linkinvent_7_9_3/rearranged_h_0184.sdf

> <i_m_source_file_index>
15

> <r_mmod_Potential_Energy-OPLS-2005>
-191.925598144531

> <r_mmod_Stretch_Energy-OPLS-2005>
39.7957496643066

> <r_mmod_Bend_Energy-OPLS-2005>
112.645057678223

> <r_mmod_Torsional_Energy-OPLS-2005>
214.901077270508

> <r_mmod_Improper_Torsional_Energy-OPLS-2005>
7.94321155548096

> <r_mmod_Van_der_Waal_Energy-OPLS-2005>
124.778266906738

> <r_mmod_Electrostatic_Energy-OPLS-2005>
-448.999786376953

> <r_mmod_Solvation_Energy-OPLS-2005>
-255.62385559082

> <b_mmod_Minimization_Converged-OPLS-2005>
0

> <r_mmod_RMS_Derivative-OPLS-2005>
1.14271605014801

$$$$
15
                    3D
 Structure written by MMmdl.
146154  0  0  1  0            999 V2000
  -30.5680  -14.8405   20.4327 C   0  0  0  0  0  0
  -30.4364  -12.5104   19.4978 C   0  0  0  0  0  0
  -29.5189  -12.5214   18.2533 C   0  0  0  0  0  0
  -28.0469  -12.3283   18.6636 C   0  0  0  0  0  0
  -27.6387  -13.2398   19.8509 C   0  0  2  0  0  0
  -28.6793  -13.2086   20.9921 C   0  0  0  0  0  0
  -25.2491  -13.8208   20.5704 C   0  0  0  0  0  0
  -24.1792  -13.0442   20.9210 C   0  0  0  0  0  0
  -24.6394  -11.6923   20.8745 C   0  0  0  0  0  0
  -23.9075  -10.4295   21.0403 C   0  0  0  0  0  0
  -24.3624   -9.4210   21.9182 C   0  0  0  0  0  0
  -23.6296   -8.2245   22.0753 C   0  0  0  0  0  0
  -22.4278   -8.0283   21.3544 C   0  0  0  0  0  0
  -21.9914   -9.0257   20.4647 C   0  0  0  0  0  0
  -22.7245  -10.2135   20.3055 C   0  0  0  0  0  0
  -21.6856   -6.0736   22.5278 C   0  0  0  0  0  0
  -21.4017   -6.5639   23.8211 C   0  0  0  0  0  0
  -21.3661   -5.6792   24.9173 C   0  0  0  0  0  0
  -21.6043   -4.3055   24.7224 C   0  0  0  0  0  0
  -21.8819   -3.8147   23.4346 C   0  0  0  0  0  0
  -21.9194   -4.6964   22.3402 C   0  0  0  0  0  0
  -22.7812  -13.5218   21.1870 C   0  0  0  0  0  0
  -22.1662   -4.2149   21.0979 F   0  0  0  0  0  0
  -21.5628   -3.4539   25.7737 F   0  0  0  0  0  0
  -29.9752  -13.5872   20.4144 N   0  0  0  0  0  0
  -26.2921  -12.9428   20.3278 N   0  0  0  0  0  0
  -25.9327  -11.6563   20.5747 N   0  0  0  0  0  0
  -22.0463  -12.8207   22.0429 N   0  0  0  0  0  0
  -25.4175  -15.1936   20.4134 N   0  0  0  0  0  0
  -31.7485  -14.9307   20.0771 O   0  0  0  0  0  0
  -21.6643   -6.8880   21.4240 O   0  0  0  0  0  0
  -22.3494  -14.5523   20.6717 O   0  0  0  0  0  0
  -24.6366  -31.8484   23.1916 C   0  0  0  0  0  0
  -25.9165  -32.4717   23.8288 C   0  0  1  0  0  0
  -27.2247  -27.2015   20.1356 C   0  0  0  0  0  0
  -25.5934  -33.8522   24.2209 N   0  0  0  0  0  0
  -23.4372  -30.4679   21.5351 C   0  0  2  0  0  0
  -24.8867  -28.9031   20.1047 C   0  0  0  0  0  0
  -22.7533  -29.4564   22.4875 C   0  0  0  0  0  0
  -18.0298  -28.1393   22.8480 C   0  0  0  0  0  0
  -24.1491  -36.7270   23.2643 C   0  0  0  0  0  0
  -25.9866  -30.7418   21.3805 C   0  0  0  0  0  0
  -26.0582  -29.3589   20.7213 C   0  0  0  0  0  0
  -27.2248  -28.5196   20.7262 C   0  0  0  0  0  0
  -26.0286  -26.8254   19.4859 C   0  0  0  0  0  0
  -24.8807  -27.6478   19.4744 C   0  0  0  0  0  0
  -23.6592  -29.7969   20.1525 C   0  0  0  0  0  0
  -25.4121  -36.3047   24.0319 C   0  0  1  0  0  0
  -20.5906  -28.3710   23.1252 C   0  0  2  0  0  0
  -20.6782  -26.9420   22.5408 C   0  0  0  0  0  0
  -19.5757  -26.6382   21.5212 C   0  0  0  0  0  0
  -18.1939  -26.7932   22.1625 C   0  0  0  0  0  0
  -19.1553  -28.8869   23.2859 C   0  0  0  0  0  0
  -18.9472  -30.1467   23.8884 C   0  0  0  0  0  0
  -17.6469  -30.6591   24.0562 C   0  0  0  0  0  0
  -25.9065  -34.9420   23.5073 C   0  0  0  0  0  0
  -16.5361  -29.9087   23.6333 C   0  0  0  0  0  0
  -16.7283  -28.6505   23.0353 C   0  0  0  0  0  0
  -26.4512  -31.6570   25.0709 C   0  0  0  0  0  0
  -25.3716  -31.3739   26.1416 C   0  0  0  0  0  0
  -27.0375  -30.2977   24.6248 C   0  0  0  0  0  0
  -27.6049  -32.4332   25.7491 C   0  0  0  0  0  0
  -27.5577  -37.1791   24.8466 C   0  0  0  0  0  0
  -21.4232  -29.3042   22.3628 N   0  0  0  0  0  0
  -26.4290  -37.3754   23.9407 N   0  0  0  0  0  0
  -24.7061  -31.0394   22.0916 N   0  0  0  0  0  0
  -23.4206  -28.8116   23.3007 O   0  0  0  0  0  0
  -28.3045  -26.2750   20.2530 O   0  0  0  0  0  0
  -26.5652  -34.8909   22.4652 O   0  0  0  0  0  0
  -23.5503  -32.1335   23.7177 O   0  0  0  0  0  0
  -30.2724  -19.5823   19.0239 C   0  0  0  0  0  0
  -29.4985  -19.8075   20.1406 C   0  0  0  0  0  0
  -29.9216  -17.4103   20.2832 C   0  0  0  0  0  0
  -28.2919  -24.9068   19.7822 C   0  0  0  0  0  0
  -28.6903  -23.7266   20.4340 C   0  0  0  0  0  0
  -28.7902  -22.3476   19.7677 C   0  0  0  0  0  0
  -29.3119  -18.5327   20.8403 N   0  0  0  0  0  0
  -29.0721  -21.2033   20.5348 N   0  0  0  0  0  0
  -29.8011  -15.9787   20.7296 N   0  0  0  0  0  0
  -28.6238  -22.2234   18.5519 O   0  0  0  0  0  0
  -29.0468  -23.8090   21.7231 O   0  0  0  0  0  0
  -30.7950  -17.9021   18.8293 S   0  0  0  0  0  0
  -31.4764  -12.6426   19.1953 H   0  0  0  0  0  0
  -30.3961  -11.5416   19.9982 H   0  0  0  0  0  0
  -29.8184  -11.7393   17.5544 H   0  0  0  0  0  0
  -29.6311  -13.4674   17.7212 H   0  0  0  0  0  0
  -27.9195  -11.2817   18.9428 H   0  0  0  0  0  0
  -27.3891  -12.4973   17.8103 H   0  0  0  0  0  0
  -27.6223  -14.2550   19.4535 H   0  0  0  0  0  0
  -28.7326  -12.2173   21.4446 H   0  0  0  0  0  0
  -28.3941  -13.8935   21.7920 H   0  0  0  0  0  0
  -25.2768   -9.5687   22.4759 H   0  0  0  0  0  0
  -24.0005   -7.4639   22.7473 H   0  0  0  0  0  0
  -21.0845   -8.8777   19.8954 H   0  0  0  0  0  0
  -22.3701  -10.9674   19.6167 H   0  0  0  0  0  0
  -21.2009   -7.6147   23.9714 H   0  0  0  0  0  0
  -21.1482   -6.0523   25.9075 H   0  0  0  0  0  0
  -22.0597   -2.7609   23.2846 H   0  0  0  0  0  0
  -22.4087  -11.9873   22.4819 H   0  0  0  0  0  0
  -21.1080  -13.1227   22.2637 H   0  0  0  0  0  0
  -24.6477  -15.8449   20.5230 H   0  0  0  0  0  0
  -26.2623  -15.6356   20.0747 H   0  0  0  0  0  0
  -26.7229  -32.5344   23.1020 H   0  0  0  0  0  0
  -25.0054  -33.9644   25.0337 H   0  0  0  0  0  0
  -22.7366  -31.2917   21.3839 H   0  0  0  0  0  0
  -23.3754  -35.9601   23.3296 H   0  0  0  0  0  0
  -24.3578  -36.8910   22.2059 H   0  0  0  0  0  0
  -23.7246  -37.6465   23.6683 H   0  0  0  0  0  0
  -26.1347  -31.4998   20.6102 H   0  0  0  0  0  0
  -26.8602  -30.7907   22.0189 H   0  0  0  0  0  0
  -28.1172  -28.8581   21.2334 H   0  0  0  0  0  0
  -25.9485  -25.8566   19.0157 H   0  0  0  0  0  0
  -23.9828  -27.2922   18.9878 H   0  0  0  0  0  0
  -23.7882  -30.5718   19.3959 H   0  0  0  0  0  0
  -22.7760  -29.2336   19.8460 H   0  0  0  0  0  0
  -25.1308  -36.1882   25.0811 H   0  0  0  0  0  0
  -20.9999  -28.3298   24.1372 H   0  0  0  0  0  0
  -20.5676  -26.2323   23.3621 H   0  0  0  0  0  0
  -21.6649  -26.7431   22.1207 H   0  0  0  0  0  0
  -19.6919  -25.6289   21.1252 H   0  0  0  0  0  0
  -19.6694  -27.3184   20.6735 H   0  0  0  0  0  0
  -17.4207  -26.6675   21.4029 H   0  0  0  0  0  0
  -18.0340  -26.0079   22.9027 H   0  0  0  0  0  0
  -19.7948  -30.7286   24.2248 H   0  0  0  0  0  0
  -17.5024  -31.6269   24.5167 H   0  0  0  0  0  0
  -15.5361  -30.2984   23.7663 H   0  0  0  0  0  0
  -15.8683  -28.0819   22.7075 H   0  0  0  0  0  0
  -24.5889  -30.7095   25.7736 H   0  0  0  0  0  0
  -24.8912  -32.2916   26.4821 H   0  0  0  0  0  0
  -25.8013  -30.8921   27.0208 H   0  0  0  0  0  0
  -26.2978  -29.6704   24.1262 H   0  0  0  0  0  0
  -27.4020  -29.7268   25.4799 H   0  0  0  0  0  0
  -27.8870  -30.4233   23.9532 H   0  0  0  0  0  0
  -27.2639  -33.3637   26.2041 H   0  0  0  0  0  0
  -28.3872  -32.6887   25.0331 H   0  0  0  0  0  0
  -28.0705  -31.8480   26.5431 H   0  0  0  0  0  0
  -28.2591  -38.0090   24.7508 H   0  0  0  0  0  0
  -28.1076  -36.2620   24.6298 H   0  0  0  0  0  0
  -27.2294  -37.1446   25.8869 H   0  0  0  0  0  0
  -20.9432  -29.8754   21.6813 H   0  0  0  0  0  0
  -26.0161  -38.2825   24.1403 H   0  0  0  0  0  0
  -30.6048  -20.3160   18.3021 H   0  0  0  0  0  0
  -27.9730  -24.8697   18.7490 H   0  0  0  0  0  0
  -29.0279  -21.3764   21.5295 H   0  0  0  0  0  0
  -28.9370  -15.7708   21.2033 H   0  0  0  0  0  0
  -28.9512  -24.7187   21.9764 H   0  0  0  0  0  0
  1 25  1  0  0  0
  1 30  2  0  0  0
  1 79  1  0  0  0
  2  3  1  0  0  0
  2 25  1  0  0  0
  2 83  1  0  0  0
  2 84  1  0  0  0
  3  4  1  0  0  0
  3 85  1  0  0  0
  3 86  1  0  0  0
  4  5  1  0  0  0
  4 87  1  0  0  0
  4 88  1  0  0  0
  5  6  1  0  0  0
  5 26  1  0  0  0
  5 89  1  0  0  0
  6 25  1  0  0  0
  6 90  1  0  0  0
  6 91  1  0  0  0
  7  8  2  0  0  0
  7 26  1  0  0  0
  7 29  1  0  0  0
  8  9  1  0  0  0
  8 22  1  0  0  0
  9 10  1  0  0  0
  9 27  2  0  0  0
 10 11  2  0  0  0
 10 15  1  0  0  0
 11 12  1  0  0  0
 11 92  1  0  0  0
 12 13  2  0  0  0
 12 93  1  0  0  0
 13 14  1  0  0  0
 13 31  1  0  0  0
 14 15  2  0  0  0
 14 94  1  0  0  0
 15 95  1  0  0  0
 16 17  2  0  0  0
 16 21  1  0  0  0
 16 31  1  0  0  0
 17 18  1  0  0  0
 17 96  1  0  0  0
 18 19  2  0  0  0
 18 97  1  0  0  0
 19 20  1  0  0  0
 19 24  1  0  0  0
 20 21  2  0  0  0
 20 98  1  0  0  0
 21 23  1  0  0  0
 22 28  1  0  0  0
 22 32  2  0  0  0
 26 27  1  0  0  0
 28 99  1  0  0  0
 28100  1  0  0  0
 29101  1  0  0  0
 29102  1  0  0  0
 33 34  1  0  0  0
 33 66  1  0  0  0
 33 70  2  0  0  0
 34 36  1  0  0  0
 34 59  1  0  0  0
 34103  1  0  0  0
 35 44  2  0  0  0
 35 45  1  0  0  0
 35 68  1  0  0  0
 36 56  1  0  0  0
 36104  1  0  0  0
 37 39  1  0  0  0
 37 47  1  0  0  0
 37 66  1  0  0  0
 37105  1  0  0  0
 38 43  2  0  0  0
 38 46  1  0  0  0
 38 47  1  0  0  0
 39 64  1  0  0  0
 39 67  2  0  0  0
 40 52  1  0  0  0
 40 53  2  0  0  0
 40 58  1  0  0  0
 41106  1  0  0  0
 41107  1  0  0  0
 41108  1  0  0  0
 41 48  1  0  0  0
 42 43  1  0  0  0
 42 66  1  0  0  0
 42109  1  0  0  0
 42110  1  0  0  0
 43 44  1  0  0  0
 44111  1  0  0  0
 45 46  2  0  0  0
 45112  1  0  0  0
 46113  1  0  0  0
 47114  1  0  0  0
 47115  1  0  0  0
 48 56  1  0  0  0
 48 65  1  0  0  0
 48116  1  0  0  0
 49 50  1  0  0  0
 49 53  1  0  0  0
 49 64  1  0  0  0
 49117  1  0  0  0
 50 51  1  0  0  0
 50118  1  0  0  0
 50119  1  0  0  0
 51 52  1  0  0  0
 51120  1  0  0  0
 51121  1  0  0  0
 52122  1  0  0  0
 52123  1  0  0  0
 53 54  1  0  0  0
 54 55  2  0  0  0
 54124  1  0  0  0
 55 57  1  0  0  0
 55125  1  0  0  0
 56 69  2  0  0  0
 57 58  2  0  0  0
 57126  1  0  0  0
 58127  1  0  0  0
 59 60  1  0  0  0
 59 61  1  0  0  0
 59 62  1  0  0  0
 60128  1  0  0  0
 60129  1  0  0  0
 60130  1  0  0  0
 61131  1  0  0  0
 61132  1  0  0  0
 61133  1  0  0  0
 62134  1  0  0  0
 62135  1  0  0  0
 62136  1  0  0  0
 63 65  1  0  0  0
 63137  1  0  0  0
 63138  1  0  0  0
 63139  1  0  0  0
 64140  1  0  0  0
 65141  1  0  0  0
 68 74  1  0  0  0
 71 72  2  0  0  0
 71 82  1  0  0  0
 71142  1  0  0  0
 72 77  1  0  0  0
 72 78  1  0  0  0
 73 77  2  0  0  0
 73 79  1  0  0  0
 73 82  1  0  0  0
 74 75  2  0  0  0
 74143  1  0  0  0
 75 76  1  0  0  0
 75 81  1  0  0  0
 76 78  1  0  0  0
 76 80  2  0  0  0
 78144  1  0  0  0
 79145  1  0  0  0
 81146  1  0  0  0
M  ISO  4   1 100  68 101  74 101  79 100
M  END
> <chiral flag>
0

> <version>
0

> <s_m_source_file>
/data/baiqing/PycharmProjects/Reinvent-master-3.2/result/LINK_invent/BTK/process_docking_weight1_custom_product_contain_oxygen_bond_distance_aromatic_linkinvent_7_9_3/rearranged_h_0184.sdf

> <i_m_source_file_index>
16

> <r_mmod_Potential_Energy-OPLS-2005>
104.285934448242

> <r_mmod_Stretch_Energy-OPLS-2005>
158.966644287109

> <r_mmod_Bend_Energy-OPLS-2005>
181.413162231445

> <r_mmod_Torsional_Energy-OPLS-2005>
225.350357055664

> <r_mmod_Improper_Torsional_Energy-OPLS-2005>
4.53753232955933

> <r_mmod_Van_der_Waal_Energy-OPLS-2005>
116.711532592773

> <r_mmod_Electrostatic_Energy-OPLS-2005>
-484.229888916016

> <r_mmod_Solvation_Energy-OPLS-2005>
-228.878005981445

> <b_mmod_Minimization_Converged-OPLS-2005>
0

> <r_mmod_RMS_Derivative-OPLS-2005>
0.238204717636108

$$$$
16
                    3D
 Structure written by MMmdl.
158166  0  0  1  0            999 V2000
  -30.6683  -14.5772   20.4284 C   0  0  0  0  0  0
  -30.4156  -12.3517   19.3985 C   0  0  0  0  0  0
  -29.4754  -12.4915   18.1820 C   0  0  0  0  0  0
  -28.0017  -12.3755   18.6156 C   0  0  0  0  0  0
  -27.6526  -13.2278   19.8663 C   0  0  2  0  0  0
  -28.7139  -13.0572   20.9764 C   0  0  0  0  0  0
  -25.2487  -13.8189   20.5602 C   0  0  0  0  0  0
  -24.1808  -13.0454   20.9221 C   0  0  0  0  0  0
  -24.6402  -11.6936   20.8786 C   0  0  0  0  0  0
  -23.9067  -10.4316   21.0412 C   0  0  0  0  0  0
  -24.3646   -9.4223   21.9140 C   0  0  0  0  0  0
  -23.6331   -8.2262   22.0728 C   0  0  0  0  0  0
  -22.4288   -8.0300   21.3568 C   0  0  0  0  0  0
  -21.9885   -9.0286   20.4710 C   0  0  0  0  0  0
  -22.7199  -10.2181   20.3116 C   0  0  0  0  0  0
  -21.6855   -6.0752   22.5301 C   0  0  0  0  0  0
  -21.3991   -6.5669   23.8224 C   0  0  0  0  0  0
  -21.3666   -5.6826   24.9201 C   0  0  0  0  0  0
  -21.6052   -4.3090   24.7265 C   0  0  0  0  0  0
  -21.8813   -3.8171   23.4390 C   0  0  0  0  0  0
  -21.9183   -4.6972   22.3442 C   0  0  0  0  0  0
  -22.7843  -13.5219   21.1919 C   0  0  0  0  0  0
  -22.1640   -4.2146   21.1017 F   0  0  0  0  0  0
  -21.5647   -3.4568   25.7789 F   0  0  0  0  0  0
  -30.0201  -13.3760   20.3871 N   0  0  0  0  0  0
  -26.3007  -12.9441   20.3404 N   0  0  0  0  0  0
  -25.9354  -11.6583   20.5848 N   0  0  0  0  0  0
  -22.0588  -12.8325   22.0655 N   0  0  0  0  0  0
  -25.3957  -15.1893   20.3699 N   0  0  0  0  0  0
  -31.8592  -14.6443   20.1071 O   0  0  0  0  0  0
  -21.6657   -6.8890   21.4263 O   0  0  0  0  0  0
  -22.3452  -14.5469   20.6688 O   0  0  0  0  0  0
  -24.6165  -31.8671   23.2030 C   0  0  0  0  0  0
  -25.9024  -32.4805   23.8355 C   0  0  1  0  0  0
  -27.2206  -27.3699   20.1326 C   0  0  0  0  0  0
  -25.5873  -33.8588   24.2341 N   0  0  0  0  0  0
  -23.4096  -30.4820   21.5548 C   0  0  2  0  0  0
  -24.8549  -28.9389   20.1226 C   0  0  0  0  0  0
  -22.7444  -29.4631   22.5066 C   0  0  0  0  0  0
  -18.0269  -28.1357   22.8474 C   0  0  0  0  0  0
  -24.1510  -36.7279   23.2633 C   0  0  0  0  0  0
  -25.9409  -30.8113   21.3652 C   0  0  0  0  0  0
  -26.0185  -29.4357   20.7258 C   0  0  0  0  0  0
  -27.2062  -28.6571   20.7297 C   0  0  0  0  0  0
  -26.0483  -26.9106   19.4996 C   0  0  0  0  0  0
  -24.8672  -27.6761   19.5077 C   0  0  0  0  0  0
  -23.6162  -29.8097   20.1724 C   0  0  0  0  0  0
  -25.4120  -36.3100   24.0360 C   0  0  1  0  0  0
  -20.5855  -28.3635   23.1345 C   0  0  2  0  0  0
  -20.6762  -26.9369   22.5426 C   0  0  0  0  0  0
  -19.5764  -26.6388   21.5196 C   0  0  0  0  0  0
  -18.1940  -26.7904   22.1616 C   0  0  0  0  0  0
  -19.1513  -28.8822   23.2908 C   0  0  0  0  0  0
  -18.9444  -30.1423   23.8922 C   0  0  0  0  0  0
  -17.6442  -30.6577   24.0549 C   0  0  0  0  0  0
  -25.9057  -34.9461   23.5185 C   0  0  0  0  0  0
  -16.5333  -29.9066   23.6305 C   0  0  0  0  0  0
  -16.7257  -28.6474   23.0341 C   0  0  0  0  0  0
  -26.4409  -31.6512   25.0652 C   0  0  0  0  0  0
  -25.3614  -31.3582   26.1360 C   0  0  0  0  0  0
  -27.0176  -30.2962   24.5898 C   0  0  0  0  0  0
  -27.6082  -32.4087   25.7395 C   0  0  0  0  0  0
  -27.5604  -37.1797   24.8477 C   0  0  0  0  0  0
  -21.4174  -29.2986   22.3765 N   0  0  0  0  0  0
  -26.4316  -37.3775   23.9426 N   0  0  0  0  0  0
  -24.6745  -31.0695   22.0990 N   0  0  0  0  0  0
  -23.4176  -28.8221   23.3173 O   0  0  0  0  0  0
  -28.3496  -26.5687   20.0856 O   0  0  0  0  0  0
  -26.5637  -34.8902   22.4759 O   0  0  0  0  0  0
  -23.5347  -32.1469   23.7393 O   0  0  0  0  0  0
  -27.8474  -19.5710   21.9140 C   0  0  0  0  0  0
  -28.3072  -18.2207   21.7127 C   0  0  0  0  0  0
  -29.3480  -18.1313   20.8157 C   0  0  0  0  0  0
  -28.5106  -20.5518   21.2108 C   0  0  0  0  0  0
  -30.2253  -16.9897   20.3401 C   0  0  0  0  0  0
  -27.7877  -24.2201   21.0443 C   0  0  0  0  0  0
  -26.4908  -24.1262   21.4745 C   0  0  0  0  0  0
  -28.5071  -22.9974   20.5746 C   0  0  0  0  0  0
  -27.7209  -17.0510   22.4493 C   0  0  0  0  0  0
  -25.6651  -25.2032   22.1644 C   0  0  0  0  0  0
  -28.5614  -25.5743   21.1344 C   0  0  0  0  0  0
  -28.2378  -21.8989   21.3348 N   0  0  0  0  0  0
  -29.9024  -15.6915   20.6386 N   0  0  0  0  0  0
  -31.2113  -17.2879   19.6550 O   0  0  0  0  0  0
  -29.2927  -22.9633   19.6225 O   0  0  0  0  0  0
  -25.6995  -23.0393   21.3784 O   0  0  0  0  0  0
  -29.7334  -19.7633   20.2145 S   0  0  0  0  0  0
  -31.4512  -12.4502   19.0663 H   0  0  0  0  0  0
  -30.3363  -11.3512   19.8247 H   0  0  0  0  0  0
  -29.7005  -11.7124   17.4511 H   0  0  0  0  0  0
  -29.6416  -13.4391   17.6666 H   0  0  0  0  0  0
  -27.8182  -11.3228   18.8332 H   0  0  0  0  0  0
  -27.3398  -12.6392   17.7880 H   0  0  0  0  0  0
  -27.6791  -14.2708   19.5518 H   0  0  0  0  0  0
  -28.7230  -12.0340   21.3557 H   0  0  0  0  0  0
  -28.4977  -13.6923   21.8360 H   0  0  0  0  0  0
  -25.2838   -9.5691   22.4655 H   0  0  0  0  0  0
  -24.0071   -7.4631   22.7418 H   0  0  0  0  0  0
  -21.0772   -8.8841   19.9071 H   0  0  0  0  0  0
  -22.3609  -10.9744   19.6273 H   0  0  0  0  0  0
  -21.1946   -7.6161   23.9718 H   0  0  0  0  0  0
  -21.1487   -6.0582   25.9106 H   0  0  0  0  0  0
  -22.0568   -2.7621   23.2923 H   0  0  0  0  0  0
  -22.4328  -12.0154   22.5284 H   0  0  0  0  0  0
  -21.1247  -13.1389   22.2955 H   0  0  0  0  0  0
  -24.5892  -15.8023   20.4294 H   0  0  0  0  0  0
  -26.2002  -15.6353   19.9482 H   0  0  0  0  0  0
  -26.7082  -32.5514   23.1109 H   0  0  0  0  0  0
  -24.9896  -33.9709   25.0398 H   0  0  0  0  0  0
  -22.6988  -31.2999   21.4156 H   0  0  0  0  0  0
  -23.3783  -35.9602   23.3302 H   0  0  0  0  0  0
  -24.3630  -36.8853   22.2046 H   0  0  0  0  0  0
  -23.7214  -37.6474   23.6610 H   0  0  0  0  0  0
  -26.0413  -31.5694   20.5875 H   0  0  0  0  0  0
  -26.8325  -30.8812   21.9758 H   0  0  0  0  0  0
  -28.1074  -29.0325   21.1947 H   0  0  0  0  0  0
  -26.0363  -25.9356   19.0310 H   0  0  0  0  0  0
  -23.9715  -27.2874   19.0427 H   0  0  0  0  0  0
  -23.7176  -30.5811   19.4075 H   0  0  0  0  0  0
  -22.7393  -29.2262   19.8871 H   0  0  0  0  0  0
  -25.1275  -36.2011   25.0844 H   0  0  0  0  0  0
  -20.9906  -28.3180   24.1492 H   0  0  0  0  0  0
  -20.5633  -26.2230   23.3591 H   0  0  0  0  0  0
  -21.6648  -26.7426   22.1245 H   0  0  0  0  0  0
  -19.6933  -25.6315   21.1197 H   0  0  0  0  0  0
  -19.6708  -27.3245   20.6760 H   0  0  0  0  0  0
  -17.4197  -26.6606   21.4039 H   0  0  0  0  0  0
  -18.0381  -26.0052   22.9029 H   0  0  0  0  0  0
  -19.7919  -30.7210   24.2331 H   0  0  0  0  0  0
  -17.5000  -31.6254   24.5145 H   0  0  0  0  0  0
  -15.5337  -30.2973   23.7620 H   0  0  0  0  0  0
  -15.8660  -28.0794   22.7062 H   0  0  0  0  0  0
  -24.5893  -30.6835   25.7629 H   0  0  0  0  0  0
  -24.8634  -32.2689   26.4711 H   0  0  0  0  0  0
  -25.7911  -30.8801   27.0176 H   0  0  0  0  0  0
  -26.2768  -29.6915   24.0653 H   0  0  0  0  0  0
  -27.3699  -29.6950   25.4283 H   0  0  0  0  0  0
  -27.8695  -30.4315   23.9223 H   0  0  0  0  0  0
  -27.2885  -33.3429   26.2020 H   0  0  0  0  0  0
  -28.3885  -32.6519   25.0167 H   0  0  0  0  0  0
  -28.0708  -31.8054   26.5214 H   0  0  0  0  0  0
  -28.2631  -38.0085   24.7546 H   0  0  0  0  0  0
  -28.1108  -36.2626   24.6320 H   0  0  0  0  0  0
  -27.2333  -37.1459   25.8879 H   0  0  0  0  0  0
  -20.9380  -29.8626   21.6885 H   0  0  0  0  0  0
  -26.0239  -38.2872   24.1392 H   0  0  0  0  0  0
  -27.0382  -19.7833   22.6010 H   0  0  0  0  0  0
  -26.8840  -17.3476   23.0791 H   0  0  0  0  0  0
  -28.4680  -16.5780   23.0868 H   0  0  0  0  0  0
  -27.3430  -16.2931   21.7674 H   0  0  0  0  0  0
  -26.2370  -26.0944   22.4145 H   0  0  0  0  0  0
  -25.2560  -24.8218   23.1008 H   0  0  0  0  0  0
  -24.8230  -25.5074   21.5440 H   0  0  0  0  0  0
  -29.6303  -25.3541   21.1546 H   0  0  0  0  0  0
  -28.3891  -26.0352   22.1076 H   0  0  0  0  0  0
  -27.6397  -22.1304   22.1187 H   0  0  0  0  0  0
  -28.9813  -15.5338   21.0099 H   0  0  0  0  0  0
  -26.1547  -22.3646   20.8896 H   0  0  0  0  0  0
  1 25  1  0  0  0
  1 30  2  0  0  0
  1 83  1  0  0  0
  2  3  1  0  0  0
  2 25  1  0  0  0
  2 88  1  0  0  0
  2 89  1  0  0  0
  3  4  1  0  0  0
  3 90  1  0  0  0
  3 91  1  0  0  0
  4  5  1  0  0  0
  4 92  1  0  0  0
  4 93  1  0  0  0
  5  6  1  0  0  0
  5 26  1  0  0  0
  5 94  1  0  0  0
  6 25  1  0  0  0
  6 95  1  0  0  0
  6 96  1  0  0  0
  7  8  2  0  0  0
  7 26  1  0  0  0
  7 29  1  0  0  0
  8  9  1  0  0  0
  8 22  1  0  0  0
  9 10  1  0  0  0
  9 27  2  0  0  0
 10 11  2  0  0  0
 10 15  1  0  0  0
 11 12  1  0  0  0
 11 97  1  0  0  0
 12 13  2  0  0  0
 12 98  1  0  0  0
 13 14  1  0  0  0
 13 31  1  0  0  0
 14 15  2  0  0  0
 14 99  1  0  0  0
 15100  1  0  0  0
 16 17  2  0  0  0
 16 21  1  0  0  0
 16 31  1  0  0  0
 17 18  1  0  0  0
 17101  1  0  0  0
 18 19  2  0  0  0
 18102  1  0  0  0
 19 20  1  0  0  0
 19 24  1  0  0  0
 20 21  2  0  0  0
 20103  1  0  0  0
 21 23  1  0  0  0
 22 28  1  0  0  0
 22 32  2  0  0  0
 26 27  1  0  0  0
 28104  1  0  0  0
 28105  1  0  0  0
 29106  1  0  0  0
 29107  1  0  0  0
 33 34  1  0  0  0
 33 66  1  0  0  0
 33 70  2  0  0  0
 34 36  1  0  0  0
 34 59  1  0  0  0
 34108  1  0  0  0
 35 44  2  0  0  0
 35 45  1  0  0  0
 35 68  1  0  0  0
 36 56  1  0  0  0
 36109  1  0  0  0
 37 39  1  0  0  0
 37 47  1  0  0  0
 37 66  1  0  0  0
 37110  1  0  0  0
 38 43  2  0  0  0
 38 46  1  0  0  0
 38 47  1  0  0  0
 39 64  1  0  0  0
 39 67  2  0  0  0
 40 52  1  0  0  0
 40 53  2  0  0  0
 40 58  1  0  0  0
 41111  1  0  0  0
 41112  1  0  0  0
 41113  1  0  0  0
 41 48  1  0  0  0
 42 43  1  0  0  0
 42 66  1  0  0  0
 42114  1  0  0  0
 42115  1  0  0  0
 43 44  1  0  0  0
 44116  1  0  0  0
 45 46  2  0  0  0
 45117  1  0  0  0
 46118  1  0  0  0
 47119  1  0  0  0
 47120  1  0  0  0
 48 56  1  0  0  0
 48 65  1  0  0  0
 48121  1  0  0  0
 49 50  1  0  0  0
 49 53  1  0  0  0
 49 64  1  0  0  0
 49122  1  0  0  0
 50 51  1  0  0  0
 50123  1  0  0  0
 50124  1  0  0  0
 51 52  1  0  0  0
 51125  1  0  0  0
 51126  1  0  0  0
 52127  1  0  0  0
 52128  1  0  0  0
 53 54  1  0  0  0
 54 55  2  0  0  0
 54129  1  0  0  0
 55 57  1  0  0  0
 55130  1  0  0  0
 56 69  2  0  0  0
 57 58  2  0  0  0
 57131  1  0  0  0
 58132  1  0  0  0
 59 60  1  0  0  0
 59 61  1  0  0  0
 59 62  1  0  0  0
 60133  1  0  0  0
 60134  1  0  0  0
 60135  1  0  0  0
 61136  1  0  0  0
 61137  1  0  0  0
 61138  1  0  0  0
 62139  1  0  0  0
 62140  1  0  0  0
 62141  1  0  0  0
 63 65  1  0  0  0
 63142  1  0  0  0
 63143  1  0  0  0
 63144  1  0  0  0
 64145  1  0  0  0
 65146  1  0  0  0
 68 81  1  0  0  0
 71 72  1  0  0  0
 71 74  2  0  0  0
 71147  1  0  0  0
 72 73  2  0  0  0
 72 79  1  0  0  0
 73 75  1  0  0  0
 73 87  1  0  0  0
 74 82  1  0  0  0
 74 87  1  0  0  0
 75 83  1  0  0  0
 75 84  2  0  0  0
 76 77  2  0  0  0
 76 78  1  0  0  0
 76 81  1  0  0  0
 77 80  1  0  0  0
 77 86  1  0  0  0
 78 82  1  0  0  0
 78 85  2  0  0  0
 79148  1  0  0  0
 79149  1  0  0  0
 79150  1  0  0  0
 80151  1  0  0  0
 80152  1  0  0  0
 80153  1  0  0  0
 81154  1  0  0  0
 81155  1  0  0  0
 82156  1  0  0  0
 83157  1  0  0  0
 86158  1  0  0  0
M  ISO  4   1 100  68 101  81 101  83 100
M  END
> <chiral flag>
0

> <version>
0

> <s_m_source_file>
/data/baiqing/PycharmProjects/Reinvent-master-3.2/result/LINK_invent/BTK/process_docking_weight1_custom_product_contain_oxygen_bond_distance_aromatic_linkinvent_7_9_3/rearranged_h_0184.sdf

> <i_m_source_file_index>
17

> <r_mmod_Potential_Energy-OPLS-2005>
-4.58233308792114

> <r_mmod_Stretch_Energy-OPLS-2005>
60.3473739624023

> <r_mmod_Bend_Energy-OPLS-2005>
142.788619995117

> <r_mmod_Torsional_Energy-OPLS-2005>
249.522964477539

> <r_mmod_Improper_Torsional_Energy-OPLS-2005>
6.523024559021

> <r_mmod_Van_der_Waal_Energy-OPLS-2005>
134.256805419922

> <r_mmod_Electrostatic_Energy-OPLS-2005>
-374.563110351562

> <r_mmod_Solvation_Energy-OPLS-2005>
-256.177368164062

> <b_mmod_Minimization_Converged-OPLS-2005>
0

> <r_mmod_RMS_Derivative-OPLS-2005>
4.77470350265503

$$$$
17
                    3D
 Structure written by MMmdl.
148156  0  0  1  0            999 V2000
  -30.5199  -15.0801   20.4067 C   0  0  0  0  0  0
  -30.4368  -12.6775   19.5106 C   0  0  0  0  0  0
  -29.5255  -12.5500   18.2675 C   0  0  0  0  0  0
  -28.0653  -12.3098   18.6905 C   0  0  0  0  0  0
  -27.6214  -13.2618   19.8308 C   0  0  2  0  0  0
  -28.6626  -13.3594   20.9667 C   0  0  0  0  0  0
  -25.2428  -13.8235   20.5730 C   0  0  0  0  0  0
  -24.1766  -13.0439   20.9250 C   0  0  0  0  0  0
  -24.6404  -11.6932   20.8765 C   0  0  0  0  0  0
  -23.9094  -10.4295   21.0412 C   0  0  0  0  0  0
  -24.3639   -9.4210   21.9191 C   0  0  0  0  0  0
  -23.6308   -8.2246   22.0756 C   0  0  0  0  0  0
  -22.4289   -8.0287   21.3546 C   0  0  0  0  0  0
  -21.9931   -9.0262   20.4647 C   0  0  0  0  0  0
  -22.7265  -10.2139   20.3060 C   0  0  0  0  0  0
  -21.6858   -6.0744   22.5282 C   0  0  0  0  0  0
  -21.4014   -6.5645   23.8217 C   0  0  0  0  0  0
  -21.3661   -5.6795   24.9179 C   0  0  0  0  0  0
  -21.6046   -4.3058   24.7226 C   0  0  0  0  0  0
  -21.8819   -3.8153   23.4345 C   0  0  0  0  0  0
  -21.9194   -4.6971   22.3405 C   0  0  0  0  0  0
  -22.7782  -13.5200   21.1894 C   0  0  0  0  0  0
  -22.1661   -4.2160   21.0981 F   0  0  0  0  0  0
  -21.5629   -3.4539   25.7736 F   0  0  0  0  0  0
  -29.9210  -13.8065   20.3528 N   0  0  0  0  0  0
  -26.2857  -12.9491   20.3235 N   0  0  0  0  0  0
  -25.9339  -11.6609   20.5740 N   0  0  0  0  0  0
  -22.0426  -12.8192   22.0445 N   0  0  0  0  0  0
  -25.4059  -15.1968   20.4142 N   0  0  0  0  0  0
  -31.7303  -15.0756   20.1476 O   0  0  0  0  0  0
  -21.6644   -6.8887   21.4245 O   0  0  0  0  0  0
  -22.3471  -14.5503   20.6730 O   0  0  0  0  0  0
  -24.6525  -31.8351   23.1817 C   0  0  0  0  0  0
  -25.9257  -32.4649   23.8236 C   0  0  1  0  0  0
  -27.2165  -27.0411   20.1625 C   0  0  0  0  0  0
  -25.5972  -33.8459   24.2148 N   0  0  0  0  0  0
  -23.4610  -30.4525   21.5286 C   0  0  2  0  0  0
  -24.9123  -28.8655   20.1093 C   0  0  0  0  0  0
  -22.7615  -29.4501   22.4822 C   0  0  0  0  0  0
  -18.0314  -28.1403   22.8466 C   0  0  0  0  0  0
  -24.1494  -36.7233   23.2643 C   0  0  0  0  0  0
  -26.0237  -30.6782   21.3961 C   0  0  0  0  0  0
  -26.0926  -29.2803   20.7388 C   0  0  0  0  0  0
  -27.2410  -28.3854   20.7485 C   0  0  0  0  0  0
  -26.0087  -26.7597   19.4825 C   0  0  0  0  0  0
  -24.8893  -27.6218   19.4633 C   0  0  0  0  0  0
  -23.6931  -29.7782   20.1501 C   0  0  0  0  0  0
  -25.4131  -36.3003   24.0306 C   0  0  1  0  0  0
  -20.5933  -28.3734   23.1209 C   0  0  2  0  0  0
  -20.6795  -26.9428   22.5397 C   0  0  0  0  0  0
  -19.5769  -26.6379   21.5207 C   0  0  0  0  0  0
  -18.1951  -26.7938   22.1620 C   0  0  0  0  0  0
  -19.1573  -28.8890   23.2829 C   0  0  0  0  0  0
  -18.9485  -30.1483   23.8856 C   0  0  0  0  0  0
  -17.6478  -30.6593   24.0556 C   0  0  0  0  0  0
  -25.9087  -34.9381   23.5040 C   0  0  0  0  0  0
  -16.5370  -29.9079   23.6343 C   0  0  0  0  0  0
  -16.7297  -28.6505   23.0354 C   0  0  0  0  0  0
  -26.4552  -31.6547   25.0712 C   0  0  0  0  0  0
  -25.3716  -31.3751   26.1391 C   0  0  0  0  0  0
  -27.0436  -30.2931   24.6363 C   0  0  0  0  0  0
  -27.6069  -32.4327   25.7505 C   0  0  0  0  0  0
  -27.5575  -37.1775   24.8466 C   0  0  0  0  0  0
  -21.4297  -29.3046   22.3572 N   0  0  0  0  0  0
  -26.4287  -37.3726   23.9406 N   0  0  0  0  0  0
  -24.7329  -31.0121   22.0898 N   0  0  0  0  0  0
  -23.4218  -28.8052   23.3006 O   0  0  0  0  0  0
  -28.2417  -25.9935   20.2452 O   0  0  0  0  0  0
  -26.5675  -34.8893   22.4621 O   0  0  0  0  0  0
  -23.5622  -32.1266   23.6981 O   0  0  0  0  0  0
  -31.6778  -19.5201   21.4197 C   0  0  0  0  0  0
  -31.2908  -18.1767   21.2168 C   0  0  0  0  0  0
  -30.8579  -20.6192   21.0885 C   0  0  0  0  0  0
  -30.0457  -17.8508   20.6233 C   0  0  0  0  0  0
  -29.5770  -20.4098   20.5356 C   0  0  0  0  0  0
  -29.0515  -23.2021   20.4300 C   0  0  0  0  0  0
  -27.9939  -24.5383   20.1087 C   0  0  0  0  0  0
  -29.2190  -19.0182   20.3231 N   0  0  0  0  0  0
  -29.7496  -16.3114   20.4875 N   0  0  0  0  0  0
  -28.7444  -21.6382   20.2472 N   0  0  0  0  0  0
  -32.1331  -17.2118   21.6557 F   0  0  0  0  0  0
  -31.3247  -21.8691   21.3317 F   0  0  0  0  0  0
  -27.6446  -24.2904   18.8224 F   0  0  0  0  0  0
  -26.9252  -24.2233   20.8814 F   0  0  0  0  0  0
  -31.4672  -12.8401   19.1913 H   0  0  0  0  0  0
  -30.4500  -11.7462   20.0790 H   0  0  0  0  0  0
  -29.8695  -11.7387   17.6244 H   0  0  0  0  0  0
  -29.5898  -13.4627   17.6729 H   0  0  0  0  0  0
  -27.9884  -11.2749   19.0262 H   0  0  0  0  0  0
  -27.3988  -12.4039   17.8322 H   0  0  0  0  0  0
  -27.5610  -14.2482   19.3702 H   0  0  0  0  0  0
  -28.7837  -12.4036   21.4789 H   0  0  0  0  0  0
  -28.3382  -14.0776   21.7214 H   0  0  0  0  0  0
  -25.2780   -9.5688   22.4773 H   0  0  0  0  0  0
  -24.0016   -7.4640   22.7478 H   0  0  0  0  0  0
  -21.0862   -8.8787   19.8951 H   0  0  0  0  0  0
  -22.3726  -10.9682   19.6173 H   0  0  0  0  0  0
  -21.2003   -7.6152   23.9727 H   0  0  0  0  0  0
  -21.1481   -6.0521   25.9083 H   0  0  0  0  0  0
  -22.0595   -2.7615   23.2843 H   0  0  0  0  0  0
  -22.4039  -11.9860   22.4848 H   0  0  0  0  0  0
  -21.1037  -13.1216   22.2628 H   0  0  0  0  0  0
  -24.6298  -15.8414   20.5208 H   0  0  0  0  0  0
  -26.2372  -15.6409   20.0478 H   0  0  0  0  0  0
  -26.7320  -32.5226   23.0954 H   0  0  0  0  0  0
  -25.0099  -33.9561   25.0283 H   0  0  0  0  0  0
  -22.7687  -31.2815   21.3680 H   0  0  0  0  0  0
  -23.3764  -35.9556   23.3285 H   0  0  0  0  0  0
  -24.3574  -36.8893   22.2062 H   0  0  0  0  0  0
  -23.7244  -37.6417   23.6701 H   0  0  0  0  0  0
  -26.1905  -31.4270   20.6206 H   0  0  0  0  0  0
  -26.8899  -30.7317   22.0440 H   0  0  0  0  0  0
  -28.1351  -28.6967   21.2697 H   0  0  0  0  0  0
  -25.8832  -25.8123   18.9828 H   0  0  0  0  0  0
  -23.9923  -27.2998   18.9525 H   0  0  0  0  0  0
  -23.8364  -30.5505   19.3935 H   0  0  0  0  0  0
  -22.8063  -29.2244   19.8367 H   0  0  0  0  0  0
  -25.1327  -36.1817   25.0798 H   0  0  0  0  0  0
  -21.0025  -28.3330   24.1331 H   0  0  0  0  0  0
  -20.5677  -26.2351   23.3626 H   0  0  0  0  0  0
  -21.6661  -26.7415   22.1203 H   0  0  0  0  0  0
  -19.6927  -25.6279   21.1263 H   0  0  0  0  0  0
  -19.6710  -27.3168   20.6720 H   0  0  0  0  0  0
  -17.4219  -26.6674   21.4026 H   0  0  0  0  0  0
  -18.0353  -26.0093   22.9030 H   0  0  0  0  0  0
  -19.7960  -30.7314   24.2204 H   0  0  0  0  0  0
  -17.5029  -31.6270   24.5163 H   0  0  0  0  0  0
  -15.5368  -30.2966   23.7694 H   0  0  0  0  0  0
  -15.8700  -28.0813   22.7082 H   0  0  0  0  0  0
  -24.5917  -30.7077   25.7704 H   0  0  0  0  0  0
  -24.8881  -32.2933   26.4735 H   0  0  0  0  0  0
  -25.7986  -30.8978   27.0221 H   0  0  0  0  0  0
  -26.3078  -29.6626   24.1360 H   0  0  0  0  0  0
  -27.4000  -29.7266   25.4977 H   0  0  0  0  0  0
  -27.9008  -30.4142   23.9738 H   0  0  0  0  0  0
  -27.2664  -33.3665   26.1990 H   0  0  0  0  0  0
  -28.3935  -32.6822   25.0370 H   0  0  0  0  0  0
  -28.0678  -31.8509   26.5499 H   0  0  0  0  0  0
  -28.2579  -38.0084   24.7515 H   0  0  0  0  0  0
  -28.1085  -36.2612   24.6295 H   0  0  0  0  0  0
  -27.2288  -37.1422   25.8866 H   0  0  0  0  0  0
  -20.9524  -29.8759   21.6740 H   0  0  0  0  0  0
  -26.0145  -38.2789   24.1411 H   0  0  0  0  0  0
  -32.6393  -19.7152   21.8695 H   0  0  0  0  0  0
  -29.3681  -23.3188   21.4661 H   0  0  0  0  0  0
  -29.9510  -23.3879   19.8432 H   0  0  0  0  0  0
  -28.7624  -16.1200   20.4763 H   0  0  0  0  0  0
  -27.8246  -21.4630   19.8620 H   0  0  0  0  0  0
  1 25  1  0  0  0
  1 30  2  0  0  0
  1 79  1  0  0  0
  2  3  1  0  0  0
  2 25  1  0  0  0
  2 85  1  0  0  0
  2 86  1  0  0  0
  3  4  1  0  0  0
  3 87  1  0  0  0
  3 88  1  0  0  0
  4  5  1  0  0  0
  4 89  1  0  0  0
  4 90  1  0  0  0
  5  6  1  0  0  0
  5 26  1  0  0  0
  5 91  1  0  0  0
  6 25  1  0  0  0
  6 92  1  0  0  0
  6 93  1  0  0  0
  7  8  2  0  0  0
  7 26  1  0  0  0
  7 29  1  0  0  0
  8  9  1  0  0  0
  8 22  1  0  0  0
  9 10  1  0  0  0
  9 27  2  0  0  0
 10 11  2  0  0  0
 10 15  1  0  0  0
 11 12  1  0  0  0
 11 94  1  0  0  0
 12 13  2  0  0  0
 12 95  1  0  0  0
 13 14  1  0  0  0
 13 31  1  0  0  0
 14 15  2  0  0  0
 14 96  1  0  0  0
 15 97  1  0  0  0
 16 17  2  0  0  0
 16 21  1  0  0  0
 16 31  1  0  0  0
 17 18  1  0  0  0
 17 98  1  0  0  0
 18 19  2  0  0  0
 18 99  1  0  0  0
 19 20  1  0  0  0
 19 24  1  0  0  0
 20 21  2  0  0  0
 20100  1  0  0  0
 21 23  1  0  0  0
 22 28  1  0  0  0
 22 32  2  0  0  0
 26 27  1  0  0  0
 28101  1  0  0  0
 28102  1  0  0  0
 29103  1  0  0  0
 29104  1  0  0  0
 33 34  1  0  0  0
 33 66  1  0  0  0
 33 70  2  0  0  0
 34 36  1  0  0  0
 34 59  1  0  0  0
 34105  1  0  0  0
 35 44  2  0  0  0
 35 45  1  0  0  0
 35 68  1  0  0  0
 36 56  1  0  0  0
 36106  1  0  0  0
 37 39  1  0  0  0
 37 47  1  0  0  0
 37 66  1  0  0  0
 37107  1  0  0  0
 38 43  2  0  0  0
 38 46  1  0  0  0
 38 47  1  0  0  0
 39 64  1  0  0  0
 39 67  2  0  0  0
 40 52  1  0  0  0
 40 53  2  0  0  0
 40 58  1  0  0  0
 41108  1  0  0  0
 41109  1  0  0  0
 41110  1  0  0  0
 41 48  1  0  0  0
 42 43  1  0  0  0
 42 66  1  0  0  0
 42111  1  0  0  0
 42112  1  0  0  0
 43 44  1  0  0  0
 44113  1  0  0  0
 45 46  2  0  0  0
 45114  1  0  0  0
 46115  1  0  0  0
 47116  1  0  0  0
 47117  1  0  0  0
 48 56  1  0  0  0
 48 65  1  0  0  0
 48118  1  0  0  0
 49 50  1  0  0  0
 49 53  1  0  0  0
 49 64  1  0  0  0
 49119  1  0  0  0
 50 51  1  0  0  0
 50120  1  0  0  0
 50121  1  0  0  0
 51 52  1  0  0  0
 51122  1  0  0  0
 51123  1  0  0  0
 52124  1  0  0  0
 52125  1  0  0  0
 53 54  1  0  0  0
 54 55  2  0  0  0
 54126  1  0  0  0
 55 57  1  0  0  0
 55127  1  0  0  0
 56 69  2  0  0  0
 57 58  2  0  0  0
 57128  1  0  0  0
 58129  1  0  0  0
 59 60  1  0  0  0
 59 61  1  0  0  0
 59 62  1  0  0  0
 60130  1  0  0  0
 60131  1  0  0  0
 60132  1  0  0  0
 61133  1  0  0  0
 61134  1  0  0  0
 61135  1  0  0  0
 62136  1  0  0  0
 62137  1  0  0  0
 62138  1  0  0  0
 63 65  1  0  0  0
 63139  1  0  0  0
 63140  1  0  0  0
 63141  1  0  0  0
 64142  1  0  0  0
 65143  1  0  0  0
 68 77  1  0  0  0
 71 72  2  0  0  0
 71 73  1  0  0  0
 71144  1  0  0  0
 72 74  1  0  0  0
 72 81  1  0  0  0
 73 75  2  0  0  0
 73 82  1  0  0  0
 74 78  2  0  0  0
 74 79  1  0  0  0
 75 78  1  0  0  0
 75 80  1  0  0  0
 76 77  1  0  0  0
 76 80  1  0  0  0
 76145  1  0  0  0
 76146  1  0  0  0
 77 83  1  0  0  0
 77 84  1  0  0  0
 79147  1  0  0  0
 80148  1  0  0  0
M  ISO  4   1 100  68 101  77 101  79 100
M  END
> <chiral flag>
0

> <version>
0

> <s_m_source_file>
/data/baiqing/PycharmProjects/Reinvent-master-3.2/result/LINK_invent/BTK/process_docking_weight1_custom_product_contain_oxygen_bond_distance_aromatic_linkinvent_7_9_3/rearranged_h_0184.sdf

> <i_m_source_file_index>
18

> <r_mmod_Potential_Energy-OPLS-2005>
540.744140625

> <r_mmod_Stretch_Energy-OPLS-2005>
361.5576171875

> <r_mmod_Bend_Energy-OPLS-2005>
305.662322998047

> <r_mmod_Torsional_Energy-OPLS-2005>
196.619094848633

> <r_mmod_Improper_Torsional_Energy-OPLS-2005>
6.24450254440308

> <r_mmod_Van_der_Waal_Energy-OPLS-2005>
141.72770690918

> <r_mmod_Electrostatic_Energy-OPLS-2005>
-539.716247558594

> <r_mmod_Solvation_Energy-OPLS-2005>
-221.11491394043

> <b_mmod_Minimization_Converged-OPLS-2005>
0

> <r_mmod_RMS_Derivative-OPLS-2005>
0.531572580337524

$$$$
18
                    3D
 Structure written by MMmdl.
153161  0  0  1  0            999 V2000
  -30.6258  -14.7240   20.4526 C   0  0  0  0  0  0
  -30.4230  -12.4399   19.4734 C   0  0  0  0  0  0
  -29.5048  -12.4994   18.2337 C   0  0  0  0  0  0
  -28.0303  -12.3310   18.6467 C   0  0  0  0  0  0
  -27.6381  -13.2325   19.8480 C   0  0  2  0  0  0
  -28.6819  -13.1710   20.9837 C   0  0  0  0  0  0
  -25.2492  -13.8198   20.5689 C   0  0  0  0  0  0
  -24.1792  -13.0444   20.9224 C   0  0  0  0  0  0
  -24.6385  -11.6924   20.8761 C   0  0  0  0  0  0
  -23.9064  -10.4295   21.0414 C   0  0  0  0  0  0
  -24.3619   -9.4210   21.9187 C   0  0  0  0  0  0
  -23.6297   -8.2245   22.0755 C   0  0  0  0  0  0
  -22.4278   -8.0280   21.3549 C   0  0  0  0  0  0
  -21.9913   -9.0251   20.4648 C   0  0  0  0  0  0
  -22.7240  -10.2133   20.3059 C   0  0  0  0  0  0
  -21.6853   -6.0734   22.5281 C   0  0  0  0  0  0
  -21.4010   -6.5640   23.8214 C   0  0  0  0  0  0
  -21.3661   -5.6794   24.9177 C   0  0  0  0  0  0
  -21.6046   -4.3057   24.7227 C   0  0  0  0  0  0
  -21.8819   -3.8148   23.4349 C   0  0  0  0  0  0
  -21.9192   -4.6962   22.3403 C   0  0  0  0  0  0
  -22.7815  -13.5225   21.1877 C   0  0  0  0  0  0
  -22.1663   -4.2149   21.0980 F   0  0  0  0  0  0
  -21.5629   -3.4541   25.7738 F   0  0  0  0  0  0
  -29.9820  -13.5100   20.3969 N   0  0  0  0  0  0
  -26.2913  -12.9411   20.3274 N   0  0  0  0  0  0
  -25.9312  -11.6552   20.5758 N   0  0  0  0  0  0
  -22.0462  -12.8210   22.0429 N   0  0  0  0  0  0
  -25.4173  -15.1917   20.4062 N   0  0  0  0  0  0
  -31.8207  -14.7930   20.1537 O   0  0  0  0  0  0
  -21.6643   -6.8877   21.4242 O   0  0  0  0  0  0
  -22.3499  -14.5531   20.6722 O   0  0  0  0  0  0
  -24.6295  -31.8546   23.1957 C   0  0  0  0  0  0
  -25.9122  -32.4746   23.8305 C   0  0  1  0  0  0
  -27.2266  -27.2727   20.1168 C   0  0  0  0  0  0
  -25.5926  -33.8549   24.2234 N   0  0  0  0  0  0
  -23.4247  -30.4754   21.5389 C   0  0  2  0  0  0
  -24.8706  -28.9183   20.1066 C   0  0  0  0  0  0
  -22.7487  -29.4595   22.4906 C   0  0  0  0  0  0
  -18.0290  -28.1387   22.8489 C   0  0  0  0  0  0
  -24.1491  -36.7271   23.2638 C   0  0  0  0  0  0
  -25.9677  -30.7714   21.3701 C   0  0  0  0  0  0
  -26.0398  -29.3945   20.7107 C   0  0  0  0  0  0
  -27.2151  -28.5827   20.7037 C   0  0  0  0  0  0
  -26.0245  -26.8432   19.5166 C   0  0  0  0  0  0
  -24.8671  -27.6502   19.5015 C   0  0  0  0  0  0
  -23.6406  -29.8047   20.1558 C   0  0  0  0  0  0
  -25.4118  -36.3057   24.0323 C   0  0  1  0  0  0
  -20.5891  -28.3690   23.1274 C   0  0  2  0  0  0
  -20.6772  -26.9409   22.5406 C   0  0  0  0  0  0
  -19.5750  -26.6381   21.5208 C   0  0  0  0  0  0
  -18.1932  -26.7930   22.1625 C   0  0  0  0  0  0
  -19.1543  -28.8857   23.2877 C   0  0  0  0  0  0
  -18.9469  -30.1460   23.8893 C   0  0  0  0  0  0
  -17.6469  -30.6589   24.0566 C   0  0  0  0  0  0
  -25.9060  -34.9434   23.5080 C   0  0  0  0  0  0
  -16.5359  -29.9090   23.6331 C   0  0  0  0  0  0
  -16.7277  -28.6506   23.0353 C   0  0  0  0  0  0
  -26.4497  -31.6578   25.0701 C   0  0  0  0  0  0
  -25.3718  -31.3736   26.1422 C   0  0  0  0  0  0
  -27.0335  -30.2996   24.6173 C   0  0  0  0  0  0
  -27.6052  -32.4317   25.7479 C   0  0  0  0  0  0
  -27.5577  -37.1786   24.8466 C   0  0  0  0  0  0
  -21.4194  -29.3038   22.3662 N   0  0  0  0  0  0
  -26.4284  -37.3762   23.9417 N   0  0  0  0  0  0
  -24.6932  -31.0520   22.0920 N   0  0  0  0  0  0
  -23.4198  -28.8140   23.3000 O   0  0  0  0  0  0
  -28.3652  -26.4445   20.2074 O   0  0  0  0  0  0
  -26.5635  -34.8917   22.4652 O   0  0  0  0  0  0
  -23.5446  -32.1358   23.7263 O   0  0  0  0  0  0
  -28.4989  -19.1041   21.0695 C   0  0  0  0  0  0
  -29.6630  -18.6608   20.4525 C   0  0  0  0  0  0
  -29.0984  -21.1977   20.1990 C   0  0  0  0  0  0
  -28.2991  -23.7370   20.1996 C   0  0  0  0  0  0
  -27.5748  -18.2601   21.8922 C   0  0  0  0  0  0
  -28.3016  -25.1640   17.9982 C   0  0  0  0  0  0
  -30.4636  -17.2941   20.4502 C   0  0  0  0  0  0
  -28.6351  -25.1453   19.5017 C   0  0  1  0  0  0
  -28.1981  -20.4994   20.9178 N   0  0  0  0  0  0
  -29.0782  -22.6402   19.8683 N   0  0  0  0  0  0
  -29.8908  -15.8899   20.6180 N   0  0  0  0  0  0
  -27.3655  -23.6686   21.0030 O   0  0  0  0  0  0
  -30.3805  -20.0785   19.6382 S   0  0  0  0  0  0
  -31.4665  -12.5509   19.1726 H   0  0  0  0  0  0
  -30.3553  -11.4650   19.9592 H   0  0  0  0  0  0
  -29.7838  -11.7249   17.5178 H   0  0  0  0  0  0
  -29.6373  -13.4532   17.7202 H   0  0  0  0  0  0
  -27.8820  -11.2826   18.9090 H   0  0  0  0  0  0
  -27.3741  -12.5258   17.7976 H   0  0  0  0  0  0
  -27.6322  -14.2533   19.4657 H   0  0  0  0  0  0
  -28.7118  -12.1771   21.4327 H   0  0  0  0  0  0
  -28.4233  -13.8635   21.7865 H   0  0  0  0  0  0
  -25.2757   -9.5687   22.4768 H   0  0  0  0  0  0
  -24.0005   -7.4632   22.7469 H   0  0  0  0  0  0
  -21.0849   -8.8767   19.8948 H   0  0  0  0  0  0
  -22.3694  -10.9674   19.6171 H   0  0  0  0  0  0
  -21.2001   -7.6148   23.9715 H   0  0  0  0  0  0
  -21.1485   -6.0525   25.9079 H   0  0  0  0  0  0
  -22.0597   -2.7609   23.2847 H   0  0  0  0  0  0
  -22.4083  -11.9868   22.4810 H   0  0  0  0  0  0
  -21.1077  -13.1227   22.2637 H   0  0  0  0  0  0
  -24.6402  -15.8373   20.4927 H   0  0  0  0  0  0
  -26.2446  -15.6197   20.0130 H   0  0  0  0  0  0
  -26.7185  -32.5393   23.1041 H   0  0  0  0  0  0
  -25.0084  -33.9692   25.0385 H   0  0  0  0  0  0
  -22.7203  -31.2964   21.3904 H   0  0  0  0  0  0
  -23.3757  -35.9599   23.3300 H   0  0  0  0  0  0
  -24.3581  -36.8892   22.2053 H   0  0  0  0  0  0
  -23.7242  -37.6470   23.6666 H   0  0  0  0  0  0
  -26.1029  -31.5323   20.6009 H   0  0  0  0  0  0
  -26.8469  -30.8201   22.0008 H   0  0  0  0  0  0
  -28.1131  -28.9437   21.1855 H   0  0  0  0  0  0
  -25.9386  -25.8528   19.1028 H   0  0  0  0  0  0
  -23.9636  -27.2691   19.0455 H   0  0  0  0  0  0
  -23.7634  -30.5789   19.3979 H   0  0  0  0  0  0
  -22.7593  -29.2361   19.8532 H   0  0  0  0  0  0
  -25.1299  -36.1889   25.0813 H   0  0  0  0  0  0
  -20.9993  -28.3261   24.1391 H   0  0  0  0  0  0
  -20.5664  -26.2298   23.3607 H   0  0  0  0  0  0
  -21.6640  -26.7424   22.1206 H   0  0  0  0  0  0
  -19.6919  -25.6292   21.1239 H   0  0  0  0  0  0
  -19.6698  -27.3192   20.6741 H   0  0  0  0  0  0
  -17.4198  -26.6672   21.4033 H   0  0  0  0  0  0
  -18.0343  -26.0070   22.9024 H   0  0  0  0  0  0
  -19.7946  -30.7274   24.2261 H   0  0  0  0  0  0
  -17.5026  -31.6273   24.5163 H   0  0  0  0  0  0
  -15.5360  -30.2996   23.7660 H   0  0  0  0  0  0
  -15.8671  -28.0827   22.7074 H   0  0  0  0  0  0
  -24.5915  -30.7058   25.7754 H   0  0  0  0  0  0
  -24.8886  -32.2905   26.4804 H   0  0  0  0  0  0
  -25.8034  -30.8953   27.0221 H   0  0  0  0  0  0
  -26.2909  -29.6752   24.1194 H   0  0  0  0  0  0
  -27.4020  -29.7253   25.4681 H   0  0  0  0  0  0
  -27.8782  -30.4274   23.9401 H   0  0  0  0  0  0
  -27.2672  -33.3639   26.2015 H   0  0  0  0  0  0
  -28.3887  -32.6833   25.0319 H   0  0  0  0  0  0
  -28.0686  -31.8459   26.5429 H   0  0  0  0  0  0
  -28.2576  -38.0101   24.7521 H   0  0  0  0  0  0
  -28.1087  -36.2629   24.6269 H   0  0  0  0  0  0
  -27.2298  -37.1396   25.8868 H   0  0  0  0  0  0
  -20.9370  -29.8760   21.6874 H   0  0  0  0  0  0
  -26.0155  -38.2827   24.1441 H   0  0  0  0  0  0
  -28.1277  -17.5665   22.5255 H   0  0  0  0  0  0
  -26.9126  -17.6715   21.2579 H   0  0  0  0  0  0
  -26.9471  -18.8654   22.5468 H   0  0  0  0  0  0
  -28.9141  -24.4404   17.4601 H   0  0  0  0  0  0
  -28.5051  -26.1432   17.5651 H   0  0  0  0  0  0
  -27.2673  -24.9023   17.7881 H   0  0  0  0  0  0
  -31.2342  -17.3834   21.2175 H   0  0  0  0  0  0
  -31.0242  -17.2688   19.5141 H   0  0  0  0  0  0
  -29.7257  -25.1511   19.5234 H   0  0  0  0  0  0
  -29.8221  -22.8931   19.2347 H   0  0  0  0  0  0
  -28.9045  -15.7956   20.8023 H   0  0  0  0  0  0
  1 25  1  0  0  0
  1 30  2  0  0  0
  1 81  1  0  0  0
  2  3  1  0  0  0
  2 25  1  0  0  0
  2 84  1  0  0  0
  2 85  1  0  0  0
  3  4  1  0  0  0
  3 86  1  0  0  0
  3 87  1  0  0  0
  4  5  1  0  0  0
  4 88  1  0  0  0
  4 89  1  0  0  0
  5  6  1  0  0  0
  5 26  1  0  0  0
  5 90  1  0  0  0
  6 25  1  0  0  0
  6 91  1  0  0  0
  6 92  1  0  0  0
  7  8  2  0  0  0
  7 26  1  0  0  0
  7 29  1  0  0  0
  8  9  1  0  0  0
  8 22  1  0  0  0
  9 10  1  0  0  0
  9 27  2  0  0  0
 10 11  2  0  0  0
 10 15  1  0  0  0
 11 12  1  0  0  0
 11 93  1  0  0  0
 12 13  2  0  0  0
 12 94  1  0  0  0
 13 14  1  0  0  0
 13 31  1  0  0  0
 14 15  2  0  0  0
 14 95  1  0  0  0
 15 96  1  0  0  0
 16 17  2  0  0  0
 16 21  1  0  0  0
 16 31  1  0  0  0
 17 18  1  0  0  0
 17 97  1  0  0  0
 18 19  2  0  0  0
 18 98  1  0  0  0
 19 20  1  0  0  0
 19 24  1  0  0  0
 20 21  2  0  0  0
 20 99  1  0  0  0
 21 23  1  0  0  0
 22 28  1  0  0  0
 22 32  2  0  0  0
 26 27  1  0  0  0
 28100  1  0  0  0
 28101  1  0  0  0
 29102  1  0  0  0
 29103  1  0  0  0
 33 34  1  0  0  0
 33 66  1  0  0  0
 33 70  2  0  0  0
 34 36  1  0  0  0
 34 59  1  0  0  0
 34104  1  0  0  0
 35 44  2  0  0  0
 35 45  1  0  0  0
 35 68  1  0  0  0
 36 56  1  0  0  0
 36105  1  0  0  0
 37 39  1  0  0  0
 37 47  1  0  0  0
 37 66  1  0  0  0
 37106  1  0  0  0
 38 43  2  0  0  0
 38 46  1  0  0  0
 38 47  1  0  0  0
 39 64  1  0  0  0
 39 67  2  0  0  0
 40 52  1  0  0  0
 40 53  2  0  0  0
 40 58  1  0  0  0
 41107  1  0  0  0
 41108  1  0  0  0
 41109  1  0  0  0
 41 48  1  0  0  0
 42 43  1  0  0  0
 42 66  1  0  0  0
 42110  1  0  0  0
 42111  1  0  0  0
 43 44  1  0  0  0
 44112  1  0  0  0
 45 46  2  0  0  0
 45113  1  0  0  0
 46114  1  0  0  0
 47115  1  0  0  0
 47116  1  0  0  0
 48 56  1  0  0  0
 48 65  1  0  0  0
 48117  1  0  0  0
 49 50  1  0  0  0
 49 53  1  0  0  0
 49 64  1  0  0  0
 49118  1  0  0  0
 50 51  1  0  0  0
 50119  1  0  0  0
 50120  1  0  0  0
 51 52  1  0  0  0
 51121  1  0  0  0
 51122  1  0  0  0
 52123  1  0  0  0
 52124  1  0  0  0
 53 54  1  0  0  0
 54 55  2  0  0  0
 54125  1  0  0  0
 55 57  1  0  0  0
 55126  1  0  0  0
 56 69  2  0  0  0
 57 58  2  0  0  0
 57127  1  0  0  0
 58128  1  0  0  0
 59 60  1  0  0  0
 59 61  1  0  0  0
 59 62  1  0  0  0
 60129  1  0  0  0
 60130  1  0  0  0
 60131  1  0  0  0
 61132  1  0  0  0
 61133  1  0  0  0
 61134  1  0  0  0
 62135  1  0  0  0
 62136  1  0  0  0
 62137  1  0  0  0
 63 65  1  0  0  0
 63138  1  0  0  0
 63139  1  0  0  0
 63140  1  0  0  0
 64141  1  0  0  0
 65142  1  0  0  0
 68 78  1  0  0  0
 71 72  2  0  0  0
 71 75  1  0  0  0
 71 79  1  0  0  0
 72 77  1  0  0  0
 72 83  1  0  0  0
 73 79  2  0  0  0
 73 80  1  0  0  0
 73 83  1  0  0  0
 74 78  1  0  0  0
 74 80  1  0  0  0
 74 82  2  0  0  0
 75143  1  0  0  0
 75144  1  0  0  0
 75145  1  0  0  0
 76146  1  0  0  0
 76147  1  0  0  0
 76148  1  0  0  0
 76 78  1  0  0  0
 77 81  1  0  0  0
 77149  1  0  0  0
 77150  1  0  0  0
 78151  1  0  0  0
 80152  1  0  0  0
 81153  1  0  0  0
M  ISO  4   1 100  68 101  78 101  81 100
M  END
> <chiral flag>
0

> <version>
0

> <s_m_source_file>
/data/baiqing/PycharmProjects/Reinvent-master-3.2/result/LINK_invent/BTK/process_docking_weight1_custom_product_contain_oxygen_bond_distance_aromatic_linkinvent_7_9_3/rearranged_h_0184.sdf

> <i_m_source_file_index>
19

> <r_mmod_Potential_Energy-OPLS-2005>
28.953727722168

> <r_mmod_Stretch_Energy-OPLS-2005>
108.086158752441

> <r_mmod_Bend_Energy-OPLS-2005>
221.51985168457

> <r_mmod_Torsional_Energy-OPLS-2005>
202.276611328125

> <r_mmod_Improper_Torsional_Energy-OPLS-2005>
5.7061824798584

> <r_mmod_Van_der_Waal_Energy-OPLS-2005>
109.752449035645

> <r_mmod_Electrostatic_Energy-OPLS-2005>
-437.361358642578

> <r_mmod_Solvation_Energy-OPLS-2005>
-257.200775146484

> <b_mmod_Minimization_Converged-OPLS-2005>
0

> <r_mmod_RMS_Derivative-OPLS-2005>
0.888943493366241

$$$$
19
                    3D
 Structure written by MMmdl.
154162  0  0  1  0            999 V2000
  -30.7343  -14.5214   20.5551 C   0  0  0  0  0  0
  -30.4117  -12.3394   19.4368 C   0  0  0  0  0  0
  -29.4894  -12.4908   18.2119 C   0  0  0  0  0  0
  -28.0152  -12.3269   18.6290 C   0  0  0  0  0  0
  -27.6451  -13.2007   19.8559 C   0  0  2  0  0  0
  -28.6937  -13.0735   20.9863 C   0  0  0  0  0  0
  -25.2541  -13.8127   20.5694 C   0  0  0  0  0  0
  -24.1800  -13.0415   20.9220 C   0  0  0  0  0  0
  -24.6355  -11.6884   20.8781 C   0  0  0  0  0  0
  -23.9033  -10.4277   21.0435 C   0  0  0  0  0  0
  -24.3597   -9.4195   21.9201 C   0  0  0  0  0  0
  -23.6278   -8.2226   22.0753 C   0  0  0  0  0  0
  -22.4260   -8.0267   21.3542 C   0  0  0  0  0  0
  -21.9898   -9.0241   20.4648 C   0  0  0  0  0  0
  -22.7219  -10.2128   20.3070 C   0  0  0  0  0  0
  -21.6847   -6.0730   22.5287 C   0  0  0  0  0  0
  -21.4002   -6.5639   23.8217 C   0  0  0  0  0  0
  -21.3647   -5.6793   24.9179 C   0  0  0  0  0  0
  -21.6038   -4.3053   24.7227 C   0  0  0  0  0  0
  -21.8820   -3.8148   23.4348 C   0  0  0  0  0  0
  -21.9181   -4.6962   22.3407 C   0  0  0  0  0  0
  -22.7828  -13.5233   21.1867 C   0  0  0  0  0  0
  -22.1657   -4.2155   21.0983 F   0  0  0  0  0  0
  -21.5625   -3.4532   25.7734 F   0  0  0  0  0  0
  -30.0187  -13.3659   20.4190 N   0  0  0  0  0  0
  -26.2945  -12.9270   20.3323 N   0  0  0  0  0  0
  -25.9275  -11.6441   20.5777 N   0  0  0  0  0  0
  -22.0459  -12.8231   22.0424 N   0  0  0  0  0  0
  -25.4253  -15.1848   20.4087 N   0  0  0  0  0  0
  -31.8756  -14.6419   20.1126 O   0  0  0  0  0  0
  -21.6624   -6.8868   21.4243 O   0  0  0  0  0  0
  -22.3523  -14.5538   20.6694 O   0  0  0  0  0  0
  -24.6167  -31.8668   23.2069 C   0  0  0  0  0  0
  -25.9053  -32.4822   23.8377 C   0  0  1  0  0  0
  -27.2330  -27.4095   20.1107 C   0  0  0  0  0  0
  -25.5895  -33.8615   24.2307 N   0  0  0  0  0  0
  -23.4064  -30.4887   21.5467 C   0  0  2  0  0  0
  -24.8567  -28.9527   20.1107 C   0  0  0  0  0  0
  -22.7420  -29.4652   22.4957 C   0  0  0  0  0  0
  -18.0280  -28.1375   22.8470 C   0  0  0  0  0  0
  -24.1480  -36.7318   23.2631 C   0  0  0  0  0  0
  -25.9379  -30.8250   21.3640 C   0  0  0  0  0  0
  -26.0185  -29.4582   20.7105 C   0  0  0  0  0  0
  -27.2128  -28.6964   20.7018 C   0  0  0  0  0  0
  -26.0582  -26.9311   19.4902 C   0  0  0  0  0  0
  -24.8745  -27.6913   19.4915 C   0  0  0  0  0  0
  -23.6178  -29.8199   20.1618 C   0  0  0  0  0  0
  -25.4104  -36.3110   24.0327 C   0  0  1  0  0  0
  -20.5862  -28.3682   23.1298 C   0  0  2  0  0  0
  -20.6770  -26.9419   22.5406 C   0  0  0  0  0  0
  -19.5762  -26.6399   21.5195 C   0  0  0  0  0  0
  -18.1936  -26.7930   22.1602 C   0  0  0  0  0  0
  -19.1522  -28.8844   23.2893 C   0  0  0  0  0  0
  -18.9456  -30.1446   23.8915 C   0  0  0  0  0  0
  -17.6453  -30.6580   24.0567 C   0  0  0  0  0  0
  -25.9032  -34.9476   23.5125 C   0  0  0  0  0  0
  -16.5344  -29.9079   23.6316 C   0  0  0  0  0  0
  -16.7269  -28.6493   23.0343 C   0  0  0  0  0  0
  -26.4481  -31.6597   25.0710 C   0  0  0  0  0  0
  -25.3735  -31.3718   26.1447 C   0  0  0  0  0  0
  -27.0306  -30.3028   24.6093 C   0  0  0  0  0  0
  -27.6055  -32.4314   25.7471 C   0  0  0  0  0  0
  -27.5581  -37.1812   24.8460 C   0  0  0  0  0  0
  -21.4140  -29.3060   22.3710 N   0  0  0  0  0  0
  -26.4299  -37.3792   23.9400 N   0  0  0  0  0  0
  -24.6724  -31.0741   22.0985 N   0  0  0  0  0  0
  -23.4185  -28.8182   23.2997 O   0  0  0  0  0  0
  -28.3724  -26.6266   20.1337 O   0  0  0  0  0  0
  -26.5589  -34.8937   22.4685 O   0  0  0  0  0  0
  -23.5349  -32.1418   23.7444 O   0  0  0  0  0  0
  -29.7744  -19.8874   19.2404 C   0  0  0  0  0  0
  -29.7528  -18.4585   19.2347 C   0  0  0  0  0  0
  -29.3705  -17.8671   20.4129 C   0  0  0  0  0  0
  -29.4023  -20.4222   20.4496 C   0  0  0  0  0  0
  -29.0290  -24.2080   19.9746 C   0  0  0  0  0  0
  -27.0266  -22.5561   20.1021 C   0  0  0  0  0  0
  -29.0792  -16.3953   20.6561 C   0  0  0  0  0  0
  -28.1800  -25.2970   20.6877 C   0  0  0  0  0  0
  -28.5475  -22.7090   19.9210 C   0  0  2  0  0  0
  -29.2726  -21.7796   20.8102 N   0  0  0  0  0  0
  -30.1773  -15.5703   21.1946 N   0  0  0  0  0  0
  -30.1004  -24.5367   19.4566 O   0  0  0  0  0  0
  -30.0327  -17.7728   18.1498 F   0  0  0  0  0  0
  -29.0660  -19.1290   21.6009 S   0  0  0  0  0  0
  -31.4575  -12.4212   19.1327 H   0  0  0  0  0  0
  -30.3121  -11.3462   19.8776 H   0  0  0  0  0  0
  -29.7487  -11.7524   17.4522 H   0  0  0  0  0  0
  -29.6410  -13.4698   17.7537 H   0  0  0  0  0  0
  -27.8539  -11.2737   18.8637 H   0  0  0  0  0  0
  -27.3563  -12.5533   17.7890 H   0  0  0  0  0  0
  -27.6422  -14.2214   19.4888 H   0  0  0  0  0  0
  -28.6861  -12.0662   21.4035 H   0  0  0  0  0  0
  -28.4500  -13.7402   21.8136 H   0  0  0  0  0  0
  -25.2737   -9.5668   22.4780 H   0  0  0  0  0  0
  -23.9994   -7.4606   22.7469 H   0  0  0  0  0  0
  -21.0826   -8.8749   19.8957 H   0  0  0  0  0  0
  -22.3674  -10.9661   19.6176 H   0  0  0  0  0  0
  -21.2001   -7.6145   23.9727 H   0  0  0  0  0  0
  -21.1473   -6.0518   25.9086 H   0  0  0  0  0  0
  -22.0616   -2.7610   23.2847 H   0  0  0  0  0  0
  -22.4045  -11.9886   22.4822 H   0  0  0  0  0  0
  -21.1080  -13.1270   22.2633 H   0  0  0  0  0  0
  -24.6530  -15.8349   20.5092 H   0  0  0  0  0  0
  -26.2623  -15.6219   20.0475 H   0  0  0  0  0  0
  -26.7133  -32.5532   23.1148 H   0  0  0  0  0  0
  -25.0074  -33.9766   25.0465 H   0  0  0  0  0  0
  -22.6974  -31.3063   21.4038 H   0  0  0  0  0  0
  -23.3746  -35.9649   23.3306 H   0  0  0  0  0  0
  -24.3570  -36.8925   22.2045 H   0  0  0  0  0  0
  -23.7236  -37.6530   23.6638 H   0  0  0  0  0  0
  -26.0476  -31.5893   20.5938 H   0  0  0  0  0  0
  -26.8268  -30.8825   21.9806 H   0  0  0  0  0  0
  -28.1093  -29.0802   21.1696 H   0  0  0  0  0  0
  -26.0528  -25.9651   19.0051 H   0  0  0  0  0  0
  -23.9862  -27.2991   19.0160 H   0  0  0  0  0  0
  -23.7248  -30.5929   19.4007 H   0  0  0  0  0  0
  -22.7434  -29.2363   19.8662 H   0  0  0  0  0  0
  -25.1285  -36.1989   25.0821 H   0  0  0  0  0  0
  -20.9954  -28.3259   24.1419 H   0  0  0  0  0  0
  -20.5669  -26.2305   23.3596 H   0  0  0  0  0  0
  -21.6651  -26.7465   22.1211 H   0  0  0  0  0  0
  -19.6943  -25.6318   21.1221 H   0  0  0  0  0  0
  -19.6706  -27.3227   20.6742 H   0  0  0  0  0  0
  -17.4219  -26.6673   21.3996 H   0  0  0  0  0  0
  -18.0355  -26.0060   22.8986 H   0  0  0  0  0  0
  -19.7932  -30.7250   24.2305 H   0  0  0  0  0  0
  -17.5010  -31.6254   24.5186 H   0  0  0  0  0  0
  -15.5354  -30.3006   23.7622 H   0  0  0  0  0  0
  -15.8655  -28.0829   22.7065 H   0  0  0  0  0  0
  -24.5903  -30.7074   25.7786 H   0  0  0  0  0  0
  -24.8933  -32.2877   26.4892 H   0  0  0  0  0  0
  -25.8075  -30.8886   27.0210 H   0  0  0  0  0  0
  -26.2854  -29.6797   24.1136 H   0  0  0  0  0  0
  -27.4059  -29.7260   25.4568 H   0  0  0  0  0  0
  -27.8698  -30.4338   23.9254 H   0  0  0  0  0  0
  -27.2673  -33.3599   26.2083 H   0  0  0  0  0  0
  -28.3847  -32.6902   25.0289 H   0  0  0  0  0  0
  -28.0746  -31.8418   26.5359 H   0  0  0  0  0  0
  -28.2613  -38.0098   24.7512 H   0  0  0  0  0  0
  -28.1068  -36.2637   24.6291 H   0  0  0  0  0  0
  -27.2291  -37.1467   25.8860 H   0  0  0  0  0  0
  -20.9275  -29.8820   21.6978 H   0  0  0  0  0  0
  -26.0197  -38.2874   24.1410 H   0  0  0  0  0  0
  -30.0449  -20.4567   18.3631 H   0  0  0  0  0  0
  -26.4771  -23.1886   19.4031 H   0  0  0  0  0  0
  -26.7039  -22.8118   21.1123 H   0  0  0  0  0  0
  -26.7092  -21.5306   19.9104 H   0  0  0  0  0  0
  -28.7590  -15.9845   19.7008 H   0  0  0  0  0  0
  -28.2261  -16.3020   21.3274 H   0  0  0  0  0  0
  -28.4905  -25.3244   21.7322 H   0  0  0  0  0  0
  -27.1312  -25.0112   20.6984 H   0  0  0  0  0  0
  -28.7554  -22.3800   18.9018 H   0  0  0  0  0  0
  -29.1940  -21.9885   21.8031 H   0  0  0  0  0  0
  -30.8896  -16.1561   21.6031 H   0  0  0  0  0  0
  1 25  1  0  0  0
  1 30  2  0  0  0
  1 81  1  0  0  0
  2  3  1  0  0  0
  2 25  1  0  0  0
  2 85  1  0  0  0
  2 86  1  0  0  0
  3  4  1  0  0  0
  3 87  1  0  0  0
  3 88  1  0  0  0
  4  5  1  0  0  0
  4 89  1  0  0  0
  4 90  1  0  0  0
  5  6  1  0  0  0
  5 26  1  0  0  0
  5 91  1  0  0  0
  6 25  1  0  0  0
  6 92  1  0  0  0
  6 93  1  0  0  0
  7  8  2  0  0  0
  7 26  1  0  0  0
  7 29  1  0  0  0
  8  9  1  0  0  0
  8 22  1  0  0  0
  9 10  1  0  0  0
  9 27  2  0  0  0
 10 11  2  0  0  0
 10 15  1  0  0  0
 11 12  1  0  0  0
 11 94  1  0  0  0
 12 13  2  0  0  0
 12 95  1  0  0  0
 13 14  1  0  0  0
 13 31  1  0  0  0
 14 15  2  0  0  0
 14 96  1  0  0  0
 15 97  1  0  0  0
 16 17  2  0  0  0
 16 21  1  0  0  0
 16 31  1  0  0  0
 17 18  1  0  0  0
 17 98  1  0  0  0
 18 19  2  0  0  0
 18 99  1  0  0  0
 19 20  1  0  0  0
 19 24  1  0  0  0
 20 21  2  0  0  0
 20100  1  0  0  0
 21 23  1  0  0  0
 22 28  1  0  0  0
 22 32  2  0  0  0
 26 27  1  0  0  0
 28101  1  0  0  0
 28102  1  0  0  0
 29103  1  0  0  0
 29104  1  0  0  0
 33 34  1  0  0  0
 33 66  1  0  0  0
 33 70  2  0  0  0
 34 36  1  0  0  0
 34 59  1  0  0  0
 34105  1  0  0  0
 35 44  2  0  0  0
 35 45  1  0  0  0
 35 68  1  0  0  0
 36 56  1  0  0  0
 36106  1  0  0  0
 37 39  1  0  0  0
 37 47  1  0  0  0
 37 66  1  0  0  0
 37107  1  0  0  0
 38 43  2  0  0  0
 38 46  1  0  0  0
 38 47  1  0  0  0
 39 64  1  0  0  0
 39 67  2  0  0  0
 40 52  1  0  0  0
 40 53  2  0  0  0
 40 58  1  0  0  0
 41108  1  0  0  0
 41109  1  0  0  0
 41110  1  0  0  0
 41 48  1  0  0  0
 42 43  1  0  0  0
 42 66  1  0  0  0
 42111  1  0  0  0
 42112  1  0  0  0
 43 44  1  0  0  0
 44113  1  0  0  0
 45 46  2  0  0  0
 45114  1  0  0  0
 46115  1  0  0  0
 47116  1  0  0  0
 47117  1  0  0  0
 48 56  1  0  0  0
 48 65  1  0  0  0
 48118  1  0  0  0
 49 50  1  0  0  0
 49 53  1  0  0  0
 49 64  1  0  0  0
 49119  1  0  0  0
 50 51  1  0  0  0
 50120  1  0  0  0
 50121  1  0  0  0
 51 52  1  0  0  0
 51122  1  0  0  0
 51123  1  0  0  0
 52124  1  0  0  0
 52125  1  0  0  0
 53 54  1  0  0  0
 54 55  2  0  0  0
 54126  1  0  0  0
 55 57  1  0  0  0
 55127  1  0  0  0
 56 69  2  0  0  0
 57 58  2  0  0  0
 57128  1  0  0  0
 58129  1  0  0  0
 59 60  1  0  0  0
 59 61  1  0  0  0
 59 62  1  0  0  0
 60130  1  0  0  0
 60131  1  0  0  0
 60132  1  0  0  0
 61133  1  0  0  0
 61134  1  0  0  0
 61135  1  0  0  0
 62136  1  0  0  0
 62137  1  0  0  0
 62138  1  0  0  0
 63 65  1  0  0  0
 63139  1  0  0  0
 63140  1  0  0  0
 63141  1  0  0  0
 64142  1  0  0  0
 65143  1  0  0  0
 68 78  1  0  0  0
 71 72  1  0  0  0
 71 74  2  0  0  0
 71144  1  0  0  0
 72 73  2  0  0  0
 72 83  1  0  0  0
 73 77  1  0  0  0
 73 84  1  0  0  0
 74 80  1  0  0  0
 74 84  1  0  0  0
 75 78  1  0  0  0
 75 79  1  0  0  0
 75 82  2  0  0  0
 76145  1  0  0  0
 76146  1  0  0  0
 76147  1  0  0  0
 76 79  1  0  0  0
 77 81  1  0  0  0
 77148  1  0  0  0
 77149  1  0  0  0
 78150  1  0  0  0
 78151  1  0  0  0
 79 80  1  0  0  0
 79152  1  0  0  0
 80153  1  0  0  0
 81154  1  0  0  0
M  ISO  4   1 100  68 101  78 101  81 100
M  END
> <chiral flag>
0

> <version>
0

> <s_m_source_file>
/data/baiqing/PycharmProjects/Reinvent-master-3.2/result/LINK_invent/BTK/process_docking_weight1_custom_product_contain_oxygen_bond_distance_aromatic_linkinvent_7_9_3/rearranged_h_0184.sdf

> <i_m_source_file_index>
20

> <r_mmod_Potential_Energy-OPLS-2005>
57.1280975341797

> <r_mmod_Stretch_Energy-OPLS-2005>
43.5984077453613

> <r_mmod_Bend_Energy-OPLS-2005>
114.521064758301

> <r_mmod_Torsional_Energy-OPLS-2005>
291.135803222656

> <r_mmod_Improper_Torsional_Energy-OPLS-2005>
8.88924598693848

> <r_mmod_Van_der_Waal_Energy-OPLS-2005>
119.940635681152

> <r_mmod_Electrostatic_Energy-OPLS-2005>
-302.955413818359

> <r_mmod_Solvation_Energy-OPLS-2005>
-240.183197021484

> <b_mmod_Minimization_Converged-OPLS-2005>
0

> <r_mmod_RMS_Derivative-OPLS-2005>
2.01925158500671

$$$$
20
                    3D
 Structure written by MMmdl.
154162  0  0  1  0            999 V2000
  -30.4880  -14.9470   20.4559 C   0  0  0  0  0  0
  -30.4537  -12.5833   19.4989 C   0  0  0  0  0  0
  -29.5296  -12.5482   18.2570 C   0  0  0  0  0  0
  -28.0599  -12.3237   18.6668 C   0  0  0  0  0  0
  -27.6380  -13.2384   19.8459 C   0  0  2  0  0  0
  -28.6791  -13.2215   20.9850 C   0  0  0  0  0  0
  -25.2511  -13.8198   20.5692 C   0  0  0  0  0  0
  -24.1807  -13.0437   20.9200 C   0  0  0  0  0  0
  -24.6403  -11.6916   20.8729 C   0  0  0  0  0  0
  -23.9072  -10.4294   21.0389 C   0  0  0  0  0  0
  -24.3622   -9.4213   21.9172 C   0  0  0  0  0  0
  -23.6296   -8.2249   22.0752 C   0  0  0  0  0  0
  -22.4274   -8.0285   21.3546 C   0  0  0  0  0  0
  -21.9906   -9.0254   20.4639 C   0  0  0  0  0  0
  -22.7236  -10.2130   20.3041 C   0  0  0  0  0  0
  -21.6861   -6.0730   22.5277 C   0  0  0  0  0  0
  -21.4018   -6.5631   23.8210 C   0  0  0  0  0  0
  -21.3661   -5.6784   24.9172 C   0  0  0  0  0  0
  -21.6047   -4.3047   24.7219 C   0  0  0  0  0  0
  -21.8822   -3.8137   23.4341 C   0  0  0  0  0  0
  -21.9196   -4.6955   22.3399 C   0  0  0  0  0  0
  -22.7822  -13.5212   21.1862 C   0  0  0  0  0  0
  -22.1665   -4.2144   21.0976 F   0  0  0  0  0  0
  -21.5633   -3.4531   25.7733 F   0  0  0  0  0  0
  -29.9605  -13.6544   20.4110 N   0  0  0  0  0  0
  -26.2927  -12.9398   20.3245 N   0  0  0  0  0  0
  -25.9331  -11.6541   20.5711 N   0  0  0  0  0  0
  -22.0466  -12.8214   22.0421 N   0  0  0  0  0  0
  -25.4226  -15.1922   20.4136 N   0  0  0  0  0  0
  -31.6594  -15.0767   20.0767 O   0  0  0  0  0  0
  -21.6650   -6.8875   21.4240 O   0  0  0  0  0  0
  -22.3502  -14.5514   20.6703 O   0  0  0  0  0  0
  -24.6444  -31.8426   23.1871 C   0  0  0  0  0  0
  -25.9204  -32.4690   23.8262 C   0  0  1  0  0  0
  -27.2065  -27.1136   20.1614 C   0  0  0  0  0  0
  -25.5943  -33.8496   24.2193 N   0  0  0  0  0  0
  -23.4487  -30.4620   21.5331 C   0  0  2  0  0  0
  -24.8979  -28.8844   20.1122 C   0  0  0  0  0  0
  -22.7573  -29.4545   22.4853 C   0  0  0  0  0  0
  -18.0308  -28.1399   22.8474 C   0  0  0  0  0  0
  -24.1496  -36.7257   23.2639 C   0  0  0  0  0  0
  -26.0058  -30.7062   21.3918 C   0  0  0  0  0  0
  -26.0750  -29.3136   20.7408 C   0  0  0  0  0  0
  -27.2324  -28.4434   20.7502 C   0  0  0  0  0  0
  -26.0179  -26.8062   19.4669 C   0  0  0  0  0  0
  -24.8835  -27.6437   19.4586 C   0  0  0  0  0  0
  -23.6767  -29.7903   20.1534 C   0  0  0  0  0  0
  -25.4125  -36.3035   24.0319 C   0  0  1  0  0  0
  -20.5922  -28.3733   23.1224 C   0  0  2  0  0  0
  -20.6798  -26.9438   22.5397 C   0  0  0  0  0  0
  -19.5770  -26.6385   21.5212 C   0  0  0  0  0  0
  -18.1952  -26.7934   22.1626 C   0  0  0  0  0  0
  -19.1564  -28.8885   23.2843 C   0  0  0  0  0  0
  -18.9480  -30.1477   23.8875 C   0  0  0  0  0  0
  -17.6475  -30.6593   24.0559 C   0  0  0  0  0  0
  -25.9075  -34.9407   23.5075 C   0  0  0  0  0  0
  -16.5367  -29.9087   23.6329 C   0  0  0  0  0  0
  -16.7290  -28.6506   23.0351 C   0  0  0  0  0  0
  -26.4513  -31.6543   25.0701 C   0  0  0  0  0  0
  -25.3684  -31.3752   26.1393 C   0  0  0  0  0  0
  -27.0354  -30.2923   24.6275 C   0  0  0  0  0  0
  -27.6050  -32.4286   25.7495 C   0  0  0  0  0  0
  -27.5585  -37.1793   24.8466 C   0  0  0  0  0  0
  -21.4265  -29.3060   22.3599 N   0  0  0  0  0  0
  -26.4296  -37.3747   23.9408 N   0  0  0  0  0  0
  -24.7197  -31.0254   22.0924 N   0  0  0  0  0  0
  -23.4206  -28.8102   23.3018 O   0  0  0  0  0  0
  -28.2468  -26.1080   20.1498 O   0  0  0  0  0  0
  -26.5669  -34.8901   22.4661 O   0  0  0  0  0  0
  -23.5557  -32.1327   23.7070 O   0  0  0  0  0  0
  -29.6691  -18.5464   19.2821 C   0  0  0  0  0  0
  -29.6370  -17.8782   20.5100 C   0  0  0  0  0  0
  -29.1747  -20.5784   20.4642 C   0  0  0  0  0  0
  -28.7173  -23.2954   20.0784 C   0  0  0  0  0  0
  -29.8490  -17.8713   17.9578 C   0  0  0  0  0  0
  -26.6716  -24.3600   21.2121 C   0  0  0  0  0  0
  -28.9452  -24.8949   22.0942 C   0  0  0  0  0  0
  -29.6177  -16.2822   20.9439 C   0  0  0  0  0  0
  -28.1278  -24.6830   20.8082 C   0  0  0  0  0  0
  -29.4381  -19.9846   19.2747 N   0  0  0  0  0  0
  -28.8014  -22.0431   20.7529 N   0  0  0  0  0  0
  -29.0779  -23.3875   18.9023 O   0  0  0  0  0  0
  -29.2684  -19.2174   21.6913 S   0  0  0  0  0  0
  -31.4867  -12.7556   19.1925 H   0  0  0  0  0  0
  -30.4525  -11.6158   20.0049 H   0  0  0  0  0  0
  -29.8508  -11.7679   17.5657 H   0  0  0  0  0  0
  -29.6172  -13.4916   17.7157 H   0  0  0  0  0  0
  -27.9518  -11.2771   18.9542 H   0  0  0  0  0  0
  -27.3984  -12.4758   17.8131 H   0  0  0  0  0  0
  -27.6130  -14.2484   19.4375 H   0  0  0  0  0  0
  -28.7613  -12.2237   21.4182 H   0  0  0  0  0  0
  -28.3745  -13.8801   21.7996 H   0  0  0  0  0  0
  -25.2767   -9.5701   22.4739 H   0  0  0  0  0  0
  -24.0018   -7.4637   22.7465 H   0  0  0  0  0  0
  -21.0843   -8.8753   19.8935 H   0  0  0  0  0  0
  -22.3689  -10.9661   19.6146 H   0  0  0  0  0  0
  -21.2012   -7.6138   23.9716 H   0  0  0  0  0  0
  -21.1484   -6.0511   25.9081 H   0  0  0  0  0  0
  -22.0601   -2.7598   23.2843 H   0  0  0  0  0  0
  -22.4093  -11.9886   22.4822 H   0  0  0  0  0  0
  -21.1073  -13.1231   22.2594 H   0  0  0  0  0  0
  -24.6583  -15.8484   20.5290 H   0  0  0  0  0  0
  -26.2755  -15.6325   20.0924 H   0  0  0  0  0  0
  -26.7270  -32.5288   23.0983 H   0  0  0  0  0  0
  -25.0037  -33.9617   25.0305 H   0  0  0  0  0  0
  -22.7526  -31.2891   21.3771 H   0  0  0  0  0  0
  -23.3770  -35.9582   23.3291 H   0  0  0  0  0  0
  -24.3572  -36.8894   22.2056 H   0  0  0  0  0  0
  -23.7246  -37.6450   23.6674 H   0  0  0  0  0  0
  -26.1597  -31.4545   20.6134 H   0  0  0  0  0  0
  -26.8773  -30.7615   22.0318 H   0  0  0  0  0  0
  -28.1305  -28.7674   21.2563 H   0  0  0  0  0  0
  -25.9513  -25.8679   18.9352 H   0  0  0  0  0  0
  -23.9931  -27.3190   18.9371 H   0  0  0  0  0  0
  -23.8151  -30.5637   19.3968 H   0  0  0  0  0  0
  -22.7909  -29.2335   19.8428 H   0  0  0  0  0  0
  -25.1317  -36.1868   25.0813 H   0  0  0  0  0  0
  -21.0013  -28.3327   24.1343 H   0  0  0  0  0  0
  -20.5692  -26.2360   23.3624 H   0  0  0  0  0  0
  -21.6665  -26.7436   22.1200 H   0  0  0  0  0  0
  -19.6940  -25.6288   21.1263 H   0  0  0  0  0  0
  -19.6706  -27.3179   20.6727 H   0  0  0  0  0  0
  -17.4225  -26.6675   21.4027 H   0  0  0  0  0  0
  -18.0349  -26.0081   22.9026 H   0  0  0  0  0  0
  -19.7954  -30.7299   24.2242 H   0  0  0  0  0  0
  -17.5024  -31.6271   24.5163 H   0  0  0  0  0  0
  -15.5366  -30.2984   23.7656 H   0  0  0  0  0  0
  -15.8690  -28.0812   22.7073 H   0  0  0  0  0  0
  -24.5861  -30.7105   25.7711 H   0  0  0  0  0  0
  -24.8874  -32.2943   26.4747 H   0  0  0  0  0  0
  -25.7946  -30.8962   27.0216 H   0  0  0  0  0  0
  -26.2956  -29.6662   24.1270 H   0  0  0  0  0  0
  -27.3950  -29.7202   25.4842 H   0  0  0  0  0  0
  -27.8885  -30.4153   23.9600 H   0  0  0  0  0  0
  -27.2652  -33.3605   26.2029 H   0  0  0  0  0  0
  -28.3889  -32.6816   25.0340 H   0  0  0  0  0  0
  -28.0676  -31.8427   26.5450 H   0  0  0  0  0  0
  -28.2600  -38.0097   24.7502 H   0  0  0  0  0  0
  -28.1092  -36.2625   24.6306 H   0  0  0  0  0  0
  -27.2296  -37.1438   25.8868 H   0  0  0  0  0  0
  -20.9484  -29.8769   21.6774 H   0  0  0  0  0  0
  -26.0169  -38.2822   24.1396 H   0  0  0  0  0  0
  -30.4448  -16.9636   18.0467 H   0  0  0  0  0  0
  -30.3516  -18.5190   17.2397 H   0  0  0  0  0  0
  -28.8879  -17.5893   17.5278 H   0  0  0  0  0  0
  -26.0492  -24.1494   20.3436 H   0  0  0  0  0  0
  -26.2109  -25.1698   21.7777 H   0  0  0  0  0  0
  -26.6228  -23.4753   21.8480 H   0  0  0  0  0  0
  -28.9250  -24.0206   22.7451 H   0  0  0  0  0  0
  -28.5623  -25.7369   22.6711 H   0  0  0  0  0  0
  -29.9893  -25.1074   21.8612 H   0  0  0  0  0  0
  -28.5805  -15.9798   20.8156 H   0  0  0  0  0  0
  -29.7500  -16.2694   22.0254 H   0  0  0  0  0  0
  -28.5237  -22.1570   21.7166 H   0  0  0  0  0  0
  1 25  1  0  0  0
  1 30  2  0  0  0
  1 78  1  0  0  0
  2  3  1  0  0  0
  2 25  1  0  0  0
  2 84  1  0  0  0
  2 85  1  0  0  0
  3  4  1  0  0  0
  3 86  1  0  0  0
  3 87  1  0  0  0
  4  5  1  0  0  0
  4 88  1  0  0  0
  4 89  1  0  0  0
  5  6  1  0  0  0
  5 26  1  0  0  0
  5 90  1  0  0  0
  6 25  1  0  0  0
  6 91  1  0  0  0
  6 92  1  0  0  0
  7  8  2  0  0  0
  7 26  1  0  0  0
  7 29  1  0  0  0
  8  9  1  0  0  0
  8 22  1  0  0  0
  9 10  1  0  0  0
  9 27  2  0  0  0
 10 11  2  0  0  0
 10 15  1  0  0  0
 11 12  1  0  0  0
 11 93  1  0  0  0
 12 13  2  0  0  0
 12 94  1  0  0  0
 13 14  1  0  0  0
 13 31  1  0  0  0
 14 15  2  0  0  0
 14 95  1  0  0  0
 15 96  1  0  0  0
 16 17  2  0  0  0
 16 21  1  0  0  0
 16 31  1  0  0  0
 17 18  1  0  0  0
 17 97  1  0  0  0
 18 19  2  0  0  0
 18 98  1  0  0  0
 19 20  1  0  0  0
 19 24  1  0  0  0
 20 21  2  0  0  0
 20 99  1  0  0  0
 21 23  1  0  0  0
 22 28  1  0  0  0
 22 32  2  0  0  0
 26 27  1  0  0  0
 28100  1  0  0  0
 28101  1  0  0  0
 29102  1  0  0  0
 29103  1  0  0  0
 33 34  1  0  0  0
 33 66  1  0  0  0
 33 70  2  0  0  0
 34 36  1  0  0  0
 34 59  1  0  0  0
 34104  1  0  0  0
 35 44  2  0  0  0
 35 45  1  0  0  0
 35 68  1  0  0  0
 36 56  1  0  0  0
 36105  1  0  0  0
 37 39  1  0  0  0
 37 47  1  0  0  0
 37 66  1  0  0  0
 37106  1  0  0  0
 38 43  2  0  0  0
 38 46  1  0  0  0
 38 47  1  0  0  0
 39 64  1  0  0  0
 39 67  2  0  0  0
 40 52  1  0  0  0
 40 53  2  0  0  0
 40 58  1  0  0  0
 41107  1  0  0  0
 41108  1  0  0  0
 41109  1  0  0  0
 41 48  1  0  0  0
 42 43  1  0  0  0
 42 66  1  0  0  0
 42110  1  0  0  0
 42111  1  0  0  0
 43 44  1  0  0  0
 44112  1  0  0  0
 45 46  2  0  0  0
 45113  1  0  0  0
 46114  1  0  0  0
 47115  1  0  0  0
 47116  1  0  0  0
 48 56  1  0  0  0
 48 65  1  0  0  0
 48117  1  0  0  0
 49 50  1  0  0  0
 49 53  1  0  0  0
 49 64  1  0  0  0
 49118  1  0  0  0
 50 51  1  0  0  0
 50119  1  0  0  0
 50120  1  0  0  0
 51 52  1  0  0  0
 51121  1  0  0  0
 51122  1  0  0  0
 52123  1  0  0  0
 52124  1  0  0  0
 53 54  1  0  0  0
 54 55  2  0  0  0
 54125  1  0  0  0
 55 57  1  0  0  0
 55126  1  0  0  0
 56 69  2  0  0  0
 57 58  2  0  0  0
 57127  1  0  0  0
 58128  1  0  0  0
 59 60  1  0  0  0
 59 61  1  0  0  0
 59 62  1  0  0  0
 60129  1  0  0  0
 60130  1  0  0  0
 60131  1  0  0  0
 61132  1  0  0  0
 61133  1  0  0  0
 61134  1  0  0  0
 62135  1  0  0  0
 62136  1  0  0  0
 62137  1  0  0  0
 63 65  1  0  0  0
 63138  1  0  0  0
 63139  1  0  0  0
 63140  1  0  0  0
 64141  1  0  0  0
 65142  1  0  0  0
 68 79  1  0  0  0
 71 72  2  0  0  0
 71 75  1  0  0  0
 71 80  1  0  0  0
 72 78  1  0  0  0
 72 83  1  0  0  0
 73 80  2  0  0  0
 73 81  1  0  0  0
 73 83  1  0  0  0
 74 79  1  0  0  0
 74 81  1  0  0  0
 74 82  2  0  0  0
 75143  1  0  0  0
 75144  1  0  0  0
 75145  1  0  0  0
 76146  1  0  0  0
 76147  1  0  0  0
 76148  1  0  0  0
 76 79  1  0  0  0
 77 79  1  0  0  0
 77149  1  0  0  0
 77150  1  0  0  0
 77151  1  0  0  0
 78152  1  0  0  0
 78153  1  0  0  0
 81154  1  0  0  0
M  ISO  4   1 100  68 101  78 100  79 101
M  END
> <chiral flag>
0

> <version>
0

> <s_m_source_file>
/data/baiqing/PycharmProjects/Reinvent-master-3.2/result/LINK_invent/BTK/process_docking_weight1_custom_product_contain_oxygen_bond_distance_aromatic_linkinvent_7_9_3/rearranged_h_0184.sdf

> <i_m_source_file_index>
21

> <r_mmod_Potential_Energy-OPLS-2005>
444.089782714844

> <r_mmod_Stretch_Energy-OPLS-2005>
258.565338134766

> <r_mmod_Bend_Energy-OPLS-2005>
296.167175292969

> <r_mmod_Torsional_Energy-OPLS-2005>
215.204040527344

> <r_mmod_Improper_Torsional_Energy-OPLS-2005>
3.11637091636658

> <r_mmod_Van_der_Waal_Energy-OPLS-2005>
106.026756286621

> <r_mmod_Electrostatic_Energy-OPLS-2005>
-390.662078857422

> <r_mmod_Solvation_Energy-OPLS-2005>
-243.861328125

> <b_mmod_Minimization_Converged-OPLS-2005>
0

> <r_mmod_RMS_Derivative-OPLS-2005>
1.42216062545776

$$$$
21
                    3D
 Structure written by MMmdl.
150158  0  0  1  0            999 V2000
  -30.4875  -15.0615   20.3902 C   0  0  0  0  0  0
  -30.4373  -12.6621   19.5048 C   0  0  0  0  0  0
  -29.5296  -12.5437   18.2566 C   0  0  0  0  0  0
  -28.0579  -12.3305   18.6618 C   0  0  0  0  0  0
  -27.6202  -13.2596   19.8262 C   0  0  2  0  0  0
  -28.6602  -13.3244   20.9646 C   0  0  0  0  0  0
  -25.2413  -13.8210   20.5726 C   0  0  0  0  0  0
  -24.1765  -13.0415   20.9230 C   0  0  0  0  0  0
  -24.6404  -11.6907   20.8723 C   0  0  0  0  0  0
  -23.9095  -10.4273   21.0377 C   0  0  0  0  0  0
  -24.3633   -9.4196   21.9174 C   0  0  0  0  0  0
  -23.6298   -8.2236   22.0760 C   0  0  0  0  0  0
  -22.4283   -8.0277   21.3545 C   0  0  0  0  0  0
  -21.9915   -9.0251   20.4656 C   0  0  0  0  0  0
  -22.7248  -10.2122   20.3048 C   0  0  0  0  0  0
  -21.6837   -6.0734   22.5291 C   0  0  0  0  0  0
  -21.4025   -6.5644   23.8229 C   0  0  0  0  0  0
  -21.3659   -5.6794   24.9182 C   0  0  0  0  0  0
  -21.6037   -4.3054   24.7227 C   0  0  0  0  0  0
  -21.8817   -3.8152   23.4346 C   0  0  0  0  0  0
  -21.9194   -4.6966   22.3411 C   0  0  0  0  0  0
  -22.7771  -13.5157   21.1895 C   0  0  0  0  0  0
  -22.1649   -4.2150   21.0983 F   0  0  0  0  0  0
  -21.5617   -3.4548   25.7744 F   0  0  0  0  0  0
  -29.9180  -13.7778   20.3593 N   0  0  0  0  0  0
  -26.2838  -12.9478   20.3167 N   0  0  0  0  0  0
  -25.9333  -11.6587   20.5655 N   0  0  0  0  0  0
  -22.0422  -12.8157   22.0447 N   0  0  0  0  0  0
  -25.4012  -15.1965   20.4222 N   0  0  0  0  0  0
  -31.7044  -15.0809   20.1659 O   0  0  0  0  0  0
  -21.6634   -6.8875   21.4255 O   0  0  0  0  0  0
  -22.3460  -14.5456   20.6718 O   0  0  0  0  0  0
  -24.6527  -31.8338   23.1819 C   0  0  0  0  0  0
  -25.9261  -32.4634   23.8226 C   0  0  1  0  0  0
  -27.1927  -27.0253   20.1724 C   0  0  0  0  0  0
  -25.5979  -33.8438   24.2138 N   0  0  0  0  0  0
  -23.4599  -30.4522   21.5297 C   0  0  2  0  0  0
  -24.9067  -28.8649   20.1086 C   0  0  0  0  0  0
  -22.7612  -29.4490   22.4834 C   0  0  0  0  0  0
  -18.0312  -28.1406   22.8461 C   0  0  0  0  0  0
  -24.1488  -36.7227   23.2646 C   0  0  0  0  0  0
  -26.0245  -30.6734   21.3977 C   0  0  0  0  0  0
  -26.0888  -29.2746   20.7392 C   0  0  0  0  0  0
  -27.2330  -28.3738   20.7478 C   0  0  0  0  0  0
  -25.9894  -26.7497   19.4878 C   0  0  0  0  0  0
  -24.8768  -27.6206   19.4626 C   0  0  0  0  0  0
  -23.6919  -29.7825   20.1482 C   0  0  0  0  0  0
  -25.4131  -36.2993   24.0300 C   0  0  1  0  0  0
  -20.5940  -28.3731   23.1210 C   0  0  2  0  0  0
  -20.6811  -26.9428   22.5395 C   0  0  0  0  0  0
  -19.5793  -26.6387   21.5207 C   0  0  0  0  0  0
  -18.1953  -26.7941   22.1592 C   0  0  0  0  0  0
  -19.1579  -28.8880   23.2833 C   0  0  0  0  0  0
  -18.9496  -30.1480   23.8853 C   0  0  0  0  0  0
  -17.6484  -30.6588   24.0553 C   0  0  0  0  0  0
  -25.9085  -34.9366   23.5032 C   0  0  0  0  0  0
  -16.5380  -29.9088   23.6335 C   0  0  0  0  0  0
  -16.7294  -28.6510   23.0362 C   0  0  0  0  0  0
  -26.4556  -31.6539   25.0710 C   0  0  0  0  0  0
  -25.3727  -31.3765   26.1405 C   0  0  0  0  0  0
  -27.0427  -30.2907   24.6372 C   0  0  0  0  0  0
  -27.6053  -32.4343   25.7525 C   0  0  0  0  0  0
  -27.5563  -37.1785   24.8465 C   0  0  0  0  0  0
  -21.4299  -29.3057   22.3587 N   0  0  0  0  0  0
  -26.4279  -37.3725   23.9406 N   0  0  0  0  0  0
  -24.7332  -31.0103   22.0908 N   0  0  0  0  0  0
  -23.4206  -28.8033   23.3031 O   0  0  0  0  0  0
  -28.2013  -25.9622   20.2243 O   0  0  0  0  0  0
  -26.5668  -34.8881   22.4609 O   0  0  0  0  0  0
  -23.5627  -32.1265   23.6981 O   0  0  0  0  0  0
  -30.7908  -18.3392   19.3707 C   0  0  0  0  0  0
  -29.8406  -17.8171   20.2369 C   0  0  0  0  0  0
  -29.3124  -20.3133   20.2132 C   0  0  0  0  0  0
  -28.8402  -23.0787   20.1267 C   0  0  0  0  0  0
  -31.7993  -17.5915   18.5601 C   0  0  0  0  0  0
  -27.4343  -24.3339   21.9581 C   0  0  0  0  0  0
  -27.8422  -24.4163   20.4766 C   0  0  1  0  0  0
  -29.0033  -18.9972   20.6644 N   0  0  0  0  0  0
  -29.6915  -16.2716   20.5146 N   0  0  0  0  0  0
  -28.6006  -21.6875   20.4724 N   0  0  0  0  0  0
  -29.8670  -23.3462   19.4960 O   0  0  0  0  0  0
  -30.7291  -20.1224   19.1764 S   0  0  0  0  0  0
  -31.4665  -12.8392   19.1879 H   0  0  0  0  0  0
  -30.4599  -11.7206   20.0577 H   0  0  0  0  0  0
  -29.8643  -11.7245   17.6163 H   0  0  0  0  0  0
  -29.6190  -13.4525   17.6584 H   0  0  0  0  0  0
  -27.9465  -11.2855   18.9522 H   0  0  0  0  0  0
  -27.4095  -12.4732   17.7960 H   0  0  0  0  0  0
  -27.5633  -14.2556   19.3880 H   0  0  0  0  0  0
  -28.7729  -12.3532   21.4522 H   0  0  0  0  0  0
  -28.3435  -14.0274   21.7364 H   0  0  0  0  0  0
  -25.2769   -9.5663   22.4756 H   0  0  0  0  0  0
  -23.9999   -7.4613   22.7487 H   0  0  0  0  0  0
  -21.0834   -8.8752   19.8976 H   0  0  0  0  0  0
  -22.3681  -10.9655   19.6164 H   0  0  0  0  0  0
  -21.2024   -7.6158   23.9729 H   0  0  0  0  0  0
  -21.1480   -6.0524   25.9082 H   0  0  0  0  0  0
  -22.0600   -2.7618   23.2843 H   0  0  0  0  0  0
  -22.4037  -11.9854   22.4896 H   0  0  0  0  0  0
  -21.1040  -13.1208   22.2649 H   0  0  0  0  0  0
  -24.6254  -15.8355   20.5590 H   0  0  0  0  0  0
  -26.2292  -15.6551   20.0676 H   0  0  0  0  0  0
  -26.7308  -32.5179   23.0932 H   0  0  0  0  0  0
  -25.0117  -33.9529   25.0275 H   0  0  0  0  0  0
  -22.7641  -31.2797   21.3726 H   0  0  0  0  0  0
  -23.3734  -35.9565   23.3316 H   0  0  0  0  0  0
  -24.3562  -36.8857   22.2053 H   0  0  0  0  0  0
  -23.7249  -37.6426   23.6689 H   0  0  0  0  0  0
  -26.1938  -31.4177   20.6193 H   0  0  0  0  0  0
  -26.8883  -30.7241   22.0469 H   0  0  0  0  0  0
  -28.1321  -28.6839   21.2625 H   0  0  0  0  0  0
  -25.8744  -25.8097   18.9688 H   0  0  0  0  0  0
  -23.9823  -27.3096   18.9410 H   0  0  0  0  0  0
  -23.8392  -30.5579   19.3956 H   0  0  0  0  0  0
  -22.8011  -29.2360   19.8327 H   0  0  0  0  0  0
  -25.1329  -36.1811   25.0789 H   0  0  0  0  0  0
  -21.0003  -28.3315   24.1339 H   0  0  0  0  0  0
  -20.5707  -26.2351   23.3622 H   0  0  0  0  0  0
  -21.6671  -26.7413   22.1185 H   0  0  0  0  0  0
  -19.6948  -25.6292   21.1237 H   0  0  0  0  0  0
  -19.6738  -27.3191   20.6730 H   0  0  0  0  0  0
  -17.4249  -26.6678   21.3971 H   0  0  0  0  0  0
  -18.0333  -26.0093   22.9003 H   0  0  0  0  0  0
  -19.7960  -30.7320   24.2220 H   0  0  0  0  0  0
  -17.5029  -31.6255   24.5165 H   0  0  0  0  0  0
  -15.5378  -30.2978   23.7713 H   0  0  0  0  0  0
  -15.8687  -28.0815   22.7116 H   0  0  0  0  0  0
  -24.5904  -30.7115   25.7759 H   0  0  0  0  0  0
  -24.8931  -32.2959   26.4769 H   0  0  0  0  0  0
  -25.8017  -30.8996   27.0228 H   0  0  0  0  0  0
  -26.3078  -29.6622   24.1341 H   0  0  0  0  0  0
  -27.3945  -29.7240   25.5005 H   0  0  0  0  0  0
  -27.9027  -30.4104   23.9777 H   0  0  0  0  0  0
  -27.2589  -33.3653   26.2036 H   0  0  0  0  0  0
  -28.3909  -32.6901   25.0399 H   0  0  0  0  0  0
  -28.0664  -31.8515   26.5511 H   0  0  0  0  0  0
  -28.2594  -38.0070   24.7478 H   0  0  0  0  0  0
  -28.1051  -36.2596   24.6347 H   0  0  0  0  0  0
  -27.2269  -37.1485   25.8866 H   0  0  0  0  0  0
  -20.9525  -29.8745   21.6726 H   0  0  0  0  0  0
  -26.0127  -38.2784   24.1408 H   0  0  0  0  0  0
  -32.6261  -17.2446   19.1781 H   0  0  0  0  0  0
  -32.2237  -18.2144   17.7738 H   0  0  0  0  0  0
  -31.3439  -16.7281   18.0739 H   0  0  0  0  0  0
  -26.5770  -24.9715   22.1720 H   0  0  0  0  0  0
  -28.2524  -24.6529   22.6047 H   0  0  0  0  0  0
  -27.1558  -23.3206   22.2492 H   0  0  0  0  0  0
  -26.9460  -24.1998   19.8972 H   0  0  0  0  0  0
  -28.7526  -16.0380   20.7962 H   0  0  0  0  0  0
  -27.7489  -21.5761   21.0011 H   0  0  0  0  0  0
  1 25  1  0  0  0
  1 30  2  0  0  0
  1 79  1  0  0  0
  2  3  1  0  0  0
  2 25  1  0  0  0
  2 83  1  0  0  0
  2 84  1  0  0  0
  3  4  1  0  0  0
  3 85  1  0  0  0
  3 86  1  0  0  0
  4  5  1  0  0  0
  4 87  1  0  0  0
  4 88  1  0  0  0
  5  6  1  0  0  0
  5 26  1  0  0  0
  5 89  1  0  0  0
  6 25  1  0  0  0
  6 90  1  0  0  0
  6 91  1  0  0  0
  7  8  2  0  0  0
  7 26  1  0  0  0
  7 29  1  0  0  0
  8  9  1  0  0  0
  8 22  1  0  0  0
  9 10  1  0  0  0
  9 27  2  0  0  0
 10 11  2  0  0  0
 10 15  1  0  0  0
 11 12  1  0  0  0
 11 92  1  0  0  0
 12 13  2  0  0  0
 12 93  1  0  0  0
 13 14  1  0  0  0
 13 31  1  0  0  0
 14 15  2  0  0  0
 14 94  1  0  0  0
 15 95  1  0  0  0
 16 17  2  0  0  0
 16 21  1  0  0  0
 16 31  1  0  0  0
 17 18  1  0  0  0
 17 96  1  0  0  0
 18 19  2  0  0  0
 18 97  1  0  0  0
 19 20  1  0  0  0
 19 24  1  0  0  0
 20 21  2  0  0  0
 20 98  1  0  0  0
 21 23  1  0  0  0
 22 28  1  0  0  0
 22 32  2  0  0  0
 26 27  1  0  0  0
 28 99  1  0  0  0
 28100  1  0  0  0
 29101  1  0  0  0
 29102  1  0  0  0
 33 34  1  0  0  0
 33 66  1  0  0  0
 33 70  2  0  0  0
 34 36  1  0  0  0
 34 59  1  0  0  0
 34103  1  0  0  0
 35 44  2  0  0  0
 35 45  1  0  0  0
 35 68  1  0  0  0
 36 56  1  0  0  0
 36104  1  0  0  0
 37 39  1  0  0  0
 37 47  1  0  0  0
 37 66  1  0  0  0
 37105  1  0  0  0
 38 43  2  0  0  0
 38 46  1  0  0  0
 38 47  1  0  0  0
 39 64  1  0  0  0
 39 67  2  0  0  0
 40 52  1  0  0  0
 40 53  2  0  0  0
 40 58  1  0  0  0
 41106  1  0  0  0
 41107  1  0  0  0
 41108  1  0  0  0
 41 48  1  0  0  0
 42 43  1  0  0  0
 42 66  1  0  0  0
 42109  1  0  0  0
 42110  1  0  0  0
 43 44  1  0  0  0
 44111  1  0  0  0
 45 46  2  0  0  0
 45112  1  0  0  0
 46113  1  0  0  0
 47114  1  0  0  0
 47115  1  0  0  0
 48 56  1  0  0  0
 48 65  1  0  0  0
 48116  1  0  0  0
 49 50  1  0  0  0
 49 53  1  0  0  0
 49 64  1  0  0  0
 49117  1  0  0  0
 50 51  1  0  0  0
 50118  1  0  0  0
 50119  1  0  0  0
 51 52  1  0  0  0
 51120  1  0  0  0
 51121  1  0  0  0
 52122  1  0  0  0
 52123  1  0  0  0
 53 54  1  0  0  0
 54 55  2  0  0  0
 54124  1  0  0  0
 55 57  1  0  0  0
 55125  1  0  0  0
 56 69  2  0  0  0
 57 58  2  0  0  0
 57126  1  0  0  0
 58127  1  0  0  0
 59 60  1  0  0  0
 59 61  1  0  0  0
 59 62  1  0  0  0
 60128  1  0  0  0
 60129  1  0  0  0
 60130  1  0  0  0
 61131  1  0  0  0
 61132  1  0  0  0
 61133  1  0  0  0
 62134  1  0  0  0
 62135  1  0  0  0
 62136  1  0  0  0
 63 65  1  0  0  0
 63137  1  0  0  0
 63138  1  0  0  0
 63139  1  0  0  0
 64140  1  0  0  0
 65141  1  0  0  0
 68 77  1  0  0  0
 71 72  2  0  0  0
 71 75  1  0  0  0
 71 82  1  0  0  0
 72 78  1  0  0  0
 72 79  1  0  0  0
 73 78  2  0  0  0
 73 80  1  0  0  0
 73 82  1  0  0  0
 74 77  1  0  0  0
 74 80  1  0  0  0
 74 81  2  0  0  0
 75142  1  0  0  0
 75143  1  0  0  0
 75144  1  0  0  0
 76145  1  0  0  0
 76146  1  0  0  0
 76147  1  0  0  0
 76 77  1  0  0  0
 77148  1  0  0  0
 79149  1  0  0  0
 80150  1  0  0  0
M  ISO  4   1 100  68 101  77 101  79 100
M  END
> <chiral flag>
0

> <version>
0

> <s_m_source_file>
/data/baiqing/PycharmProjects/Reinvent-master-3.2/result/LINK_invent/BTK/process_docking_weight1_custom_product_contain_oxygen_bond_distance_aromatic_linkinvent_7_9_3/rearranged_h_0184.sdf

> <i_m_source_file_index>
22

> <r_mmod_Potential_Energy-OPLS-2005>
626.132019042969

> <r_mmod_Stretch_Energy-OPLS-2005>
364.366088867188

> <r_mmod_Bend_Energy-OPLS-2005>
301.428100585938

> <r_mmod_Torsional_Energy-OPLS-2005>
233.625762939453

> <r_mmod_Improper_Torsional_Energy-OPLS-2005>
3.70433783531189

> <r_mmod_Van_der_Waal_Energy-OPLS-2005>
109.340393066406

> <r_mmod_Electrostatic_Energy-OPLS-2005>
-438.559600830078

> <r_mmod_Solvation_Energy-OPLS-2005>
-239.402404785156

> <b_mmod_Minimization_Converged-OPLS-2005>
0

> <r_mmod_RMS_Derivative-OPLS-2005>
3.56448721885681

$$$$
22
                    3D
 Structure written by MMmdl.
156164  0  0  1  0            999 V2000
  -30.6210  -14.7478   20.4487 C   0  0  0  0  0  0
  -30.4279  -12.4536   19.4792 C   0  0  0  0  0  0
  -29.5100  -12.5105   18.2382 C   0  0  0  0  0  0
  -28.0361  -12.3348   18.6491 C   0  0  0  0  0  0
  -27.6415  -13.2350   19.8507 C   0  0  2  0  0  0
  -28.6855  -13.1763   20.9882 C   0  0  0  0  0  0
  -25.2507  -13.8205   20.5695 C   0  0  0  0  0  0
  -24.1802  -13.0442   20.9203 C   0  0  0  0  0  0
  -24.6398  -11.6921   20.8741 C   0  0  0  0  0  0
  -23.9076  -10.4295   21.0399 C   0  0  0  0  0  0
  -24.3627   -9.4212   21.9176 C   0  0  0  0  0  0
  -23.6301   -8.2250   22.0749 C   0  0  0  0  0  0
  -22.4284   -8.0286   21.3540 C   0  0  0  0  0  0
  -21.9918   -9.0256   20.4643 C   0  0  0  0  0  0
  -22.7246  -10.2134   20.3051 C   0  0  0  0  0  0
  -21.6859   -6.0739   22.5280 C   0  0  0  0  0  0
  -21.4019   -6.5642   23.8211 C   0  0  0  0  0  0
  -21.3659   -5.6794   24.9173 C   0  0  0  0  0  0
  -21.6046   -4.3057   24.7224 C   0  0  0  0  0  0
  -21.8819   -3.8149   23.4346 C   0  0  0  0  0  0
  -21.9196   -4.6968   22.3403 C   0  0  0  0  0  0
  -22.7824  -13.5215   21.1864 C   0  0  0  0  0  0
  -22.1661   -4.2151   21.0980 F   0  0  0  0  0  0
  -21.5627   -3.4540   25.7737 F   0  0  0  0  0  0
  -29.9893  -13.5225   20.4086 N   0  0  0  0  0  0
  -26.2936  -12.9418   20.3277 N   0  0  0  0  0  0
  -25.9331  -11.6556   20.5752 N   0  0  0  0  0  0
  -22.0483  -12.8198   22.0425 N   0  0  0  0  0  0
  -25.4198  -15.1929   20.4118 N   0  0  0  0  0  0
  -31.8091  -14.8162   20.1217 O   0  0  0  0  0  0
  -21.6651   -6.8883   21.4240 O   0  0  0  0  0  0
  -22.3504  -14.5518   20.6711 O   0  0  0  0  0  0
  -24.6333  -31.8548   23.1993 C   0  0  0  0  0  0
  -25.9154  -32.4752   23.8342 C   0  0  1  0  0  0
  -27.2146  -27.2467   20.1227 C   0  0  0  0  0  0
  -25.5943  -33.8555   24.2257 N   0  0  0  0  0  0
  -23.4306  -30.4794   21.5434 C   0  0  2  0  0  0
  -24.8771  -28.9304   20.1077 C   0  0  0  0  0  0
  -22.7515  -29.4601   22.4908 C   0  0  0  0  0  0
  -18.0298  -28.1396   22.8482 C   0  0  0  0  0  0
  -24.1490  -36.7281   23.2639 C   0  0  0  0  0  0
  -25.9798  -30.7607   21.3859 C   0  0  0  0  0  0
  -26.0498  -29.3840   20.7242 C   0  0  0  0  0  0
  -27.2197  -28.5534   20.7253 C   0  0  0  0  0  0
  -26.0207  -26.8799   19.4565 C   0  0  0  0  0  0
  -24.8689  -27.6870   19.4635 C   0  0  0  0  0  0
  -23.6492  -29.8188   20.1580 C   0  0  0  0  0  0
  -25.4118  -36.3066   24.0322 C   0  0  1  0  0  0
  -20.5902  -28.3709   23.1260 C   0  0  2  0  0  0
  -20.6786  -26.9423   22.5405 C   0  0  0  0  0  0
  -19.5759  -26.6388   21.5212 C   0  0  0  0  0  0
  -18.1940  -26.7937   22.1625 C   0  0  0  0  0  0
  -19.1551  -28.8868   23.2869 C   0  0  0  0  0  0
  -18.9469  -30.1469   23.8885 C   0  0  0  0  0  0
  -17.6467  -30.6590   24.0564 C   0  0  0  0  0  0
  -25.9060  -34.9438   23.5092 C   0  0  0  0  0  0
  -16.5359  -29.9083   23.6336 C   0  0  0  0  0  0
  -16.7284  -28.6507   23.0347 C   0  0  0  0  0  0
  -26.4508  -31.6585   25.0742 C   0  0  0  0  0  0
  -25.3720  -31.3741   26.1453 C   0  0  0  0  0  0
  -27.0364  -30.2996   24.6260 C   0  0  0  0  0  0
  -27.6058  -32.4333   25.7517 C   0  0  0  0  0  0
  -27.5581  -37.1798   24.8464 C   0  0  0  0  0  0
  -21.4220  -29.3050   22.3646 N   0  0  0  0  0  0
  -26.4294  -37.3766   23.9405 N   0  0  0  0  0  0
  -24.7002  -31.0496   22.0986 N   0  0  0  0  0  0
  -23.4208  -28.8137   23.3009 O   0  0  0  0  0  0
  -28.2870  -26.3187   20.2043 O   0  0  0  0  0  0
  -26.5634  -34.8911   22.4664 O   0  0  0  0  0  0
  -23.5479  -32.1383   23.7274 O   0  0  0  0  0  0
  -31.0610  -19.5221   19.5613 C   0  0  0  0  0  0
  -29.9058  -19.7067   20.2981 C   0  0  0  0  0  0
  -30.1634  -17.3132   20.3707 C   0  0  0  0  0  0
  -28.8920  -23.6687   20.4395 C   0  0  0  0  0  0
  -31.9801  -20.5598   19.0022 C   0  0  0  0  0  0
  -27.2113  -21.8213   19.8830 C   0  0  0  0  0  0
  -29.2074  -22.1397   18.4321 C   0  0  0  0  0  0
  -28.0080  -24.8758   19.8438 C   0  0  0  0  0  0
  -28.7191  -22.1446   19.8960 C   0  0  0  0  0  0
  -29.4338  -18.4174   20.7646 N   0  0  0  0  0  0
  -29.3789  -21.0198   20.6963 N   0  0  0  0  0  0
  -29.8677  -15.8920   20.6914 N   0  0  0  0  0  0
  -29.7109  -23.8959   21.3360 O   0  0  0  0  0  0
  -31.5079  -17.8295   19.3602 S   0  0  0  0  0  0
  -31.4709  -12.5634   19.1774 H   0  0  0  0  0  0
  -30.3611  -11.4780   19.9633 H   0  0  0  0  0  0
  -29.7925  -11.7381   17.5217 H   0  0  0  0  0  0
  -29.6390  -13.4658   17.7267 H   0  0  0  0  0  0
  -27.8915  -11.2856   18.9099 H   0  0  0  0  0  0
  -27.3801  -12.5297   17.8001 H   0  0  0  0  0  0
  -27.6331  -14.2555   19.4677 H   0  0  0  0  0  0
  -28.7178  -12.1819   21.4354 H   0  0  0  0  0  0
  -28.4184  -13.8642   21.7921 H   0  0  0  0  0  0
  -25.2772   -9.5694   22.4752 H   0  0  0  0  0  0
  -24.0015   -7.4646   22.7467 H   0  0  0  0  0  0
  -21.0853   -8.8767   19.8950 H   0  0  0  0  0  0
  -22.3695  -10.9671   19.6164 H   0  0  0  0  0  0
  -21.2012   -7.6150   23.9712 H   0  0  0  0  0  0
  -21.1480   -6.0527   25.9074 H   0  0  0  0  0  0
  -22.0599   -2.7613   23.2847 H   0  0  0  0  0  0
  -22.4110  -11.9863   22.4814 H   0  0  0  0  0  0
  -21.1095  -13.1207   22.2625 H   0  0  0  0  0  0
  -24.6513  -15.8460   20.5205 H   0  0  0  0  0  0
  -26.2656  -15.6342   20.0747 H   0  0  0  0  0  0
  -26.7221  -32.5385   23.1082 H   0  0  0  0  0  0
  -25.0085  -33.9693   25.0398 H   0  0  0  0  0  0
  -22.7284  -31.3031   21.3995 H   0  0  0  0  0  0
  -23.3754  -35.9612   23.3297 H   0  0  0  0  0  0
  -24.3581  -36.8910   22.2055 H   0  0  0  0  0  0
  -23.7241  -37.6478   23.6670 H   0  0  0  0  0  0
  -26.1262  -31.5219   20.6184 H   0  0  0  0  0  0
  -26.8544  -30.8049   22.0231 H   0  0  0  0  0  0
  -28.1122  -28.8902   21.2338 H   0  0  0  0  0  0
  -25.9317  -25.9427   18.9286 H   0  0  0  0  0  0
  -23.9742  -27.3389   18.9648 H   0  0  0  0  0  0
  -23.7759  -30.5980   19.4056 H   0  0  0  0  0  0
  -22.7666  -29.2552   19.8500 H   0  0  0  0  0  0
  -25.1302  -36.1915   25.0815 H   0  0  0  0  0  0
  -21.0000  -28.3289   24.1380 H   0  0  0  0  0  0
  -20.5691  -26.2317   23.3614 H   0  0  0  0  0  0
  -21.6651  -26.7447   22.1193 H   0  0  0  0  0  0
  -19.6915  -25.6295   21.1249 H   0  0  0  0  0  0
  -19.6693  -27.3193   20.6737 H   0  0  0  0  0  0
  -17.4208  -26.6688   21.4028 H   0  0  0  0  0  0
  -18.0337  -26.0084   22.9027 H   0  0  0  0  0  0
  -19.7943  -30.7294   24.2244 H   0  0  0  0  0  0
  -17.5015  -31.6267   24.5173 H   0  0  0  0  0  0
  -15.5357  -30.2977   23.7667 H   0  0  0  0  0  0
  -15.8689  -28.0822   22.7062 H   0  0  0  0  0  0
  -24.5896  -30.7093   25.7771 H   0  0  0  0  0  0
  -24.8910  -32.2912   26.4867 H   0  0  0  0  0  0
  -25.8021  -30.8919   27.0241 H   0  0  0  0  0  0
  -26.2963  -29.6734   24.1262 H   0  0  0  0  0  0
  -27.4005  -29.7272   25.4803 H   0  0  0  0  0  0
  -27.8861  -30.4257   23.9545 H   0  0  0  0  0  0
  -27.2661  -33.3634   26.2087 H   0  0  0  0  0  0
  -28.3871  -32.6893   25.0349 H   0  0  0  0  0  0
  -28.0726  -31.8468   26.5441 H   0  0  0  0  0  0
  -28.2594  -38.0099   24.7512 H   0  0  0  0  0  0
  -28.1082  -36.2630   24.6292 H   0  0  0  0  0  0
  -27.2299  -37.1444   25.8868 H   0  0  0  0  0  0
  -20.9413  -29.8769   21.6844 H   0  0  0  0  0  0
  -26.0170  -38.2841   24.1403 H   0  0  0  0  0  0
  -31.9105  -21.4928   19.5617 H   0  0  0  0  0  0
  -31.7508  -20.7631   17.9563 H   0  0  0  0  0  0
  -33.0182  -20.2303   19.0543 H   0  0  0  0  0  0
  -26.6471  -22.5004   19.2419 H   0  0  0  0  0  0
  -26.7782  -21.8843   20.8826 H   0  0  0  0  0  0
  -27.0234  -20.8128   19.5115 H   0  0  0  0  0  0
  -28.5966  -22.7873   17.8020 H   0  0  0  0  0  0
  -29.1607  -21.1461   17.9856 H   0  0  0  0  0  0
  -30.2268  -22.5119   18.3438 H   0  0  0  0  0  0
  -26.9969  -24.6364   20.1701 H   0  0  0  0  0  0
  -28.0138  -24.7936   18.7572 H   0  0  0  0  0  0
  -28.9617  -20.9800   21.6202 H   0  0  0  0  0  0
  -28.9389  -15.7193   21.0396 H   0  0  0  0  0  0
  1 25  1  0  0  0
  1 30  2  0  0  0
  1 82  1  0  0  0
  2  3  1  0  0  0
  2 25  1  0  0  0
  2 85  1  0  0  0
  2 86  1  0  0  0
  3  4  1  0  0  0
  3 87  1  0  0  0
  3 88  1  0  0  0
  4  5  1  0  0  0
  4 89  1  0  0  0
  4 90  1  0  0  0
  5  6  1  0  0  0
  5 26  1  0  0  0
  5 91  1  0  0  0
  6 25  1  0  0  0
  6 92  1  0  0  0
  6 93  1  0  0  0
  7  8  2  0  0  0
  7 26  1  0  0  0
  7 29  1  0  0  0
  8  9  1  0  0  0
  8 22  1  0  0  0
  9 10  1  0  0  0
  9 27  2  0  0  0
 10 11  2  0  0  0
 10 15  1  0  0  0
 11 12  1  0  0  0
 11 94  1  0  0  0
 12 13  2  0  0  0
 12 95  1  0  0  0
 13 14  1  0  0  0
 13 31  1  0  0  0
 14 15  2  0  0  0
 14 96  1  0  0  0
 15 97  1  0  0  0
 16 17  2  0  0  0
 16 21  1  0  0  0
 16 31  1  0  0  0
 17 18  1  0  0  0
 17 98  1  0  0  0
 18 19  2  0  0  0
 18 99  1  0  0  0
 19 20  1  0  0  0
 19 24  1  0  0  0
 20 21  2  0  0  0
 20100  1  0  0  0
 21 23  1  0  0  0
 22 28  1  0  0  0
 22 32  2  0  0  0
 26 27  1  0  0  0
 28101  1  0  0  0
 28102  1  0  0  0
 29103  1  0  0  0
 29104  1  0  0  0
 33 34  1  0  0  0
 33 66  1  0  0  0
 33 70  2  0  0  0
 34 36  1  0  0  0
 34 59  1  0  0  0
 34105  1  0  0  0
 35 44  2  0  0  0
 35 45  1  0  0  0
 35 68  1  0  0  0
 36 56  1  0  0  0
 36106  1  0  0  0
 37 39  1  0  0  0
 37 47  1  0  0  0
 37 66  1  0  0  0
 37107  1  0  0  0
 38 43  2  0  0  0
 38 46  1  0  0  0
 38 47  1  0  0  0
 39 64  1  0  0  0
 39 67  2  0  0  0
 40 52  1  0  0  0
 40 53  2  0  0  0
 40 58  1  0  0  0
 41108  1  0  0  0
 41109  1  0  0  0
 41110  1  0  0  0
 41 48  1  0  0  0
 42 43  1  0  0  0
 42 66  1  0  0  0
 42111  1  0  0  0
 42112  1  0  0  0
 43 44  1  0  0  0
 44113  1  0  0  0
 45 46  2  0  0  0
 45114  1  0  0  0
 46115  1  0  0  0
 47116  1  0  0  0
 47117  1  0  0  0
 48 56  1  0  0  0
 48 65  1  0  0  0
 48118  1  0  0  0
 49 50  1  0  0  0
 49 53  1  0  0  0
 49 64  1  0  0  0
 49119  1  0  0  0
 50 51  1  0  0  0
 50120  1  0  0  0
 50121  1  0  0  0
 51 52  1  0  0  0
 51122  1  0  0  0
 51123  1  0  0  0
 52124  1  0  0  0
 52125  1  0  0  0
 53 54  1  0  0  0
 54 55  2  0  0  0
 54126  1  0  0  0
 55 57  1  0  0  0
 55127  1  0  0  0
 56 69  2  0  0  0
 57 58  2  0  0  0
 57128  1  0  0  0
 58129  1  0  0  0
 59 60  1  0  0  0
 59 61  1  0  0  0
 59 62  1  0  0  0
 60130  1  0  0  0
 60131  1  0  0  0
 60132  1  0  0  0
 61133  1  0  0  0
 61134  1  0  0  0
 61135  1  0  0  0
 62136  1  0  0  0
 62137  1  0  0  0
 62138  1  0  0  0
 63 65  1  0  0  0
 63139  1  0  0  0
 63140  1  0  0  0
 63141  1  0  0  0
 64142  1  0  0  0
 65143  1  0  0  0
 68 78  1  0  0  0
 71 72  2  0  0  0
 71 75  1  0  0  0
 71 84  1  0  0  0
 72 80  1  0  0  0
 72 81  1  0  0  0
 73 80  2  0  0  0
 73 82  1  0  0  0
 73 84  1  0  0  0
 74 78  1  0  0  0
 74 79  1  0  0  0
 74 83  2  0  0  0
 75144  1  0  0  0
 75145  1  0  0  0
 75146  1  0  0  0
 76147  1  0  0  0
 76148  1  0  0  0
 76149  1  0  0  0
 76 79  1  0  0  0
 77 79  1  0  0  0
 77150  1  0  0  0
 77151  1  0  0  0
 77152  1  0  0  0
 78153  1  0  0  0
 78154  1  0  0  0
 79 81  1  0  0  0
 81155  1  0  0  0
 82156  1  0  0  0
M  ISO  4   1 100  68 101  78 101  82 100
M  END
> <chiral flag>
0

> <version>
0

> <s_m_source_file>
/data/baiqing/PycharmProjects/Reinvent-master-3.2/result/LINK_invent/BTK/process_docking_weight1_custom_product_contain_oxygen_bond_distance_aromatic_linkinvent_7_9_3/rearranged_h_0184.sdf

> <i_m_source_file_index>
23

> <r_mmod_Potential_Energy-OPLS-2005>
112.072784423828

> <r_mmod_Stretch_Energy-OPLS-2005>
131.173309326172

> <r_mmod_Bend_Energy-OPLS-2005>
174.746795654297

> <r_mmod_Torsional_Energy-OPLS-2005>
233.036575317383

> <r_mmod_Improper_Torsional_Energy-OPLS-2005>
7.66964530944824

> <r_mmod_Van_der_Waal_Energy-OPLS-2005>
125.400001525879

> <r_mmod_Electrostatic_Energy-OPLS-2005>
-413.922668457031

> <r_mmod_Solvation_Energy-OPLS-2005>
-238.829605102539

> <b_mmod_Minimization_Converged-OPLS-2005>
0

> <r_mmod_RMS_Derivative-OPLS-2005>
0.785038471221924

$$$$
23
                    3D
 Structure written by MMmdl.
156164  0  0  1  0            999 V2000
  -30.6448  -14.7218   20.4773 C   0  0  0  0  0  0
  -30.4257  -12.4476   19.4667 C   0  0  0  0  0  0
  -29.5040  -12.5028   18.2304 C   0  0  0  0  0  0
  -28.0322  -12.3289   18.6495 C   0  0  0  0  0  0
  -27.6410  -13.2329   19.8492 C   0  0  2  0  0  0
  -28.6872  -13.1733   20.9833 C   0  0  0  0  0  0
  -25.2513  -13.8205   20.5708 C   0  0  0  0  0  0
  -24.1804  -13.0447   20.9215 C   0  0  0  0  0  0
  -24.6397  -11.6925   20.8756 C   0  0  0  0  0  0
  -23.9076  -10.4298   21.0414 C   0  0  0  0  0  0
  -24.3628   -9.4212   21.9189 C   0  0  0  0  0  0
  -23.6302   -8.2247   22.0756 C   0  0  0  0  0  0
  -22.4284   -8.0286   21.3546 C   0  0  0  0  0  0
  -21.9921   -9.0261   20.4648 C   0  0  0  0  0  0
  -22.7251  -10.2140   20.3060 C   0  0  0  0  0  0
  -21.6853   -6.0743   22.5281 C   0  0  0  0  0  0
  -21.4012   -6.5646   23.8216 C   0  0  0  0  0  0
  -21.3658   -5.6798   24.9177 C   0  0  0  0  0  0
  -21.6045   -4.3060   24.7227 C   0  0  0  0  0  0
  -21.8819   -3.8152   23.4347 C   0  0  0  0  0  0
  -21.9194   -4.6969   22.3405 C   0  0  0  0  0  0
  -22.7824  -13.5226   21.1870 C   0  0  0  0  0  0
  -22.1663   -4.2156   21.0982 F   0  0  0  0  0  0
  -21.5627   -3.4541   25.7738 F   0  0  0  0  0  0
  -29.9871  -13.5155   20.3946 N   0  0  0  0  0  0
  -26.2938  -12.9414   20.3291 N   0  0  0  0  0  0
  -25.9328  -11.6555   20.5765 N   0  0  0  0  0  0
  -22.0469  -12.8209   22.0421 N   0  0  0  0  0  0
  -25.4207  -15.1927   20.4123 N   0  0  0  0  0  0
  -31.8312  -14.7847   20.1444 O   0  0  0  0  0  0
  -21.6644   -6.8884   21.4242 O   0  0  0  0  0  0
  -22.3510  -14.5534   20.6721 O   0  0  0  0  0  0
  -24.6309  -31.8558   23.1989 C   0  0  0  0  0  0
  -25.9138  -32.4757   23.8333 C   0  0  1  0  0  0
  -27.2170  -27.2724   20.1336 C   0  0  0  0  0  0
  -25.5941  -33.8559   24.2260 N   0  0  0  0  0  0
  -23.4271  -30.4784   21.5420 C   0  0  2  0  0  0
  -24.8750  -28.9265   20.1107 C   0  0  0  0  0  0
  -22.7500  -29.4605   22.4913 C   0  0  0  0  0  0
  -18.0294  -28.1389   22.8489 C   0  0  0  0  0  0
  -24.1490  -36.7278   23.2636 C   0  0  0  0  0  0
  -25.9719  -30.7728   21.3769 C   0  0  0  0  0  0
  -26.0463  -29.3956   20.7206 C   0  0  0  0  0  0
  -27.2239  -28.5814   20.7198 C   0  0  0  0  0  0
  -26.0292  -26.8730   19.4854 C   0  0  0  0  0  0
  -24.8707  -27.6729   19.4809 C   0  0  0  0  0  0
  -23.6451  -29.8119   20.1582 C   0  0  0  0  0  0
  -25.4113  -36.3068   24.0328 C   0  0  1  0  0  0
  -20.5898  -28.3697   23.1272 C   0  0  2  0  0  0
  -20.6779  -26.9415   22.5408 C   0  0  0  0  0  0
  -19.5753  -26.6387   21.5214 C   0  0  0  0  0  0
  -18.1935  -26.7934   22.1627 C   0  0  0  0  0  0
  -19.1547  -28.8861   23.2875 C   0  0  0  0  0  0
  -18.9466  -30.1463   23.8890 C   0  0  0  0  0  0
  -17.6465  -30.6589   24.0564 C   0  0  0  0  0  0
  -25.9058  -34.9441   23.5094 C   0  0  0  0  0  0
  -16.5357  -29.9085   23.6334 C   0  0  0  0  0  0
  -16.7280  -28.6504   23.0354 C   0  0  0  0  0  0
  -26.4508  -31.6579   25.0717 C   0  0  0  0  0  0
  -25.3734  -31.3728   26.1439 C   0  0  0  0  0  0
  -27.0353  -30.2998   24.6195 C   0  0  0  0  0  0
  -27.6061  -32.4320   25.7492 C   0  0  0  0  0  0
  -27.5583  -37.1782   24.8457 C   0  0  0  0  0  0
  -21.4207  -29.3045   22.3658 N   0  0  0  0  0  0
  -26.4280  -37.3773   23.9425 N   0  0  0  0  0  0
  -24.6955  -31.0534   22.0958 N   0  0  0  0  0  0
  -23.4205  -28.8143   23.3008 O   0  0  0  0  0  0
  -28.2956  -26.3642   20.1663 O   0  0  0  0  0  0
  -26.5622  -34.8917   22.4659 O   0  0  0  0  0  0
  -23.5461  -32.1372   23.7293 O   0  0  0  0  0  0
  -30.2912  -19.3691   19.4740 C   0  0  0  0  0  0
  -29.9164  -18.6307   20.5904 C   0  0  0  0  0  0
  -29.1147  -21.1151   20.4825 C   0  0  0  0  0  0
  -28.8058  -23.7233   20.1450 C   0  0  0  0  0  0
  -31.1830  -18.8859   18.3709 C   0  0  0  0  0  0
  -31.7798  -18.4666   23.0207 C   0  0  0  0  0  0
  -28.0091  -24.9920   20.7132 C   0  0  0  0  0  0
  -30.5307  -17.2470   21.0848 C   0  0  1  0  0  0
  -30.9046  -17.2736   22.5955 C   0  0  0  0  0  0
  -29.8590  -20.7292   19.4333 N   0  0  0  0  0  0
  -28.5919  -22.4794   20.7205 N   0  0  0  0  0  0
  -29.9359  -15.8787   20.7637 N   0  0  0  0  0  0
  -29.5909  -23.8881   19.2063 O   0  0  0  0  0  0
  -31.5972  -16.1802   22.9187 F   0  0  0  0  0  0
  -29.7895  -17.2729   23.3263 F   0  0  0  0  0  0
  -28.8366  -19.6894   21.5517 S   0  0  0  0  0  0
  -31.4671  -12.5603   19.1605 H   0  0  0  0  0  0
  -30.3631  -11.4729   19.9532 H   0  0  0  0  0  0
  -29.7831  -11.7277   17.5154 H   0  0  0  0  0  0
  -29.6313  -13.4564   17.7156 H   0  0  0  0  0  0
  -27.8911  -11.2808   18.9168 H   0  0  0  0  0  0
  -27.3718  -12.5171   17.8023 H   0  0  0  0  0  0
  -27.6349  -14.2532   19.4651 H   0  0  0  0  0  0
  -28.7210  -12.1800   21.4330 H   0  0  0  0  0  0
  -28.4263  -13.8644   21.7862 H   0  0  0  0  0  0
  -25.2773   -9.5689   22.4766 H   0  0  0  0  0  0
  -24.0013   -7.4637   22.7472 H   0  0  0  0  0  0
  -21.0853   -8.8783   19.8951 H   0  0  0  0  0  0
  -22.3712  -10.9682   19.6171 H   0  0  0  0  0  0
  -21.2001   -7.6153   23.9721 H   0  0  0  0  0  0
  -21.1477   -6.0527   25.9081 H   0  0  0  0  0  0
  -22.0596   -2.7615   23.2846 H   0  0  0  0  0  0
  -22.4087  -11.9869   22.4806 H   0  0  0  0  0  0
  -21.1087  -13.1229   22.2630 H   0  0  0  0  0  0
  -24.6528  -15.8459   20.5238 H   0  0  0  0  0  0
  -26.2669  -15.6331   20.0753 H   0  0  0  0  0  0
  -26.7201  -32.5414   23.1073 H   0  0  0  0  0  0
  -25.0102  -33.9696   25.0415 H   0  0  0  0  0  0
  -22.7239  -31.3007   21.3961 H   0  0  0  0  0  0
  -23.3761  -35.9598   23.3275 H   0  0  0  0  0  0
  -24.3589  -36.8923   22.2055 H   0  0  0  0  0  0
  -23.7227  -37.6466   23.6672 H   0  0  0  0  0  0
  -26.1090  -31.5339   20.6072 H   0  0  0  0  0  0
  -26.8501  -30.8227   22.0091 H   0  0  0  0  0  0
  -28.1210  -28.9342   21.2092 H   0  0  0  0  0  0
  -25.9842  -25.9146   18.9878 H   0  0  0  0  0  0
  -23.9764  -27.3110   18.9925 H   0  0  0  0  0  0
  -23.7690  -30.5878   19.4020 H   0  0  0  0  0  0
  -22.7638  -29.2445   19.8528 H   0  0  0  0  0  0
  -25.1290  -36.1904   25.0817 H   0  0  0  0  0  0
  -20.9992  -28.3272   24.1392 H   0  0  0  0  0  0
  -20.5687  -26.2304   23.3612 H   0  0  0  0  0  0
  -21.6645  -26.7443   22.1196 H   0  0  0  0  0  0
  -19.6913  -25.6296   21.1245 H   0  0  0  0  0  0
  -19.6690  -27.3195   20.6743 H   0  0  0  0  0  0
  -17.4204  -26.6685   21.4030 H   0  0  0  0  0  0
  -18.0334  -26.0076   22.9024 H   0  0  0  0  0  0
  -19.7941  -30.7286   24.2254 H   0  0  0  0  0  0
  -17.5017  -31.6268   24.5166 H   0  0  0  0  0  0
  -15.5356  -30.2984   23.7662 H   0  0  0  0  0  0
  -15.8681  -28.0821   22.7070 H   0  0  0  0  0  0
  -24.5913  -30.7072   25.7770 H   0  0  0  0  0  0
  -24.8919  -32.2896   26.4849 H   0  0  0  0  0  0
  -25.8054  -30.8918   27.0224 H   0  0  0  0  0  0
  -26.2929  -29.6745   24.1220 H   0  0  0  0  0  0
  -27.4039  -29.7261   25.4710 H   0  0  0  0  0  0
  -27.8810  -30.4275   23.9434 H   0  0  0  0  0  0
  -27.2667  -33.3628   26.2051 H   0  0  0  0  0  0
  -28.3882  -32.6868   25.0327 H   0  0  0  0  0  0
  -28.0718  -31.8456   26.5424 H   0  0  0  0  0  0
  -28.2559  -38.0120   24.7563 H   0  0  0  0  0  0
  -28.1119  -36.2655   24.6202 H   0  0  0  0  0  0
  -27.2314  -37.1329   25.8859 H   0  0  0  0  0  0
  -20.9391  -29.8768   21.6864 H   0  0  0  0  0  0
  -26.0154  -38.2835   24.1467 H   0  0  0  0  0  0
  -30.9183  -17.8739   18.0634 H   0  0  0  0  0  0
  -32.2274  -18.8736   18.6829 H   0  0  0  0  0  0
  -31.1124  -19.5198   17.4864 H   0  0  0  0  0  0
  -32.7055  -18.4971   22.4458 H   0  0  0  0  0  0
  -32.0519  -18.3897   24.0735 H   0  0  0  0  0  0
  -31.2824  -19.4254   22.8911 H   0  0  0  0  0  0
  -28.2155  -25.0399   21.7829 H   0  0  0  0  0  0
  -26.9500  -24.7468   20.6447 H   0  0  0  0  0  0
  -31.5009  -17.2200   20.5869 H   0  0  0  0  0  0
  -27.9490  -22.5208   21.4985 H   0  0  0  0  0  0
  -28.9519  -15.7715   20.9494 H   0  0  0  0  0  0
  1 25  1  0  0  0
  1 30  2  0  0  0
  1 82  1  0  0  0
  2  3  1  0  0  0
  2 25  1  0  0  0
  2 87  1  0  0  0
  2 88  1  0  0  0
  3  4  1  0  0  0
  3 89  1  0  0  0
  3 90  1  0  0  0
  4  5  1  0  0  0
  4 91  1  0  0  0
  4 92  1  0  0  0
  5  6  1  0  0  0
  5 26  1  0  0  0
  5 93  1  0  0  0
  6 25  1  0  0  0
  6 94  1  0  0  0
  6 95  1  0  0  0
  7  8  2  0  0  0
  7 26  1  0  0  0
  7 29  1  0  0  0
  8  9  1  0  0  0
  8 22  1  0  0  0
  9 10  1  0  0  0
  9 27  2  0  0  0
 10 11  2  0  0  0
 10 15  1  0  0  0
 11 12  1  0  0  0
 11 96  1  0  0  0
 12 13  2  0  0  0
 12 97  1  0  0  0
 13 14  1  0  0  0
 13 31  1  0  0  0
 14 15  2  0  0  0
 14 98  1  0  0  0
 15 99  1  0  0  0
 16 17  2  0  0  0
 16 21  1  0  0  0
 16 31  1  0  0  0
 17 18  1  0  0  0
 17100  1  0  0  0
 18 19  2  0  0  0
 18101  1  0  0  0
 19 20  1  0  0  0
 19 24  1  0  0  0
 20 21  2  0  0  0
 20102  1  0  0  0
 21 23  1  0  0  0
 22 28  1  0  0  0
 22 32  2  0  0  0
 26 27  1  0  0  0
 28103  1  0  0  0
 28104  1  0  0  0
 29105  1  0  0  0
 29106  1  0  0  0
 33 34  1  0  0  0
 33 66  1  0  0  0
 33 70  2  0  0  0
 34 36  1  0  0  0
 34 59  1  0  0  0
 34107  1  0  0  0
 35 44  2  0  0  0
 35 45  1  0  0  0
 35 68  1  0  0  0
 36 56  1  0  0  0
 36108  1  0  0  0
 37 39  1  0  0  0
 37 47  1  0  0  0
 37 66  1  0  0  0
 37109  1  0  0  0
 38 43  2  0  0  0
 38 46  1  0  0  0
 38 47  1  0  0  0
 39 64  1  0  0  0
 39 67  2  0  0  0
 40 52  1  0  0  0
 40 53  2  0  0  0
 40 58  1  0  0  0
 41110  1  0  0  0
 41111  1  0  0  0
 41112  1  0  0  0
 41 48  1  0  0  0
 42 43  1  0  0  0
 42 66  1  0  0  0
 42113  1  0  0  0
 42114  1  0  0  0
 43 44  1  0  0  0
 44115  1  0  0  0
 45 46  2  0  0  0
 45116  1  0  0  0
 46117  1  0  0  0
 47118  1  0  0  0
 47119  1  0  0  0
 48 56  1  0  0  0
 48 65  1  0  0  0
 48120  1  0  0  0
 49 50  1  0  0  0
 49 53  1  0  0  0
 49 64  1  0  0  0
 49121  1  0  0  0
 50 51  1  0  0  0
 50122  1  0  0  0
 50123  1  0  0  0
 51 52  1  0  0  0
 51124  1  0  0  0
 51125  1  0  0  0
 52126  1  0  0  0
 52127  1  0  0  0
 53 54  1  0  0  0
 54 55  2  0  0  0
 54128  1  0  0  0
 55 57  1  0  0  0
 55129  1  0  0  0
 56 69  2  0  0  0
 57 58  2  0  0  0
 57130  1  0  0  0
 58131  1  0  0  0
 59 60  1  0  0  0
 59 61  1  0  0  0
 59 62  1  0  0  0
 60132  1  0  0  0
 60133  1  0  0  0
 60134  1  0  0  0
 61135  1  0  0  0
 61136  1  0  0  0
 61137  1  0  0  0
 62138  1  0  0  0
 62139  1  0  0  0
 62140  1  0  0  0
 63 65  1  0  0  0
 63141  1  0  0  0
 63142  1  0  0  0
 63143  1  0  0  0
 64144  1  0  0  0
 65145  1  0  0  0
 68 77  1  0  0  0
 71 72  2  0  0  0
 71 75  1  0  0  0
 71 80  1  0  0  0
 72 78  1  0  0  0
 72 86  1  0  0  0
 73 80  2  0  0  0
 73 81  1  0  0  0
 73 86  1  0  0  0
 74 77  1  0  0  0
 74 81  1  0  0  0
 74 83  2  0  0  0
 75146  1  0  0  0
 75147  1  0  0  0
 75148  1  0  0  0
 76149  1  0  0  0
 76150  1  0  0  0
 76151  1  0  0  0
 76 79  1  0  0  0
 77152  1  0  0  0
 77153  1  0  0  0
 78 79  1  0  0  0
 78 82  1  0  0  0
 78154  1  0  0  0
 79 84  1  0  0  0
 79 85  1  0  0  0
 81155  1  0  0  0
 82156  1  0  0  0
M  ISO  4   1 100  68 101  77 101  82 100
M  END
> <chiral flag>
0

> <version>
0

> <s_m_source_file>
/data/baiqing/PycharmProjects/Reinvent-master-3.2/result/LINK_invent/BTK/process_docking_weight1_custom_product_contain_oxygen_bond_distance_aromatic_linkinvent_7_9_3/rearranged_h_0184.sdf

> <i_m_source_file_index>
24

> <r_mmod_Potential_Energy-OPLS-2005>
-16.7325401306152

> <r_mmod_Stretch_Energy-OPLS-2005>
111.046318054199

> <r_mmod_Bend_Energy-OPLS-2005>
175.455352783203

> <r_mmod_Torsional_Energy-OPLS-2005>
225.149551391602

> <r_mmod_Improper_Torsional_Energy-OPLS-2005>
5.20567226409912

> <r_mmod_Van_der_Waal_Energy-OPLS-2005>
119.667137145996

> <r_mmod_Electrostatic_Energy-OPLS-2005>
-483.119140625

> <r_mmod_Solvation_Energy-OPLS-2005>
-249.226257324219

> <b_mmod_Minimization_Converged-OPLS-2005>
0

> <r_mmod_RMS_Derivative-OPLS-2005>
0.48897397518158

$$$$
24
                    3D
 Structure written by MMmdl.
156164  0  0  1  0            999 V2000
  -30.6697  -14.5225   20.5551 C   0  0  0  0  0  0
  -30.4356  -12.3353   19.4375 C   0  0  0  0  0  0
  -29.4987  -12.5002   18.2225 C   0  0  0  0  0  0
  -28.0320  -12.3163   18.6515 C   0  0  0  0  0  0
  -27.6632  -13.1958   19.8771 C   0  0  2  0  0  0
  -28.7040  -13.0072   21.0065 C   0  0  0  0  0  0
  -25.2659  -13.8177   20.5764 C   0  0  0  0  0  0
  -24.1875  -13.0481   20.9220 C   0  0  0  0  0  0
  -24.6392  -11.6931   20.8758 C   0  0  0  0  0  0
  -23.9053  -10.4331   21.0406 C   0  0  0  0  0  0
  -24.3604   -9.4231   21.9186 C   0  0  0  0  0  0
  -23.6261   -8.2276   22.0762 C   0  0  0  0  0  0
  -22.4255   -8.0315   21.3545 C   0  0  0  0  0  0
  -21.9895   -9.0299   20.4663 C   0  0  0  0  0  0
  -22.7222  -10.2178   20.3057 C   0  0  0  0  0  0
  -21.6861   -6.0736   22.5256 C   0  0  0  0  0  0
  -21.4046   -6.5647   23.8185 C   0  0  0  0  0  0
  -21.3644   -5.6803   24.9139 C   0  0  0  0  0  0
  -21.6005   -4.3058   24.7209 C   0  0  0  0  0  0
  -21.8819   -3.8154   23.4334 C   0  0  0  0  0  0
  -21.9210   -4.6969   22.3381 C   0  0  0  0  0  0
  -22.7885  -13.5305   21.1834 C   0  0  0  0  0  0
  -22.1667   -4.2142   21.0967 F   0  0  0  0  0  0
  -21.5583   -3.4547   25.7723 F   0  0  0  0  0  0
  -30.0331  -13.3245   20.4551 N   0  0  0  0  0  0
  -26.3046  -12.9304   20.3404 N   0  0  0  0  0  0
  -25.9319  -11.6485   20.5794 N   0  0  0  0  0  0
  -22.0490  -12.8325   22.0373 N   0  0  0  0  0  0
  -25.4474  -15.1896   20.4249 N   0  0  0  0  0  0
  -31.7990  -14.7166   20.0957 O   0  0  0  0  0  0
  -21.6644   -6.8890   21.4219 O   0  0  0  0  0  0
  -22.3572  -14.5584   20.6629 O   0  0  0  0  0  0
  -24.6171  -31.8673   23.2082 C   0  0  0  0  0  0
  -25.9070  -32.4825   23.8389 C   0  0  1  0  0  0
  -27.2436  -27.4305   20.0830 C   0  0  0  0  0  0
  -25.5904  -33.8619   24.2306 N   0  0  0  0  0  0
  -23.4040  -30.4934   21.5474 C   0  0  2  0  0  0
  -24.8488  -28.9565   20.1138 C   0  0  0  0  0  0
  -22.7435  -29.4666   22.4931 C   0  0  0  0  0  0
  -18.0274  -28.1406   22.8470 C   0  0  0  0  0  0
  -24.1469  -36.7337   23.2630 C   0  0  0  0  0  0
  -25.9334  -30.8321   21.3606 C   0  0  0  0  0  0
  -26.0083  -29.4651   20.7088 C   0  0  0  0  0  0
  -27.2032  -28.7080   20.6927 C   0  0  0  0  0  0
  -26.0560  -26.9344   19.4936 C   0  0  0  0  0  0
  -24.8675  -27.6891   19.5053 C   0  0  0  0  0  0
  -23.6159  -29.8317   20.1589 C   0  0  0  0  0  0
  -25.4095  -36.3106   24.0315 C   0  0  1  0  0  0
  -20.5872  -28.3712   23.1279 C   0  0  2  0  0  0
  -20.6755  -26.9437   22.5415 C   0  0  0  0  0  0
  -19.5742  -26.6419   21.5199 C   0  0  0  0  0  0
  -18.1923  -26.7939   22.1623 C   0  0  0  0  0  0
  -19.1529  -28.8864   23.2875 C   0  0  0  0  0  0
  -18.9463  -30.1453   23.8920 C   0  0  0  0  0  0
  -17.6469  -30.6587   24.0599 C   0  0  0  0  0  0
  -25.9039  -34.9484   23.5111 C   0  0  0  0  0  0
  -16.5356  -29.9120   23.6312 C   0  0  0  0  0  0
  -16.7271  -28.6544   23.0314 C   0  0  0  0  0  0
  -26.4485  -31.6621   25.0741 C   0  0  0  0  0  0
  -25.3759  -31.3808   26.1514 C   0  0  0  0  0  0
  -27.0310  -30.3043   24.6160 C   0  0  0  0  0  0
  -27.6045  -32.4369   25.7508 C   0  0  0  0  0  0
  -27.5566  -37.1808   24.8443 C   0  0  0  0  0  0
  -21.4150  -29.3069   22.3683 N   0  0  0  0  0  0
  -26.4267  -37.3805   23.9405 N   0  0  0  0  0  0
  -24.6704  -31.0793   22.0977 N   0  0  0  0  0  0
  -23.4193  -28.8190   23.2982 O   0  0  0  0  0  0
  -28.4332  -26.7167   20.0964 O   0  0  0  0  0  0
  -26.5607  -34.8937   22.4677 O   0  0  0  0  0  0
  -23.5372  -32.1410   23.7485 O   0  0  0  0  0  0
  -29.8737  -17.4293   19.4188 C   0  0  0  0  0  0
  -29.9578  -16.8623   20.6926 C   0  0  0  0  0  0
  -29.7620  -19.3814   20.6490 C   0  0  0  0  0  0
  -29.2484  -21.7533   19.9814 C   0  0  0  0  0  0
  -30.8195  -23.6946   19.9873 C   0  0  0  0  0  0
  -28.2650  -24.1899   19.7661 C   0  0  0  0  0  0
  -28.6205  -25.6072   19.1970 C   0  0  0  0  0  0
  -29.3924  -23.2583   20.3748 C   0  0  1  0  0  0
  -29.7340  -16.7632   18.0576 C   0  0  0  0  0  0
  -29.7957  -18.8351   19.4345 N   0  0  0  0  0  0
  -29.9447  -15.5408   21.0751 N   0  0  0  0  0  0
  -29.6406  -20.8000   20.8647 N   0  0  0  0  0  0
  -28.7936  -21.4815   18.8671 O   0  0  0  0  0  0
  -30.6945  -15.8726   17.8181 F   0  0  0  0  0  0
  -28.5616  -16.1366   17.9512 F   0  0  0  0  0  0
  -29.7911  -17.6486   17.0596 F   0  0  0  0  0  0
  -29.9162  -18.1498   21.9100 S   0  0  0  0  0  0
  -31.4756  -12.4537   19.1289 H   0  0  0  0  0  0
  -30.3600  -11.3248   19.8446 H   0  0  0  0  0  0
  -29.7587  -11.7773   17.4472 H   0  0  0  0  0  0
  -29.6286  -13.4896   17.7827 H   0  0  0  0  0  0
  -27.8998  -11.2636   18.9115 H   0  0  0  0  0  0
  -27.3567  -12.5019   17.8156 H   0  0  0  0  0  0
  -27.6965  -14.2349   19.5526 H   0  0  0  0  0  0
  -28.6971  -11.9757   21.3631 H   0  0  0  0  0  0
  -28.4544  -13.6164   21.8763 H   0  0  0  0  0  0
  -25.2740   -9.5696   22.4768 H   0  0  0  0  0  0
  -23.9930   -7.4692   22.7521 H   0  0  0  0  0  0
  -21.0795   -8.8839   19.9022 H   0  0  0  0  0  0
  -22.3662  -10.9714   19.6170 H   0  0  0  0  0  0
  -21.2073   -7.6166   23.9664 H   0  0  0  0  0  0
  -21.1444   -6.0553   25.9031 H   0  0  0  0  0  0
  -22.0622   -2.7620   23.2842 H   0  0  0  0  0  0
  -22.4071  -12.0009   22.4829 H   0  0  0  0  0  0
  -21.1107  -13.1374   22.2530 H   0  0  0  0  0  0
  -24.7065  -15.8573   20.6049 H   0  0  0  0  0  0
  -26.3007  -15.6285   20.1056 H   0  0  0  0  0  0
  -26.7145  -32.5528   23.1155 H   0  0  0  0  0  0
  -25.0016  -33.9782   25.0425 H   0  0  0  0  0  0
  -22.6920  -31.3097   21.4112 H   0  0  0  0  0  0
  -23.3706  -35.9692   23.3292 H   0  0  0  0  0  0
  -24.3553  -36.8972   22.2044 H   0  0  0  0  0  0
  -23.7251  -37.6549   23.6667 H   0  0  0  0  0  0
  -26.0449  -31.5965   20.5900 H   0  0  0  0  0  0
  -26.8230  -30.8867   21.9767 H   0  0  0  0  0  0
  -28.1012  -29.1120   21.1380 H   0  0  0  0  0  0
  -26.0261  -25.9629   19.0240 H   0  0  0  0  0  0
  -23.9740  -27.2932   19.0421 H   0  0  0  0  0  0
  -23.7381  -30.6154   19.4100 H   0  0  0  0  0  0
  -22.7371  -29.2637   19.8494 H   0  0  0  0  0  0
  -25.1272  -36.1940   25.0803 H   0  0  0  0  0  0
  -20.9968  -28.3302   24.1401 H   0  0  0  0  0  0
  -20.5629  -26.2351   23.3631 H   0  0  0  0  0  0
  -21.6629  -26.7451   22.1233 H   0  0  0  0  0  0
  -19.6921  -25.6343   21.1200 H   0  0  0  0  0  0
  -19.6668  -27.3249   20.6739 H   0  0  0  0  0  0
  -17.4192  -26.6648   21.4033 H   0  0  0  0  0  0
  -18.0356  -26.0092   22.9041 H   0  0  0  0  0  0
  -19.7953  -30.7233   24.2321 H   0  0  0  0  0  0
  -17.5048  -31.6248   24.5253 H   0  0  0  0  0  0
  -15.5371  -30.3049   23.7634 H   0  0  0  0  0  0
  -15.8663  -28.0899   22.6998 H   0  0  0  0  0  0
  -24.5855  -30.7224   25.7890 H   0  0  0  0  0  0
  -24.9064  -32.3030   26.4964 H   0  0  0  0  0  0
  -25.8116  -30.8973   27.0271 H   0  0  0  0  0  0
  -26.2880  -29.6819   24.1164 H   0  0  0  0  0  0
  -27.3984  -29.7271   25.4656 H   0  0  0  0  0  0
  -27.8752  -30.4323   23.9379 H   0  0  0  0  0  0
  -27.2607  -33.3619   26.2154 H   0  0  0  0  0  0
  -28.3825  -32.7032   25.0341 H   0  0  0  0  0  0
  -28.0757  -31.8479   26.5387 H   0  0  0  0  0  0
  -28.2582  -38.0107   24.7492 H   0  0  0  0  0  0
  -28.1057  -36.2642   24.6237 H   0  0  0  0  0  0
  -27.2305  -37.1436   25.8852 H   0  0  0  0  0  0
  -20.9320  -29.8840   21.6929 H   0  0  0  0  0  0
  -26.0136  -38.2864   24.1448 H   0  0  0  0  0  0
  -31.5698  -23.0080   20.3824 H   0  0  0  0  0  0
  -31.0565  -24.6840   20.3810 H   0  0  0  0  0  0
  -30.9416  -23.7185   18.9028 H   0  0  0  0  0  0
  -27.7860  -23.6731   18.9347 H   0  0  0  0  0  0
  -27.4614  -24.2968   20.4975 H   0  0  0  0  0  0
  -28.0616  -25.7831   18.2753 H   0  0  0  0  0  0
  -29.6500  -25.6517   18.8451 H   0  0  0  0  0  0
  -29.3246  -23.3298   21.4616 H   0  0  0  0  0  0
  -29.1767  -15.2609   21.6711 H   0  0  0  0  0  0
  -29.9061  -21.1223   21.7841 H   0  0  0  0  0  0
  1 25  1  0  0  0
  1 30  2  0  0  0
  1 81  1  0  0  0
  2  3  1  0  0  0
  2 25  1  0  0  0
  2 88  1  0  0  0
  2 89  1  0  0  0
  3  4  1  0  0  0
  3 90  1  0  0  0
  3 91  1  0  0  0
  4  5  1  0  0  0
  4 92  1  0  0  0
  4 93  1  0  0  0
  5  6  1  0  0  0
  5 26  1  0  0  0
  5 94  1  0  0  0
  6 25  1  0  0  0
  6 95  1  0  0  0
  6 96  1  0  0  0
  7  8  2  0  0  0
  7 26  1  0  0  0
  7 29  1  0  0  0
  8  9  1  0  0  0
  8 22  1  0  0  0
  9 10  1  0  0  0
  9 27  2  0  0  0
 10 11  2  0  0  0
 10 15  1  0  0  0
 11 12  1  0  0  0
 11 97  1  0  0  0
 12 13  2  0  0  0
 12 98  1  0  0  0
 13 14  1  0  0  0
 13 31  1  0  0  0
 14 15  2  0  0  0
 14 99  1  0  0  0
 15100  1  0  0  0
 16 17  2  0  0  0
 16 21  1  0  0  0
 16 31  1  0  0  0
 17 18  1  0  0  0
 17101  1  0  0  0
 18 19  2  0  0  0
 18102  1  0  0  0
 19 20  1  0  0  0
 19 24  1  0  0  0
 20 21  2  0  0  0
 20103  1  0  0  0
 21 23  1  0  0  0
 22 28  1  0  0  0
 22 32  2  0  0  0
 26 27  1  0  0  0
 28104  1  0  0  0
 28105  1  0  0  0
 29106  1  0  0  0
 29107  1  0  0  0
 33 34  1  0  0  0
 33 66  1  0  0  0
 33 70  2  0  0  0
 34 36  1  0  0  0
 34 59  1  0  0  0
 34108  1  0  0  0
 35 44  2  0  0  0
 35 45  1  0  0  0
 35 68  1  0  0  0
 36 56  1  0  0  0
 36109  1  0  0  0
 37 39  1  0  0  0
 37 47  1  0  0  0
 37 66  1  0  0  0
 37110  1  0  0  0
 38 43  2  0  0  0
 38 46  1  0  0  0
 38 47  1  0  0  0
 39 64  1  0  0  0
 39 67  2  0  0  0
 40 52  1  0  0  0
 40 53  2  0  0  0
 40 58  1  0  0  0
 41111  1  0  0  0
 41112  1  0  0  0
 41113  1  0  0  0
 41 48  1  0  0  0
 42 43  1  0  0  0
 42 66  1  0  0  0
 42114  1  0  0  0
 42115  1  0  0  0
 43 44  1  0  0  0
 44116  1  0  0  0
 45 46  2  0  0  0
 45117  1  0  0  0
 46118  1  0  0  0
 47119  1  0  0  0
 47120  1  0  0  0
 48 56  1  0  0  0
 48 65  1  0  0  0
 48121  1  0  0  0
 49 50  1  0  0  0
 49 53  1  0  0  0
 49 64  1  0  0  0
 49122  1  0  0  0
 50 51  1  0  0  0
 50123  1  0  0  0
 50124  1  0  0  0
 51 52  1  0  0  0
 51125  1  0  0  0
 51126  1  0  0  0
 52127  1  0  0  0
 52128  1  0  0  0
 53 54  1  0  0  0
 54 55  2  0  0  0
 54129  1  0  0  0
 55 57  1  0  0  0
 55130  1  0  0  0
 56 69  2  0  0  0
 57 58  2  0  0  0
 57131  1  0  0  0
 58132  1  0  0  0
 59 60  1  0  0  0
 59 61  1  0  0  0
 59 62  1  0  0  0
 60133  1  0  0  0
 60134  1  0  0  0
 60135  1  0  0  0
 61136  1  0  0  0
 61137  1  0  0  0
 61138  1  0  0  0
 62139  1  0  0  0
 62140  1  0  0  0
 62141  1  0  0  0
 63 65  1  0  0  0
 63142  1  0  0  0
 63143  1  0  0  0
 63144  1  0  0  0
 64145  1  0  0  0
 65146  1  0  0  0
 68 77  1  0  0  0
 71 72  2  0  0  0
 71 79  1  0  0  0
 71 80  1  0  0  0
 72 81  1  0  0  0
 72 87  1  0  0  0
 73 80  2  0  0  0
 73 82  1  0  0  0
 73 87  1  0  0  0
 74 78  1  0  0  0
 74 82  1  0  0  0
 74 83  2  0  0  0
 75147  1  0  0  0
 75148  1  0  0  0
 75149  1  0  0  0
 75 78  1  0  0  0
 76 77  1  0  0  0
 76 78  1  0  0  0
 76150  1  0  0  0
 76151  1  0  0  0
 77152  1  0  0  0
 77153  1  0  0  0
 78154  1  0  0  0
 79 84  1  0  0  0
 79 85  1  0  0  0
 79 86  1  0  0  0
 81155  1  0  0  0
 82156  1  0  0  0
M  ISO  4   1 100  68 101  77 101  81 100
M  END
> <chiral flag>
0

> <version>
0

> <s_m_source_file>
/data/baiqing/PycharmProjects/Reinvent-master-3.2/result/LINK_invent/BTK/process_docking_weight1_custom_product_contain_oxygen_bond_distance_aromatic_linkinvent_7_9_3/rearranged_h_0184.sdf

> <i_m_source_file_index>
25

> <r_mmod_Potential_Energy-OPLS-2005>
16.0331058502197

> <r_mmod_Stretch_Energy-OPLS-2005>
49.0488166809082

> <r_mmod_Bend_Energy-OPLS-2005>
123.529937744141

> <r_mmod_Torsional_Energy-OPLS-2005>
260.345916748047

> <r_mmod_Improper_Torsional_Energy-OPLS-2005>
3.99097561836243

> <r_mmod_Van_der_Waal_Energy-OPLS-2005>
137.7041015625

> <r_mmod_Electrostatic_Energy-OPLS-2005>
-339.744995117188

> <r_mmod_Solvation_Energy-OPLS-2005>
-236.513931274414

> <b_mmod_Minimization_Converged-OPLS-2005>
0

> <r_mmod_RMS_Derivative-OPLS-2005>
4.45532941818237

$$$$
25
                    3D
 Structure written by MMmdl.
150158  0  0  1  0            999 V2000
  -30.6100  -14.7793   20.4526 C   0  0  0  0  0  0
  -30.4321  -12.4759   19.4819 C   0  0  0  0  0  0
  -29.5151  -12.5147   18.2400 C   0  0  0  0  0  0
  -28.0404  -12.3347   18.6501 C   0  0  0  0  0  0
  -27.6397  -13.2373   19.8480 C   0  0  2  0  0  0
  -28.6830  -13.1912   20.9860 C   0  0  0  0  0  0
  -25.2493  -13.8199   20.5676 C   0  0  0  0  0  0
  -24.1797  -13.0447   20.9217 C   0  0  0  0  0  0
  -24.6399  -11.6927   20.8744 C   0  0  0  0  0  0
  -23.9077  -10.4298   21.0409 C   0  0  0  0  0  0
  -24.3619   -9.4216   21.9189 C   0  0  0  0  0  0
  -23.6286   -8.2253   22.0762 C   0  0  0  0  0  0
  -22.4267   -8.0291   21.3550 C   0  0  0  0  0  0
  -21.9905   -9.0270   20.4657 C   0  0  0  0  0  0
  -22.7242  -10.2147   20.3064 C   0  0  0  0  0  0
  -21.6860   -6.0737   22.5271 C   0  0  0  0  0  0
  -21.4028   -6.5639   23.8205 C   0  0  0  0  0  0
  -21.3658   -5.6794   24.9168 C   0  0  0  0  0  0
  -21.6039   -4.3053   24.7219 C   0  0  0  0  0  0
  -21.8822   -3.8145   23.4338 C   0  0  0  0  0  0
  -21.9193   -4.6963   22.3398 C   0  0  0  0  0  0
  -22.7819  -13.5236   21.1859 C   0  0  0  0  0  0
  -22.1658   -4.2154   21.0974 F   0  0  0  0  0  0
  -21.5622   -3.4534   25.7730 F   0  0  0  0  0  0
  -29.9819  -13.5500   20.4015 N   0  0  0  0  0  0
  -26.2922  -12.9421   20.3255 N   0  0  0  0  0  0
  -25.9325  -11.6557   20.5735 N   0  0  0  0  0  0
  -22.0446  -12.8243   22.0413 N   0  0  0  0  0  0
  -25.4168  -15.1919   20.4022 N   0  0  0  0  0  0
  -31.7993  -14.8612   20.1354 O   0  0  0  0  0  0
  -21.6639   -6.8877   21.4236 O   0  0  0  0  0  0
  -22.3510  -14.5538   20.6690 O   0  0  0  0  0  0
  -24.6336  -31.8531   23.1947 C   0  0  0  0  0  0
  -25.9143  -32.4744   23.8313 C   0  0  1  0  0  0
  -27.2175  -27.2323   20.1414 C   0  0  0  0  0  0
  -25.5921  -33.8547   24.2232 N   0  0  0  0  0  0
  -23.4335  -30.4735   21.5385 C   0  0  2  0  0  0
  -24.8839  -28.9168   20.1103 C   0  0  0  0  0  0
  -22.7519  -29.4589   22.4891 C   0  0  0  0  0  0
  -18.0299  -28.1392   22.8486 C   0  0  0  0  0  0
  -24.1492  -36.7282   23.2641 C   0  0  0  0  0  0
  -25.9827  -30.7563   21.3807 C   0  0  0  0  0  0
  -26.0573  -29.3767   20.7230 C   0  0  0  0  0  0
  -27.2308  -28.5488   20.7242 C   0  0  0  0  0  0
  -26.0266  -26.8535   19.4865 C   0  0  0  0  0  0
  -24.8753  -27.6644   19.4787 C   0  0  0  0  0  0
  -23.6554  -29.8063   20.1558 C   0  0  0  0  0  0
  -25.4118  -36.3060   24.0322 C   0  0  1  0  0  0
  -20.5907  -28.3708   23.1255 C   0  0  2  0  0  0
  -20.6786  -26.9418   22.5411 C   0  0  0  0  0  0
  -19.5757  -26.6379   21.5218 C   0  0  0  0  0  0
  -18.1937  -26.7935   22.1628 C   0  0  0  0  0  0
  -19.1554  -28.8867   23.2869 C   0  0  0  0  0  0
  -18.9471  -30.1465   23.8891 C   0  0  0  0  0  0
  -17.6468  -30.6594   24.0560 C   0  0  0  0  0  0
  -25.9060  -34.9433   23.5087 C   0  0  0  0  0  0
  -16.5360  -29.9088   23.6330 C   0  0  0  0  0  0
  -16.7285  -28.6504   23.0356 C   0  0  0  0  0  0
  -26.4490  -31.6579   25.0716 C   0  0  0  0  0  0
  -25.3696  -31.3753   26.1427 C   0  0  0  0  0  0
  -27.0334  -30.2980   24.6240 C   0  0  0  0  0  0
  -27.6038  -32.4328   25.7492 C   0  0  0  0  0  0
  -27.5580  -37.1792   24.8455 C   0  0  0  0  0  0
  -21.4222  -29.3047   22.3633 N   0  0  0  0  0  0
  -26.4287  -37.3760   23.9407 N   0  0  0  0  0  0
  -24.7023  -31.0464   22.0941 N   0  0  0  0  0  0
  -23.4194  -28.8138   23.3016 O   0  0  0  0  0  0
  -28.2745  -26.2838   20.1870 O   0  0  0  0  0  0
  -26.5647  -34.8913   22.4666 O   0  0  0  0  0  0
  -23.5474  -32.1371   23.7210 O   0  0  0  0  0  0
  -27.9166  -18.4173   20.8664 C   0  0  0  0  0  0
  -29.2485  -18.6074   20.6034 C   0  0  0  0  0  0
  -28.4273  -20.8784   20.6427 C   0  0  0  0  0  0
  -28.7504  -23.5749   20.3400 C   0  0  0  0  0  0
  -30.2877  -17.4043   20.4812 C   0  0  0  0  0  0
  -27.9653  -24.9268   20.8050 C   0  0  1  0  0  0
  -28.1312  -25.1052   22.3312 C   0  0  0  0  0  0
  -29.5227  -20.0457   20.4805 N   0  0  0  0  0  0
  -28.2230  -22.3547   20.7517 N   0  0  0  0  0  0
  -29.8569  -15.9331   20.6465 N   0  0  0  0  0  0
  -29.7679  -23.6542   19.6458 O   0  0  0  0  0  0
  -27.2927  -26.0180   22.8249 F   0  0  0  0  0  0
  -29.3856  -25.4257   22.6515 F   0  0  0  0  0  0
  -26.9928  -19.9022   20.9587 S   0  0  0  0  0  0
  -31.4750  -12.5950   19.1837 H   0  0  0  0  0  0
  -30.3722  -11.5037   19.9722 H   0  0  0  0  0  0
  -29.8027  -11.7382   17.5302 H   0  0  0  0  0  0
  -29.6406  -13.4651   17.7195 H   0  0  0  0  0  0
  -27.8973  -11.2858   18.9128 H   0  0  0  0  0  0
  -27.3871  -12.5264   17.7983 H   0  0  0  0  0  0
  -27.6295  -14.2563   19.4610 H   0  0  0  0  0  0
  -28.7226  -12.1986   21.4377 H   0  0  0  0  0  0
  -28.4114  -13.8813   21.7860 H   0  0  0  0  0  0
  -25.2766   -9.5688   22.4762 H   0  0  0  0  0  0
  -23.9994   -7.4645   22.7484 H   0  0  0  0  0  0
  -21.0834   -8.8794   19.8957 H   0  0  0  0  0  0
  -22.3700  -10.9687   19.6170 H   0  0  0  0  0  0
  -21.2032   -7.6147   23.9709 H   0  0  0  0  0  0
  -21.1474   -6.0521   25.9071 H   0  0  0  0  0  0
  -22.0598   -2.7605   23.2838 H   0  0  0  0  0  0
  -22.4048  -11.9926   22.4848 H   0  0  0  0  0  0
  -21.1063  -13.1282   22.2591 H   0  0  0  0  0  0
  -24.6293  -15.8270   20.4685 H   0  0  0  0  0  0
  -26.2185  -15.6031   19.9437 H   0  0  0  0  0  0
  -26.7213  -32.5385   23.1053 H   0  0  0  0  0  0
  -25.0021  -33.9673   25.0342 H   0  0  0  0  0  0
  -22.7320  -31.2963   21.3878 H   0  0  0  0  0  0
  -23.3753  -35.9616   23.3290 H   0  0  0  0  0  0
  -24.3583  -36.8926   22.2058 H   0  0  0  0  0  0
  -23.7247  -37.6479   23.6682 H   0  0  0  0  0  0
  -26.1267  -31.5149   20.6100 H   0  0  0  0  0  0
  -26.8573  -30.8055   22.0177 H   0  0  0  0  0  0
  -28.1266  -28.8911   21.2228 H   0  0  0  0  0  0
  -25.9698  -25.8946   18.9922 H   0  0  0  0  0  0
  -23.9793  -27.3079   18.9892 H   0  0  0  0  0  0
  -23.7825  -30.5809   19.3989 H   0  0  0  0  0  0
  -22.7742  -29.2399   19.8496 H   0  0  0  0  0  0
  -25.1299  -36.1904   25.0813 H   0  0  0  0  0  0
  -21.0005  -28.3298   24.1373 H   0  0  0  0  0  0
  -20.5684  -26.2320   23.3622 H   0  0  0  0  0  0
  -21.6652  -26.7434   22.1202 H   0  0  0  0  0  0
  -19.6913  -25.6284   21.1260 H   0  0  0  0  0  0
  -19.6692  -27.3180   20.6742 H   0  0  0  0  0  0
  -17.4204  -26.6684   21.4035 H   0  0  0  0  0  0
  -18.0333  -26.0081   22.9032 H   0  0  0  0  0  0
  -19.7946  -30.7288   24.2257 H   0  0  0  0  0  0
  -17.5022  -31.6273   24.5161 H   0  0  0  0  0  0
  -15.5361  -30.2988   23.7654 H   0  0  0  0  0  0
  -15.8686  -28.0816   22.7079 H   0  0  0  0  0  0
  -24.5851  -30.7135   25.7737 H   0  0  0  0  0  0
  -24.8916  -32.2941   26.4844 H   0  0  0  0  0  0
  -25.7983  -30.8911   27.0209 H   0  0  0  0  0  0
  -26.2929  -29.6729   24.1238 H   0  0  0  0  0  0
  -27.3958  -29.7246   25.4781 H   0  0  0  0  0  0
  -27.8834  -30.4221   23.9528 H   0  0  0  0  0  0
  -27.2634  -33.3628   26.2057 H   0  0  0  0  0  0
  -28.3852  -32.6892   25.0327 H   0  0  0  0  0  0
  -28.0706  -31.8471   26.5420 H   0  0  0  0  0  0
  -28.2577  -38.0107   24.7518 H   0  0  0  0  0  0
  -28.1098  -36.2640   24.6256 H   0  0  0  0  0  0
  -27.2305  -37.1407   25.8859 H   0  0  0  0  0  0
  -20.9414  -29.8764   21.6828 H   0  0  0  0  0  0
  -26.0165  -38.2831   24.1419 H   0  0  0  0  0  0
  -27.4057  -17.4780   21.0255 H   0  0  0  0  0  0
  -31.0894  -17.5688   21.2014 H   0  0  0  0  0  0
  -30.7767  -17.4759   19.5087 H   0  0  0  0  0  0
  -26.9158  -24.6931   20.6266 H   0  0  0  0  0  0
  -27.9084  -24.1786   22.8605 H   0  0  0  0  0  0
  -27.3463  -22.5271   21.2204 H   0  0  0  0  0  0
  -28.8856  -15.7870   20.8695 H   0  0  0  0  0  0
  1 25  1  0  0  0
  1 30  2  0  0  0
  1 80  1  0  0  0
  2  3  1  0  0  0
  2 25  1  0  0  0
  2 85  1  0  0  0
  2 86  1  0  0  0
  3  4  1  0  0  0
  3 87  1  0  0  0
  3 88  1  0  0  0
  4  5  1  0  0  0
  4 89  1  0  0  0
  4 90  1  0  0  0
  5  6  1  0  0  0
  5 26  1  0  0  0
  5 91  1  0  0  0
  6 25  1  0  0  0
  6 92  1  0  0  0
  6 93  1  0  0  0
  7  8  2  0  0  0
  7 26  1  0  0  0
  7 29  1  0  0  0
  8  9  1  0  0  0
  8 22  1  0  0  0
  9 10  1  0  0  0
  9 27  2  0  0  0
 10 11  2  0  0  0
 10 15  1  0  0  0
 11 12  1  0  0  0
 11 94  1  0  0  0
 12 13  2  0  0  0
 12 95  1  0  0  0
 13 14  1  0  0  0
 13 31  1  0  0  0
 14 15  2  0  0  0
 14 96  1  0  0  0
 15 97  1  0  0  0
 16 17  2  0  0  0
 16 21  1  0  0  0
 16 31  1  0  0  0
 17 18  1  0  0  0
 17 98  1  0  0  0
 18 19  2  0  0  0
 18 99  1  0  0  0
 19 20  1  0  0  0
 19 24  1  0  0  0
 20 21  2  0  0  0
 20100  1  0  0  0
 21 23  1  0  0  0
 22 28  1  0  0  0
 22 32  2  0  0  0
 26 27  1  0  0  0
 28101  1  0  0  0
 28102  1  0  0  0
 29103  1  0  0  0
 29104  1  0  0  0
 33 34  1  0  0  0
 33 66  1  0  0  0
 33 70  2  0  0  0
 34 36  1  0  0  0
 34 59  1  0  0  0
 34105  1  0  0  0
 35 44  2  0  0  0
 35 45  1  0  0  0
 35 68  1  0  0  0
 36 56  1  0  0  0
 36106  1  0  0  0
 37 39  1  0  0  0
 37 47  1  0  0  0
 37 66  1  0  0  0
 37107  1  0  0  0
 38 43  2  0  0  0
 38 46  1  0  0  0
 38 47  1  0  0  0
 39 64  1  0  0  0
 39 67  2  0  0  0
 40 52  1  0  0  0
 40 53  2  0  0  0
 40 58  1  0  0  0
 41108  1  0  0  0
 41109  1  0  0  0
 41110  1  0  0  0
 41 48  1  0  0  0
 42 43  1  0  0  0
 42 66  1  0  0  0
 42111  1  0  0  0
 42112  1  0  0  0
 43 44  1  0  0  0
 44113  1  0  0  0
 45 46  2  0  0  0
 45114  1  0  0  0
 46115  1  0  0  0
 47116  1  0  0  0
 47117  1  0  0  0
 48 56  1  0  0  0
 48 65  1  0  0  0
 48118  1  0  0  0
 49 50  1  0  0  0
 49 53  1  0  0  0
 49 64  1  0  0  0
 49119  1  0  0  0
 50 51  1  0  0  0
 50120  1  0  0  0
 50121  1  0  0  0
 51 52  1  0  0  0
 51122  1  0  0  0
 51123  1  0  0  0
 52124  1  0  0  0
 52125  1  0  0  0
 53 54  1  0  0  0
 54 55  2  0  0  0
 54126  1  0  0  0
 55 57  1  0  0  0
 55127  1  0  0  0
 56 69  2  0  0  0
 57 58  2  0  0  0
 57128  1  0  0  0
 58129  1  0  0  0
 59 60  1  0  0  0
 59 61  1  0  0  0
 59 62  1  0  0  0
 60130  1  0  0  0
 60131  1  0  0  0
 60132  1  0  0  0
 61133  1  0  0  0
 61134  1  0  0  0
 61135  1  0  0  0
 62136  1  0  0  0
 62137  1  0  0  0
 62138  1  0  0  0
 63 65  1  0  0  0
 63139  1  0  0  0
 63140  1  0  0  0
 63141  1  0  0  0
 64142  1  0  0  0
 65143  1  0  0  0
 68 76  1  0  0  0
 71 72  2  0  0  0
 71 84  1  0  0  0
 71144  1  0  0  0
 72 75  1  0  0  0
 72 78  1  0  0  0
 73 78  2  0  0  0
 73 79  1  0  0  0
 73 84  1  0  0  0
 74 76  1  0  0  0
 74 79  1  0  0  0
 74 81  2  0  0  0
 75 80  1  0  0  0
 75145  1  0  0  0
 75146  1  0  0  0
 76 77  1  0  0  0
 76147  1  0  0  0
 77 82  1  0  0  0
 77 83  1  0  0  0
 77148  1  0  0  0
 79149  1  0  0  0
 80150  1  0  0  0
M  ISO  4   1 100  68 101  76 101  80 100
M  END
> <chiral flag>
0

> <version>
0

> <s_m_source_file>
/data/baiqing/PycharmProjects/Reinvent-master-3.2/result/LINK_invent/BTK/process_docking_weight1_custom_product_contain_oxygen_bond_distance_aromatic_linkinvent_7_9_3/rearranged_h_0184.sdf

> <i_m_source_file_index>
26

> <r_mmod_Potential_Energy-OPLS-2005>
50.2836608886719

> <r_mmod_Stretch_Energy-OPLS-2005>
144.604034423828

> <r_mmod_Bend_Energy-OPLS-2005>
221.903503417969

> <r_mmod_Torsional_Energy-OPLS-2005>
216.340957641602

> <r_mmod_Improper_Torsional_Energy-OPLS-2005>
6.0229640007019

> <r_mmod_Van_der_Waal_Energy-OPLS-2005>
109.330528259277

> <r_mmod_Electrostatic_Energy-OPLS-2005>
-477.271575927734

> <r_mmod_Solvation_Energy-OPLS-2005>
-276.307708740234

> <b_mmod_Minimization_Converged-OPLS-2005>
0

> <r_mmod_RMS_Derivative-OPLS-2005>
1.55705153942108

$$$$
26
                    3D
 Structure written by MMmdl.
158166  0  0  1  0            999 V2000
  -30.6419  -14.7457   20.4836 C   0  0  0  0  0  0
  -30.4213  -12.4545   19.4934 C   0  0  0  0  0  0
  -29.5113  -12.5185   18.2476 C   0  0  0  0  0  0
  -28.0371  -12.3417   18.6526 C   0  0  0  0  0  0
  -27.6407  -13.2422   19.8529 C   0  0  2  0  0  0
  -28.6804  -13.1916   20.9927 C   0  0  0  0  0  0
  -25.2496  -13.8227   20.5709 C   0  0  0  0  0  0
  -24.1789  -13.0454   20.9188 C   0  0  0  0  0  0
  -24.6394  -11.6934   20.8737 C   0  0  0  0  0  0
  -23.9073  -10.4303   21.0403 C   0  0  0  0  0  0
  -24.3622   -9.4218   21.9183 C   0  0  0  0  0  0
  -23.6296   -8.2254   22.0756 C   0  0  0  0  0  0
  -22.4277   -8.0290   21.3546 C   0  0  0  0  0  0
  -21.9917   -9.0262   20.4644 C   0  0  0  0  0  0
  -22.7245  -10.2141   20.3051 C   0  0  0  0  0  0
  -21.6860   -6.0742   22.5277 C   0  0  0  0  0  0
  -21.4018   -6.5642   23.8212 C   0  0  0  0  0  0
  -21.3658   -5.6791   24.9174 C   0  0  0  0  0  0
  -21.6045   -4.3053   24.7220 C   0  0  0  0  0  0
  -21.8819   -3.8148   23.4339 C   0  0  0  0  0  0
  -21.9191   -4.6969   22.3398 C   0  0  0  0  0  0
  -22.7810  -13.5228   21.1852 C   0  0  0  0  0  0
  -22.1661   -4.2154   21.0977 F   0  0  0  0  0  0
  -21.5625   -3.4535   25.7732 F   0  0  0  0  0  0
  -29.9906  -13.5294   20.4233 N   0  0  0  0  0  0
  -26.2933  -12.9454   20.3289 N   0  0  0  0  0  0
  -25.9329  -11.6579   20.5738 N   0  0  0  0  0  0
  -22.0465  -12.8217   22.0413 N   0  0  0  0  0  0
  -25.4190  -15.1958   20.4181 N   0  0  0  0  0  0
  -31.7916  -14.8007   20.0429 O   0  0  0  0  0  0
  -21.6643   -6.8887   21.4241 O   0  0  0  0  0  0
  -22.3488  -14.5532   20.6700 O   0  0  0  0  0  0
  -24.6330  -31.8539   23.2004 C   0  0  0  0  0  0
  -25.9153  -32.4748   23.8338 C   0  0  1  0  0  0
  -27.2072  -27.2489   20.1216 C   0  0  0  0  0  0
  -25.5937  -33.8550   24.2247 N   0  0  0  0  0  0
  -23.4312  -30.4778   21.5436 C   0  0  2  0  0  0
  -24.8777  -28.9334   20.1012 C   0  0  0  0  0  0
  -22.7525  -29.4581   22.4905 C   0  0  0  0  0  0
  -18.0302  -28.1382   22.8470 C   0  0  0  0  0  0
  -24.1496  -36.7279   23.2640 C   0  0  0  0  0  0
  -25.9796  -30.7603   21.3871 C   0  0  0  0  0  0
  -26.0513  -29.3867   20.7189 C   0  0  0  0  0  0
  -27.2216  -28.5573   20.7190 C   0  0  0  0  0  0
  -26.0234  -26.8880   19.4409 C   0  0  0  0  0  0
  -24.8707  -27.6929   19.4489 C   0  0  0  0  0  0
  -23.6490  -29.8205   20.1567 C   0  0  0  0  0  0
  -25.4120  -36.3057   24.0319 C   0  0  1  0  0  0
  -20.5905  -28.3692   23.1258 C   0  0  2  0  0  0
  -20.6796  -26.9404   22.5403 C   0  0  0  0  0  0
  -19.5773  -26.6370   21.5207 C   0  0  0  0  0  0
  -18.1945  -26.7922   22.1609 C   0  0  0  0  0  0
  -19.1557  -28.8855   23.2853 C   0  0  0  0  0  0
  -18.9484  -30.1455   23.8869 C   0  0  0  0  0  0
  -17.6483  -30.6581   24.0557 C   0  0  0  0  0  0
  -25.9061  -34.9432   23.5087 C   0  0  0  0  0  0
  -16.5366  -29.9076   23.6338 C   0  0  0  0  0  0
  -16.7286  -28.6499   23.0339 C   0  0  0  0  0  0
  -26.4506  -31.6579   25.0743 C   0  0  0  0  0  0
  -25.3711  -31.3741   26.1453 C   0  0  0  0  0  0
  -27.0371  -30.2983   24.6262 C   0  0  0  0  0  0
  -27.6051  -32.4339   25.7516 C   0  0  0  0  0  0
  -27.5582  -37.1790   24.8456 C   0  0  0  0  0  0
  -21.4226  -29.3041   22.3654 N   0  0  0  0  0  0
  -26.4294  -37.3756   23.9399 N   0  0  0  0  0  0
  -24.6999  -31.0492   22.0993 N   0  0  0  0  0  0
  -23.4225  -28.8119   23.2997 O   0  0  0  0  0  0
  -28.2469  -26.2891   20.2199 O   0  0  0  0  0  0
  -26.5638  -34.8922   22.4662 O   0  0  0  0  0  0
  -23.5477  -32.1372   23.7286 O   0  0  0  0  0  0
  -30.2685  -20.7747   21.1743 C   0  0  0  0  0  0
  -30.6424  -19.3658   21.2108 C   0  0  0  0  0  0
  -29.7941  -18.5087   20.5289 C   0  0  0  0  0  0
  -29.1201  -21.1010   20.4803 C   0  0  0  0  0  0
  -30.0079  -17.0215   20.2018 C   0  0  0  0  0  0
  -28.9172  -23.6647   20.4057 C   0  0  0  0  0  0
  -31.8929  -18.8995   21.8983 C   0  0  0  0  0  0
  -28.4291  -25.5639   23.0440 C   0  0  0  0  0  0
  -25.9839  -25.3838   22.3727 C   0  0  0  0  0  0
  -27.8579  -24.8694   20.6149 C   0  0  1  0  0  0
  -27.4146  -24.8666   22.1163 C   0  0  0  0  0  0
  -29.9490  -15.9249   20.9372 N   0  0  0  0  0  0
  -28.4724  -22.3451   20.3424 N   0  0  0  0  0  0
  -30.1172  -23.9349   20.3052 O   0  0  0  0  0  0
  -28.4951  -19.5368   19.8453 S   0  0  0  0  0  0
  -31.4675  -12.5424   19.1967 H   0  0  0  0  0  0
  -30.3372  -11.4808   19.9789 H   0  0  0  0  0  0
  -29.7976  -11.7494   17.5288 H   0  0  0  0  0  0
  -29.6434  -13.4766   17.7430 H   0  0  0  0  0  0
  -27.8900  -11.2922   18.9105 H   0  0  0  0  0  0
  -27.3845  -12.5383   17.8015 H   0  0  0  0  0  0
  -27.6343  -14.2635   19.4716 H   0  0  0  0  0  0
  -28.7066  -12.2033   21.4540 H   0  0  0  0  0  0
  -28.4085  -13.8917   21.7846 H   0  0  0  0  0  0
  -25.2768   -9.5701   22.4757 H   0  0  0  0  0  0
  -24.0003   -7.4656   22.7484 H   0  0  0  0  0  0
  -21.0844   -8.8781   19.8958 H   0  0  0  0  0  0
  -22.3699  -10.9679   19.6157 H   0  0  0  0  0  0
  -21.2016   -7.6150   23.9718 H   0  0  0  0  0  0
  -21.1480   -6.0520   25.9078 H   0  0  0  0  0  0
  -22.0596   -2.7608   23.2835 H   0  0  0  0  0  0
  -22.4091  -11.9881   22.4798 H   0  0  0  0  0  0
  -21.1086  -13.1238   22.2631 H   0  0  0  0  0  0
  -24.6601  -15.8558   20.5482 H   0  0  0  0  0  0
  -26.2912  -15.6371   20.1547 H   0  0  0  0  0  0
  -26.7217  -32.5391   23.1080 H   0  0  0  0  0  0
  -25.0058  -33.9680   25.0374 H   0  0  0  0  0  0
  -22.7280  -31.3004   21.4023 H   0  0  0  0  0  0
  -23.3761  -35.9611   23.3290 H   0  0  0  0  0  0
  -24.3565  -36.8917   22.2052 H   0  0  0  0  0  0
  -23.7270  -37.6479   23.6691 H   0  0  0  0  0  0
  -26.1283  -31.5262   20.6249 H   0  0  0  0  0  0
  -26.8528  -30.7979   22.0260 H   0  0  0  0  0  0
  -28.1123  -28.8870   21.2351 H   0  0  0  0  0  0
  -25.9557  -25.9498   18.9127 H   0  0  0  0  0  0
  -23.9778  -27.3472   18.9456 H   0  0  0  0  0  0
  -23.7736  -30.6032   19.4074 H   0  0  0  0  0  0
  -22.7676  -29.2560   19.8492 H   0  0  0  0  0  0
  -25.1312  -36.1882   25.0809 H   0  0  0  0  0  0
  -20.9988  -28.3279   24.1383 H   0  0  0  0  0  0
  -20.5701  -26.2294   23.3611 H   0  0  0  0  0  0
  -21.6667  -26.7429   22.1197 H   0  0  0  0  0  0
  -19.6932  -25.6277   21.1247 H   0  0  0  0  0  0
  -19.6726  -27.3182   20.6744 H   0  0  0  0  0  0
  -17.4219  -26.6664   21.4006 H   0  0  0  0  0  0
  -18.0327  -26.0079   22.9021 H   0  0  0  0  0  0
  -19.7965  -30.7267   24.2223 H   0  0  0  0  0  0
  -17.5047  -31.6265   24.5163 H   0  0  0  0  0  0
  -15.5366  -30.2965   23.7701 H   0  0  0  0  0  0
  -15.8681  -28.0824   22.7045 H   0  0  0  0  0  0
  -24.5905  -30.7066   25.7783 H   0  0  0  0  0  0
  -24.8889  -32.2917   26.4841 H   0  0  0  0  0  0
  -25.8018  -30.8953   27.0256 H   0  0  0  0  0  0
  -26.2976  -29.6703   24.1280 H   0  0  0  0  0  0
  -27.4015  -29.7270   25.4813 H   0  0  0  0  0  0
  -27.8870  -30.4231   23.9549 H   0  0  0  0  0  0
  -27.2642  -33.3650   26.2053 H   0  0  0  0  0  0
  -28.3880  -32.6865   25.0358 H   0  0  0  0  0  0
  -28.0695  -31.8490   26.5464 H   0  0  0  0  0  0
  -28.2577  -38.0108   24.7514 H   0  0  0  0  0  0
  -28.1097  -36.2636   24.6270 H   0  0  0  0  0  0
  -27.2290  -37.1408   25.8855 H   0  0  0  0  0  0
  -20.9410  -29.8770   21.6858 H   0  0  0  0  0  0
  -26.0162  -38.2814   24.1428 H   0  0  0  0  0  0
  -30.8715  -21.5138   21.6833 H   0  0  0  0  0  0
  -30.3323  -16.9052   19.1627 H   0  0  0  0  0  0
  -32.3854  -19.7107   22.4358 H   0  0  0  0  0  0
  -32.6129  -18.5049   21.1804 H   0  0  0  0  0  0
  -31.6816  -18.1108   22.6211 H   0  0  0  0  0  0
  -28.1396  -25.4654   24.0904 H   0  0  0  0  0  0
  -28.5071  -26.6292   22.8247 H   0  0  0  0  0  0
  -29.4257  -25.1331   22.9405 H   0  0  0  0  0  0
  -25.6527  -25.1292   23.3797 H   0  0  0  0  0  0
  -25.2696  -24.9424   21.6776 H   0  0  0  0  0  0
  -25.9096  -26.4673   22.2877 H   0  0  0  0  0  0
  -27.0138  -24.5387   20.0140 H   0  0  0  0  0  0
  -27.3816  -23.8241   22.4383 H   0  0  0  0  0  0
  -27.4679  -22.2743   20.2426 H   0  0  0  0  0  0
  1 25  1  0  0  0
  1 30  2  0  0  0
  1 82  1  0  0  0
  2  3  1  0  0  0
  2 25  1  0  0  0
  2 86  1  0  0  0
  2 87  1  0  0  0
  3  4  1  0  0  0
  3 88  1  0  0  0
  3 89  1  0  0  0
  4  5  1  0  0  0
  4 90  1  0  0  0
  4 91  1  0  0  0
  5  6  1  0  0  0
  5 26  1  0  0  0
  5 92  1  0  0  0
  6 25  1  0  0  0
  6 93  1  0  0  0
  6 94  1  0  0  0
  7  8  2  0  0  0
  7 26  1  0  0  0
  7 29  1  0  0  0
  8  9  1  0  0  0
  8 22  1  0  0  0
  9 10  1  0  0  0
  9 27  2  0  0  0
 10 11  2  0  0  0
 10 15  1  0  0  0
 11 12  1  0  0  0
 11 95  1  0  0  0
 12 13  2  0  0  0
 12 96  1  0  0  0
 13 14  1  0  0  0
 13 31  1  0  0  0
 14 15  2  0  0  0
 14 97  1  0  0  0
 15 98  1  0  0  0
 16 17  2  0  0  0
 16 21  1  0  0  0
 16 31  1  0  0  0
 17 18  1  0  0  0
 17 99  1  0  0  0
 18 19  2  0  0  0
 18100  1  0  0  0
 19 20  1  0  0  0
 19 24  1  0  0  0
 20 21  2  0  0  0
 20101  1  0  0  0
 21 23  1  0  0  0
 22 28  1  0  0  0
 22 32  2  0  0  0
 26 27  1  0  0  0
 28102  1  0  0  0
 28103  1  0  0  0
 29104  1  0  0  0
 29105  1  0  0  0
 33 34  1  0  0  0
 33 66  1  0  0  0
 33 70  2  0  0  0
 34 36  1  0  0  0
 34 59  1  0  0  0
 34106  1  0  0  0
 35 44  2  0  0  0
 35 45  1  0  0  0
 35 68  1  0  0  0
 36 56  1  0  0  0
 36107  1  0  0  0
 37 39  1  0  0  0
 37 47  1  0  0  0
 37 66  1  0  0  0
 37108  1  0  0  0
 38 43  2  0  0  0
 38 46  1  0  0  0
 38 47  1  0  0  0
 39 64  1  0  0  0
 39 67  2  0  0  0
 40 52  1  0  0  0
 40 53  2  0  0  0
 40 58  1  0  0  0
 41109  1  0  0  0
 41110  1  0  0  0
 41111  1  0  0  0
 41 48  1  0  0  0
 42 43  1  0  0  0
 42 66  1  0  0  0
 42112  1  0  0  0
 42113  1  0  0  0
 43 44  1  0  0  0
 44114  1  0  0  0
 45 46  2  0  0  0
 45115  1  0  0  0
 46116  1  0  0  0
 47117  1  0  0  0
 47118  1  0  0  0
 48 56  1  0  0  0
 48 65  1  0  0  0
 48119  1  0  0  0
 49 50  1  0  0  0
 49 53  1  0  0  0
 49 64  1  0  0  0
 49120  1  0  0  0
 50 51  1  0  0  0
 50121  1  0  0  0
 50122  1  0  0  0
 51 52  1  0  0  0
 51123  1  0  0  0
 51124  1  0  0  0
 52125  1  0  0  0
 52126  1  0  0  0
 53 54  1  0  0  0
 54 55  2  0  0  0
 54127  1  0  0  0
 55 57  1  0  0  0
 55128  1  0  0  0
 56 69  2  0  0  0
 57 58  2  0  0  0
 57129  1  0  0  0
 58130  1  0  0  0
 59 60  1  0  0  0
 59 61  1  0  0  0
 59 62  1  0  0  0
 60131  1  0  0  0
 60132  1  0  0  0
 60133  1  0  0  0
 61134  1  0  0  0
 61135  1  0  0  0
 61136  1  0  0  0
 62137  1  0  0  0
 62138  1  0  0  0
 62139  1  0  0  0
 63 65  1  0  0  0
 63140  1  0  0  0
 63141  1  0  0  0
 63142  1  0  0  0
 64143  1  0  0  0
 65144  1  0  0  0
 68 80  1  0  0  0
 71 72  1  0  0  0
 71 74  2  0  0  0
 71145  1  0  0  0
 72 73  2  0  0  0
 72 77  1  0  0  0
 73 75  1  0  0  0
 73 85  1  0  0  0
 74 83  1  0  0  0
 74 85  1  0  0  0
 75 82  2  0  0  0
 75146  1  0  0  0
 76 80  1  0  0  0
 76 83  1  0  0  0
 76 84  2  0  0  0
 77147  1  0  0  0
 77148  1  0  0  0
 77149  1  0  0  0
 78150  1  0  0  0
 78151  1  0  0  0
 78152  1  0  0  0
 78 81  1  0  0  0
 79 81  1  0  0  0
 79153  1  0  0  0
 79154  1  0  0  0
 79155  1  0  0  0
 80 81  1  0  0  0
 80156  1  0  0  0
 81157  1  0  0  0
 83158  1  0  0  0
M  ISO  4   1 100  68 101  80 101  82 100
M  END
> <chiral flag>
0

> <version>
0

> <s_m_source_file>
/data/baiqing/PycharmProjects/Reinvent-master-3.2/result/LINK_invent/BTK/process_docking_weight1_custom_product_contain_oxygen_bond_distance_aromatic_linkinvent_7_9_3/rearranged_h_0184.sdf

> <i_m_source_file_index>
27

> <r_mmod_Potential_Energy-OPLS-2005>
245.178070068359

> <r_mmod_Stretch_Energy-OPLS-2005>
129.25129699707

> <r_mmod_Bend_Energy-OPLS-2005>
174.493942260742

> <r_mmod_Torsional_Energy-OPLS-2005>
236.999542236328

> <r_mmod_Improper_Torsional_Energy-OPLS-2005>
4.03905153274536

> <r_mmod_Van_der_Waal_Energy-OPLS-2005>
118.436195373535

> <r_mmod_Electrostatic_Energy-OPLS-2005>
-305.632019042969

> <r_mmod_Solvation_Energy-OPLS-2005>
-207.909530639648

> <b_mmod_Minimization_Converged-OPLS-2005>
0

> <r_mmod_RMS_Derivative-OPLS-2005>
1.4788236618042

$$$$
27
                    3D
 Structure written by MMmdl.
151159  0  0  1  0            999 V2000
  -30.5082  -14.9937   20.4057 C   0  0  0  0  0  0
  -30.4455  -12.6075   19.5064 C   0  0  0  0  0  0
  -29.5305  -12.5457   18.2579 C   0  0  0  0  0  0
  -28.0624  -12.3192   18.6656 C   0  0  0  0  0  0
  -27.6300  -13.2431   19.8303 C   0  0  2  0  0  0
  -28.6716  -13.2859   20.9721 C   0  0  0  0  0  0
  -25.2501  -13.8205   20.5686 C   0  0  0  0  0  0
  -24.1809  -13.0454   20.9210 C   0  0  0  0  0  0
  -24.6407  -11.6930   20.8751 C   0  0  0  0  0  0
  -23.9072  -10.4321   21.0431 C   0  0  0  0  0  0
  -24.3623   -9.4234   21.9203 C   0  0  0  0  0  0
  -23.6299   -8.2271   22.0770 C   0  0  0  0  0  0
  -22.4282   -8.0308   21.3564 C   0  0  0  0  0  0
  -21.9931   -9.0281   20.4654 C   0  0  0  0  0  0
  -22.7251  -10.2163   20.3064 C   0  0  0  0  0  0
  -21.6852   -6.0752   22.5291 C   0  0  0  0  0  0
  -21.4012   -6.5651   23.8220 C   0  0  0  0  0  0
  -21.3653   -5.6806   24.9181 C   0  0  0  0  0  0
  -21.6033   -4.3068   24.7229 C   0  0  0  0  0  0
  -21.8822   -3.8150   23.4354 C   0  0  0  0  0  0
  -21.9206   -4.6979   22.3416 C   0  0  0  0  0  0
  -22.7830  -13.5237   21.1884 C   0  0  0  0  0  0
  -22.1677   -4.2161   21.0993 F   0  0  0  0  0  0
  -21.5624   -3.4557   25.7748 F   0  0  0  0  0  0
  -29.9508  -13.7081   20.3875 N   0  0  0  0  0  0
  -26.2901  -12.9416   20.3182 N   0  0  0  0  0  0
  -25.9331  -11.6560   20.5707 N   0  0  0  0  0  0
  -22.0475  -12.8208   22.0413 N   0  0  0  0  0  0
  -25.4231  -15.1931   20.4148 N   0  0  0  0  0  0
  -31.7028  -15.0438   20.0863 O   0  0  0  0  0  0
  -21.6641   -6.8904   21.4260 O   0  0  0  0  0  0
  -22.3526  -14.5566   20.6755 O   0  0  0  0  0  0
  -24.6462  -31.8409   23.1840 C   0  0  0  0  0  0
  -25.9243  -32.4651   23.8237 C   0  0  1  0  0  0
  -27.2219  -27.1184   20.1567 C   0  0  0  0  0  0
  -25.5996  -33.8452   24.2158 N   0  0  0  0  0  0
  -23.4486  -30.4572   21.5305 C   0  0  2  0  0  0
  -24.8992  -28.8773   20.1121 C   0  0  0  0  0  0
  -22.7577  -29.4513   22.4866 C   0  0  0  0  0  0
  -18.0315  -28.1364   22.8450 C   0  0  0  0  0  0
  -24.1504  -36.7246   23.2639 C   0  0  0  0  0  0
  -26.0056  -30.7074   21.3864 C   0  0  0  0  0  0
  -26.0765  -29.3161   20.7307 C   0  0  0  0  0  0
  -27.2390  -28.4545   20.7315 C   0  0  0  0  0  0
  -26.0187  -26.7857   19.4979 C   0  0  0  0  0  0
  -24.8828  -27.6240   19.4813 C   0  0  0  0  0  0
  -23.6742  -29.7771   20.1539 C   0  0  0  0  0  0
  -25.4131  -36.2994   24.0307 C   0  0  1  0  0  0
  -20.5917  -28.3691   23.1214 C   0  0  2  0  0  0
  -20.6784  -26.9384   22.5391 C   0  0  0  0  0  0
  -19.5766  -26.6353   21.5184 C   0  0  0  0  0  0
  -18.1949  -26.7901   22.1598 C   0  0  0  0  0  0
  -19.1570  -28.8850   23.2810 C   0  0  0  0  0  0
  -18.9492  -30.1462   23.8796 C   0  0  0  0  0  0
  -17.6483  -30.6556   24.0539 C   0  0  0  0  0  0
  -25.9093  -34.9377   23.5040 C   0  0  0  0  0  0
  -16.5379  -29.9036   23.6329 C   0  0  0  0  0  0
  -16.7300  -28.6474   23.0319 C   0  0  0  0  0  0
  -26.4550  -31.6520   25.0686 C   0  0  0  0  0  0
  -25.3757  -31.3711   26.1407 C   0  0  0  0  0  0
  -27.0421  -30.2897   24.6289 C   0  0  0  0  0  0
  -27.6029  -32.4333   25.7498 C   0  0  0  0  0  0
  -27.5574  -37.1774   24.8459 C   0  0  0  0  0  0
  -21.4272  -29.3029   22.3606 N   0  0  0  0  0  0
  -26.4281  -37.3721   23.9401 N   0  0  0  0  0  0
  -24.7192  -31.0256   22.0871 N   0  0  0  0  0  0
  -23.4220  -28.8080   23.3038 O   0  0  0  0  0  0
  -28.2855  -26.1390   20.1903 O   0  0  0  0  0  0
  -26.5665  -34.8883   22.4608 O   0  0  0  0  0  0
  -23.5587  -32.1307   23.7058 O   0  0  0  0  0  0
  -28.2358  -19.7779   21.2949 C   0  0  0  0  0  0
  -29.3595  -19.4541   20.4620 C   0  0  0  0  0  0
  -28.0332  -21.1481   21.2093 C   0  0  0  0  0  0
  -29.4154  -23.4246   18.4873 C   0  0  0  0  0  0
  -28.0385  -24.5967   20.3623 C   0  0  0  0  0  0
  -29.1101  -23.3383   19.9927 C   0  0  1  0  0  0
  -30.1253  -17.9933   20.1856 C   0  0  0  0  0  0
  -29.6800  -16.4343   20.7058 C   0  0  0  0  0  0
  -29.7411  -20.7015   19.9274 N   0  0  0  0  0  0
  -28.9156  -21.7930   20.3563 N   0  0  0  0  0  0
  -27.0684  -21.8188   21.8850 F   0  0  0  0  0  0
  -31.3675  -18.1754   20.6379 F   0  0  0  0  0  0
  -30.2280  -17.9025   18.8592 F   0  0  0  0  0  0
  -28.4414  -16.2813   20.2355 F   0  0  0  0  0  0
  -29.5593  -16.5269   22.0310 F   0  0  0  0  0  0
  -31.4815  -12.7644   19.2040 H   0  0  0  0  0  0
  -30.4330  -11.6548   20.0374 H   0  0  0  0  0  0
  -29.8562  -11.7565   17.5798 H   0  0  0  0  0  0
  -29.6138  -13.4809   17.7025 H   0  0  0  0  0  0
  -27.9515  -11.2732   18.9493 H   0  0  0  0  0  0
  -27.4030  -12.4706   17.8094 H   0  0  0  0  0  0
  -27.5780  -14.2339   19.3824 H   0  0  0  0  0  0
  -28.7645  -12.3107   21.4548 H   0  0  0  0  0  0
  -28.3621  -13.9881   21.7462 H   0  0  0  0  0  0
  -25.2786   -9.5706   22.4750 H   0  0  0  0  0  0
  -24.0015   -7.4662   22.7482 H   0  0  0  0  0  0
  -21.0875   -8.8791   19.8937 H   0  0  0  0  0  0
  -22.3735  -10.9691   19.6139 H   0  0  0  0  0  0
  -21.1992   -7.6163   23.9727 H   0  0  0  0  0  0
  -21.1462   -6.0535   25.9083 H   0  0  0  0  0  0
  -22.0598   -2.7608   23.2853 H   0  0  0  0  0  0
  -22.4111  -11.9846   22.4736 H   0  0  0  0  0  0
  -21.1095  -13.1213   22.2645 H   0  0  0  0  0  0
  -24.6608  -15.8509   20.5322 H   0  0  0  0  0  0
  -26.2861  -15.6304   20.1164 H   0  0  0  0  0  0
  -26.7296  -32.5234   23.0951 H   0  0  0  0  0  0
  -25.0161  -33.9557   25.0322 H   0  0  0  0  0  0
  -22.7489  -31.2795   21.3688 H   0  0  0  0  0  0
  -23.3760  -35.9583   23.3278 H   0  0  0  0  0  0
  -24.3592  -36.8920   22.2056 H   0  0  0  0  0  0
  -23.7273  -37.6433   23.6714 H   0  0  0  0  0  0
  -26.1695  -31.4585   20.6133 H   0  0  0  0  0  0
  -26.8745  -30.7528   22.0312 H   0  0  0  0  0  0
  -28.1394  -28.7911   21.2261 H   0  0  0  0  0  0
  -25.9314  -25.8397   18.9866 H   0  0  0  0  0  0
  -23.9893  -27.2768   18.9813 H   0  0  0  0  0  0
  -23.8037  -30.5435   19.3892 H   0  0  0  0  0  0
  -22.7912  -29.2117   19.8504 H   0  0  0  0  0  0
  -25.1314  -36.1798   25.0797 H   0  0  0  0  0  0
  -20.9987  -28.3287   24.1343 H   0  0  0  0  0  0
  -20.5621  -26.2318   23.3625 H   0  0  0  0  0  0
  -21.6658  -26.7349   22.1224 H   0  0  0  0  0  0
  -19.6924  -25.6255   21.1229 H   0  0  0  0  0  0
  -19.6699  -27.3145   20.6693 H   0  0  0  0  0  0
  -17.4214  -26.6631   21.4010 H   0  0  0  0  0  0
  -18.0352  -26.0043   22.8994 H   0  0  0  0  0  0
  -19.7977  -30.7310   24.2091 H   0  0  0  0  0  0
  -17.5040  -31.6210   24.5185 H   0  0  0  0  0  0
  -15.5371  -30.2894   23.7714 H   0  0  0  0  0  0
  -15.8716  -28.0783   22.7017 H   0  0  0  0  0  0
  -24.5952  -30.7008   25.7789 H   0  0  0  0  0  0
  -24.8940  -32.2898   26.4753 H   0  0  0  0  0  0
  -25.8107  -30.8973   27.0223 H   0  0  0  0  0  0
  -26.3043  -29.6591   24.1302 H   0  0  0  0  0  0
  -27.4027  -29.7185   25.4860 H   0  0  0  0  0  0
  -27.8961  -30.4087   23.9611 H   0  0  0  0  0  0
  -27.2537  -33.3654   26.1947 H   0  0  0  0  0  0
  -28.3909  -32.6875   25.0404 H   0  0  0  0  0  0
  -28.0612  -31.8559   26.5533 H   0  0  0  0  0  0
  -28.2551  -38.0102   24.7510 H   0  0  0  0  0  0
  -28.1111  -36.2627   24.6285 H   0  0  0  0  0  0
  -27.2298  -37.1416   25.8863 H   0  0  0  0  0  0
  -20.9504  -29.8780   21.6798 H   0  0  0  0  0  0
  -26.0136  -38.2784   24.1400 H   0  0  0  0  0  0
  -27.6571  -19.0942   21.8997 H   0  0  0  0  0  0
  -29.6095  -24.4507   18.1755 H   0  0  0  0  0  0
  -28.5726  -23.0557   17.9004 H   0  0  0  0  0  0
  -30.2951  -22.8363   18.2239 H   0  0  0  0  0  0
  -27.7986  -24.4880   21.4212 H   0  0  0  0  0  0
  -27.1053  -24.3348   19.8686 H   0  0  0  0  0  0
  -30.0324  -23.6188   20.5021 H   0  0  0  0  0  0
  1 25  1  0  0  0
  1 30  2  0  0  0
  1 78  1  0  0  0
  2  3  1  0  0  0
  2 25  1  0  0  0
  2 86  1  0  0  0
  2 87  1  0  0  0
  3  4  1  0  0  0
  3 88  1  0  0  0
  3 89  1  0  0  0
  4  5  1  0  0  0
  4 90  1  0  0  0
  4 91  1  0  0  0
  5  6  1  0  0  0
  5 26  1  0  0  0
  5 92  1  0  0  0
  6 25  1  0  0  0
  6 93  1  0  0  0
  6 94  1  0  0  0
  7  8  2  0  0  0
  7 26  1  0  0  0
  7 29  1  0  0  0
  8  9  1  0  0  0
  8 22  1  0  0  0
  9 10  1  0  0  0
  9 27  2  0  0  0
 10 11  2  0  0  0
 10 15  1  0  0  0
 11 12  1  0  0  0
 11 95  1  0  0  0
 12 13  2  0  0  0
 12 96  1  0  0  0
 13 14  1  0  0  0
 13 31  1  0  0  0
 14 15  2  0  0  0
 14 97  1  0  0  0
 15 98  1  0  0  0
 16 17  2  0  0  0
 16 21  1  0  0  0
 16 31  1  0  0  0
 17 18  1  0  0  0
 17 99  1  0  0  0
 18 19  2  0  0  0
 18100  1  0  0  0
 19 20  1  0  0  0
 19 24  1  0  0  0
 20 21  2  0  0  0
 20101  1  0  0  0
 21 23  1  0  0  0
 22 28  1  0  0  0
 22 32  2  0  0  0
 26 27  1  0  0  0
 28102  1  0  0  0
 28103  1  0  0  0
 29104  1  0  0  0
 29105  1  0  0  0
 33 34  1  0  0  0
 33 66  1  0  0  0
 33 70  2  0  0  0
 34 36  1  0  0  0
 34 59  1  0  0  0
 34106  1  0  0  0
 35 44  2  0  0  0
 35 45  1  0  0  0
 35 68  1  0  0  0
 36 56  1  0  0  0
 36107  1  0  0  0
 37 39  1  0  0  0
 37 47  1  0  0  0
 37 66  1  0  0  0
 37108  1  0  0  0
 38 43  2  0  0  0
 38 46  1  0  0  0
 38 47  1  0  0  0
 39 64  1  0  0  0
 39 67  2  0  0  0
 40 52  1  0  0  0
 40 53  2  0  0  0
 40 58  1  0  0  0
 41109  1  0  0  0
 41110  1  0  0  0
 41111  1  0  0  0
 41 48  1  0  0  0
 42 43  1  0  0  0
 42 66  1  0  0  0
 42112  1  0  0  0
 42113  1  0  0  0
 43 44  1  0  0  0
 44114  1  0  0  0
 45 46  2  0  0  0
 45115  1  0  0  0
 46116  1  0  0  0
 47117  1  0  0  0
 47118  1  0  0  0
 48 56  1  0  0  0
 48 65  1  0  0  0
 48119  1  0  0  0
 49 50  1  0  0  0
 49 53  1  0  0  0
 49 64  1  0  0  0
 49120  1  0  0  0
 50 51  1  0  0  0
 50121  1  0  0  0
 50122  1  0  0  0
 51 52  1  0  0  0
 51123  1  0  0  0
 51124  1  0  0  0
 52125  1  0  0  0
 52126  1  0  0  0
 53 54  1  0  0  0
 54 55  2  0  0  0
 54127  1  0  0  0
 55 57  1  0  0  0
 55128  1  0  0  0
 56 69  2  0  0  0
 57 58  2  0  0  0
 57129  1  0  0  0
 58130  1  0  0  0
 59 60  1  0  0  0
 59 61  1  0  0  0
 59 62  1  0  0  0
 60131  1  0  0  0
 60132  1  0  0  0
 60133  1  0  0  0
 61134  1  0  0  0
 61135  1  0  0  0
 61136  1  0  0  0
 62137  1  0  0  0
 62138  1  0  0  0
 62139  1  0  0  0
 63 65  1  0  0  0
 63140  1  0  0  0
 63141  1  0  0  0
 63142  1  0  0  0
 64143  1  0  0  0
 65144  1  0  0  0
 68 75  1  0  0  0
 71 72  1  0  0  0
 71 73  2  0  0  0
 71145  1  0  0  0
 72 77  1  0  0  0
 72 79  2  0  0  0
 73 80  1  0  0  0
 73 81  1  0  0  0
 74146  1  0  0  0
 74147  1  0  0  0
 74148  1  0  0  0
 74 76  1  0  0  0
 75 76  1  0  0  0
 75149  1  0  0  0
 75150  1  0  0  0
 76 80  1  0  0  0
 76151  1  0  0  0
 77 78  1  0  0  0
 77 82  1  0  0  0
 77 83  1  0  0  0
 78 84  1  0  0  0
 78 85  1  0  0  0
 79 80  1  0  0  0
M  ISO  4   1 100  68 101  75 101  78 100
M  END
> <chiral flag>
0

> <version>
0

> <s_m_source_file>
/data/baiqing/PycharmProjects/Reinvent-master-3.2/result/LINK_invent/BTK/process_docking_weight1_custom_product_contain_oxygen_bond_distance_aromatic_linkinvent_7_9_3/rearranged_h_0184.sdf

> <i_m_source_file_index>
28

> <r_mmod_Potential_Energy-OPLS-2005>
652.745849609375

> <r_mmod_Stretch_Energy-OPLS-2005>
299.458618164062

> <r_mmod_Bend_Energy-OPLS-2005>
275.26513671875

> <r_mmod_Torsional_Energy-OPLS-2005>
178.417236328125

> <r_mmod_Improper_Torsional_Energy-OPLS-2005>
2.49372911453247

> <r_mmod_Van_der_Waal_Energy-OPLS-2005>
107.454940795898

> <r_mmod_Electrostatic_Energy-OPLS-2005>
-236.702880859375

> <r_mmod_Solvation_Energy-OPLS-2005>
-184.443939208984

> <b_mmod_Minimization_Converged-OPLS-2005>
0

> <r_mmod_RMS_Derivative-OPLS-2005>
3.03329038619995

$$$$
28
                    3D
 Structure written by MMmdl.
156164  0  0  1  0            999 V2000
  -30.6443  -14.5744   20.6145 C   0  0  0  0  0  0
  -30.4614  -12.4164   19.3847 C   0  0  0  0  0  0
  -29.4799  -12.4340   18.1966 C   0  0  0  0  0  0
  -28.0298  -12.2381   18.6773 C   0  0  0  0  0  0
  -27.6523  -13.1660   19.8551 C   0  0  2  0  0  0
  -28.7111  -13.0436   20.9726 C   0  0  0  0  0  0
  -25.2754  -13.8043   20.5939 C   0  0  0  0  0  0
  -24.1862  -13.0362   20.9289 C   0  0  0  0  0  0
  -24.6357  -11.6851   20.8778 C   0  0  0  0  0  0
  -23.9008  -10.4280   21.0426 C   0  0  0  0  0  0
  -24.3488   -9.4197   21.9228 C   0  0  0  0  0  0
  -23.6129   -8.2278   22.0814 C   0  0  0  0  0  0
  -22.4168   -8.0298   21.3551 C   0  0  0  0  0  0
  -21.9901   -9.0251   20.4562 C   0  0  0  0  0  0
  -22.7252  -10.2118   20.2965 C   0  0  0  0  0  0
  -21.6802   -6.0800   22.5280 C   0  0  0  0  0  0
  -21.3958   -6.5694   23.8208 C   0  0  0  0  0  0
  -21.3687   -5.6856   24.9181 C   0  0  0  0  0  0
  -21.6087   -4.3120   24.7275 C   0  0  0  0  0  0
  -21.8826   -3.8216   23.4380 C   0  0  0  0  0  0
  -21.9144   -4.7030   22.3400 C   0  0  0  0  0  0
  -22.7930  -13.5255   21.1961 C   0  0  0  0  0  0
  -22.1536   -4.2161   21.0969 F   0  0  0  0  0  0
  -21.5696   -3.4546   25.7783 F   0  0  0  0  0  0
  -29.9994  -13.3994   20.3773 N   0  0  0  0  0  0
  -26.2994  -12.9062   20.3473 N   0  0  0  0  0  0
  -25.9258  -11.6260   20.5849 N   0  0  0  0  0  0
  -22.0561  -12.8236   22.0537 N   0  0  0  0  0  0
  -25.4796  -15.1720   20.4744 N   0  0  0  0  0  0
  -31.8276  -14.7236   20.2851 O   0  0  0  0  0  0
  -21.6534   -6.8871   21.4241 O   0  0  0  0  0  0
  -22.3661  -14.5591   20.6857 O   0  0  0  0  0  0
  -24.6289  -31.8659   23.2212 C   0  0  0  0  0  0
  -25.9148  -32.4849   23.8458 C   0  0  1  0  0  0
  -27.1809  -27.3949   20.0699 C   0  0  0  0  0  0
  -25.5948  -33.8652   24.2394 N   0  0  0  0  0  0
  -23.4107  -30.5100   21.5656 C   0  0  2  0  0  0
  -24.8269  -28.9741   20.1206 C   0  0  0  0  0  0
  -22.7454  -29.4733   22.5030 C   0  0  0  0  0  0
  -18.0296  -28.1359   22.8523 C   0  0  0  0  0  0
  -24.1444  -36.7335   23.2649 C   0  0  0  0  0  0
  -25.9456  -30.8347   21.3609 C   0  0  0  0  0  0
  -26.0093  -29.4765   20.6772 C   0  0  0  0  0  0
  -27.2026  -28.7063   20.6103 C   0  0  0  0  0  0
  -25.9561  -26.8943   19.5786 C   0  0  0  0  0  0
  -24.7933  -27.6819   19.5771 C   0  0  0  0  0  0
  -23.6087  -29.8677   20.1725 C   0  0  0  0  0  0
  -25.4069  -36.3147   24.0346 C   0  0  1  0  0  0
  -20.5895  -28.3651   23.1291 C   0  0  2  0  0  0
  -20.6819  -26.9421   22.5365 C   0  0  0  0  0  0
  -19.5769  -26.6381   21.5223 C   0  0  0  0  0  0
  -18.1924  -26.7936   22.1638 C   0  0  0  0  0  0
  -19.1553  -28.8817   23.2894 C   0  0  0  0  0  0
  -18.9469  -30.1429   23.8908 C   0  0  0  0  0  0
  -17.6445  -30.6554   24.0557 C   0  0  0  0  0  0
  -25.9006  -34.9489   23.5151 C   0  0  0  0  0  0
  -16.5330  -29.9046   23.6323 C   0  0  0  0  0  0
  -16.7288  -28.6458   23.0385 C   0  0  0  0  0  0
  -26.4579  -31.6717   25.0821 C   0  0  0  0  0  0
  -25.3943  -31.3680   26.1623 C   0  0  0  0  0  0
  -27.0558  -30.3212   24.6266 C   0  0  0  0  0  0
  -27.6054  -32.4587   25.7580 C   0  0  0  0  0  0
  -27.5568  -37.1820   24.8465 C   0  0  0  0  0  0
  -21.4158  -29.3078   22.3763 N   0  0  0  0  0  0
  -26.4294  -37.3821   23.9414 N   0  0  0  0  0  0
  -24.6853  -31.0814   22.1091 N   0  0  0  0  0  0
  -23.4238  -28.8215   23.3013 O   0  0  0  0  0  0
  -28.3078  -26.5855   20.0294 O   0  0  0  0  0  0
  -26.5529  -34.8937   22.4694 O   0  0  0  0  0  0
  -23.5473  -32.1409   23.7603 O   0  0  0  0  0  0
  -28.2112  -19.8589   22.0360 C   0  0  0  0  0  0
  -28.3916  -18.4568   22.3005 C   0  0  0  0  0  0
  -29.5382  -17.9509   21.7193 C   0  0  0  0  0  0
  -29.1526  -20.4166   21.1925 C   0  0  0  0  0  0
  -30.2946  -16.6609   21.7701 C   0  0  0  0  0  0
  -28.4579  -22.7496   20.8786 C   0  0  0  0  0  0
  -27.4033  -17.7104   23.1604 C   0  0  0  0  0  0
  -27.7261  -23.6851   18.6154 C   0  0  0  0  0  0
  -28.1475  -25.2972   20.6756 C   0  0  0  0  0  0
  -28.5589  -23.9712   19.9160 C   0  0  1  0  0  0
  -29.2419  -21.6685   20.6492 N   0  0  0  0  0  0
  -29.8518  -15.6016   21.0484 N   0  0  0  0  0  0
  -31.3068  -16.6160   22.4853 O   0  0  0  0  0  0
  -27.6873  -22.8057   21.8458 O   0  0  0  0  0  0
  -30.3344  -19.1949   20.7844 S   0  0  0  0  0  0
  -31.4686  -12.6315   19.0197 H   0  0  0  0  0  0
  -30.5162  -11.4277   19.8421 H   0  0  0  0  0  0
  -29.7402  -11.6397   17.4987 H   0  0  0  0  0  0
  -29.5719  -13.3624   17.6458 H   0  0  0  0  0  0
  -27.9309  -11.2002   19.0049 H   0  0  0  0  0  0
  -27.3279  -12.3503   17.8493 H   0  0  0  0  0  0
  -27.6599  -14.1841   19.4627 H   0  0  0  0  0  0
  -28.7580  -12.0295   21.3724 H   0  0  0  0  0  0
  -28.4610  -13.6800   21.8278 H   0  0  0  0  0  0
  -25.2645   -9.5716   22.4825 H   0  0  0  0  0  0
  -23.9798   -7.4686   22.7542 H   0  0  0  0  0  0
  -21.0984   -8.8773   19.8673 H   0  0  0  0  0  0
  -22.3841  -10.9633   19.5959 H   0  0  0  0  0  0
  -21.1846   -7.6155   23.9662 H   0  0  0  0  0  0
  -21.1505   -6.0609   25.9047 H   0  0  0  0  0  0
  -22.0568   -2.7665   23.2876 H   0  0  0  0  0  0
  -22.4048  -11.9807   22.4823 H   0  0  0  0  0  0
  -21.1275  -13.1360   22.2905 H   0  0  0  0  0  0
  -24.7844  -15.8659   20.7199 H   0  0  0  0  0  0
  -26.3877  -15.5787   20.2841 H   0  0  0  0  0  0
  -26.7209  -32.5506   23.1208 H   0  0  0  0  0  0
  -25.0238  -33.9803   25.0623 H   0  0  0  0  0  0
  -22.7024  -31.3339   21.4549 H   0  0  0  0  0  0
  -23.3733  -35.9671   23.3373 H   0  0  0  0  0  0
  -24.3494  -36.8911   22.2067 H   0  0  0  0  0  0
  -23.7224  -37.6542   23.6637 H   0  0  0  0  0  0
  -26.0752  -31.6262   20.6215 H   0  0  0  0  0  0
  -26.8305  -30.8598   21.9845 H   0  0  0  0  0  0
  -28.1337  -29.1056   20.9898 H   0  0  0  0  0  0
  -25.8833  -25.8730   19.2353 H   0  0  0  0  0  0
  -23.8568  -27.2818   19.2040 H   0  0  0  0  0  0
  -23.7426  -30.6695   19.4452 H   0  0  0  0  0  0
  -22.7090  -29.3366   19.8501 H   0  0  0  0  0  0
  -25.1263  -36.1999   25.0857 H   0  0  0  0  0  0
  -21.0012  -28.3225   24.1403 H   0  0  0  0  0  0
  -20.5789  -26.2261   23.3518 H   0  0  0  0  0  0
  -21.6639  -26.7501   22.1080 H   0  0  0  0  0  0
  -19.6889  -25.6301   21.1196 H   0  0  0  0  0  0
  -19.6640  -27.3223   20.6776 H   0  0  0  0  0  0
  -17.4191  -26.6724   21.4022 H   0  0  0  0  0  0
  -18.0307  -26.0018   22.8976 H   0  0  0  0  0  0
  -19.7922  -30.7268   24.2274 H   0  0  0  0  0  0
  -17.4985  -31.6257   24.5163 H   0  0  0  0  0  0
  -15.5335  -30.2934   23.7653 H   0  0  0  0  0  0
  -15.8710  -28.0753   22.7139 H   0  0  0  0  0  0
  -24.5784  -30.7497   25.7872 H   0  0  0  0  0  0
  -24.9576  -32.2813   26.5668 H   0  0  0  0  0  0
  -25.8296  -30.8244   27.0035 H   0  0  0  0  0  0
  -26.3045  -29.6634   24.1862 H   0  0  0  0  0  0
  -27.4921  -29.7773   25.4670 H   0  0  0  0  0  0
  -27.8612  -30.4570   23.9038 H   0  0  0  0  0  0
  -27.2401  -33.3517   26.2673 H   0  0  0  0  0  0
  -28.3489  -32.7884   25.0308 H   0  0  0  0  0  0
  -28.1275  -31.8648   26.5098 H   0  0  0  0  0  0
  -28.2613  -38.0085   24.7504 H   0  0  0  0  0  0
  -28.1019  -36.2625   24.6300 H   0  0  0  0  0  0
  -27.2253  -37.1508   25.8854 H   0  0  0  0  0  0
  -20.9331  -29.8860   21.7022 H   0  0  0  0  0  0
  -26.0176  -38.2897   24.1450 H   0  0  0  0  0  0
  -27.3711  -20.3937   22.4610 H   0  0  0  0  0  0
  -26.5278  -18.3328   23.3744 H   0  0  0  0  0  0
  -27.8222  -17.4292   24.1285 H   0  0  0  0  0  0
  -27.0251  -16.8117   22.6648 H   0  0  0  0  0  0
  -28.3145  -23.1953   17.8227 H   0  0  0  0  0  0
  -27.3674  -24.6208   18.1906 H   0  0  0  0  0  0
  -26.8347  -23.0574   18.7542 H   0  0  0  0  0  0
  -28.7893  -25.3743   21.5524 H   0  0  0  0  0  0
  -27.1419  -25.1739   21.0852 H   0  0  0  0  0  0
  -29.6128  -24.0888   19.6353 H   0  0  0  0  0  0
  -29.9469  -21.7747   19.9273 H   0  0  0  0  0  0
  -28.8648  -15.5626   20.8266 H   0  0  0  0  0  0
  1 25  1  0  0  0
  1 30  2  0  0  0
  1 82  1  0  0  0
  2  3  1  0  0  0
  2 25  1  0  0  0
  2 86  1  0  0  0
  2 87  1  0  0  0
  3  4  1  0  0  0
  3 88  1  0  0  0
  3 89  1  0  0  0
  4  5  1  0  0  0
  4 90  1  0  0  0
  4 91  1  0  0  0
  5  6  1  0  0  0
  5 26  1  0  0  0
  5 92  1  0  0  0
  6 25  1  0  0  0
  6 93  1  0  0  0
  6 94  1  0  0  0
  7  8  2  0  0  0
  7 26  1  0  0  0
  7 29  1  0  0  0
  8  9  1  0  0  0
  8 22  1  0  0  0
  9 10  1  0  0  0
  9 27  2  0  0  0
 10 11  2  0  0  0
 10 15  1  0  0  0
 11 12  1  0  0  0
 11 95  1  0  0  0
 12 13  2  0  0  0
 12 96  1  0  0  0
 13 14  1  0  0  0
 13 31  1  0  0  0
 14 15  2  0  0  0
 14 97  1  0  0  0
 15 98  1  0  0  0
 16 17  2  0  0  0
 16 21  1  0  0  0
 16 31  1  0  0  0
 17 18  1  0  0  0
 17 99  1  0  0  0
 18 19  2  0  0  0
 18100  1  0  0  0
 19 20  1  0  0  0
 19 24  1  0  0  0
 20 21  2  0  0  0
 20101  1  0  0  0
 21 23  1  0  0  0
 22 28  1  0  0  0
 22 32  2  0  0  0
 26 27  1  0  0  0
 28102  1  0  0  0
 28103  1  0  0  0
 29104  1  0  0  0
 29105  1  0  0  0
 33 34  1  0  0  0
 33 66  1  0  0  0
 33 70  2  0  0  0
 34 36  1  0  0  0
 34 59  1  0  0  0
 34106  1  0  0  0
 35 44  2  0  0  0
 35 45  1  0  0  0
 35 68  1  0  0  0
 36 56  1  0  0  0
 36107  1  0  0  0
 37 39  1  0  0  0
 37 47  1  0  0  0
 37 66  1  0  0  0
 37108  1  0  0  0
 38 43  2  0  0  0
 38 46  1  0  0  0
 38 47  1  0  0  0
 39 64  1  0  0  0
 39 67  2  0  0  0
 40 52  1  0  0  0
 40 53  2  0  0  0
 40 58  1  0  0  0
 41109  1  0  0  0
 41110  1  0  0  0
 41111  1  0  0  0
 41 48  1  0  0  0
 42 43  1  0  0  0
 42 66  1  0  0  0
 42112  1  0  0  0
 42113  1  0  0  0
 43 44  1  0  0  0
 44114  1  0  0  0
 45 46  2  0  0  0
 45115  1  0  0  0
 46116  1  0  0  0
 47117  1  0  0  0
 47118  1  0  0  0
 48 56  1  0  0  0
 48 65  1  0  0  0
 48119  1  0  0  0
 49 50  1  0  0  0
 49 53  1  0  0  0
 49 64  1  0  0  0
 49120  1  0  0  0
 50 51  1  0  0  0
 50121  1  0  0  0
 50122  1  0  0  0
 51 52  1  0  0  0
 51123  1  0  0  0
 51124  1  0  0  0
 52125  1  0  0  0
 52126  1  0  0  0
 53 54  1  0  0  0
 54 55  2  0  0  0
 54127  1  0  0  0
 55 57  1  0  0  0
 55128  1  0  0  0
 56 69  2  0  0  0
 57 58  2  0  0  0
 57129  1  0  0  0
 58130  1  0  0  0
 59 60  1  0  0  0
 59 61  1  0  0  0
 59 62  1  0  0  0
 60131  1  0  0  0
 60132  1  0  0  0
 60133  1  0  0  0
 61134  1  0  0  0
 61135  1  0  0  0
 61136  1  0  0  0
 62137  1  0  0  0
 62138  1  0  0  0
 62139  1  0  0  0
 63 65  1  0  0  0
 63140  1  0  0  0
 63141  1  0  0  0
 63142  1  0  0  0
 64143  1  0  0  0
 65144  1  0  0  0
 68 79  1  0  0  0
 71 72  1  0  0  0
 71 74  2  0  0  0
 71145  1  0  0  0
 72 73  2  0  0  0
 72 77  1  0  0  0
 73 75  1  0  0  0
 73 85  1  0  0  0
 74 81  1  0  0  0
 74 85  1  0  0  0
 75 82  1  0  0  0
 75 83  2  0  0  0
 76 80  1  0  0  0
 76 81  1  0  0  0
 76 84  2  0  0  0
 77146  1  0  0  0
 77147  1  0  0  0
 77148  1  0  0  0
 78149  1  0  0  0
 78150  1  0  0  0
 78151  1  0  0  0
 78 80  1  0  0  0
 79 80  1  0  0  0
 79152  1  0  0  0
 79153  1  0  0  0
 80154  1  0  0  0
 81155  1  0  0  0
 82156  1  0  0  0
M  ISO  4   1 100  68 101  79 101  82 100
M  END
> <chiral flag>
0

> <version>
0

> <s_m_source_file>
/data/baiqing/PycharmProjects/Reinvent-master-3.2/result/LINK_invent/BTK/process_docking_weight1_custom_product_contain_oxygen_bond_distance_aromatic_linkinvent_7_9_3/rearranged_h_0184.sdf

> <i_m_source_file_index>
29

> <r_mmod_Potential_Energy-OPLS-2005>
-39.9308662414551

> <r_mmod_Stretch_Energy-OPLS-2005>
47.3230209350586

> <r_mmod_Bend_Energy-OPLS-2005>
115.782341003418

> <r_mmod_Torsional_Energy-OPLS-2005>
313.301605224609

> <r_mmod_Improper_Torsional_Energy-OPLS-2005>
4.24174213409424

> <r_mmod_Van_der_Waal_Energy-OPLS-2005>
136.371307373047

> <r_mmod_Electrostatic_Energy-OPLS-2005>
-463.318084716797

> <r_mmod_Solvation_Energy-OPLS-2005>
-237.806503295898

> <b_mmod_Minimization_Converged-OPLS-2005>
0

> <r_mmod_RMS_Derivative-OPLS-2005>
13.922384262085

$$$$
29
                    3D
 Structure written by MMmdl.
149157  0  0  1  0            999 V2000
  -30.6079  -14.7394   20.4418 C   0  0  0  0  0  0
  -30.4337  -12.4432   19.4823 C   0  0  0  0  0  0
  -29.5142  -12.4991   18.2407 C   0  0  0  0  0  0
  -28.0386  -12.3186   18.6483 C   0  0  0  0  0  0
  -27.6389  -13.2239   19.8424 C   0  0  2  0  0  0
  -28.6805  -13.1635   20.9802 C   0  0  0  0  0  0
  -25.2520  -13.8170   20.5687 C   0  0  0  0  0  0
  -24.1805  -13.0430   20.9211 C   0  0  0  0  0  0
  -24.6381  -11.6904   20.8743 C   0  0  0  0  0  0
  -23.9054  -10.4288   21.0406 C   0  0  0  0  0  0
  -24.3609   -9.4203   21.9182 C   0  0  0  0  0  0
  -23.6289   -8.2237   22.0750 C   0  0  0  0  0  0
  -22.4272   -8.0273   21.3542 C   0  0  0  0  0  0
  -21.9906   -9.0243   20.4645 C   0  0  0  0  0  0
  -22.7228  -10.2126   20.3053 C   0  0  0  0  0  0
  -21.6851   -6.0733   22.5282 C   0  0  0  0  0  0
  -21.4012   -6.5638   23.8214 C   0  0  0  0  0  0
  -21.3663   -5.6792   24.9178 C   0  0  0  0  0  0
  -21.6044   -4.3054   24.7228 C   0  0  0  0  0  0
  -21.8818   -3.8145   23.4349 C   0  0  0  0  0  0
  -21.9193   -4.6962   22.3407 C   0  0  0  0  0  0
  -22.7832  -13.5223   21.1876 C   0  0  0  0  0  0
  -22.1662   -4.2149   21.0983 F   0  0  0  0  0  0
  -21.5633   -3.4535   25.7739 F   0  0  0  0  0  0
  -29.9895  -13.5078   20.4113 N   0  0  0  0  0  0
  -26.2919  -12.9356   20.3231 N   0  0  0  0  0  0
  -25.9302  -11.6510   20.5722 N   0  0  0  0  0  0
  -22.0474  -12.8214   22.0431 N   0  0  0  0  0  0
  -25.4238  -15.1890   20.4116 N   0  0  0  0  0  0
  -31.8098  -14.8068   20.1654 O   0  0  0  0  0  0
  -21.6640   -6.8869   21.4239 O   0  0  0  0  0  0
  -22.3523  -14.5532   20.6724 O   0  0  0  0  0  0
  -24.6297  -31.8563   23.1981 C   0  0  0  0  0  0
  -25.9128  -32.4760   23.8327 C   0  0  1  0  0  0
  -27.2224  -27.2807   20.1354 C   0  0  0  0  0  0
  -25.5930  -33.8562   24.2257 N   0  0  0  0  0  0
  -23.4258  -30.4771   21.5414 C   0  0  2  0  0  0
  -24.8743  -28.9195   20.1167 C   0  0  0  0  0  0
  -22.7491  -29.4607   22.4923 C   0  0  0  0  0  0
  -18.0289  -28.1387   22.8486 C   0  0  0  0  0  0
  -24.1490  -36.7286   23.2638 C   0  0  0  0  0  0
  -25.9691  -30.7757   21.3735 C   0  0  0  0  0  0
  -26.0451  -29.3970   20.7213 C   0  0  0  0  0  0
  -27.2269  -28.5912   20.7154 C   0  0  0  0  0  0
  -26.0316  -26.8568   19.5139 C   0  0  0  0  0  0
  -24.8706  -27.6561   19.5027 C   0  0  0  0  0  0
  -23.6443  -29.8059   20.1596 C   0  0  0  0  0  0
  -25.4117  -36.3075   24.0325 C   0  0  1  0  0  0
  -20.5892  -28.3697   23.1274 C   0  0  2  0  0  0
  -20.6779  -26.9417   22.5410 C   0  0  0  0  0  0
  -19.5755  -26.6385   21.5213 C   0  0  0  0  0  0
  -18.1934  -26.7928   22.1624 C   0  0  0  0  0  0
  -19.1542  -28.8857   23.2876 C   0  0  0  0  0  0
  -18.9464  -30.1457   23.8896 C   0  0  0  0  0  0
  -17.6463  -30.6590   24.0562 C   0  0  0  0  0  0
  -25.9057  -34.9445   23.5096 C   0  0  0  0  0  0
  -16.5354  -29.9086   23.6330 C   0  0  0  0  0  0
  -16.7275  -28.6502   23.0353 C   0  0  0  0  0  0
  -26.4505  -31.6575   25.0707 C   0  0  0  0  0  0
  -25.3732  -31.3721   26.1430 C   0  0  0  0  0  0
  -27.0349  -30.2992   24.6178 C   0  0  0  0  0  0
  -27.6057  -32.4316   25.7486 C   0  0  0  0  0  0
  -27.5582  -37.1799   24.8464 C   0  0  0  0  0  0
  -21.4201  -29.3045   22.3663 N   0  0  0  0  0  0
  -26.4292  -37.3773   23.9409 N   0  0  0  0  0  0
  -24.6938  -31.0539   22.0947 N   0  0  0  0  0  0
  -23.4194  -28.8152   23.3023 O   0  0  0  0  0  0
  -28.3201  -26.4015   20.1129 O   0  0  0  0  0  0
  -26.5631  -34.8919   22.4666 O   0  0  0  0  0  0
  -23.5454  -32.1376   23.7292 O   0  0  0  0  0  0
  -28.3278  -19.0467   20.0712 C   0  0  0  0  0  0
  -29.5980  -18.6490   20.4568 C   0  0  0  0  0  0
  -29.1040  -21.2070   20.5067 C   0  0  0  0  0  0
  -30.2182  -17.2869   20.5103 C   0  0  0  0  0  0
  -29.7485  -15.9813   20.5502 C   0  0  0  0  0  0
  -28.4073  -23.7241   20.1461 C   0  0  0  0  0  0
  -29.2351  -25.2946   22.0592 C   0  0  0  0  0  0
  -28.2345  -25.1348   20.9034 C   0  0  1  0  0  0
  -28.0746  -20.4544   20.0754 N   0  0  0  0  0  0
  -29.0326  -22.6597   20.7741 N   0  0  0  0  0  0
  -27.9545  -23.6162   19.0029 O   0  0  0  0  0  0
  -30.4840  -20.1268   20.9314 S   0  0  0  0  0  0
  -31.4762  -12.5604   19.1825 H   0  0  0  0  0  0
  -30.3722  -11.4672   19.9661 H   0  0  0  0  0  0
  -29.8009  -11.7290   17.5238 H   0  0  0  0  0  0
  -29.6416  -13.4551   17.7306 H   0  0  0  0  0  0
  -27.8990  -11.2707   18.9162 H   0  0  0  0  0  0
  -27.3833  -12.5032   17.7960 H   0  0  0  0  0  0
  -27.6275  -14.2393   19.4486 H   0  0  0  0  0  0
  -28.7108  -12.1684   21.4256 H   0  0  0  0  0  0
  -28.4138  -13.8475   21.7873 H   0  0  0  0  0  0
  -25.2747   -9.5685   22.4765 H   0  0  0  0  0  0
  -24.0001   -7.4625   22.7463 H   0  0  0  0  0  0
  -21.0841   -8.8751   19.8947 H   0  0  0  0  0  0
  -22.3673  -10.9664   19.6169 H   0  0  0  0  0  0
  -21.1999   -7.6145   23.9716 H   0  0  0  0  0  0
  -21.1493   -6.0525   25.9081 H   0  0  0  0  0  0
  -22.0596   -2.7608   23.2849 H   0  0  0  0  0  0
  -22.4089  -11.9875   22.4818 H   0  0  0  0  0  0
  -21.1090  -13.1235   22.2628 H   0  0  0  0  0  0
  -24.6574  -15.8440   20.5224 H   0  0  0  0  0  0
  -26.2738  -15.6243   20.0783 H   0  0  0  0  0  0
  -26.7193  -32.5421   23.1071 H   0  0  0  0  0  0
  -25.0069  -33.9700   25.0397 H   0  0  0  0  0  0
  -22.7216  -31.2986   21.3936 H   0  0  0  0  0  0
  -23.3756  -35.9617   23.3301 H   0  0  0  0  0  0
  -24.3575  -36.8909   22.2051 H   0  0  0  0  0  0
  -23.7241  -37.6485   23.6664 H   0  0  0  0  0  0
  -26.1019  -31.5352   20.6018 H   0  0  0  0  0  0
  -26.8485  -30.8289   22.0037 H   0  0  0  0  0  0
  -28.1298  -28.9562   21.1846 H   0  0  0  0  0  0
  -25.9977  -25.8850   19.0412 H   0  0  0  0  0  0
  -23.9737  -27.2848   19.0263 H   0  0  0  0  0  0
  -23.7681  -30.5793   19.4009 H   0  0  0  0  0  0
  -22.7631  -29.2376   19.8565 H   0  0  0  0  0  0
  -25.1301  -36.1921   25.0818 H   0  0  0  0  0  0
  -20.9983  -28.3274   24.1395 H   0  0  0  0  0  0
  -20.5680  -26.2308   23.3613 H   0  0  0  0  0  0
  -21.6645  -26.7444   22.1201 H   0  0  0  0  0  0
  -19.6917  -25.6294   21.1246 H   0  0  0  0  0  0
  -19.6692  -27.3192   20.6740 H   0  0  0  0  0  0
  -17.4206  -26.6674   21.4027 H   0  0  0  0  0  0
  -18.0335  -26.0069   22.9020 H   0  0  0  0  0  0
  -19.7940  -30.7272   24.2266 H   0  0  0  0  0  0
  -17.5018  -31.6270   24.5160 H   0  0  0  0  0  0
  -15.5355  -30.2989   23.7654 H   0  0  0  0  0  0
  -15.8674  -28.0819   22.7074 H   0  0  0  0  0  0
  -24.5899  -30.7083   25.7748 H   0  0  0  0  0  0
  -24.8938  -32.2893   26.4860 H   0  0  0  0  0  0
  -25.8048  -30.8882   27.0200 H   0  0  0  0  0  0
  -26.2924  -29.6736   24.1206 H   0  0  0  0  0  0
  -27.4040  -29.7255   25.4688 H   0  0  0  0  0  0
  -27.8799  -30.4265   23.9407 H   0  0  0  0  0  0
  -27.2657  -33.3614   26.2062 H   0  0  0  0  0  0
  -28.3872  -32.6880   25.0321 H   0  0  0  0  0  0
  -28.0721  -31.8443   26.5405 H   0  0  0  0  0  0
  -28.2596  -38.0099   24.7518 H   0  0  0  0  0  0
  -28.1082  -36.2631   24.6285 H   0  0  0  0  0  0
  -27.2300  -37.1441   25.8866 H   0  0  0  0  0  0
  -20.9385  -29.8759   21.6862 H   0  0  0  0  0  0
  -26.0172  -38.2848   24.1412 H   0  0  0  0  0  0
  -27.5358  -18.3914   19.7372 H   0  0  0  0  0  0
  -31.2966  -17.3543   20.4579 H   0  0  0  0  0  0
  -28.6804  -15.8567   20.6236 H   0  0  0  0  0  0
  -29.1426  -24.4920   22.7913 H   0  0  0  0  0  0
  -29.0620  -26.2310   22.5900 H   0  0  0  0  0  0
  -30.2622  -25.3079   21.6939 H   0  0  0  0  0  0
  -27.2407  -25.0873   21.3520 H   0  0  0  0  0  0
  -29.5278  -22.9361   21.6092 H   0  0  0  0  0  0
  1 25  1  0  0  0
  1 30  2  0  0  0
  1 75  1  0  0  0
  2  3  1  0  0  0
  2 25  1  0  0  0
  2 83  1  0  0  0
  2 84  1  0  0  0
  3  4  1  0  0  0
  3 85  1  0  0  0
  3 86  1  0  0  0
  4  5  1  0  0  0
  4 87  1  0  0  0
  4 88  1  0  0  0
  5  6  1  0  0  0
  5 26  1  0  0  0
  5 89  1  0  0  0
  6 25  1  0  0  0
  6 90  1  0  0  0
  6 91  1  0  0  0
  7  8  2  0  0  0
  7 26  1  0  0  0
  7 29  1  0  0  0
  8  9  1  0  0  0
  8 22  1  0  0  0
  9 10  1  0  0  0
  9 27  2  0  0  0
 10 11  2  0  0  0
 10 15  1  0  0  0
 11 12  1  0  0  0
 11 92  1  0  0  0
 12 13  2  0  0  0
 12 93  1  0  0  0
 13 14  1  0  0  0
 13 31  1  0  0  0
 14 15  2  0  0  0
 14 94  1  0  0  0
 15 95  1  0  0  0
 16 17  2  0  0  0
 16 21  1  0  0  0
 16 31  1  0  0  0
 17 18  1  0  0  0
 17 96  1  0  0  0
 18 19  2  0  0  0
 18 97  1  0  0  0
 19 20  1  0  0  0
 19 24  1  0  0  0
 20 21  2  0  0  0
 20 98  1  0  0  0
 21 23  1  0  0  0
 22 28  1  0  0  0
 22 32  2  0  0  0
 26 27  1  0  0  0
 28 99  1  0  0  0
 28100  1  0  0  0
 29101  1  0  0  0
 29102  1  0  0  0
 33 34  1  0  0  0
 33 66  1  0  0  0
 33 70  2  0  0  0
 34 36  1  0  0  0
 34 59  1  0  0  0
 34103  1  0  0  0
 35 44  2  0  0  0
 35 45  1  0  0  0
 35 68  1  0  0  0
 36 56  1  0  0  0
 36104  1  0  0  0
 37 39  1  0  0  0
 37 47  1  0  0  0
 37 66  1  0  0  0
 37105  1  0  0  0
 38 43  2  0  0  0
 38 46  1  0  0  0
 38 47  1  0  0  0
 39 64  1  0  0  0
 39 67  2  0  0  0
 40 52  1  0  0  0
 40 53  2  0  0  0
 40 58  1  0  0  0
 41106  1  0  0  0
 41107  1  0  0  0
 41108  1  0  0  0
 41 48  1  0  0  0
 42 43  1  0  0  0
 42 66  1  0  0  0
 42109  1  0  0  0
 42110  1  0  0  0
 43 44  1  0  0  0
 44111  1  0  0  0
 45 46  2  0  0  0
 45112  1  0  0  0
 46113  1  0  0  0
 47114  1  0  0  0
 47115  1  0  0  0
 48 56  1  0  0  0
 48 65  1  0  0  0
 48116  1  0  0  0
 49 50  1  0  0  0
 49 53  1  0  0  0
 49 64  1  0  0  0
 49117  1  0  0  0
 50 51  1  0  0  0
 50118  1  0  0  0
 50119  1  0  0  0
 51 52  1  0  0  0
 51120  1  0  0  0
 51121  1  0  0  0
 52122  1  0  0  0
 52123  1  0  0  0
 53 54  1  0  0  0
 54 55  2  0  0  0
 54124  1  0  0  0
 55 57  1  0  0  0
 55125  1  0  0  0
 56 69  2  0  0  0
 57 58  2  0  0  0
 57126  1  0  0  0
 58127  1  0  0  0
 59 60  1  0  0  0
 59 61  1  0  0  0
 59 62  1  0  0  0
 60128  1  0  0  0
 60129  1  0  0  0
 60130  1  0  0  0
 61131  1  0  0  0
 61132  1  0  0  0
 61133  1  0  0  0
 62134  1  0  0  0
 62135  1  0  0  0
 62136  1  0  0  0
 63 65  1  0  0  0
 63137  1  0  0  0
 63138  1  0  0  0
 63139  1  0  0  0
 64140  1  0  0  0
 65141  1  0  0  0
 68 78  1  0  0  0
 71 72  2  0  0  0
 71 79  1  0  0  0
 71142  1  0  0  0
 72 74  1  0  0  0
 72 82  1  0  0  0
 73 79  2  0  0  0
 73 80  1  0  0  0
 73 82  1  0  0  0
 74 75  2  0  0  0
 74143  1  0  0  0
 75144  1  0  0  0
 76 78  1  0  0  0
 76 80  1  0  0  0
 76 81  2  0  0  0
 77145  1  0  0  0
 77146  1  0  0  0
 77147  1  0  0  0
 77 78  1  0  0  0
 78148  1  0  0  0
 80149  1  0  0  0
M  ISO  4   1 100  68 101  75 100  78 101
M  END
> <chiral flag>
0

> <version>
0

> <s_m_source_file>
/data/baiqing/PycharmProjects/Reinvent-master-3.2/result/LINK_invent/BTK/process_docking_weight1_custom_product_contain_oxygen_bond_distance_aromatic_linkinvent_7_9_3/rearranged_h_0184.sdf

> <i_m_source_file_index>
30

> <r_mmod_Potential_Energy-OPLS-2005>
97.6583557128906

> <r_mmod_Stretch_Energy-OPLS-2005>
103.301193237305

> <r_mmod_Bend_Energy-OPLS-2005>
155.82292175293

> <r_mmod_Torsional_Energy-OPLS-2005>
235.272598266602

> <r_mmod_Improper_Torsional_Energy-OPLS-2005>
6.87414884567261

> <r_mmod_Van_der_Waal_Energy-OPLS-2005>
113.908905029297

> <r_mmod_Electrostatic_Energy-OPLS-2005>
-354.455291748047

> <r_mmod_Solvation_Energy-OPLS-2005>
-240.998489379883

> <b_mmod_Minimization_Converged-OPLS-2005>
0

> <r_mmod_RMS_Derivative-OPLS-2005>
0.597708106040955

$$$$
30
                    3D
 Structure written by MMmdl.
152160  0  0  1  0            999 V2000
  -30.5008  -15.0855   20.3973 C   0  0  0  0  0  0
  -30.4474  -12.6881   19.4935 C   0  0  0  0  0  0
  -29.5264  -12.5451   18.2594 C   0  0  0  0  0  0
  -28.0663  -12.3077   18.6879 C   0  0  0  0  0  0
  -27.6223  -13.2604   19.8278 C   0  0  2  0  0  0
  -28.6684  -13.3563   20.9566 C   0  0  0  0  0  0
  -25.2447  -13.8237   20.5755 C   0  0  0  0  0  0
  -24.1782  -13.0441   20.9277 C   0  0  0  0  0  0
  -24.6415  -11.6933   20.8776 C   0  0  0  0  0  0
  -23.9098  -10.4295   21.0413 C   0  0  0  0  0  0
  -24.3635   -9.4203   21.9190 C   0  0  0  0  0  0
  -23.6304   -8.2240   22.0752 C   0  0  0  0  0  0
  -22.4287   -8.0280   21.3539 C   0  0  0  0  0  0
  -21.9932   -9.0263   20.4645 C   0  0  0  0  0  0
  -22.7267  -10.2140   20.3061 C   0  0  0  0  0  0
  -21.6857   -6.0739   22.5278 C   0  0  0  0  0  0
  -21.4017   -6.5642   23.8211 C   0  0  0  0  0  0
  -21.3661   -5.6791   24.9172 C   0  0  0  0  0  0
  -21.6044   -4.3056   24.7221 C   0  0  0  0  0  0
  -21.8815   -3.8150   23.4342 C   0  0  0  0  0  0
  -21.9196   -4.6967   22.3399 C   0  0  0  0  0  0
  -22.7792  -13.5199   21.1906 C   0  0  0  0  0  0
  -22.1657   -4.2151   21.0976 F   0  0  0  0  0  0
  -21.5629   -3.4536   25.7733 F   0  0  0  0  0  0
  -29.9184  -13.8093   20.3306 N   0  0  0  0  0  0
  -26.2875  -12.9490   20.3248 N   0  0  0  0  0  0
  -25.9353  -11.6608   20.5746 N   0  0  0  0  0  0
  -22.0433  -12.8189   22.0451 N   0  0  0  0  0  0
  -25.4077  -15.1971   20.4168 N   0  0  0  0  0  0
  -31.7260  -15.1185   20.2327 O   0  0  0  0  0  0
  -21.6644   -6.8881   21.4238 O   0  0  0  0  0  0
  -22.3479  -14.5495   20.6728 O   0  0  0  0  0  0
  -24.6523  -31.8362   23.1814 C   0  0  0  0  0  0
  -25.9250  -32.4658   23.8239 C   0  0  1  0  0  0
  -27.2189  -27.0495   20.1666 C   0  0  0  0  0  0
  -25.5957  -33.8467   24.2148 N   0  0  0  0  0  0
  -23.4618  -30.4521   21.5287 C   0  0  2  0  0  0
  -24.9151  -28.8623   20.1147 C   0  0  0  0  0  0
  -22.7621  -29.4501   22.4832 C   0  0  0  0  0  0
  -18.0315  -28.1400   22.8473 C   0  0  0  0  0  0
  -24.1491  -36.7238   23.2645 C   0  0  0  0  0  0
  -26.0248  -30.6807   21.3953 C   0  0  0  0  0  0
  -26.0972  -29.2818   20.7407 C   0  0  0  0  0  0
  -27.2517  -28.3938   20.7480 C   0  0  0  0  0  0
  -26.0107  -26.7536   19.5015 C   0  0  0  0  0  0
  -24.8887  -27.6129   19.4776 C   0  0  0  0  0  0
  -23.6961  -29.7758   20.1518 C   0  0  0  0  0  0
  -25.4126  -36.3008   24.0311 C   0  0  1  0  0  0
  -20.5932  -28.3728   23.1217 C   0  0  2  0  0  0
  -20.6790  -26.9421   22.5404 C   0  0  0  0  0  0
  -19.5763  -26.6375   21.5215 C   0  0  0  0  0  0
  -18.1947  -26.7935   22.1626 C   0  0  0  0  0  0
  -19.1575  -28.8883   23.2832 C   0  0  0  0  0  0
  -18.9487  -30.1479   23.8858 C   0  0  0  0  0  0
  -17.6479  -30.6589   24.0556 C   0  0  0  0  0  0
  -25.9080  -34.9388   23.5045 C   0  0  0  0  0  0
  -16.5370  -29.9077   23.6343 C   0  0  0  0  0  0
  -16.7298  -28.6500   23.0359 C   0  0  0  0  0  0
  -26.4534  -31.6555   25.0720 C   0  0  0  0  0  0
  -25.3687  -31.3771   26.1392 C   0  0  0  0  0  0
  -27.0417  -30.2939   24.6368 C   0  0  0  0  0  0
  -27.6048  -32.4337   25.7511 C   0  0  0  0  0  0
  -27.5574  -37.1774   24.8465 C   0  0  0  0  0  0
  -21.4303  -29.3041   22.3580 N   0  0  0  0  0  0
  -26.4285  -37.3729   23.9407 N   0  0  0  0  0  0
  -24.7334  -31.0133   22.0895 N   0  0  0  0  0  0
  -23.4226  -28.8062   23.3024 O   0  0  0  0  0  0
  -28.2145  -25.9763   20.1689 O   0  0  0  0  0  0
  -26.5683  -34.8899   22.4634 O   0  0  0  0  0  0
  -23.5616  -32.1273   23.6971 O   0  0  0  0  0  0
  -28.7467  -17.6039   23.0165 C   0  0  0  0  0  0
  -29.9192  -18.7407   24.5858 C   0  0  0  0  0  0
  -29.7711  -18.0761   22.2284 C   0  0  0  0  0  0
  -27.9268  -24.6716   20.8153 C   0  0  0  0  0  0
  -28.1792  -23.2339   20.8366 C   0  0  0  0  0  0
  -28.9279  -22.0965   20.0444 C   0  0  0  0  0  0
  -29.2904  -19.2640   19.9642 C   0  0  0  0  0  0
  -29.9621  -17.8725   20.7566 C   0  0  2  0  0  0
  -28.8391  -17.9882   24.3590 N   0  0  0  0  0  0
  -29.0057  -20.7429   20.5712 N   0  0  0  0  0  0
  -29.7126  -16.3006   20.4428 N   0  0  0  0  0  0
  -29.3989  -22.3024   18.9271 O   0  0  0  0  0  0
  -27.5061  -22.6645   21.8483 O   0  0  0  0  0  0
  -30.9022  -19.0299   23.1605 S   0  0  0  0  0  0
  -31.4703  -12.8816   19.1655 H   0  0  0  0  0  0
  -30.4873  -11.7592   20.0649 H   0  0  0  0  0  0
  -29.8685  -11.7278   17.6230 H   0  0  0  0  0  0
  -29.5870  -13.4521   17.6549 H   0  0  0  0  0  0
  -27.9884  -11.2738   19.0255 H   0  0  0  0  0  0
  -27.3979  -12.3992   17.8311 H   0  0  0  0  0  0
  -27.5608  -14.2469   19.3672 H   0  0  0  0  0  0
  -28.7982  -12.3999   21.4647 H   0  0  0  0  0  0
  -28.3488  -14.0717   21.7164 H   0  0  0  0  0  0
  -25.2767   -9.5680   22.4784 H   0  0  0  0  0  0
  -24.0007   -7.4629   22.7471 H   0  0  0  0  0  0
  -21.0863   -8.8790   19.8953 H   0  0  0  0  0  0
  -22.3719  -10.9688   19.6180 H   0  0  0  0  0  0
  -21.2005   -7.6148   23.9714 H   0  0  0  0  0  0
  -21.1489   -6.0522   25.9075 H   0  0  0  0  0  0
  -22.0597   -2.7613   23.2842 H   0  0  0  0  0  0
  -22.4046  -11.9862   22.4872 H   0  0  0  0  0  0
  -21.1039  -13.1204   22.2619 H   0  0  0  0  0  0
  -24.6278  -15.8380   20.5151 H   0  0  0  0  0  0
  -26.2294  -15.6363   20.0252 H   0  0  0  0  0  0
  -26.7321  -32.5238   23.0968 H   0  0  0  0  0  0
  -25.0065  -33.9564   25.0267 H   0  0  0  0  0  0
  -22.7685  -31.2801   21.3667 H   0  0  0  0  0  0
  -23.3763  -35.9560   23.3290 H   0  0  0  0  0  0
  -24.3573  -36.8895   22.2064 H   0  0  0  0  0  0
  -23.7240  -37.6423   23.6699 H   0  0  0  0  0  0
  -26.1913  -31.4291   20.6189 H   0  0  0  0  0  0
  -26.8907  -30.7348   22.0432 H   0  0  0  0  0  0
  -28.1519  -28.7121   21.2543 H   0  0  0  0  0  0
  -25.9171  -25.7919   19.0162 H   0  0  0  0  0  0
  -23.9893  -27.2857   18.9741 H   0  0  0  0  0  0
  -23.8418  -30.5481   19.3957 H   0  0  0  0  0  0
  -22.8086  -29.2243   19.8360 H   0  0  0  0  0  0
  -25.1318  -36.1829   25.0803 H   0  0  0  0  0  0
  -21.0020  -28.3321   24.1338 H   0  0  0  0  0  0
  -20.5680  -26.2342   23.3632 H   0  0  0  0  0  0
  -21.6655  -26.7411   22.1203 H   0  0  0  0  0  0
  -19.6920  -25.6279   21.1260 H   0  0  0  0  0  0
  -19.6700  -27.3173   20.6736 H   0  0  0  0  0  0
  -17.4216  -26.6684   21.4030 H   0  0  0  0  0  0
  -18.0341  -26.0088   22.9031 H   0  0  0  0  0  0
  -19.7962  -30.7311   24.2209 H   0  0  0  0  0  0
  -17.5028  -31.6268   24.5163 H   0  0  0  0  0  0
  -15.5369  -30.2961   23.7686 H   0  0  0  0  0  0
  -15.8701  -28.0803   22.7088 H   0  0  0  0  0  0
  -24.5879  -30.7111   25.7703 H   0  0  0  0  0  0
  -24.8864  -32.2963   26.4726 H   0  0  0  0  0  0
  -25.7939  -30.9000   27.0232 H   0  0  0  0  0  0
  -26.3066  -29.6640   24.1351 H   0  0  0  0  0  0
  -27.3973  -29.7264   25.4978 H   0  0  0  0  0  0
  -27.8993  -30.4157   23.9749 H   0  0  0  0  0  0
  -27.2632  -33.3667   26.2003 H   0  0  0  0  0  0
  -28.3900  -32.6850   25.0369 H   0  0  0  0  0  0
  -28.0670  -31.8523   26.5497 H   0  0  0  0  0  0
  -28.2575  -38.0085   24.7513 H   0  0  0  0  0  0
  -28.1084  -36.2613   24.6290 H   0  0  0  0  0  0
  -27.2292  -37.1420   25.8868 H   0  0  0  0  0  0
  -20.9537  -29.8751   21.6738 H   0  0  0  0  0  0
  -26.0147  -38.2795   24.1409 H   0  0  0  0  0  0
  -27.9105  -16.9946   22.7004 H   0  0  0  0  0  0
  -30.1377  -19.1274   25.5720 H   0  0  0  0  0  0
  -27.2608  -24.9547   21.6205 H   0  0  0  0  0  0
  -28.3008  -18.9474   19.6352 H   0  0  0  0  0  0
  -29.8398  -19.4041   19.0326 H   0  0  0  0  0  0
  -31.0339  -17.9702   20.5762 H   0  0  0  0  0  0
  -28.7645  -20.6828   21.5499 H   0  0  0  0  0  0
  -28.7301  -16.0878   20.3753 H   0  0  0  0  0  0
  -27.4848  -21.7330   21.6708 H   0  0  0  0  0  0
  1 25  1  0  0  0
  1 30  2  0  0  0
  1 81  1  0  0  0
  2  3  1  0  0  0
  2 25  1  0  0  0
  2 85  1  0  0  0
  2 86  1  0  0  0
  3  4  1  0  0  0
  3 87  1  0  0  0
  3 88  1  0  0  0
  4  5  1  0  0  0
  4 89  1  0  0  0
  4 90  1  0  0  0
  5  6  1  0  0  0
  5 26  1  0  0  0
  5 91  1  0  0  0
  6 25  1  0  0  0
  6 92  1  0  0  0
  6 93  1  0  0  0
  7  8  2  0  0  0
  7 26  1  0  0  0
  7 29  1  0  0  0
  8  9  1  0  0  0
  8 22  1  0  0  0
  9 10  1  0  0  0
  9 27  2  0  0  0
 10 11  2  0  0  0
 10 15  1  0  0  0
 11 12  1  0  0  0
 11 94  1  0  0  0
 12 13  2  0  0  0
 12 95  1  0  0  0
 13 14  1  0  0  0
 13 31  1  0  0  0
 14 15  2  0  0  0
 14 96  1  0  0  0
 15 97  1  0  0  0
 16 17  2  0  0  0
 16 21  1  0  0  0
 16 31  1  0  0  0
 17 18  1  0  0  0
 17 98  1  0  0  0
 18 19  2  0  0  0
 18 99  1  0  0  0
 19 20  1  0  0  0
 19 24  1  0  0  0
 20 21  2  0  0  0
 20100  1  0  0  0
 21 23  1  0  0  0
 22 28  1  0  0  0
 22 32  2  0  0  0
 26 27  1  0  0  0
 28101  1  0  0  0
 28102  1  0  0  0
 29103  1  0  0  0
 29104  1  0  0  0
 33 34  1  0  0  0
 33 66  1  0  0  0
 33 70  2  0  0  0
 34 36  1  0  0  0
 34 59  1  0  0  0
 34105  1  0  0  0
 35 44  2  0  0  0
 35 45  1  0  0  0
 35 68  1  0  0  0
 36 56  1  0  0  0
 36106  1  0  0  0
 37 39  1  0  0  0
 37 47  1  0  0  0
 37 66  1  0  0  0
 37107  1  0  0  0
 38 43  2  0  0  0
 38 46  1  0  0  0
 38 47  1  0  0  0
 39 64  1  0  0  0
 39 67  2  0  0  0
 40 52  1  0  0  0
 40 53  2  0  0  0
 40 58  1  0  0  0
 41108  1  0  0  0
 41109  1  0  0  0
 41110  1  0  0  0
 41 48  1  0  0  0
 42 43  1  0  0  0
 42 66  1  0  0  0
 42111  1  0  0  0
 42112  1  0  0  0
 43 44  1  0  0  0
 44113  1  0  0  0
 45 46  2  0  0  0
 45114  1  0  0  0
 46115  1  0  0  0
 47116  1  0  0  0
 47117  1  0  0  0
 48 56  1  0  0  0
 48 65  1  0  0  0
 48118  1  0  0  0
 49 50  1  0  0  0
 49 53  1  0  0  0
 49 64  1  0  0  0
 49119  1  0  0  0
 50 51  1  0  0  0
 50120  1  0  0  0
 50121  1  0  0  0
 51 52  1  0  0  0
 51122  1  0  0  0
 51123  1  0  0  0
 52124  1  0  0  0
 52125  1  0  0  0
 53 54  1  0  0  0
 54 55  2  0  0  0
 54126  1  0  0  0
 55 57  1  0  0  0
 55127  1  0  0  0
 56 69  2  0  0  0
 57 58  2  0  0  0
 57128  1  0  0  0
 58129  1  0  0  0
 59 60  1  0  0  0
 59 61  1  0  0  0
 59 62  1  0  0  0
 60130  1  0  0  0
 60131  1  0  0  0
 60132  1  0  0  0
 61133  1  0  0  0
 61134  1  0  0  0
 61135  1  0  0  0
 62136  1  0  0  0
 62137  1  0  0  0
 62138  1  0  0  0
 63 65  1  0  0  0
 63139  1  0  0  0
 63140  1  0  0  0
 63141  1  0  0  0
 64142  1  0  0  0
 65143  1  0  0  0
 68 74  1  0  0  0
 71 73  2  0  0  0
 71 79  1  0  0  0
 71144  1  0  0  0
 72 79  2  0  0  0
 72 84  1  0  0  0
 72145  1  0  0  0
 73 78  1  0  0  0
 73 84  1  0  0  0
 74 75  2  0  0  0
 74146  1  0  0  0
 75 76  1  0  0  0
 75 83  1  0  0  0
 76 80  1  0  0  0
 76 82  2  0  0  0
 77 80  1  0  0  0
 77147  1  0  0  0
 77148  1  0  0  0
 77 78  1  0  0  0
 78 81  1  0  0  0
 78149  1  0  0  0
 80150  1  0  0  0
 81151  1  0  0  0
 83152  1  0  0  0
M  ISO  4   1 100  68 101  74 101  81 100
M  END
> <chiral flag>
0

> <version>
0

> <s_m_source_file>
/data/baiqing/PycharmProjects/Reinvent-master-3.2/result/LINK_invent/BTK/process_docking_weight1_custom_product_contain_oxygen_bond_distance_aromatic_linkinvent_7_9_3/rearranged_h_0184.sdf

> <i_m_source_file_index>
31

> <r_mmod_Potential_Energy-OPLS-2005>
668.8056640625

> <r_mmod_Stretch_Energy-OPLS-2005>
359.811584472656

> <r_mmod_Bend_Energy-OPLS-2005>
412.951782226562

> <r_mmod_Torsional_Energy-OPLS-2005>
214.256271362305

> <r_mmod_Improper_Torsional_Energy-OPLS-2005>
5.27816534042358

> <r_mmod_Van_der_Waal_Energy-OPLS-2005>
103.241226196289

> <r_mmod_Electrostatic_Energy-OPLS-2005>
-450.974914550781

> <r_mmod_Solvation_Energy-OPLS-2005>
-274.383605957031

> <b_mmod_Minimization_Converged-OPLS-2005>
0

> <r_mmod_RMS_Derivative-OPLS-2005>
1.06274724006653

$$$$
31
                    3D
 Structure written by MMmdl.
153161  0  0  1  0            999 V2000
  -30.5489  -14.8890   20.4275 C   0  0  0  0  0  0
  -30.4465  -12.5492   19.4772 C   0  0  0  0  0  0
  -29.5188  -12.5212   18.2409 C   0  0  0  0  0  0
  -28.0491  -12.3173   18.6607 C   0  0  0  0  0  0
  -27.6332  -13.2390   19.8373 C   0  0  2  0  0  0
  -28.6816  -13.2350   20.9700 C   0  0  0  0  0  0
  -25.2482  -13.8190   20.5700 C   0  0  0  0  0  0
  -24.1793  -13.0426   20.9229 C   0  0  0  0  0  0
  -24.6400  -11.6910   20.8752 C   0  0  0  0  0  0
  -23.9078  -10.4286   21.0407 C   0  0  0  0  0  0
  -24.3627   -9.4200   21.9183 C   0  0  0  0  0  0
  -23.6297   -8.2238   22.0753 C   0  0  0  0  0  0
  -22.4280   -8.0279   21.3543 C   0  0  0  0  0  0
  -21.9918   -9.0254   20.4644 C   0  0  0  0  0  0
  -22.7249  -10.2131   20.3053 C   0  0  0  0  0  0
  -21.6856   -6.0735   22.5278 C   0  0  0  0  0  0
  -21.4014   -6.5638   23.8211 C   0  0  0  0  0  0
  -21.3659   -5.6792   24.9173 C   0  0  0  0  0  0
  -21.6046   -4.3054   24.7224 C   0  0  0  0  0  0
  -21.8820   -3.8146   23.4346 C   0  0  0  0  0  0
  -21.9194   -4.6962   22.3402 C   0  0  0  0  0  0
  -22.7813  -13.5208   21.1882 C   0  0  0  0  0  0
  -22.1662   -4.2148   21.0979 F   0  0  0  0  0  0
  -21.5630   -3.4538   25.7738 F   0  0  0  0  0  0
  -29.9622  -13.6325   20.3703 N   0  0  0  0  0  0
  -26.2906  -12.9409   20.3234 N   0  0  0  0  0  0
  -25.9329  -11.6548   20.5733 N   0  0  0  0  0  0
  -22.0461  -12.8195   22.0436 N   0  0  0  0  0  0
  -25.4096  -15.1917   20.4114 N   0  0  0  0  0  0
  -31.7618  -14.9797   20.2109 O   0  0  0  0  0  0
  -21.6642   -6.8878   21.4239 O   0  0  0  0  0  0
  -22.3494  -14.5512   20.6726 O   0  0  0  0  0  0
  -24.6418  -31.8466   23.1905 C   0  0  0  0  0  0
  -25.9197  -32.4708   23.8286 C   0  0  1  0  0  0
  -27.2242  -27.1713   20.1241 C   0  0  0  0  0  0
  -25.5953  -33.8513   24.2203 N   0  0  0  0  0  0
  -23.4434  -30.4683   21.5367 C   0  0  2  0  0  0
  -24.8915  -28.9026   20.1108 C   0  0  0  0  0  0
  -22.7557  -29.4565   22.4872 C   0  0  0  0  0  0
  -18.0303  -28.1397   22.8476 C   0  0  0  0  0  0
  -24.1493  -36.7264   23.2640 C   0  0  0  0  0  0
  -25.9990  -30.7308   21.3841 C   0  0  0  0  0  0
  -26.0717  -29.3463   20.7217 C   0  0  0  0  0  0
  -27.2387  -28.4955   20.7154 C   0  0  0  0  0  0
  -25.9995  -26.8093   19.5164 C   0  0  0  0  0  0
  -24.8651  -27.6439   19.4964 C   0  0  0  0  0  0
  -23.6675  -29.8015   20.1550 C   0  0  0  0  0  0
  -25.4125  -36.3039   24.0314 C   0  0  1  0  0  0
  -20.5915  -28.3722   23.1239 C   0  0  2  0  0  0
  -20.6789  -26.9428   22.5403 C   0  0  0  0  0  0
  -19.5763  -26.6384   21.5211 C   0  0  0  0  0  0
  -18.1944  -26.7935   22.1624 C   0  0  0  0  0  0
  -19.1559  -28.8877   23.2850 C   0  0  0  0  0  0
  -18.9475  -30.1473   23.8876 C   0  0  0  0  0  0
  -17.6472  -30.6592   24.0562 C   0  0  0  0  0  0
  -25.9072  -34.9412   23.5066 C   0  0  0  0  0  0
  -16.5363  -29.9085   23.6336 C   0  0  0  0  0  0
  -16.7288  -28.6505   23.0355 C   0  0  0  0  0  0
  -26.4524  -31.6564   25.0717 C   0  0  0  0  0  0
  -25.3713  -31.3745   26.1412 C   0  0  0  0  0  0
  -27.0383  -30.2961   24.6281 C   0  0  0  0  0  0
  -27.6057  -32.4325   25.7507 C   0  0  0  0  0  0
  -27.5578  -37.1789   24.8463 C   0  0  0  0  0  0
  -21.4253  -29.3053   22.3615 N   0  0  0  0  0  0
  -26.4289  -37.3750   23.9404 N   0  0  0  0  0  0
  -24.7147  -31.0349   22.0927 N   0  0  0  0  0  0
  -23.4208  -28.8108   23.3012 O   0  0  0  0  0  0
  -28.2741  -26.1816   20.1884 O   0  0  0  0  0  0
  -26.5659  -34.8905   22.4645 O   0  0  0  0  0  0
  -23.5543  -32.1332   23.7140 O   0  0  0  0  0  0
  -30.5571  -19.8395   21.3099 C   0  0  0  0  0  0
  -29.1306  -18.5467   19.9751 C   0  0  0  0  0  0
  -29.5213  -19.9353   20.4138 C   0  0  0  0  0  0
  -29.8742  -17.4462   20.5264 C   0  0  0  0  0  0
  -28.6295  -23.6774   19.2985 C   0  0  0  0  0  0
  -28.3971  -25.0901   19.2412 C   0  0  0  0  0  0
  -28.9588  -22.6244   20.3688 C   0  0  0  0  0  0
  -28.3103  -25.7051   17.8344 C   0  0  0  0  0  0
  -28.0147  -18.3077   18.9821 C   0  0  0  0  0  0
  -29.0036  -21.2807   19.9118 N   0  0  0  0  0  0
  -29.7063  -16.0236   20.4243 N   0  0  0  0  0  0
  -29.1878  -22.8983   21.5480 O   0  0  0  0  0  0
  -28.5794  -23.0900   18.0873 O   0  0  0  0  0  0
  -27.1163  -19.2932   18.9876 F   0  0  0  0  0  0
  -28.4951  -18.2105   17.7429 F   0  0  0  0  0  0
  -27.3551  -17.1758   19.2440 F   0  0  0  0  0  0
  -31.0848  -18.1690   21.5783 S   0  0  0  0  0  0
  -31.4795  -12.7127   19.1656 H   0  0  0  0  0  0
  -30.4361  -11.5886   19.9948 H   0  0  0  0  0  0
  -29.8256  -11.7310   17.5544 H   0  0  0  0  0  0
  -29.6158  -13.4587   17.6908 H   0  0  0  0  0  0
  -27.9339  -11.2732   18.9536 H   0  0  0  0  0  0
  -27.3862  -12.4681   17.8076 H   0  0  0  0  0  0
  -27.6019  -14.2462   19.4222 H   0  0  0  0  0  0
  -28.7564  -12.2501   21.4333 H   0  0  0  0  0  0
  -28.3960  -13.9290   21.7623 H   0  0  0  0  0  0
  -25.2771   -9.5679   22.4760 H   0  0  0  0  0  0
  -24.0006   -7.4631   22.7473 H   0  0  0  0  0  0
  -21.0850   -8.8775   19.8950 H   0  0  0  0  0  0
  -22.3709  -10.9672   19.6165 H   0  0  0  0  0  0
  -21.2004   -7.6146   23.9713 H   0  0  0  0  0  0
  -21.1482   -6.0521   25.9076 H   0  0  0  0  0  0
  -22.0600   -2.7607   23.2846 H   0  0  0  0  0  0
  -22.4093  -11.9867   22.4831 H   0  0  0  0  0  0
  -21.1071  -13.1204   22.2633 H   0  0  0  0  0  0
  -24.6274  -15.8272   20.5188 H   0  0  0  0  0  0
  -26.2266  -15.6438   20.0217 H   0  0  0  0  0  0
  -26.7264  -32.5322   23.1020 H   0  0  0  0  0  0
  -25.0070  -33.9632   25.0328 H   0  0  0  0  0  0
  -22.7448  -31.2937   21.3853 H   0  0  0  0  0  0
  -23.3757  -35.9594   23.3293 H   0  0  0  0  0  0
  -24.3579  -36.8907   22.2056 H   0  0  0  0  0  0
  -23.7244  -37.6456   23.6686 H   0  0  0  0  0  0
  -26.1512  -31.4896   20.6152 H   0  0  0  0  0  0
  -26.8704  -30.7787   22.0257 H   0  0  0  0  0  0
  -28.1393  -28.8300   21.2106 H   0  0  0  0  0  0
  -25.8866  -25.8293   19.0778 H   0  0  0  0  0  0
  -23.9576  -27.2889   19.0274 H   0  0  0  0  0  0
  -23.8019  -30.5776   19.4007 H   0  0  0  0  0  0
  -22.7826  -29.2429   19.8445 H   0  0  0  0  0  0
  -25.1313  -36.1873   25.0807 H   0  0  0  0  0  0
  -21.0005  -28.3311   24.1362 H   0  0  0  0  0  0
  -20.5688  -26.2337   23.3620 H   0  0  0  0  0  0
  -21.6656  -26.7441   22.1198 H   0  0  0  0  0  0
  -19.6925  -25.6290   21.1255 H   0  0  0  0  0  0
  -19.6697  -27.3182   20.6732 H   0  0  0  0  0  0
  -17.4211  -26.6676   21.4030 H   0  0  0  0  0  0
  -18.0348  -26.0084   22.9029 H   0  0  0  0  0  0
  -19.7951  -30.7295   24.2237 H   0  0  0  0  0  0
  -17.5024  -31.6269   24.5168 H   0  0  0  0  0  0
  -15.5362  -30.2980   23.7670 H   0  0  0  0  0  0
  -15.8690  -28.0813   22.7085 H   0  0  0  0  0  0
  -24.5896  -30.7092   25.7728 H   0  0  0  0  0  0
  -24.8897  -32.2924   26.4794 H   0  0  0  0  0  0
  -25.7994  -30.8942   27.0218 H   0  0  0  0  0  0
  -26.2992  -29.6689   24.1283 H   0  0  0  0  0  0
  -27.3996  -29.7256   25.4846 H   0  0  0  0  0  0
  -27.8903  -30.4199   23.9592 H   0  0  0  0  0  0
  -27.2647  -33.3637   26.2047 H   0  0  0  0  0  0
  -28.3892  -32.6867   25.0356 H   0  0  0  0  0  0
  -28.0700  -31.8475   26.5457 H   0  0  0  0  0  0
  -28.2585  -38.0095   24.7513 H   0  0  0  0  0  0
  -28.1083  -36.2623   24.6289 H   0  0  0  0  0  0
  -27.2294  -37.1434   25.8865 H   0  0  0  0  0  0
  -20.9458  -29.8769   21.6801 H   0  0  0  0  0  0
  -26.0158  -38.2818   24.1411 H   0  0  0  0  0  0
  -31.0846  -20.6451   21.8069 H   0  0  0  0  0  0
  -27.3863  -25.4186   17.3309 H   0  0  0  0  0  0
  -29.1533  -25.3891   17.2179 H   0  0  0  0  0  0
  -28.3619  -26.7937   17.8467 H   0  0  0  0  0  0
  -28.6511  -21.2607   18.9622 H   0  0  0  0  0  0
  -28.7407  -15.7448   20.3434 H   0  0  0  0  0  0
  -28.3969  -23.7790   17.4612 H   0  0  0  0  0  0
  1 25  1  0  0  0
  1 30  2  0  0  0
  1 81  1  0  0  0
  2  3  1  0  0  0
  2 25  1  0  0  0
  2 88  1  0  0  0
  2 89  1  0  0  0
  3  4  1  0  0  0
  3 90  1  0  0  0
  3 91  1  0  0  0
  4  5  1  0  0  0
  4 92  1  0  0  0
  4 93  1  0  0  0
  5  6  1  0  0  0
  5 26  1  0  0  0
  5 94  1  0  0  0
  6 25  1  0  0  0
  6 95  1  0  0  0
  6 96  1  0  0  0
  7  8  2  0  0  0
  7 26  1  0  0  0
  7 29  1  0  0  0
  8  9  1  0  0  0
  8 22  1  0  0  0
  9 10  1  0  0  0
  9 27  2  0  0  0
 10 11  2  0  0  0
 10 15  1  0  0  0
 11 12  1  0  0  0
 11 97  1  0  0  0
 12 13  2  0  0  0
 12 98  1  0  0  0
 13 14  1  0  0  0
 13 31  1  0  0  0
 14 15  2  0  0  0
 14 99  1  0  0  0
 15100  1  0  0  0
 16 17  2  0  0  0
 16 21  1  0  0  0
 16 31  1  0  0  0
 17 18  1  0  0  0
 17101  1  0  0  0
 18 19  2  0  0  0
 18102  1  0  0  0
 19 20  1  0  0  0
 19 24  1  0  0  0
 20 21  2  0  0  0
 20103  1  0  0  0
 21 23  1  0  0  0
 22 28  1  0  0  0
 22 32  2  0  0  0
 26 27  1  0  0  0
 28104  1  0  0  0
 28105  1  0  0  0
 29106  1  0  0  0
 29107  1  0  0  0
 33 34  1  0  0  0
 33 66  1  0  0  0
 33 70  2  0  0  0
 34 36  1  0  0  0
 34 59  1  0  0  0
 34108  1  0  0  0
 35 44  2  0  0  0
 35 45  1  0  0  0
 35 68  1  0  0  0
 36 56  1  0  0  0
 36109  1  0  0  0
 37 39  1  0  0  0
 37 47  1  0  0  0
 37 66  1  0  0  0
 37110  1  0  0  0
 38 43  2  0  0  0
 38 46  1  0  0  0
 38 47  1  0  0  0
 39 64  1  0  0  0
 39 67  2  0  0  0
 40 52  1  0  0  0
 40 53  2  0  0  0
 40 58  1  0  0  0
 41111  1  0  0  0
 41112  1  0  0  0
 41113  1  0  0  0
 41 48  1  0  0  0
 42 43  1  0  0  0
 42 66  1  0  0  0
 42114  1  0  0  0
 42115  1  0  0  0
 43 44  1  0  0  0
 44116  1  0  0  0
 45 46  2  0  0  0
 45117  1  0  0  0
 46118  1  0  0  0
 47119  1  0  0  0
 47120  1  0  0  0
 48 56  1  0  0  0
 48 65  1  0  0  0
 48121  1  0  0  0
 49 50  1  0  0  0
 49 53  1  0  0  0
 49 64  1  0  0  0
 49122  1  0  0  0
 50 51  1  0  0  0
 50123  1  0  0  0
 50124  1  0  0  0
 51 52  1  0  0  0
 51125  1  0  0  0
 51126  1  0  0  0
 52127  1  0  0  0
 52128  1  0  0  0
 53 54  1  0  0  0
 54 55  2  0  0  0
 54129  1  0  0  0
 55 57  1  0  0  0
 55130  1  0  0  0
 56 69  2  0  0  0
 57 58  2  0  0  0
 57131  1  0  0  0
 58132  1  0  0  0
 59 60  1  0  0  0
 59 61  1  0  0  0
 59 62  1  0  0  0
 60133  1  0  0  0
 60134  1  0  0  0
 60135  1  0  0  0
 61136  1  0  0  0
 61137  1  0  0  0
 61138  1  0  0  0
 62139  1  0  0  0
 62140  1  0  0  0
 62141  1  0  0  0
 63 65  1  0  0  0
 63142  1  0  0  0
 63143  1  0  0  0
 63144  1  0  0  0
 64145  1  0  0  0
 65146  1  0  0  0
 68 76  1  0  0  0
 71 73  2  0  0  0
 71 87  1  0  0  0
 71147  1  0  0  0
 72 73  1  0  0  0
 72 74  2  0  0  0
 72 79  1  0  0  0
 73 80  1  0  0  0
 74 81  1  0  0  0
 74 87  1  0  0  0
 75 76  2  0  0  0
 75 77  1  0  0  0
 75 83  1  0  0  0
 76 78  1  0  0  0
 77 80  1  0  0  0
 77 82  2  0  0  0
 78148  1  0  0  0
 78149  1  0  0  0
 78150  1  0  0  0
 79 84  1  0  0  0
 79 85  1  0  0  0
 79 86  1  0  0  0
 80151  1  0  0  0
 81152  1  0  0  0
 83153  1  0  0  0
M  ISO  4   1 100  68 101  76 101  81 100
M  END
> <chiral flag>
0

> <version>
0

> <s_m_source_file>
/data/baiqing/PycharmProjects/Reinvent-master-3.2/result/LINK_invent/BTK/process_docking_weight1_custom_product_contain_oxygen_bond_distance_aromatic_linkinvent_7_9_3/rearranged_h_0184.sdf

> <i_m_source_file_index>
32

> <r_mmod_Potential_Energy-OPLS-2005>
494.905212402344

> <r_mmod_Stretch_Energy-OPLS-2005>
199.0458984375

> <r_mmod_Bend_Energy-OPLS-2005>
273.365325927734

> <r_mmod_Torsional_Energy-OPLS-2005>
232.941635131836

> <r_mmod_Improper_Torsional_Energy-OPLS-2005>
8.86584758758545

> <r_mmod_Van_der_Waal_Energy-OPLS-2005>
134.123748779297

> <r_mmod_Electrostatic_Energy-OPLS-2005>
-288.745239257812

> <r_mmod_Solvation_Energy-OPLS-2005>
-227.228591918945

> <b_mmod_Minimization_Converged-OPLS-2005>
0

> <r_mmod_RMS_Derivative-OPLS-2005>
0.411932229995728

$$$$
32
                    3D
 Structure written by MMmdl.
149157  0  0  1  0            999 V2000
  -30.6008  -14.7647   20.4627 C   0  0  0  0  0  0
  -30.4353  -12.4649   19.4914 C   0  0  0  0  0  0
  -29.5153  -12.4995   18.2480 C   0  0  0  0  0  0
  -28.0412  -12.3083   18.6579 C   0  0  0  0  0  0
  -27.6347  -13.2235   19.8401 C   0  0  2  0  0  0
  -28.6717  -13.1763   20.9808 C   0  0  0  0  0  0
  -25.2504  -13.8158   20.5689 C   0  0  0  0  0  0
  -24.1774  -13.0427   20.9181 C   0  0  0  0  0  0
  -24.6355  -11.6898   20.8762 C   0  0  0  0  0  0
  -23.9048  -10.4275   21.0443 C   0  0  0  0  0  0
  -24.3627   -9.4194   21.9211 C   0  0  0  0  0  0
  -23.6297   -8.2226   22.0769 C   0  0  0  0  0  0
  -22.4266   -8.0279   21.3570 C   0  0  0  0  0  0
  -21.9912   -9.0254   20.4662 C   0  0  0  0  0  0
  -22.7236  -10.2132   20.3075 C   0  0  0  0  0  0
  -21.6835   -6.0745   22.5295 C   0  0  0  0  0  0
  -21.3986   -6.5655   23.8232 C   0  0  0  0  0  0
  -21.3668   -5.6816   24.9203 C   0  0  0  0  0  0
  -21.6048   -4.3075   24.7241 C   0  0  0  0  0  0
  -21.8812   -3.8158   23.4364 C   0  0  0  0  0  0
  -21.9176   -4.6974   22.3415 C   0  0  0  0  0  0
  -22.7797  -13.5224   21.1864 C   0  0  0  0  0  0
  -22.1663   -4.2157   21.0991 F   0  0  0  0  0  0
  -21.5639   -3.4565   25.7755 F   0  0  0  0  0  0
  -29.9783  -13.5315   20.4186 N   0  0  0  0  0  0
  -26.2900  -12.9349   20.3247 N   0  0  0  0  0  0
  -25.9274  -11.6506   20.5750 N   0  0  0  0  0  0
  -22.0475  -12.8192   22.0433 N   0  0  0  0  0  0
  -25.4276  -15.1878   20.4165 N   0  0  0  0  0  0
  -31.7984  -14.8502   20.1623 O   0  0  0  0  0  0
  -21.6640   -6.8889   21.4249 O   0  0  0  0  0  0
  -22.3476  -14.5543   20.6748 O   0  0  0  0  0  0
  -24.6288  -31.8564   23.1970 C   0  0  0  0  0  0
  -25.9110  -32.4755   23.8336 C   0  0  1  0  0  0
  -27.2344  -27.2834   20.1508 C   0  0  0  0  0  0
  -25.5911  -33.8561   24.2274 N   0  0  0  0  0  0
  -23.4272  -30.4741   21.5383 C   0  0  2  0  0  0
  -24.8800  -28.9149   20.1193 C   0  0  0  0  0  0
  -22.7511  -29.4595   22.4914 C   0  0  0  0  0  0
  -18.0304  -28.1369   22.8464 C   0  0  0  0  0  0
  -24.1508  -36.7313   23.2632 C   0  0  0  0  0  0
  -25.9691  -30.7765   21.3760 C   0  0  0  0  0  0
  -26.0472  -29.3976   20.7258 C   0  0  0  0  0  0
  -27.2309  -28.5954   20.7226 C   0  0  0  0  0  0
  -26.0482  -26.8525   19.5235 C   0  0  0  0  0  0
  -24.8850  -27.6503   19.5041 C   0  0  0  0  0  0
  -23.6469  -29.7962   20.1593 C   0  0  0  0  0  0
  -25.4120  -36.3080   24.0325 C   0  0  1  0  0  0
  -20.5900  -28.3677   23.1271 C   0  0  2  0  0  0
  -20.6780  -26.9389   22.5410 C   0  0  0  0  0  0
  -19.5760  -26.6357   21.5209 C   0  0  0  0  0  0
  -18.1944  -26.7912   22.1612 C   0  0  0  0  0  0
  -19.1545  -28.8837   23.2860 C   0  0  0  0  0  0
  -18.9460  -30.1441   23.8875 C   0  0  0  0  0  0
  -17.6454  -30.6559   24.0533 C   0  0  0  0  0  0
  -25.9048  -34.9439   23.5105 C   0  0  0  0  0  0
  -16.5352  -29.9044   23.6322 C   0  0  0  0  0  0
  -16.7288  -28.6466   23.0341 C   0  0  0  0  0  0
  -26.4466  -31.6565   25.0726 C   0  0  0  0  0  0
  -25.3671  -31.3721   26.1432 C   0  0  0  0  0  0
  -27.0316  -30.2973   24.6235 C   0  0  0  0  0  0
  -27.6037  -32.4299   25.7491 C   0  0  0  0  0  0
  -27.5607  -37.1802   24.8444 C   0  0  0  0  0  0
  -21.4213  -29.3040   22.3674 N   0  0  0  0  0  0
  -26.4304  -37.3773   23.9404 N   0  0  0  0  0  0
  -24.6932  -31.0541   22.0936 N   0  0  0  0  0  0
  -23.4205  -28.8140   23.3024 O   0  0  0  0  0  0
  -28.3522  -26.4284   20.1437 O   0  0  0  0  0  0
  -26.5623  -34.8903   22.4684 O   0  0  0  0  0  0
  -23.5435  -32.1394   23.7257 O   0  0  0  0  0  0
  -28.2996  -17.6347   20.7420 C   0  0  0  0  0  0
  -30.4783  -17.3921   20.6849 C   0  0  0  0  0  0
  -29.5055  -18.3923   20.7202 C   0  0  0  0  0  0
  -28.7751  -20.9083   20.5644 C   0  0  0  0  0  0
  -28.6341  -23.7068   20.0682 C   0  0  0  0  0  0
  -28.2763  -25.0946   20.8181 C   0  0  0  0  0  0
  -29.1618  -22.4266   20.9207 C   0  0  2  0  0  0
  -28.5219  -16.3083   20.7164 N   0  0  0  0  0  0
  -29.8783  -16.1024   20.6539 N   0  0  0  0  0  0
  -29.6686  -19.8702   20.7805 N   0  0  0  0  0  0
  -27.6469  -20.6803   20.1206 O   0  0  0  0  0  0
  -30.4931  -22.5072   21.0120 F   0  0  0  0  0  0
  -31.4758  -12.5961   19.1901 H   0  0  0  0  0  0
  -30.3898  -11.4911   19.9814 H   0  0  0  0  0  0
  -29.8097  -11.7283   17.5344 H   0  0  0  0  0  0
  -29.6276  -13.4533   17.7297 H   0  0  0  0  0  0
  -27.9079  -11.2629   18.9395 H   0  0  0  0  0  0
  -27.3831  -12.4775   17.8048 H   0  0  0  0  0  0
  -27.6158  -14.2324   19.4317 H   0  0  0  0  0  0
  -28.7108  -12.1829   21.4309 H   0  0  0  0  0  0
  -28.3951  -13.8629   21.7826 H   0  0  0  0  0  0
  -25.2792   -9.5663   22.4764 H   0  0  0  0  0  0
  -24.0028   -7.4612   22.7452 H   0  0  0  0  0  0
  -21.0870   -8.8769   19.8950 H   0  0  0  0  0  0
  -22.3730  -10.9678   19.6180 H   0  0  0  0  0  0
  -21.1972   -7.6161   23.9732 H   0  0  0  0  0  0
  -21.1506   -6.0554   25.9108 H   0  0  0  0  0  0
  -22.0574   -2.7608   23.2862 H   0  0  0  0  0  0
  -22.4129  -11.9885   22.4857 H   0  0  0  0  0  0
  -21.1094  -13.1180   22.2661 H   0  0  0  0  0  0
  -24.6758  -15.8576   20.5320 H   0  0  0  0  0  0
  -26.3346  -15.6158   20.2547 H   0  0  0  0  0  0
  -26.7181  -32.5412   23.1089 H   0  0  0  0  0  0
  -25.0018  -33.9699   25.0388 H   0  0  0  0  0  0
  -22.7208  -31.2923   21.3855 H   0  0  0  0  0  0
  -23.3775  -35.9647   23.3256 H   0  0  0  0  0  0
  -24.3602  -36.8993   22.2058 H   0  0  0  0  0  0
  -23.7270  -37.6494   23.6695 H   0  0  0  0  0  0
  -26.1074  -31.5347   20.6032 H   0  0  0  0  0  0
  -26.8452  -30.8272   22.0113 H   0  0  0  0  0  0
  -28.1300  -28.9664   21.1950 H   0  0  0  0  0  0
  -26.0221  -25.8813   19.0501 H   0  0  0  0  0  0
  -23.9928  -27.2787   19.0185 H   0  0  0  0  0  0
  -23.7656  -30.5644   19.3953 H   0  0  0  0  0  0
  -22.7695  -29.2186   19.8613 H   0  0  0  0  0  0
  -25.1306  -36.1931   25.0820 H   0  0  0  0  0  0
  -20.9977  -28.3259   24.1395 H   0  0  0  0  0  0
  -20.5691  -26.2283   23.3613 H   0  0  0  0  0  0
  -21.6648  -26.7423   22.1197 H   0  0  0  0  0  0
  -19.6925  -25.6262   21.1251 H   0  0  0  0  0  0
  -19.6708  -27.3147   20.6723 H   0  0  0  0  0  0
  -17.4222  -26.6666   21.4006 H   0  0  0  0  0  0
  -18.0328  -26.0047   22.8994 H   0  0  0  0  0  0
  -19.7933  -30.7260   24.2242 H   0  0  0  0  0  0
  -17.5002  -31.6243   24.5131 H   0  0  0  0  0  0
  -15.5340  -30.2923   23.7656 H   0  0  0  0  0  0
  -15.8699  -28.0768   22.7066 H   0  0  0  0  0  0
  -24.5845  -30.7087   25.7739 H   0  0  0  0  0  0
  -24.8840  -32.2881   26.4841 H   0  0  0  0  0  0
  -25.7944  -30.8886   27.0230 H   0  0  0  0  0  0
  -26.2920  -29.6706   24.1238 H   0  0  0  0  0  0
  -27.3955  -29.7253   25.4781 H   0  0  0  0  0  0
  -27.8819  -30.4241   23.9536 H   0  0  0  0  0  0
  -27.2678  -33.3623   26.2054 H   0  0  0  0  0  0
  -28.3840  -32.6823   25.0293 H   0  0  0  0  0  0
  -28.0715  -31.8424   26.5403 H   0  0  0  0  0  0
  -28.2563  -38.0153   24.7526 H   0  0  0  0  0  0
  -28.1164  -36.2677   24.6221 H   0  0  0  0  0  0
  -27.2317  -37.1380   25.8840 H   0  0  0  0  0  0
  -20.9408  -29.8760   21.6861 H   0  0  0  0  0  0
  -26.0190  -38.2866   24.1368 H   0  0  0  0  0  0
  -27.2796  -17.9934   20.7858 H   0  0  0  0  0  0
  -31.5554  -17.4822   20.6577 H   0  0  0  0  0  0
  -29.4097  -23.9336   19.3361 H   0  0  0  0  0  0
  -27.7701  -23.4095   19.4731 H   0  0  0  0  0  0
  -28.9653  -25.1791   21.6588 H   0  0  0  0  0  0
  -27.2968  -24.9839   21.2855 H   0  0  0  0  0  0
  -28.8102  -22.5641   21.9438 H   0  0  0  0  0  0
  -30.5883  -20.2023   21.0414 H   0  0  0  0  0  0
  1 25  1  0  0  0
  1 30  2  0  0  0
  1 79  1  0  0  0
  2  3  1  0  0  0
  2 25  1  0  0  0
  2 83  1  0  0  0
  2 84  1  0  0  0
  3  4  1  0  0  0
  3 85  1  0  0  0
  3 86  1  0  0  0
  4  5  1  0  0  0
  4 87  1  0  0  0
  4 88  1  0  0  0
  5  6  1  0  0  0
  5 26  1  0  0  0
  5 89  1  0  0  0
  6 25  1  0  0  0
  6 90  1  0  0  0
  6 91  1  0  0  0
  7  8  2  0  0  0
  7 26  1  0  0  0
  7 29  1  0  0  0
  8  9  1  0  0  0
  8 22  1  0  0  0
  9 10  1  0  0  0
  9 27  2  0  0  0
 10 11  2  0  0  0
 10 15  1  0  0  0
 11 12  1  0  0  0
 11 92  1  0  0  0
 12 13  2  0  0  0
 12 93  1  0  0  0
 13 14  1  0  0  0
 13 31  1  0  0  0
 14 15  2  0  0  0
 14 94  1  0  0  0
 15 95  1  0  0  0
 16 17  2  0  0  0
 16 21  1  0  0  0
 16 31  1  0  0  0
 17 18  1  0  0  0
 17 96  1  0  0  0
 18 19  2  0  0  0
 18 97  1  0  0  0
 19 20  1  0  0  0
 19 24  1  0  0  0
 20 21  2  0  0  0
 20 98  1  0  0  0
 21 23  1  0  0  0
 22 28  1  0  0  0
 22 32  2  0  0  0
 26 27  1  0  0  0
 28 99  1  0  0  0
 28100  1  0  0  0
 29101  1  0  0  0
 29102  1  0  0  0
 33 34  1  0  0  0
 33 66  1  0  0  0
 33 70  2  0  0  0
 34 36  1  0  0  0
 34 59  1  0  0  0
 34103  1  0  0  0
 35 44  2  0  0  0
 35 45  1  0  0  0
 35 68  1  0  0  0
 36 56  1  0  0  0
 36104  1  0  0  0
 37 39  1  0  0  0
 37 47  1  0  0  0
 37 66  1  0  0  0
 37105  1  0  0  0
 38 43  2  0  0  0
 38 46  1  0  0  0
 38 47  1  0  0  0
 39 64  1  0  0  0
 39 67  2  0  0  0
 40 52  1  0  0  0
 40 53  2  0  0  0
 40 58  1  0  0  0
 41106  1  0  0  0
 41107  1  0  0  0
 41108  1  0  0  0
 41 48  1  0  0  0
 42 43  1  0  0  0
 42 66  1  0  0  0
 42109  1  0  0  0
 42110  1  0  0  0
 43 44  1  0  0  0
 44111  1  0  0  0
 45 46  2  0  0  0
 45112  1  0  0  0
 46113  1  0  0  0
 47114  1  0  0  0
 47115  1  0  0  0
 48 56  1  0  0  0
 48 65  1  0  0  0
 48116  1  0  0  0
 49 50  1  0  0  0
 49 53  1  0  0  0
 49 64  1  0  0  0
 49117  1  0  0  0
 50 51  1  0  0  0
 50118  1  0  0  0
 50119  1  0  0  0
 51 52  1  0  0  0
 51120  1  0  0  0
 51121  1  0  0  0
 52122  1  0  0  0
 52123  1  0  0  0
 53 54  1  0  0  0
 54 55  2  0  0  0
 54124  1  0  0  0
 55 57  1  0  0  0
 55125  1  0  0  0
 56 69  2  0  0  0
 57 58  2  0  0  0
 57126  1  0  0  0
 58127  1  0  0  0
 59 60  1  0  0  0
 59 61  1  0  0  0
 59 62  1  0  0  0
 60128  1  0  0  0
 60129  1  0  0  0
 60130  1  0  0  0
 61131  1  0  0  0
 61132  1  0  0  0
 61133  1  0  0  0
 62134  1  0  0  0
 62135  1  0  0  0
 62136  1  0  0  0
 63 65  1  0  0  0
 63137  1  0  0  0
 63138  1  0  0  0
 63139  1  0  0  0
 64140  1  0  0  0
 65141  1  0  0  0
 68 76  1  0  0  0
 71 73  1  0  0  0
 71 78  2  0  0  0
 71142  1  0  0  0
 72 73  2  0  0  0
 72 79  1  0  0  0
 72143  1  0  0  0
 73 80  1  0  0  0
 74 77  1  0  0  0
 74 80  1  0  0  0
 74 81  2  0  0  0
 75 76  1  0  0  0
 75 77  1  0  0  0
 75144  1  0  0  0
 75145  1  0  0  0
 76146  1  0  0  0
 76147  1  0  0  0
 77 82  1  0  0  0
 77148  1  0  0  0
 78 79  1  0  0  0
 80149  1  0  0  0
M  ISO  4   1 100  68 101  76 101  79 100
M  END
> <chiral flag>
0

> <version>
0

> <s_m_source_file>
/data/baiqing/PycharmProjects/Reinvent-master-3.2/result/LINK_invent/BTK/process_docking_weight1_custom_product_contain_oxygen_bond_distance_aromatic_linkinvent_7_9_3/rearranged_h_0184.sdf

> <i_m_source_file_index>
33

> <r_mmod_Potential_Energy-OPLS-2005>
185.417755126953

> <r_mmod_Stretch_Energy-OPLS-2005>
120.552238464355

> <r_mmod_Bend_Energy-OPLS-2005>
176.421356201172

> <r_mmod_Torsional_Energy-OPLS-2005>
213.030822753906

> <r_mmod_Improper_Torsional_Energy-OPLS-2005>
4.55111932754517

> <r_mmod_Van_der_Waal_Energy-OPLS-2005>
112.306838989258

> <r_mmod_Electrostatic_Energy-OPLS-2005>
-310.033355712891

> <r_mmod_Solvation_Energy-OPLS-2005>
-214.096221923828

> <b_mmod_Minimization_Converged-OPLS-2005>
0

> <r_mmod_RMS_Derivative-OPLS-2005>
3.12436652183533

$$$$
33
                    3D
 Structure written by MMmdl.
162170  0  0  1  0            999 V2000
  -30.5978  -14.7905   20.4156 C   0  0  0  0  0  0
  -30.4409  -12.4702   19.5033 C   0  0  0  0  0  0
  -29.5435  -12.5355   18.2489 C   0  0  0  0  0  0
  -28.0617  -12.3547   18.6387 C   0  0  0  0  0  0
  -27.6498  -13.2432   19.8461 C   0  0  2  0  0  0
  -28.6900  -13.1893   20.9899 C   0  0  0  0  0  0
  -25.2570  -13.8231   20.5678 C   0  0  0  0  0  0
  -24.1839  -13.0479   20.9187 C   0  0  0  0  0  0
  -24.6417  -11.6949   20.8707 C   0  0  0  0  0  0
  -23.9065  -10.4326   21.0380 C   0  0  0  0  0  0
  -24.3619   -9.4250   21.9189 C   0  0  0  0  0  0
  -23.6309   -8.2274   22.0748 C   0  0  0  0  0  0
  -22.4292   -8.0282   21.3526 C   0  0  0  0  0  0
  -21.9916   -9.0247   20.4622 C   0  0  0  0  0  0
  -22.7231  -10.2151   20.3042 C   0  0  0  0  0  0
  -21.6840   -6.0745   22.5291 C   0  0  0  0  0  0
  -21.3978   -6.5651   23.8226 C   0  0  0  0  0  0
  -21.3673   -5.6796   24.9187 C   0  0  0  0  0  0
  -21.6062   -4.3065   24.7231 C   0  0  0  0  0  0
  -21.8809   -3.8142   23.4342 C   0  0  0  0  0  0
  -21.9177   -4.6973   22.3413 C   0  0  0  0  0  0
  -22.7855  -13.5265   21.1848 C   0  0  0  0  0  0
  -22.1650   -4.2168   21.0979 F   0  0  0  0  0  0
  -21.5660   -3.4530   25.7732 F   0  0  0  0  0  0
  -29.9965  -13.5467   20.4224 N   0  0  0  0  0  0
  -26.2987  -12.9449   20.3197 N   0  0  0  0  0  0
  -25.9360  -11.6582   20.5654 N   0  0  0  0  0  0
  -22.0386  -12.8310   22.0387 N   0  0  0  0  0  0
  -25.4346  -15.1945   20.4124 N   0  0  0  0  0  0
  -31.7784  -14.8818   20.0561 O   0  0  0  0  0  0
  -21.6641   -6.8904   21.4250 O   0  0  0  0  0  0
  -22.3576  -14.5567   20.6680 O   0  0  0  0  0  0
  -24.6340  -31.8527   23.1949 C   0  0  0  0  0  0
  -25.9171  -32.4740   23.8297 C   0  0  1  0  0  0
  -27.2053  -27.2238   20.1307 C   0  0  0  0  0  0
  -25.5973  -33.8548   24.2236 N   0  0  0  0  0  0
  -23.4309  -30.4735   21.5400 C   0  0  2  0  0  0
  -24.8766  -28.9114   20.1129 C   0  0  0  0  0  0
  -22.7507  -29.4614   22.4942 C   0  0  0  0  0  0
  -18.0279  -28.1368   22.8500 C   0  0  0  0  0  0
  -24.1507  -36.7251   23.2637 C   0  0  0  0  0  0
  -25.9805  -30.7549   21.3798 C   0  0  0  0  0  0
  -26.0529  -29.3723   20.7222 C   0  0  0  0  0  0
  -27.2249  -28.5432   20.7140 C   0  0  0  0  0  0
  -26.0114  -26.8436   19.4878 C   0  0  0  0  0  0
  -24.8627  -27.6593   19.4822 C   0  0  0  0  0  0
  -23.6484  -29.8003   20.1591 C   0  0  0  0  0  0
  -25.4143  -36.3063   24.0321 C   0  0  1  0  0  0
  -20.5890  -28.3710   23.1259 C   0  0  2  0  0  0
  -20.6791  -26.9435   22.5396 C   0  0  0  0  0  0
  -19.5767  -26.6370   21.5215 C   0  0  0  0  0  0
  -18.1926  -26.7933   22.1590 C   0  0  0  0  0  0
  -19.1534  -28.8855   23.2854 C   0  0  0  0  0  0
  -18.9461  -30.1459   23.8859 C   0  0  0  0  0  0
  -17.6460  -30.6604   24.0524 C   0  0  0  0  0  0
  -25.9089  -34.9438   23.5080 C   0  0  0  0  0  0
  -16.5338  -29.9081   23.6347 C   0  0  0  0  0  0
  -16.7262  -28.6474   23.0404 C   0  0  0  0  0  0
  -26.4538  -31.6548   25.0690 C   0  0  0  0  0  0
  -25.3715  -31.3699   26.1362 C   0  0  0  0  0  0
  -27.0372  -30.2946   24.6199 C   0  0  0  0  0  0
  -27.6109  -32.4259   25.7460 C   0  0  0  0  0  0
  -27.5600  -37.1769   24.8462 C   0  0  0  0  0  0
  -21.4210  -29.3052   22.3660 N   0  0  0  0  0  0
  -26.4312  -37.3763   23.9411 N   0  0  0  0  0  0
  -24.7006  -31.0472   22.0928 N   0  0  0  0  0  0
  -23.4199  -28.8172   23.3068 O   0  0  0  0  0  0
  -28.2707  -26.2891   20.1408 O   0  0  0  0  0  0
  -26.5636  -34.8912   22.4639 O   0  0  0  0  0  0
  -23.5493  -32.1358   23.7244 O   0  0  0  0  0  0
  -29.3935  -18.9007   18.0865 C   0  0  0  0  0  0
  -29.2709  -19.5069   19.3372 C   0  0  0  0  0  0
  -29.8021  -17.2281   19.9341 C   0  0  0  0  0  0
  -28.6320  -23.6073   19.7746 C   0  0  0  0  0  0
  -30.1329  -22.1236   21.2590 C   0  0  0  0  0  0
  -29.7149  -20.7928   16.3678 C   0  0  0  0  0  0
  -27.4930  -19.6215   16.6086 C   0  0  0  0  0  0
  -29.4114  -18.4978   15.5397 C   0  0  0  0  0  0
  -27.9858  -24.8560   20.5778 C   0  0  0  0  0  0
  -28.8501  -22.0945   20.4147 C   0  0  2  0  0  0
  -29.0235  -19.4522   16.7001 C   0  0  0  0  0  0
  -29.4409  -18.4953   20.3751 N   0  0  0  0  0  0
  -28.9397  -20.9477   19.4198 N   0  0  0  0  0  0
  -29.8546  -15.9420   20.6885 N   0  0  0  0  0  0
  -28.9691  -23.8031   18.6017 O   0  0  0  0  0  0
  -30.0012  -17.2413   18.1988 S   0  0  0  0  0  0
  -31.4911  -12.5717   19.2294 H   0  0  0  0  0  0
  -30.3634  -11.4918   19.9829 H   0  0  0  0  0  0
  -29.8559  -11.7830   17.5230 H   0  0  0  0  0  0
  -29.6826  -13.5037   17.7612 H   0  0  0  0  0  0
  -27.9117  -11.3062   18.8959 H   0  0  0  0  0  0
  -27.4198  -12.5558   17.7776 H   0  0  0  0  0  0
  -27.6439  -14.2664   19.4690 H   0  0  0  0  0  0
  -28.7339  -12.1952   21.4355 H   0  0  0  0  0  0
  -28.4207  -13.8722   21.7962 H   0  0  0  0  0  0
  -25.2732   -9.5809   22.4783 H   0  0  0  0  0  0
  -24.0039   -7.4694   22.7488 H   0  0  0  0  0  0
  -21.0831   -8.8762   19.8947 H   0  0  0  0  0  0
  -22.3648  -10.9690   19.6166 H   0  0  0  0  0  0
  -21.1957   -7.6154   23.9753 H   0  0  0  0  0  0
  -21.1509   -6.0503   25.9111 H   0  0  0  0  0  0
  -22.0585   -2.7602   23.2807 H   0  0  0  0  0  0
  -22.3789  -11.9918   22.4837 H   0  0  0  0  0  0
  -21.1008  -13.1475   22.2469 H   0  0  0  0  0  0
  -24.6797  -15.8643   20.5249 H   0  0  0  0  0  0
  -26.2996  -15.6175   20.1051 H   0  0  0  0  0  0
  -26.7231  -32.5393   23.1030 H   0  0  0  0  0  0
  -25.0140  -33.9692   25.0393 H   0  0  0  0  0  0
  -22.7275  -31.2954   21.3926 H   0  0  0  0  0  0
  -23.3818  -35.9526   23.3256 H   0  0  0  0  0  0
  -24.3591  -36.8920   22.2055 H   0  0  0  0  0  0
  -23.7194  -37.6407   23.6690 H   0  0  0  0  0  0
  -26.1294  -31.5177   20.6141 H   0  0  0  0  0  0
  -26.8535  -30.7982   22.0177 H   0  0  0  0  0  0
  -28.1277  -28.8959   21.1925 H   0  0  0  0  0  0
  -25.9573  -25.8853   18.9910 H   0  0  0  0  0  0
  -23.9682  -27.3067   18.9835 H   0  0  0  0  0  0
  -23.7621  -30.5696   19.3952 H   0  0  0  0  0  0
  -22.7681  -29.2241   19.8688 H   0  0  0  0  0  0
  -25.1327  -36.1895   25.0812 H   0  0  0  0  0  0
  -20.9967  -28.3293   24.1385 H   0  0  0  0  0  0
  -20.5734  -26.2326   23.3600 H   0  0  0  0  0  0
  -21.6643  -26.7485   22.1145 H   0  0  0  0  0  0
  -19.6926  -25.6268   21.1274 H   0  0  0  0  0  0
  -19.6721  -27.3148   20.6725 H   0  0  0  0  0  0
  -17.4229  -26.6734   21.3945 H   0  0  0  0  0  0
  -18.0264  -26.0037   22.8930 H   0  0  0  0  0  0
  -19.7934  -30.7275   24.2222 H   0  0  0  0  0  0
  -17.5023  -31.6320   24.5058 H   0  0  0  0  0  0
  -15.5338  -30.2975   23.7702 H   0  0  0  0  0  0
  -15.8646  -28.0769   22.7192 H   0  0  0  0  0  0
  -24.5902  -30.7085   25.7606 H   0  0  0  0  0  0
  -24.8911  -32.2878   26.4755 H   0  0  0  0  0  0
  -25.7964  -30.8823   27.0142 H   0  0  0  0  0  0
  -26.2945  -29.6662   24.1277 H   0  0  0  0  0  0
  -27.4080  -29.7248   25.4728 H   0  0  0  0  0  0
  -27.8829  -30.4177   23.9430 H   0  0  0  0  0  0
  -27.2764  -33.3580   26.2010 H   0  0  0  0  0  0
  -28.3940  -32.6749   25.0291 H   0  0  0  0  0  0
  -28.0751  -31.8371   26.5376 H   0  0  0  0  0  0
  -28.2580  -38.0101   24.7567 H   0  0  0  0  0  0
  -28.1131  -36.2636   24.6229 H   0  0  0  0  0  0
  -27.2316  -37.1326   25.8858 H   0  0  0  0  0  0
  -20.9418  -29.8766   21.6835 H   0  0  0  0  0  0
  -26.0197  -38.2833   24.1409 H   0  0  0  0  0  0
  -30.0723  -22.8838   22.0389 H   0  0  0  0  0  0
  -31.0094  -22.3470   20.6455 H   0  0  0  0  0  0
  -30.3044  -21.1682   21.7565 H   0  0  0  0  0  0
  -29.3626  -21.6241   16.9722 H   0  0  0  0  0  0
  -29.5280  -21.0851   15.3330 H   0  0  0  0  0  0
  -30.7962  -20.7255   16.4899 H   0  0  0  0  0  0
  -27.1075  -20.2816   17.3862 H   0  0  0  0  0  0
  -26.9846  -18.6615   16.7179 H   0  0  0  0  0  0
  -27.1878  -20.0408   15.6479 H   0  0  0  0  0  0
  -30.4918  -18.3675   15.4647 H   0  0  0  0  0  0
  -29.0762  -18.8946   14.5799 H   0  0  0  0  0  0
  -28.9539  -17.5124   15.6324 H   0  0  0  0  0  0
  -28.2889  -24.7611   21.6212 H   0  0  0  0  0  0
  -26.9090  -24.6855   20.5907 H   0  0  0  0  0  0
  -28.0102  -21.8754   21.0773 H   0  0  0  0  0  0
  -28.8629  -21.3368   18.4858 H   0  0  0  0  0  0
  -29.0512  -15.7786   21.2723 H   0  0  0  0  0  0
  1 25  1  0  0  0
  1 30  2  0  0  0
  1 84  1  0  0  0
  2  3  1  0  0  0
  2 25  1  0  0  0
  2 87  1  0  0  0
  2 88  1  0  0  0
  3  4  1  0  0  0
  3 89  1  0  0  0
  3 90  1  0  0  0
  4  5  1  0  0  0
  4 91  1  0  0  0
  4 92  1  0  0  0
  5  6  1  0  0  0
  5 26  1  0  0  0
  5 93  1  0  0  0
  6 25  1  0  0  0
  6 94  1  0  0  0
  6 95  1  0  0  0
  7  8  2  0  0  0
  7 26  1  0  0  0
  7 29  1  0  0  0
  8  9  1  0  0  0
  8 22  1  0  0  0
  9 10  1  0  0  0
  9 27  2  0  0  0
 10 11  2  0  0  0
 10 15  1  0  0  0
 11 12  1  0  0  0
 11 96  1  0  0  0
 12 13  2  0  0  0
 12 97  1  0  0  0
 13 14  1  0  0  0
 13 31  1  0  0  0
 14 15  2  0  0  0
 14 98  1  0  0  0
 15 99  1  0  0  0
 16 17  2  0  0  0
 16 21  1  0  0  0
 16 31  1  0  0  0
 17 18  1  0  0  0
 17100  1  0  0  0
 18 19  2  0  0  0
 18101  1  0  0  0
 19 20  1  0  0  0
 19 24  1  0  0  0
 20 21  2  0  0  0
 20102  1  0  0  0
 21 23  1  0  0  0
 22 28  1  0  0  0
 22 32  2  0  0  0
 26 27  1  0  0  0
 28103  1  0  0  0
 28104  1  0  0  0
 29105  1  0  0  0
 29106  1  0  0  0
 33 34  1  0  0  0
 33 66  1  0  0  0
 33 70  2  0  0  0
 34 36  1  0  0  0
 34 59  1  0  0  0
 34107  1  0  0  0
 35 44  2  0  0  0
 35 45  1  0  0  0
 35 68  1  0  0  0
 36 56  1  0  0  0
 36108  1  0  0  0
 37 39  1  0  0  0
 37 47  1  0  0  0
 37 66  1  0  0  0
 37109  1  0  0  0
 38 43  2  0  0  0
 38 46  1  0  0  0
 38 47  1  0  0  0
 39 64  1  0  0  0
 39 67  2  0  0  0
 40 52  1  0  0  0
 40 53  2  0  0  0
 40 58  1  0  0  0
 41110  1  0  0  0
 41111  1  0  0  0
 41112  1  0  0  0
 41 48  1  0  0  0
 42 43  1  0  0  0
 42 66  1  0  0  0
 42113  1  0  0  0
 42114  1  0  0  0
 43 44  1  0  0  0
 44115  1  0  0  0
 45 46  2  0  0  0
 45116  1  0  0  0
 46117  1  0  0  0
 47118  1  0  0  0
 47119  1  0  0  0
 48 56  1  0  0  0
 48 65  1  0  0  0
 48120  1  0  0  0
 49 50  1  0  0  0
 49 53  1  0  0  0
 49 64  1  0  0  0
 49121  1  0  0  0
 50 51  1  0  0  0
 50122  1  0  0  0
 50123  1  0  0  0
 51 52  1  0  0  0
 51124  1  0  0  0
 51125  1  0  0  0
 52126  1  0  0  0
 52127  1  0  0  0
 53 54  1  0  0  0
 54 55  2  0  0  0
 54128  1  0  0  0
 55 57  1  0  0  0
 55129  1  0  0  0
 56 69  2  0  0  0
 57 58  2  0  0  0
 57130  1  0  0  0
 58131  1  0  0  0
 59 60  1  0  0  0
 59 61  1  0  0  0
 59 62  1  0  0  0
 60132  1  0  0  0
 60133  1  0  0  0
 60134  1  0  0  0
 61135  1  0  0  0
 61136  1  0  0  0
 61137  1  0  0  0
 62138  1  0  0  0
 62139  1  0  0  0
 62140  1  0  0  0
 63 65  1  0  0  0
 63141  1  0  0  0
 63142  1  0  0  0
 63143  1  0  0  0
 64144  1  0  0  0
 65145  1  0  0  0
 68 79  1  0  0  0
 71 72  2  0  0  0
 71 81  1  0  0  0
 71 86  1  0  0  0
 72 82  1  0  0  0
 72 83  1  0  0  0
 73 82  2  0  0  0
 73 84  1  0  0  0
 73 86  1  0  0  0
 74 79  1  0  0  0
 74 80  1  0  0  0
 74 85  2  0  0  0
 75146  1  0  0  0
 75147  1  0  0  0
 75148  1  0  0  0
 75 80  1  0  0  0
 76149  1  0  0  0
 76150  1  0  0  0
 76151  1  0  0  0
 76 81  1  0  0  0
 77 81  1  0  0  0
 77152  1  0  0  0
 77153  1  0  0  0
 77154  1  0  0  0
 78 81  1  0  0  0
 78155  1  0  0  0
 78156  1  0  0  0
 78157  1  0  0  0
 79158  1  0  0  0
 79159  1  0  0  0
 80 83  1  0  0  0
 80160  1  0  0  0
 83161  1  0  0  0
 84162  1  0  0  0
M  ISO  4   1 100  68 101  79 101  84 100
M  END
> <chiral flag>
0

> <version>
0

> <s_m_source_file>
/data/baiqing/PycharmProjects/Reinvent-master-3.2/result/LINK_invent/BTK/process_docking_weight1_custom_product_contain_oxygen_bond_distance_aromatic_linkinvent_7_9_3/rearranged_h_0184.sdf

> <i_m_source_file_index>
34

> <r_mmod_Potential_Energy-OPLS-2005>
209.650253295898

> <r_mmod_Stretch_Energy-OPLS-2005>
156.255508422852

> <r_mmod_Bend_Energy-OPLS-2005>
225.861145019531

> <r_mmod_Torsional_Energy-OPLS-2005>
227.257446289062

> <r_mmod_Improper_Torsional_Energy-OPLS-2005>
5.16929054260254

> <r_mmod_Van_der_Waal_Energy-OPLS-2005>
112.968276977539

> <r_mmod_Electrostatic_Energy-OPLS-2005>
-401.570617675781

> <r_mmod_Solvation_Energy-OPLS-2005>
-224.483612060547

> <b_mmod_Minimization_Converged-OPLS-2005>
0

> <r_mmod_RMS_Derivative-OPLS-2005>
5.0017032623291

$$$$
34
                    3D
 Structure written by MMmdl.
166174  0  0  1  0            999 V2000
  -30.4667  -15.0000   20.3990 C   0  0  0  0  0  0
  -30.4461  -12.6242   19.5037 C   0  0  0  0  0  0
  -29.5316  -12.5525   18.2583 C   0  0  0  0  0  0
  -28.0624  -12.3223   18.6644 C   0  0  0  0  0  0
  -27.6218  -13.2494   19.8286 C   0  0  2  0  0  0
  -28.6571  -13.2923   20.9715 C   0  0  0  0  0  0
  -25.2403  -13.8213   20.5665 C   0  0  0  0  0  0
  -24.1732  -13.0455   20.9193 C   0  0  0  0  0  0
  -24.6343  -11.6933   20.8709 C   0  0  0  0  0  0
  -23.9013  -10.4299   21.0368 C   0  0  0  0  0  0
  -24.3575   -9.4245   21.9155 C   0  0  0  0  0  0
  -23.6278   -8.2259   22.0721 C   0  0  0  0  0  0
  -22.4261   -8.0260   21.3527 C   0  0  0  0  0  0
  -21.9871   -9.0205   20.4609 C   0  0  0  0  0  0
  -22.7166  -10.2111   20.3036 C   0  0  0  0  0  0
  -21.6865   -6.0721   22.5268 C   0  0  0  0  0  0
  -21.4044   -6.5630   23.8194 C   0  0  0  0  0  0
  -21.3677   -5.6781   24.9157 C   0  0  0  0  0  0
  -21.6059   -4.3039   24.7208 C   0  0  0  0  0  0
  -21.8831   -3.8135   23.4321 C   0  0  0  0  0  0
  -21.9208   -4.6952   22.3382 C   0  0  0  0  0  0
  -22.7767  -13.5206   21.1922 C   0  0  0  0  0  0
  -22.1672   -4.2163   21.0957 F   0  0  0  0  0  0
  -21.5620   -3.4514   25.7705 F   0  0  0  0  0  0
  -29.9357  -13.7115   20.3794 N   0  0  0  0  0  0
  -26.2805  -12.9451   20.3127 N   0  0  0  0  0  0
  -25.9266  -11.6586   20.5629 N   0  0  0  0  0  0
  -22.0465  -12.8208   22.0517 N   0  0  0  0  0  0
  -25.4006  -15.1963   20.4132 N   0  0  0  0  0  0
  -31.6741  -15.1219   20.1517 O   0  0  0  0  0  0
  -21.6645   -6.8847   21.4217 O   0  0  0  0  0  0
  -22.3446  -14.5506   20.6741 O   0  0  0  0  0  0
  -24.6425  -31.8425   23.1843 C   0  0  0  0  0  0
  -25.9196  -32.4696   23.8248 C   0  0  1  0  0  0
  -27.2386  -27.1323   20.1553 C   0  0  0  0  0  0
  -25.5940  -33.8493   24.2183 N   0  0  0  0  0  0
  -23.4501  -30.4583   21.5242 C   0  0  2  0  0  0
  -24.9032  -28.8723   20.1002 C   0  0  0  0  0  0
  -22.7541  -29.4568   22.4798 C   0  0  0  0  0  0
  -18.0318  -28.1436   22.8487 C   0  0  0  0  0  0
  -24.1478  -36.7249   23.2641 C   0  0  0  0  0  0
  -26.0004  -30.7140   21.3792 C   0  0  0  0  0  0
  -26.0723  -29.3224   20.7240 C   0  0  0  0  0  0
  -27.2315  -28.4626   20.7403 C   0  0  0  0  0  0
  -26.0483  -26.7741   19.4896 C   0  0  0  0  0  0
  -24.9023  -27.6125   19.4698 C   0  0  0  0  0  0
  -23.6793  -29.7767   20.1452 C   0  0  0  0  0  0
  -25.4113  -36.3044   24.0322 C   0  0  1  0  0  0
  -20.5928  -28.3768   23.1214 C   0  0  2  0  0  0
  -20.6793  -26.9469   22.5388 C   0  0  0  0  0  0
  -19.5767  -26.6422   21.5199 C   0  0  0  0  0  0
  -18.1962  -26.7987   22.1619 C   0  0  0  0  0  0
  -19.1581  -28.8913   23.2863 C   0  0  0  0  0  0
  -18.9497  -30.1498   23.8915 C   0  0  0  0  0  0
  -17.6496  -30.6633   24.0588 C   0  0  0  0  0  0
  -25.9049  -34.9415   23.5068 C   0  0  0  0  0  0
  -16.5386  -29.9134   23.6326 C   0  0  0  0  0  0
  -16.7304  -28.6538   23.0374 C   0  0  0  0  0  0
  -26.4533  -31.6570   25.0674 C   0  0  0  0  0  0
  -25.3733  -31.3764   26.1378 C   0  0  0  0  0  0
  -27.0381  -30.2967   24.6224 C   0  0  0  0  0  0
  -27.6071  -32.4320   25.7457 C   0  0  0  0  0  0
  -27.5579  -37.1779   24.8470 C   0  0  0  0  0  0
  -21.4241  -29.3084   22.3546 N   0  0  0  0  0  0
  -26.4284  -37.3749   23.9422 N   0  0  0  0  0  0
  -24.7174  -31.0279   22.0861 N   0  0  0  0  0  0
  -23.4166  -28.8126   23.2982 O   0  0  0  0  0  0
  -28.3167  -26.1952   20.3417 O   0  0  0  0  0  0
  -26.5644  -34.8912   22.4644 O   0  0  0  0  0  0
  -23.5543  -32.1286   23.7048 O   0  0  0  0  0  0
  -29.0522  -20.3332   20.4070 C   0  0  0  0  0  0
  -27.9327  -19.5203   20.2696 C   0  0  0  0  0  0
  -29.3887  -17.6074   20.3801 C   0  0  0  0  0  0
  -30.1882  -24.8700   19.7364 C   0  0  0  0  0  0
  -29.2938  -22.2750   24.6933 C   0  0  0  0  0  0
  -28.9407  -20.1036   23.5818 C   0  0  0  0  0  0
  -31.0969  -21.4235   23.2026 C   0  0  0  0  0  0
  -28.2464  -23.1910   19.9621 C   0  0  0  0  0  0
  -28.8907  -22.2899   22.2262 C   0  0  0  0  0  0
  -29.1358  -21.9638   20.7150 C   0  0  1  0  0  0
  -28.6533  -24.8209   19.6936 C   0  0  1  0  0  0
  -29.5679  -21.5024   23.3853 C   0  0  0  0  0  0
  -28.1302  -18.0982   20.2766 N   0  0  0  0  0  0
  -26.6287  -20.0061   20.1995 N   0  0  0  0  0  0
  -29.5455  -16.0806   20.4970 N   0  0  0  0  0  0
  -30.4495  -19.1128   20.3976 S   0  0  0  0  0  0
  -31.4768  -12.8091   19.2002 H   0  0  0  0  0  0
  -30.4484  -11.6773   20.0446 H   0  0  0  0  0  0
  -29.8717  -11.7697   17.5785 H   0  0  0  0  0  0
  -29.6035  -13.4886   17.7019 H   0  0  0  0  0  0
  -27.9473  -11.2765   18.9534 H   0  0  0  0  0  0
  -27.4145  -12.4772   17.7993 H   0  0  0  0  0  0
  -27.5718  -14.2481   19.3952 H   0  0  0  0  0  0
  -28.7496  -12.3283   21.4714 H   0  0  0  0  0  0
  -28.3309  -14.0035   21.7328 H   0  0  0  0  0  0
  -25.2729   -9.5767   22.4705 H   0  0  0  0  0  0
  -24.0033   -7.4681   22.7450 H   0  0  0  0  0  0
  -21.0813   -8.8665   19.8910 H   0  0  0  0  0  0
  -22.3572  -10.9619   19.6122 H   0  0  0  0  0  0
  -21.2048   -7.6139   23.9699 H   0  0  0  0  0  0
  -21.1488   -6.0506   25.9060 H   0  0  0  0  0  0
  -22.0596   -2.7600   23.2804 H   0  0  0  0  0  0
  -22.4038  -11.9829   22.4865 H   0  0  0  0  0  0
  -21.1013  -13.1124   22.2619 H   0  0  0  0  0  0
  -24.6189  -15.8306   20.5361 H   0  0  0  0  0  0
  -26.2285  -15.6626   20.0710 H   0  0  0  0  0  0
  -26.7254  -32.5340   23.0974 H   0  0  0  0  0  0
  -25.0142  -33.9581   25.0376 H   0  0  0  0  0  0
  -22.7553  -31.2868   21.3631 H   0  0  0  0  0  0
  -23.3754  -35.9568   23.3290 H   0  0  0  0  0  0
  -24.3566  -36.8869   22.2055 H   0  0  0  0  0  0
  -23.7179  -37.6422   23.6671 H   0  0  0  0  0  0
  -26.1476  -31.4641   20.6013 H   0  0  0  0  0  0
  -26.8740  -30.7777   22.0165 H   0  0  0  0  0  0
  -28.1191  -28.7908   21.2611 H   0  0  0  0  0  0
  -25.9745  -25.7952   19.0380 H   0  0  0  0  0  0
  -24.0038  -27.2578   18.9805 H   0  0  0  0  0  0
  -23.8155  -30.5464   19.3837 H   0  0  0  0  0  0
  -22.7944  -29.2166   19.8393 H   0  0  0  0  0  0
  -25.1285  -36.1895   25.0809 H   0  0  0  0  0  0
  -21.0082  -28.3423   24.1316 H   0  0  0  0  0  0
  -20.5684  -26.2414   23.3632 H   0  0  0  0  0  0
  -21.6668  -26.7480   22.1208 H   0  0  0  0  0  0
  -19.6925  -25.6319   21.1267 H   0  0  0  0  0  0
  -19.6712  -27.3202   20.6714 H   0  0  0  0  0  0
  -17.4220  -26.6748   21.4033 H   0  0  0  0  0  0
  -18.0376  -26.0133   22.9017 H   0  0  0  0  0  0
  -19.7970  -30.7310   24.2318 H   0  0  0  0  0  0
  -17.5051  -31.6316   24.5197 H   0  0  0  0  0  0
  -15.5387  -30.3062   23.7633 H   0  0  0  0  0  0
  -15.8702  -28.0854   22.7116 H   0  0  0  0  0  0
  -24.5889  -30.7128   25.7711 H   0  0  0  0  0  0
  -24.8955  -32.2950   26.4790 H   0  0  0  0  0  0
  -25.8028  -30.8936   27.0161 H   0  0  0  0  0  0
  -26.2986  -29.6698   24.1211 H   0  0  0  0  0  0
  -27.3992  -29.7243   25.4781 H   0  0  0  0  0  0
  -27.8899  -30.4195   23.9526 H   0  0  0  0  0  0
  -27.2681  -33.3622   26.2026 H   0  0  0  0  0  0
  -28.3904  -32.6873   25.0311 H   0  0  0  0  0  0
  -28.0725  -31.8442   26.5377 H   0  0  0  0  0  0
  -28.2601  -38.0078   24.7548 H   0  0  0  0  0  0
  -28.1071  -36.2605   24.6280 H   0  0  0  0  0  0
  -27.2310  -37.1423   25.8877 H   0  0  0  0  0  0
  -20.9449  -29.8768   21.6697 H   0  0  0  0  0  0
  -26.0159  -38.2812   24.1444 H   0  0  0  0  0  0
  -30.6331  -24.0589   19.1581 H   0  0  0  0  0  0
  -30.5732  -25.8074   19.3343 H   0  0  0  0  0  0
  -30.5504  -24.7809   20.7644 H   0  0  0  0  0  0
  -29.7310  -21.7745   25.5575 H   0  0  0  0  0  0
  -28.2250  -22.3666   24.8877 H   0  0  0  0  0  0
  -29.7073  -23.2836   24.6671 H   0  0  0  0  0  0
  -29.2497  -19.6513   24.5233 H   0  0  0  0  0  0
  -29.2064  -19.3910   22.8121 H   0  0  0  0  0  0
  -27.8517  -20.1537   23.5934 H   0  0  0  0  0  0
  -31.5701  -20.8496   23.9999 H   0  0  0  0  0  0
  -31.5509  -22.4167   23.2090 H   0  0  0  0  0  0
  -31.3772  -20.9553   22.2631 H   0  0  0  0  0  0
  -27.2122  -23.1442   20.3045 H   0  0  0  0  0  0
  -28.1908  -22.8174   18.9373 H   0  0  0  0  0  0
  -27.8125  -22.2388   22.4002 H   0  0  0  0  0  0
  -29.1402  -23.3431   22.3655 H   0  0  0  0  0  0
  -30.1768  -22.2190   20.5159 H   0  0  0  0  0  0
  -28.3826  -24.9754   18.6490 H   0  0  0  0  0  0
  -26.4473  -20.9916   20.0526 H   0  0  0  0  0  0
  -25.8257  -19.3935   20.1128 H   0  0  0  0  0  0
  -28.6351  -15.6727   20.6211 H   0  0  0  0  0  0
  1 25  1  0  0  0
  1 30  2  0  0  0
  1 85  1  0  0  0
  2  3  1  0  0  0
  2 25  1  0  0  0
  2 87  1  0  0  0
  2 88  1  0  0  0
  3  4  1  0  0  0
  3 89  1  0  0  0
  3 90  1  0  0  0
  4  5  1  0  0  0
  4 91  1  0  0  0
  4 92  1  0  0  0
  5  6  1  0  0  0
  5 26  1  0  0  0
  5 93  1  0  0  0
  6 25  1  0  0  0
  6 94  1  0  0  0
  6 95  1  0  0  0
  7  8  2  0  0  0
  7 26  1  0  0  0
  7 29  1  0  0  0
  8  9  1  0  0  0
  8 22  1  0  0  0
  9 10  1  0  0  0
  9 27  2  0  0  0
 10 11  2  0  0  0
 10 15  1  0  0  0
 11 12  1  0  0  0
 11 96  1  0  0  0
 12 13  2  0  0  0
 12 97  1  0  0  0
 13 14  1  0  0  0
 13 31  1  0  0  0
 14 15  2  0  0  0
 14 98  1  0  0  0
 15 99  1  0  0  0
 16 17  2  0  0  0
 16 21  1  0  0  0
 16 31  1  0  0  0
 17 18  1  0  0  0
 17100  1  0  0  0
 18 19  2  0  0  0
 18101  1  0  0  0
 19 20  1  0  0  0
 19 24  1  0  0  0
 20 21  2  0  0  0
 20102  1  0  0  0
 21 23  1  0  0  0
 22 28  1  0  0  0
 22 32  2  0  0  0
 26 27  1  0  0  0
 28103  1  0  0  0
 28104  1  0  0  0
 29105  1  0  0  0
 29106  1  0  0  0
 33 34  1  0  0  0
 33 66  1  0  0  0
 33 70  2  0  0  0
 34 36  1  0  0  0
 34 59  1  0  0  0
 34107  1  0  0  0
 35 44  2  0  0  0
 35 45  1  0  0  0
 35 68  1  0  0  0
 36 56  1  0  0  0
 36108  1  0  0  0
 37 39  1  0  0  0
 37 47  1  0  0  0
 37 66  1  0  0  0
 37109  1  0  0  0
 38 43  2  0  0  0
 38 46  1  0  0  0
 38 47  1  0  0  0
 39 64  1  0  0  0
 39 67  2  0  0  0
 40 52  1  0  0  0
 40 53  2  0  0  0
 40 58  1  0  0  0
 41110  1  0  0  0
 41111  1  0  0  0
 41112  1  0  0  0
 41 48  1  0  0  0
 42 43  1  0  0  0
 42 66  1  0  0  0
 42113  1  0  0  0
 42114  1  0  0  0
 43 44  1  0  0  0
 44115  1  0  0  0
 45 46  2  0  0  0
 45116  1  0  0  0
 46117  1  0  0  0
 47118  1  0  0  0
 47119  1  0  0  0
 48 56  1  0  0  0
 48 65  1  0  0  0
 48120  1  0  0  0
 49 50  1  0  0  0
 49 53  1  0  0  0
 49 64  1  0  0  0
 49121  1  0  0  0
 50 51  1  0  0  0
 50122  1  0  0  0
 50123  1  0  0  0
 51 52  1  0  0  0
 51124  1  0  0  0
 51125  1  0  0  0
 52126  1  0  0  0
 52127  1  0  0  0
 53 54  1  0  0  0
 54 55  2  0  0  0
 54128  1  0  0  0
 55 57  1  0  0  0
 55129  1  0  0  0
 56 69  2  0  0  0
 57 58  2  0  0  0
 57130  1  0  0  0
 58131  1  0  0  0
 59 60  1  0  0  0
 59 61  1  0  0  0
 59 62  1  0  0  0
 60132  1  0  0  0
 60133  1  0  0  0
 60134  1  0  0  0
 61135  1  0  0  0
 61136  1  0  0  0
 61137  1  0  0  0
 62138  1  0  0  0
 62139  1  0  0  0
 62140  1  0  0  0
 63 65  1  0  0  0
 63141  1  0  0  0
 63142  1  0  0  0
 63143  1  0  0  0
 64144  1  0  0  0
 65145  1  0  0  0
 68 81  1  0  0  0
 71 72  2  0  0  0
 71 80  1  0  0  0
 71 86  1  0  0  0
 72 83  1  0  0  0
 72 84  1  0  0  0
 73 83  2  0  0  0
 73 85  1  0  0  0
 73 86  1  0  0  0
 74146  1  0  0  0
 74147  1  0  0  0
 74148  1  0  0  0
 74 81  1  0  0  0
 75149  1  0  0  0
 75150  1  0  0  0
 75151  1  0  0  0
 75 82  1  0  0  0
 76 82  1  0  0  0
 76152  1  0  0  0
 76153  1  0  0  0
 76154  1  0  0  0
 77 82  1  0  0  0
 77155  1  0  0  0
 77156  1  0  0  0
 77157  1  0  0  0
 78 81  1  0  0  0
 78158  1  0  0  0
 78159  1  0  0  0
 78 80  1  0  0  0
 79 80  1  0  0  0
 79 82  1  0  0  0
 79160  1  0  0  0
 79161  1  0  0  0
 80162  1  0  0  0
 81163  1  0  0  0
 84164  1  0  0  0
 84165  1  0  0  0
 85166  1  0  0  0
M  ISO  4   1 100  68 101  81 101  85 100
M  END
> <chiral flag>
0

> <version>
0

> <s_m_source_file>
/data/baiqing/PycharmProjects/Reinvent-master-3.2/result/LINK_invent/BTK/process_docking_weight1_custom_product_contain_oxygen_bond_distance_aromatic_linkinvent_7_9_3/rearranged_h_0184.sdf

> <i_m_source_file_index>
35

> <r_mmod_Potential_Energy-OPLS-2005>
551.978515625

> <r_mmod_Stretch_Energy-OPLS-2005>
260.838134765625

> <r_mmod_Bend_Energy-OPLS-2005>
411.663208007812

> <r_mmod_Torsional_Energy-OPLS-2005>
218.785095214844

> <r_mmod_Improper_Torsional_Energy-OPLS-2005>
6.1731219291687

> <r_mmod_Van_der_Waal_Energy-OPLS-2005>
101.632019042969

> <r_mmod_Electrostatic_Energy-OPLS-2005>
-470.912506103516

> <r_mmod_Solvation_Energy-OPLS-2005>
-200.081451416016

> <b_mmod_Minimization_Converged-OPLS-2005>
0

> <r_mmod_RMS_Derivative-OPLS-2005>
4.83052206039429

$$$$
35
                    3D
 Structure written by MMmdl.
155163  0  0  1  0            999 V2000
  -30.4988  -15.0406   20.4494 C   0  0  0  0  0  0
  -30.4506  -12.6622   19.5056 C   0  0  0  0  0  0
  -29.5282  -12.5503   18.2644 C   0  0  0  0  0  0
  -28.0665  -12.3096   18.6859 C   0  0  0  0  0  0
  -27.6312  -13.2519   19.8398 C   0  0  2  0  0  0
  -28.6698  -13.2966   20.9811 C   0  0  0  0  0  0
  -25.2465  -13.8238   20.5704 C   0  0  0  0  0  0
  -24.1768  -13.0472   20.9237 C   0  0  0  0  0  0
  -24.6367  -11.6950   20.8747 C   0  0  0  0  0  0
  -23.9038  -10.4318   21.0403 C   0  0  0  0  0  0
  -24.3587   -9.4235   21.9180 C   0  0  0  0  0  0
  -23.6313   -8.2233   22.0750 C   0  0  0  0  0  0
  -22.4301   -8.0250   21.3515 C   0  0  0  0  0  0
  -21.9925   -9.0232   20.4639 C   0  0  0  0  0  0
  -22.7214  -10.2141   20.3050 C   0  0  0  0  0  0
  -21.6871   -6.0720   22.5283 C   0  0  0  0  0  0
  -21.4030   -6.5649   23.8208 C   0  0  0  0  0  0
  -21.3672   -5.6803   24.9168 C   0  0  0  0  0  0
  -21.6035   -4.3046   24.7209 C   0  0  0  0  0  0
  -21.8800   -3.8133   23.4339 C   0  0  0  0  0  0
  -21.9187   -4.6954   22.3399 C   0  0  0  0  0  0
  -22.7769  -13.5252   21.1853 C   0  0  0  0  0  0
  -22.1638   -4.2141   21.0975 F   0  0  0  0  0  0
  -21.5648   -3.4526   25.7726 F   0  0  0  0  0  0
  -29.9355  -13.7576   20.3875 N   0  0  0  0  0  0
  -26.2908  -12.9470   20.3255 N   0  0  0  0  0  0
  -25.9331  -11.6605   20.5749 N   0  0  0  0  0  0
  -22.0362  -12.8291   22.0386 N   0  0  0  0  0  0
  -25.4149  -15.1937   20.4069 N   0  0  0  0  0  0
  -31.7027  -15.1166   20.1722 O   0  0  0  0  0  0
  -21.6639   -6.8854   21.4236 O   0  0  0  0  0  0
  -22.3487  -14.5558   20.6654 O   0  0  0  0  0  0
  -24.6495  -31.8371   23.1799 C   0  0  0  0  0  0
  -25.9245  -32.4652   23.8216 C   0  0  1  0  0  0
  -27.2256  -27.0668   20.1901 C   0  0  0  0  0  0
  -25.5961  -33.8455   24.2132 N   0  0  0  0  0  0
  -23.4564  -30.4544   21.5267 C   0  0  2  0  0  0
  -24.9119  -28.8639   20.1161 C   0  0  0  0  0  0
  -22.7590  -29.4519   22.4837 C   0  0  0  0  0  0
  -18.0320  -28.1379   22.8458 C   0  0  0  0  0  0
  -24.1519  -36.7295   23.2626 C   0  0  0  0  0  0
  -26.0155  -30.6947   21.3829 C   0  0  0  0  0  0
  -26.0903  -29.2937   20.7372 C   0  0  0  0  0  0
  -27.2485  -28.4179   20.7488 C   0  0  0  0  0  0
  -26.0202  -26.7540   19.5216 C   0  0  0  0  0  0
  -24.8941  -27.6078   19.4858 C   0  0  0  0  0  0
  -23.6886  -29.7729   20.1510 C   0  0  0  0  0  0
  -25.4134  -36.3012   24.0292 C   0  0  1  0  0  0
  -20.5927  -28.3720   23.1223 C   0  0  2  0  0  0
  -20.6811  -26.9426   22.5412 C   0  0  0  0  0  0
  -19.5777  -26.6373   21.5217 C   0  0  0  0  0  0
  -18.1954  -26.7916   22.1623 C   0  0  0  0  0  0
  -19.1570  -28.8869   23.2834 C   0  0  0  0  0  0
  -18.9469  -30.1462   23.8871 C   0  0  0  0  0  0
  -17.6463  -30.6575   24.0558 C   0  0  0  0  0  0
  -25.9078  -34.9388   23.5038 C   0  0  0  0  0  0
  -16.5362  -29.9072   23.6312 C   0  0  0  0  0  0
  -16.7301  -28.6498   23.0322 C   0  0  0  0  0  0
  -26.4530  -31.6510   25.0676 C   0  0  0  0  0  0
  -25.3683  -31.3751   26.1360 C   0  0  0  0  0  0
  -27.0342  -30.2871   24.6273 C   0  0  0  0  0  0
  -27.6067  -32.4234   25.7483 C   0  0  0  0  0  0
  -27.5598  -37.1789   24.8423 C   0  0  0  0  0  0
  -21.4292  -29.3048   22.3595 N   0  0  0  0  0  0
  -26.4292  -37.3723   23.9397 N   0  0  0  0  0  0
  -24.7288  -31.0161   22.0857 N   0  0  0  0  0  0
  -23.4214  -28.8057   23.3000 O   0  0  0  0  0  0
  -28.2611  -26.0399   20.2346 O   0  0  0  0  0  0
  -26.5680  -34.8895   22.4619 O   0  0  0  0  0  0
  -23.5603  -32.1279   23.6991 O   0  0  0  0  0  0
  -31.0126  -18.5590   20.3614 C   0  0  0  0  0  0
  -28.9179  -18.8580   20.7797 C   0  0  0  0  0  0
  -29.8372  -17.7726   20.5874 C   0  0  0  0  0  0
  -28.9086  -23.1689   20.2324 C   0  0  0  0  0  0
  -29.3689  -23.2627   23.2648 C   0  0  0  0  0  0
  -30.0403  -20.8797   23.4273 C   0  0  0  0  0  0
  -27.9452  -24.5207   20.5936 C   0  0  0  0  0  0
  -29.0234  -21.7119   21.1128 C   0  0  2  0  0  0
  -29.8489  -22.0490   22.4299 C   0  0  0  0  0  0
  -30.8089  -19.9087   20.3824 N   0  0  0  0  0  0
  -29.4916  -20.2051   20.6687 N   0  0  0  0  0  0
  -29.6787  -16.2151   20.6349 N   0  0  0  0  0  0
  -29.5850  -23.2458   19.2027 O   0  0  0  0  0  0
  -31.4731  -12.8610   19.1800 H   0  0  0  0  0  0
  -30.4903  -11.7157   20.0488 H   0  0  0  0  0  0
  -29.8769  -11.7465   17.6147 H   0  0  0  0  0  0
  -29.5928  -13.4673   17.6755 H   0  0  0  0  0  0
  -27.9812  -11.2743   19.0138 H   0  0  0  0  0  0
  -27.3985  -12.4031   17.8292 H   0  0  0  0  0  0
  -27.5904  -14.2517   19.4052 H   0  0  0  0  0  0
  -28.7784  -12.3192   21.4596 H   0  0  0  0  0  0
  -28.3495  -13.9853   21.7643 H   0  0  0  0  0  0
  -25.2692   -9.5776   22.4801 H   0  0  0  0  0  0
  -24.0003   -7.4673   22.7543 H   0  0  0  0  0  0
  -21.0827   -8.8768   19.8998 H   0  0  0  0  0  0
  -22.3633  -10.9680   19.6183 H   0  0  0  0  0  0
  -21.2019   -7.6168   23.9721 H   0  0  0  0  0  0
  -21.1543   -6.0524   25.9096 H   0  0  0  0  0  0
  -22.0565   -2.7596   23.2829 H   0  0  0  0  0  0
  -22.3908  -12.0006   22.4927 H   0  0  0  0  0  0
  -21.0991  -13.1387   22.2537 H   0  0  0  0  0  0
  -24.6440  -15.8472   20.5029 H   0  0  0  0  0  0
  -26.2526  -15.6182   20.0302 H   0  0  0  0  0  0
  -26.7309  -32.5237   23.0936 H   0  0  0  0  0  0
  -25.0041  -33.9538   25.0237 H   0  0  0  0  0  0
  -22.7608  -31.2810   21.3645 H   0  0  0  0  0  0
  -23.3759  -35.9644   23.3204 H   0  0  0  0  0  0
  -24.3632  -36.9022   22.2063 H   0  0  0  0  0  0
  -23.7306  -37.6474   23.6732 H   0  0  0  0  0  0
  -26.1604  -31.4346   20.5943 H   0  0  0  0  0  0
  -26.8898  -30.7628   22.0178 H   0  0  0  0  0  0
  -28.1476  -28.7548   21.2462 H   0  0  0  0  0  0
  -25.9302  -25.7961   19.0283 H   0  0  0  0  0  0
  -24.0007  -27.2694   18.9818 H   0  0  0  0  0  0
  -23.8333  -30.5412   19.3919 H   0  0  0  0  0  0
  -22.8030  -29.2191   19.8398 H   0  0  0  0  0  0
  -25.1330  -36.1819   25.0777 H   0  0  0  0  0  0
  -21.0022  -28.3328   24.1334 H   0  0  0  0  0  0
  -20.5703  -26.2347   23.3631 H   0  0  0  0  0  0
  -21.6674  -26.7441   22.1209 H   0  0  0  0  0  0
  -19.6958  -25.6272   21.1262 H   0  0  0  0  0  0
  -19.6716  -27.3163   20.6718 H   0  0  0  0  0  0
  -17.4246  -26.6655   21.4009 H   0  0  0  0  0  0
  -18.0362  -26.0068   22.9020 H   0  0  0  0  0  0
  -19.7940  -30.7279   24.2245 H   0  0  0  0  0  0
  -17.5010  -31.6237   24.5175 H   0  0  0  0  0  0
  -15.5357  -30.2959   23.7621 H   0  0  0  0  0  0
  -15.8715  -28.0811   22.7011 H   0  0  0  0  0  0
  -24.5797  -30.7186   25.7663 H   0  0  0  0  0  0
  -24.8954  -32.2968   26.4758 H   0  0  0  0  0  0
  -25.7917  -30.8890   27.0158 H   0  0  0  0  0  0
  -26.2916  -29.6579   24.1350 H   0  0  0  0  0  0
  -27.3978  -29.7192   25.4848 H   0  0  0  0  0  0
  -27.8838  -30.4031   23.9541 H   0  0  0  0  0  0
  -27.2659  -33.3513   26.2078 H   0  0  0  0  0  0
  -28.3905  -32.6804   25.0350 H   0  0  0  0  0  0
  -28.0706  -31.8329   26.5391 H   0  0  0  0  0  0
  -28.2536  -38.0158   24.7534 H   0  0  0  0  0  0
  -28.1175  -36.2695   24.6153 H   0  0  0  0  0  0
  -27.2337  -37.1313   25.8821 H   0  0  0  0  0  0
  -20.9493  -29.8772   21.6777 H   0  0  0  0  0  0
  -26.0153  -38.2789   24.1376 H   0  0  0  0  0  0
  -32.0188  -18.1943   20.2049 H   0  0  0  0  0  0
  -27.8732  -18.7830   21.0476 H   0  0  0  0  0  0
  -29.9538  -23.3745   24.1809 H   0  0  0  0  0  0
  -28.3269  -23.1602   23.5707 H   0  0  0  0  0  0
  -29.5125  -24.2079   22.7451 H   0  0  0  0  0  0
  -30.6000  -21.2001   24.3110 H   0  0  0  0  0  0
  -30.6169  -20.0551   23.0118 H   0  0  0  0  0  0
  -29.0835  -20.4900   23.7679 H   0  0  0  0  0  0
  -27.7461  -24.5110   21.6623 H   0  0  0  0  0  0
  -26.9764  -24.2844   20.1533 H   0  0  0  0  0  0
  -27.9956  -21.5707   21.4439 H   0  0  0  0  0  0
  -30.8525  -22.3093   22.0902 H   0  0  0  0  0  0
  -28.7260  -15.9259   20.7908 H   0  0  0  0  0  0
  1 25  1  0  0  0
  1 30  2  0  0  0
  1 82  1  0  0  0
  2  3  1  0  0  0
  2 25  1  0  0  0
  2 84  1  0  0  0
  2 85  1  0  0  0
  3  4  1  0  0  0
  3 86  1  0  0  0
  3 87  1  0  0  0
  4  5  1  0  0  0
  4 88  1  0  0  0
  4 89  1  0  0  0
  5  6  1  0  0  0
  5 26  1  0  0  0
  5 90  1  0  0  0
  6 25  1  0  0  0
  6 91  1  0  0  0
  6 92  1  0  0  0
  7  8  2  0  0  0
  7 26  1  0  0  0
  7 29  1  0  0  0
  8  9  1  0  0  0
  8 22  1  0  0  0
  9 10  1  0  0  0
  9 27  2  0  0  0
 10 11  2  0  0  0
 10 15  1  0  0  0
 11 12  1  0  0  0
 11 93  1  0  0  0
 12 13  2  0  0  0
 12 94  1  0  0  0
 13 14  1  0  0  0
 13 31  1  0  0  0
 14 15  2  0  0  0
 14 95  1  0  0  0
 15 96  1  0  0  0
 16 17  2  0  0  0
 16 21  1  0  0  0
 16 31  1  0  0  0
 17 18  1  0  0  0
 17 97  1  0  0  0
 18 19  2  0  0  0
 18 98  1  0  0  0
 19 20  1  0  0  0
 19 24  1  0  0  0
 20 21  2  0  0  0
 20 99  1  0  0  0
 21 23  1  0  0  0
 22 28  1  0  0  0
 22 32  2  0  0  0
 26 27  1  0  0  0
 28100  1  0  0  0
 28101  1  0  0  0
 29102  1  0  0  0
 29103  1  0  0  0
 33 34  1  0  0  0
 33 66  1  0  0  0
 33 70  2  0  0  0
 34 36  1  0  0  0
 34 59  1  0  0  0
 34104  1  0  0  0
 35 44  2  0  0  0
 35 45  1  0  0  0
 35 68  1  0  0  0
 36 56  1  0  0  0
 36105  1  0  0  0
 37 39  1  0  0  0
 37 47  1  0  0  0
 37 66  1  0  0  0
 37106  1  0  0  0
 38 43  2  0  0  0
 38 46  1  0  0  0
 38 47  1  0  0  0
 39 64  1  0  0  0
 39 67  2  0  0  0
 40 52  1  0  0  0
 40 53  2  0  0  0
 40 58  1  0  0  0
 41107  1  0  0  0
 41108  1  0  0  0
 41109  1  0  0  0
 41 48  1  0  0  0
 42 43  1  0  0  0
 42 66  1  0  0  0
 42110  1  0  0  0
 42111  1  0  0  0
 43 44  1  0  0  0
 44112  1  0  0  0
 45 46  2  0  0  0
 45113  1  0  0  0
 46114  1  0  0  0
 47115  1  0  0  0
 47116  1  0  0  0
 48 56  1  0  0  0
 48 65  1  0  0  0
 48117  1  0  0  0
 49 50  1  0  0  0
 49 53  1  0  0  0
 49 64  1  0  0  0
 49118  1  0  0  0
 50 51  1  0  0  0
 50119  1  0  0  0
 50120  1  0  0  0
 51 52  1  0  0  0
 51121  1  0  0  0
 51122  1  0  0  0
 52123  1  0  0  0
 52124  1  0  0  0
 53 54  1  0  0  0
 54 55  2  0  0  0
 54125  1  0  0  0
 55 57  1  0  0  0
 55126  1  0  0  0
 56 69  2  0  0  0
 57 58  2  0  0  0
 57127  1  0  0  0
 58128  1  0  0  0
 59 60  1  0  0  0
 59 61  1  0  0  0
 59 62  1  0  0  0
 60129  1  0  0  0
 60130  1  0  0  0
 60131  1  0  0  0
 61132  1  0  0  0
 61133  1  0  0  0
 61134  1  0  0  0
 62135  1  0  0  0
 62136  1  0  0  0
 62137  1  0  0  0
 63 65  1  0  0  0
 63138  1  0  0  0
 63139  1  0  0  0
 63140  1  0  0  0
 64141  1  0  0  0
 65142  1  0  0  0
 68 77  1  0  0  0
 71 73  1  0  0  0
 71 80  2  0  0  0
 71143  1  0  0  0
 72 73  2  0  0  0
 72 81  1  0  0  0
 72144  1  0  0  0
 73 82  1  0  0  0
 74 77  1  0  0  0
 74 78  1  0  0  0
 74 83  2  0  0  0
 75145  1  0  0  0
 75146  1  0  0  0
 75147  1  0  0  0
 75 79  1  0  0  0
 76 79  1  0  0  0
 76148  1  0  0  0
 76149  1  0  0  0
 76150  1  0  0  0
 77151  1  0  0  0
 77152  1  0  0  0
 78 79  1  0  0  0
 78 81  1  0  0  0
 78153  1  0  0  0
 79154  1  0  0  0
 80 81  1  0  0  0
 82155  1  0  0  0
M  ISO  4   1 100  68 101  77 101  82 100
M  END
> <chiral flag>
0

> <version>
0

> <s_m_source_file>
/data/baiqing/PycharmProjects/Reinvent-master-3.2/result/LINK_invent/BTK/process_docking_weight1_custom_product_contain_oxygen_bond_distance_aromatic_linkinvent_7_9_3/rearranged_h_0184.sdf

> <i_m_source_file_index>
36

> <r_mmod_Potential_Energy-OPLS-2005>
775.858093261719

> <r_mmod_Stretch_Energy-OPLS-2005>
357.638275146484

> <r_mmod_Bend_Energy-OPLS-2005>
313.280242919922

> <r_mmod_Torsional_Energy-OPLS-2005>
247.185089111328

> <r_mmod_Improper_Torsional_Energy-OPLS-2005>
5.92489051818848

> <r_mmod_Van_der_Waal_Energy-OPLS-2005>
114.028327941895

> <r_mmod_Electrostatic_Energy-OPLS-2005>
-266.513610839844

> <r_mmod_Solvation_Energy-OPLS-2005>
-256.110198974609

> <b_mmod_Minimization_Converged-OPLS-2005>
0

> <r_mmod_RMS_Derivative-OPLS-2005>
5.56945896148682

$$$$
36
                    3D
 Structure written by MMmdl.
150158  0  0  1  0            999 V2000
  -29.2507  -16.3013   21.0558 C   0  0  0  0  0  0
  -30.1605  -13.7927   19.8264 C   0  0  0  0  0  0
  -29.5520  -12.9897   18.5842 C   0  0  0  0  0  0
  -28.1978  -12.3535   18.9166 C   0  0  0  0  0  0
  -27.4922  -13.3187   19.8735 C   0  0  2  0  0  0
  -28.2976  -13.7320   21.1183 C   0  0  0  0  0  0
  -25.1655  -13.8161   20.5570 C   0  0  0  0  0  0
  -24.1228  -13.0291   20.9265 C   0  0  0  0  0  0
  -24.6003  -11.6815   20.8709 C   0  0  0  0  0  0
  -23.8838  -10.4193   21.0425 C   0  0  0  0  0  0
  -24.3498   -9.4135   21.9173 C   0  0  0  0  0  0
  -23.6222   -8.2150   22.0739 C   0  0  0  0  0  0
  -22.4208   -8.0174   21.3523 C   0  0  0  0  0  0
  -21.9788   -9.0106   20.4619 C   0  0  0  0  0  0
  -22.7055  -10.1999   20.3033 C   0  0  0  0  0  0
  -21.6823   -6.0653   22.5288 C   0  0  0  0  0  0
  -21.3992   -6.5591   23.8208 C   0  0  0  0  0  0
  -21.3657   -5.6764   24.9179 C   0  0  0  0  0  0
  -21.6051   -4.3027   24.7249 C   0  0  0  0  0  0
  -21.8821   -3.8095   23.4380 C   0  0  0  0  0  0
  -21.9188   -4.6888   22.3424 C   0  0  0  0  0  0
  -22.7323  -13.5049   21.1988 C   0  0  0  0  0  0
  -22.1655   -4.2086   21.0993 F   0  0  0  0  0  0
  -21.5645   -3.4518   25.7764 F   0  0  0  0  0  0
  -29.1915  -14.7947   20.6470 N   0  0  0  0  0  0
  -26.1881  -12.9383   20.2885 N   0  0  0  0  0  0
  -25.8858  -11.6490   20.5514 N   0  0  0  0  0  0
  -22.0074  -12.8042   22.0608 N   0  0  0  0  0  0
  -25.3310  -15.1919   20.3963 N   0  0  0  0  0  0
  -30.5251  -16.3578   20.8752 O   0  0  0  0  0  0
  -21.6595   -6.8767   21.4232 O   0  0  0  0  0  0
  -22.3063  -14.5390   20.6853 O   0  0  0  0  0  0
  -24.9164  -31.8527   23.2159 C   0  0  0  0  0  0
  -26.0758  -32.5509   23.9028 C   0  0  1  0  0  0
  -25.3105  -27.5412   20.3673 C   0  0  0  0  0  0
  -25.6610  -33.9035   24.2673 N   0  0  0  0  0  0
  -24.4311  -29.6726   22.1756 C   0  0  2  0  0  0
  -25.0932  -29.8353   19.6378 C   0  0  0  0  0  0
  -24.4366  -27.8408   22.7593 C   0  0  0  0  0  0
  -18.3458  -27.6674   22.7825 C   0  0  0  0  0  0
  -24.1462  -36.7453   23.2512 C   0  0  0  0  0  0
  -26.4381  -30.7689   21.5402 C   0  0  0  0  0  0
  -26.2355  -29.7122   20.4531 C   0  0  0  0  0  0
  -26.4795  -28.3565   20.7528 C   0  0  0  0  0  0
  -25.4574  -27.4385   19.0258 C   0  0  0  0  0  0
  -24.9199  -28.7109   18.7028 C   0  0  0  0  0  0
  -23.9649  -30.3072   20.6270 C   0  0  0  0  0  0
  -25.4070  -36.3324   24.0277 C   0  0  1  0  0  0
  -21.0959  -26.7306   22.3983 C   0  0  2  0  0  0
  -20.6236  -26.5198   21.0848 C   0  0  0  0  0  0
  -19.1239  -26.3732   20.8947 C   0  0  0  0  0  0
  -18.1989  -26.3686   22.0989 C   0  0  0  0  0  0
  -19.7408  -27.9874   23.0226 C   0  0  0  0  0  0
  -19.6332  -29.3630   23.6328 C   0  0  0  0  0  0
  -18.4216  -30.1607   23.8972 C   0  0  0  0  0  0
  -25.9143  -34.9773   23.5128 C   0  0  0  0  0  0
  -17.1341  -29.6825   23.5991 C   0  0  0  0  0  0
  -17.1276  -28.4053   23.0299 C   0  0  0  0  0  0
  -26.5314  -31.7184   25.1608 C   0  0  0  0  0  0
  -25.3967  -31.4159   26.1715 C   0  0  0  0  0  0
  -27.1816  -30.3612   24.7845 C   0  0  0  0  0  0
  -27.6411  -32.5114   25.8733 C   0  0  0  0  0  0
  -27.5606  -37.1904   24.8424 C   0  0  0  0  0  0
  -23.1618  -26.6496   22.2167 N   0  0  0  0  0  0
  -26.4230  -37.4049   23.9490 N   0  0  0  0  0  0
  -25.3033  -30.7613   22.4797 N   0  0  0  0  0  0
  -24.9512  -27.8592   23.8328 O   0  0  0  0  0  0
  -23.7407  -28.0090   20.6094 O   0  0  0  0  0  0
  -26.5483  -34.9147   22.4552 O   0  0  0  0  0  0
  -23.7425  -32.1307   23.5477 O   0  0  0  0  0  0
  -25.7256  -22.0831   23.0246 C   0  0  0  0  0  0
  -26.9430  -21.8731   23.7128 C   0  0  0  0  0  0
  -27.3731  -19.3758   22.1311 C   0  0  0  0  0  0
  -22.4854  -27.3216   24.3437 C   0  0  0  0  0  0
  -24.4069  -25.1947   25.5893 C   0  0  0  0  0  0
  -22.2878  -28.7026   22.3322 C   0  0  0  0  0  0
  -23.6704  -25.1671   24.2443 C   0  0  2  0  0  0
  -26.1523  -20.5424   22.1600 N   0  0  0  0  0  0
  -24.5797  -23.6462   23.2503 N   0  0  0  0  0  0
  -28.0731  -17.5971   21.4369 N   0  0  0  0  0  0
  -21.9844  -27.7203   25.4006 O   0  0  0  0  0  0
  -27.3301  -22.8095   24.6192 F   0  0  0  0  0  0
  -28.1435  -20.4025   23.4511 S   0  0  0  0  0  0
  -30.9811  -14.3885   19.4285 H   0  0  0  0  0  0
  -30.6574  -13.1012   20.5104 H   0  0  0  0  0  0
  -30.2564  -12.2361   18.2276 H   0  0  0  0  0  0
  -29.4071  -13.6883   17.7575 H   0  0  0  0  0  0
  -28.3651  -11.3964   19.4128 H   0  0  0  0  0  0
  -27.6113  -12.1575   18.0167 H   0  0  0  0  0  0
  -27.3427  -14.2063   19.2564 H   0  0  0  0  0  0
  -28.7803  -12.8868   21.6157 H   0  0  0  0  0  0
  -27.6454  -14.1803   21.8706 H   0  0  0  0  0  0
  -25.2627   -9.5667   22.4747 H   0  0  0  0  0  0
  -23.9948   -7.4542   22.7454 H   0  0  0  0  0  0
  -21.0725   -8.8551   19.8943 H   0  0  0  0  0  0
  -22.3453  -10.9512   19.6156 H   0  0  0  0  0  0
  -21.1966   -7.6097   23.9691 H   0  0  0  0  0  0
  -21.1491   -6.0494   25.9075 H   0  0  0  0  0  0
  -22.0611   -2.7560   23.2893 H   0  0  0  0  0  0
  -22.3755  -11.9706   22.4979 H   0  0  0  0  0  0
  -21.0693  -13.1032   22.2899 H   0  0  0  0  0  0
  -24.4776  -15.7394   20.3612 H   0  0  0  0  0  0
  -26.0069  -15.5072   19.7146 H   0  0  0  0  0  0
  -26.9330  -32.6184   23.2334 H   0  0  0  0  0  0
  -25.1059  -34.0126   25.1019 H   0  0  0  0  0  0
  -23.9321  -29.9012   23.1069 H   0  0  0  0  0  0
  -23.3804  -35.9697   23.3076 H   0  0  0  0  0  0
  -24.3608  -36.9154   22.1948 H   0  0  0  0  0  0
  -23.7075  -37.6584   23.6541 H   0  0  0  0  0  0
  -26.5424  -31.7475   21.0681 H   0  0  0  0  0  0
  -27.3786  -30.5638   22.0468 H   0  0  0  0  0  0
  -27.0839  -28.0934   21.6118 H   0  0  0  0  0  0
  -25.0149  -26.6154   18.4793 H   0  0  0  0  0  0
  -24.1538  -28.7495   17.9420 H   0  0  0  0  0  0
  -23.9308  -31.3978   20.6091 H   0  0  0  0  0  0
  -22.9678  -30.0564   20.2608 H   0  0  0  0  0  0
  -25.1160  -36.2208   25.0742 H   0  0  0  0  0  0
  -20.8486  -25.7974   22.9164 H   0  0  0  0  0  0
  -21.1248  -25.6568   20.6459 H   0  0  0  0  0  0
  -20.9358  -27.3372   20.4368 H   0  0  0  0  0  0
  -18.9494  -25.4634   20.3211 H   0  0  0  0  0  0
  -18.7863  -27.1718   20.2261 H   0  0  0  0  0  0
  -17.1712  -26.1865   21.7821 H   0  0  0  0  0  0
  -18.4620  -25.5579   22.7765 H   0  0  0  0  0  0
  -20.5447  -29.8585   23.9175 H   0  0  0  0  0  0
  -18.5279  -31.1460   24.3278 H   0  0  0  0  0  0
  -16.2339  -30.2516   23.7822 H   0  0  0  0  0  0
  -16.1717  -27.9639   22.7734 H   0  0  0  0  0  0
  -24.6444  -30.7356   25.7705 H   0  0  0  0  0  0
  -24.8854  -32.3255   26.4864 H   0  0  0  0  0  0
  -25.7911  -30.9483   27.0754 H   0  0  0  0  0  0
  -26.5037  -29.6517   24.3300 H   0  0  0  0  0  0
  -27.5474  -29.8570   25.6808 H   0  0  0  0  0  0
  -28.0477  -30.4867   24.1356 H   0  0  0  0  0  0
  -27.2719  -33.4493   26.2910 H   0  0  0  0  0  0
  -28.4567  -32.7615   25.1924 H   0  0  0  0  0  0
  -28.0722  -31.9523   26.7056 H   0  0  0  0  0  0
  -28.2478  -38.0356   24.7804 H   0  0  0  0  0  0
  -28.1252  -36.2940   24.5825 H   0  0  0  0  0  0
  -27.2382  -37.1061   25.8815 H   0  0  0  0  0  0
  -23.5012  -25.7000   22.2780 H   0  0  0  0  0  0
  -26.0128  -38.3076   24.1725 H   0  0  0  0  0  0
  -25.3573  -24.6704   25.5233 H   0  0  0  0  0  0
  -23.8295  -24.7387   26.4006 H   0  0  0  0  0  0
  -24.6093  -26.2259   25.8771 H   0  0  0  0  0  0
  -22.1857  -29.7508   22.6119 H   0  0  0  0  0  0
  -21.3807  -28.8246   21.7608 H   0  0  0  0  0  0
  -22.8066  -24.5419   24.4781 H   0  0  0  0  0  0
  -24.2466  -23.7625   22.2984 H   0  0  0  0  0  0
  -27.2334  -17.1120   21.1425 H   0  0  0  0  0  0
  1 25  1  0  0  0
  1 30  2  0  0  0
  1 80  1  0  0  0
  2  3  1  0  0  0
  2 25  1  0  0  0
  2 84  1  0  0  0
  2 85  1  0  0  0
  3  4  1  0  0  0
  3 86  1  0  0  0
  3 87  1  0  0  0
  4  5  1  0  0  0
  4 88  1  0  0  0
  4 89  1  0  0  0
  5  6  1  0  0  0
  5 26  1  0  0  0
  5 90  1  0  0  0
  6 25  1  0  0  0
  6 91  1  0  0  0
  6 92  1  0  0  0
  7  8  2  0  0  0
  7 26  1  0  0  0
  7 29  1  0  0  0
  8  9  1  0  0  0
  8 22  1  0  0  0
  9 10  1  0  0  0
  9 27  2  0  0  0
 10 11  2  0  0  0
 10 15  1  0  0  0
 11 12  1  0  0  0
 11 93  1  0  0  0
 12 13  2  0  0  0
 12 94  1  0  0  0
 13 14  1  0  0  0
 13 31  1  0  0  0
 14 15  2  0  0  0
 14 95  1  0  0  0
 15 96  1  0  0  0
 16 17  2  0  0  0
 16 21  1  0  0  0
 16 31  1  0  0  0
 17 18  1  0  0  0
 17 97  1  0  0  0
 18 19  2  0  0  0
 18 98  1  0  0  0
 19 20  1  0  0  0
 19 24  1  0  0  0
 20 21  2  0  0  0
 20 99  1  0  0  0
 21 23  1  0  0  0
 22 28  1  0  0  0
 22 32  2  0  0  0
 26 27  1  0  0  0
 28100  1  0  0  0
 28101  1  0  0  0
 29102  1  0  0  0
 29103  1  0  0  0
 33 34  1  0  0  0
 33 66  1  0  0  0
 33 70  2  0  0  0
 34 36  1  0  0  0
 34 59  1  0  0  0
 34104  1  0  0  0
 35 44  2  0  0  0
 35 45  1  0  0  0
 35 68  1  0  0  0
 36 56  1  0  0  0
 36105  1  0  0  0
 37 39  1  0  0  0
 37 47  1  0  0  0
 37 66  1  0  0  0
 37106  1  0  0  0
 38 43  2  0  0  0
 38 46  1  0  0  0
 38 47  1  0  0  0
 39 64  1  0  0  0
 39 67  2  0  0  0
 40 52  1  0  0  0
 40 53  2  0  0  0
 40 58  1  0  0  0
 41107  1  0  0  0
 41108  1  0  0  0
 41109  1  0  0  0
 41 48  1  0  0  0
 42 43  1  0  0  0
 42 66  1  0  0  0
 42110  1  0  0  0
 42111  1  0  0  0
 43 44  1  0  0  0
 44112  1  0  0  0
 45 46  2  0  0  0
 45113  1  0  0  0
 46114  1  0  0  0
 47115  1  0  0  0
 47116  1  0  0  0
 48 56  1  0  0  0
 48 65  1  0  0  0
 48117  1  0  0  0
 49 50  1  0  0  0
 49 53  1  0  0  0
 49 64  1  0  0  0
 49118  1  0  0  0
 50 51  1  0  0  0
 50119  1  0  0  0
 50120  1  0  0  0
 51 52  1  0  0  0
 51121  1  0  0  0
 51122  1  0  0  0
 52123  1  0  0  0
 52124  1  0  0  0
 53 54  1  0  0  0
 54 55  2  0  0  0
 54125  1  0  0  0
 55 57  1  0  0  0
 55126  1  0  0  0
 56 69  2  0  0  0
 57 58  2  0  0  0
 57127  1  0  0  0
 58128  1  0  0  0
 59 60  1  0  0  0
 59 61  1  0  0  0
 59 62  1  0  0  0
 60129  1  0  0  0
 60130  1  0  0  0
 60131  1  0  0  0
 61132  1  0  0  0
 61133  1  0  0  0
 61134  1  0  0  0
 62135  1  0  0  0
 62136  1  0  0  0
 62137  1  0  0  0
 63 65  1  0  0  0
 63138  1  0  0  0
 63139  1  0  0  0
 63140  1  0  0  0
 64141  1  0  0  0
 65142  1  0  0  0
 68 76  1  0  0  0
 71 72  2  0  0  0
 71 78  1  0  0  0
 71 79  1  0  0  0
 72 82  1  0  0  0
 72 83  1  0  0  0
 73 78  2  0  0  0
 73 80  1  0  0  0
 73 83  1  0  0  0
 74 76  1  0  0  0
 74 77  1  0  0  0
 74 81  2  0  0  0
 75143  1  0  0  0
 75144  1  0  0  0
 75145  1  0  0  0
 75 77  1  0  0  0
 76146  1  0  0  0
 76147  1  0  0  0
 77 79  1  0  0  0
 77148  1  0  0  0
 79149  1  0  0  0
 80150  1  0  0  0
M  ISO  4   1 100  68 101  76 101  80 100
M  END
> <chiral flag>
0

> <version>
0

> <s_m_source_file>
/data/baiqing/PycharmProjects/Reinvent-master-3.2/result/LINK_invent/BTK/process_docking_weight1_custom_product_contain_oxygen_bond_distance_aromatic_linkinvent_7_9_3/rearranged_h_0184.sdf

> <i_m_source_file_index>
37

> <r_mmod_Potential_Energy-OPLS-2005>
20897.037109375

> <r_mmod_Stretch_Energy-OPLS-2005>
7974.2568359375

> <r_mmod_Bend_Energy-OPLS-2005>
1883.96960449219

> <r_mmod_Torsional_Energy-OPLS-2005>
685.330932617188

> <r_mmod_Improper_Torsional_Energy-OPLS-2005>
118.701454162598

> <r_mmod_Van_der_Waal_Energy-OPLS-2005>
2295.33715820312

> <r_mmod_Electrostatic_Energy-OPLS-2005>
-321.797546386719

> <r_mmod_Solvation_Energy-OPLS-2005>
-228.67170715332

> <b_mmod_Minimization_Converged-OPLS-2005>
0

> <r_mmod_RMS_Derivative-OPLS-2005>
11.6597757339478

$$$$
37
                    3D
 Structure written by MMmdl.
161169  0  0  1  0            999 V2000
  -30.7252  -14.5861   20.4682 C   0  0  0  0  0  0
  -30.3953  -12.3735   19.4304 C   0  0  0  0  0  0
  -29.4674  -12.4873   18.2048 C   0  0  0  0  0  0
  -27.9975  -12.3201   18.6319 C   0  0  0  0  0  0
  -27.6326  -13.1999   19.8558 C   0  0  2  0  0  0
  -28.6958  -13.0742   20.9755 C   0  0  0  0  0  0
  -25.2405  -13.7996   20.5729 C   0  0  0  0  0  0
  -24.1672  -13.0279   20.9157 C   0  0  0  0  0  0
  -24.6298  -11.6783   20.8775 C   0  0  0  0  0  0
  -23.9002  -10.4201   21.0408 C   0  0  0  0  0  0
  -24.3575   -9.4130   21.9179 C   0  0  0  0  0  0
  -23.6258   -8.2176   22.0747 C   0  0  0  0  0  0
  -22.4241   -8.0224   21.3537 C   0  0  0  0  0  0
  -21.9868   -9.0189   20.4640 C   0  0  0  0  0  0
  -22.7187  -10.2063   20.3052 C   0  0  0  0  0  0
  -21.6817   -6.0722   22.5283 C   0  0  0  0  0  0
  -21.3973   -6.5638   23.8207 C   0  0  0  0  0  0
  -21.3657   -5.6796   24.9183 C   0  0  0  0  0  0
  -21.6051   -4.3066   24.7234 C   0  0  0  0  0  0
  -21.8817   -3.8145   23.4346 C   0  0  0  0  0  0
  -21.9172   -4.6955   22.3402 C   0  0  0  0  0  0
  -22.7711  -13.5106   21.1815 C   0  0  0  0  0  0
  -22.1662   -4.2150   21.0985 F   0  0  0  0  0  0
  -21.5650   -3.4556   25.7751 F   0  0  0  0  0  0
  -29.9865  -13.4314   20.3797 N   0  0  0  0  0  0
  -26.2876  -12.9219   20.3435 N   0  0  0  0  0  0
  -25.9249  -11.6386   20.5903 N   0  0  0  0  0  0
  -22.0359  -12.8168   22.0435 N   0  0  0  0  0  0
  -25.4054  -15.1675   20.4266 N   0  0  0  0  0  0
  -31.9216  -14.5689   20.1868 O   0  0  0  0  0  0
  -21.6578   -6.8847   21.4247 O   0  0  0  0  0  0
  -22.3415  -14.5403   20.6628 O   0  0  0  0  0  0
  -24.6155  -31.8666   23.2083 C   0  0  0  0  0  0
  -25.9048  -32.4813   23.8372 C   0  0  1  0  0  0
  -27.2297  -27.4099   20.1160 C   0  0  0  0  0  0
  -25.5889  -33.8614   24.2308 N   0  0  0  0  0  0
  -23.4055  -30.4888   21.5488 C   0  0  2  0  0  0
  -24.8529  -28.9543   20.1092 C   0  0  0  0  0  0
  -22.7412  -29.4657   22.4984 C   0  0  0  0  0  0
  -18.0262  -28.1384   22.8472 C   0  0  0  0  0  0
  -24.1488  -36.7291   23.2639 C   0  0  0  0  0  0
  -25.9334  -30.8305   21.3588 C   0  0  0  0  0  0
  -26.0124  -29.4626   20.7062 C   0  0  0  0  0  0
  -27.2060  -28.6990   20.7028 C   0  0  0  0  0  0
  -26.0584  -26.9305   19.4939 C   0  0  0  0  0  0
  -24.8715  -27.6895   19.4949 C   0  0  0  0  0  0
  -23.6134  -29.8216   20.1624 C   0  0  0  0  0  0
  -25.4109  -36.3096   24.0334 C   0  0  1  0  0  0
  -20.5850  -28.3682   23.1303 C   0  0  2  0  0  0
  -20.6761  -26.9418   22.5422 C   0  0  0  0  0  0
  -19.5755  -26.6389   21.5210 C   0  0  0  0  0  0
  -18.1920  -26.7927   22.1611 C   0  0  0  0  0  0
  -19.1512  -28.8846   23.2885 C   0  0  0  0  0  0
  -18.9445  -30.1439   23.8913 C   0  0  0  0  0  0
  -17.6462  -30.6596   24.0564 C   0  0  0  0  0  0
  -25.9034  -34.9471   23.5121 C   0  0  0  0  0  0
  -16.5343  -29.9102   23.6318 C   0  0  0  0  0  0
  -16.7247  -28.6515   23.0339 C   0  0  0  0  0  0
  -26.4465  -31.6583   25.0697 C   0  0  0  0  0  0
  -25.3745  -31.3723   26.1462 C   0  0  0  0  0  0
  -27.0290  -30.3022   24.6064 C   0  0  0  0  0  0
  -27.6044  -32.4294   25.7470 C   0  0  0  0  0  0
  -27.5574  -37.1806   24.8475 C   0  0  0  0  0  0
  -21.4133  -29.3045   22.3713 N   0  0  0  0  0  0
  -26.4299  -37.3779   23.9400 N   0  0  0  0  0  0
  -24.6707  -31.0748   22.0990 N   0  0  0  0  0  0
  -23.4175  -28.8213   23.3044 O   0  0  0  0  0  0
  -28.3806  -26.6383   20.1676 O   0  0  0  0  0  0
  -26.5610  -34.8928   22.4688 O   0  0  0  0  0  0
  -23.5341  -32.1452   23.7456 O   0  0  0  0  0  0
  -28.8511  -17.8540   20.2559 C   0  0  0  0  0  0
  -27.9675  -18.3878   19.3373 C   0  0  0  0  0  0
  -28.8614  -20.3484   20.0985 C   0  0  0  0  0  0
  -29.0105  -16.4389   20.7244 C   0  0  0  0  0  0
  -28.0633  -22.7054   20.1962 C   0  0  0  0  0  0
  -27.8002  -16.9509   17.2799 C   0  0  0  0  0  0
  -29.6892  -25.2877   21.5884 C   0  0  0  0  0  0
  -27.2282  -25.2214   21.8878 C   0  0  0  0  0  0
  -27.0442  -17.6500   18.4138 C   0  0  0  0  0  0
  -28.3538  -24.1720   19.7535 C   0  0  0  0  0  0
  -28.3550  -25.3293   20.8222 C   0  0  0  0  0  0
  -27.9996  -19.7867   19.2458 N   0  0  0  0  0  0
  -29.0424  -21.7691   20.1254 N   0  0  0  0  0  0
  -30.2083  -15.8466   20.5317 N   0  0  0  0  0  0
  -28.0302  -15.9040   21.2321 O   0  0  0  0  0  0
  -26.9239  -22.4227   20.5783 O   0  0  0  0  0  0
  -29.7886  -19.1417   21.0158 S   0  0  0  0  0  0
  -31.4373  -12.4526   19.1125 H   0  0  0  0  0  0
  -30.3045  -11.3876   19.8911 H   0  0  0  0  0  0
  -29.7239  -11.7328   17.4592 H   0  0  0  0  0  0
  -29.6043  -13.4579   17.7264 H   0  0  0  0  0  0
  -27.8429  -11.2686   18.8772 H   0  0  0  0  0  0
  -27.3273  -12.5302   17.7965 H   0  0  0  0  0  0
  -27.6284  -14.2179   19.4745 H   0  0  0  0  0  0
  -28.7261  -12.0479   21.3430 H   0  0  0  0  0  0
  -28.4655  -13.6694   21.8559 H   0  0  0  0  0  0
  -25.2706   -9.5625   22.4753 H   0  0  0  0  0  0
  -23.9948   -7.4590   22.7493 H   0  0  0  0  0  0
  -21.0782   -8.8697   19.8985 H   0  0  0  0  0  0
  -22.3598  -10.9591   19.6171 H   0  0  0  0  0  0
  -21.1932   -7.6137   23.9720 H   0  0  0  0  0  0
  -21.1493   -6.0522   25.9085 H   0  0  0  0  0  0
  -22.0588   -2.7605   23.2839 H   0  0  0  0  0  0
  -22.3960  -11.9860   22.4887 H   0  0  0  0  0  0
  -21.0954  -13.1183   22.2564 H   0  0  0  0  0  0
  -24.6571  -15.8154   20.6421 H   0  0  0  0  0  0
  -26.3348  -15.5532   20.5933 H   0  0  0  0  0  0
  -26.7118  -32.5534   23.1135 H   0  0  0  0  0  0
  -25.0056  -33.9765   25.0462 H   0  0  0  0  0  0
  -22.6964  -31.3079   21.4098 H   0  0  0  0  0  0
  -23.3744  -35.9634   23.3336 H   0  0  0  0  0  0
  -24.3586  -36.8869   22.2047 H   0  0  0  0  0  0
  -23.7244  -37.6507   23.6635 H   0  0  0  0  0  0
  -26.0374  -31.5963   20.5889 H   0  0  0  0  0  0
  -26.8231  -30.8920   21.9725 H   0  0  0  0  0  0
  -28.0992  -29.0787   21.1769 H   0  0  0  0  0  0
  -26.0520  -25.9566   19.0273 H   0  0  0  0  0  0
  -23.9798  -27.2922   19.0280 H   0  0  0  0  0  0
  -23.7192  -30.5995   19.4060 H   0  0  0  0  0  0
  -22.7377  -29.2386   19.8678 H   0  0  0  0  0  0
  -25.1276  -36.1978   25.0826 H   0  0  0  0  0  0
  -20.9926  -28.3262   24.1431 H   0  0  0  0  0  0
  -20.5660  -26.2290   23.3606 H   0  0  0  0  0  0
  -21.6634  -26.7468   22.1230 H   0  0  0  0  0  0
  -19.6944  -25.6297   21.1236 H   0  0  0  0  0  0
  -19.6707  -27.3215   20.6750 H   0  0  0  0  0  0
  -17.4194  -26.6642   21.4016 H   0  0  0  0  0  0
  -18.0345  -26.0078   22.9021 H   0  0  0  0  0  0
  -19.7935  -30.7223   24.2316 H   0  0  0  0  0  0
  -17.5032  -31.6288   24.5148 H   0  0  0  0  0  0
  -15.5351  -30.3030   23.7644 H   0  0  0  0  0  0
  -15.8638  -28.0858   22.7056 H   0  0  0  0  0  0
  -24.5905  -30.7066   25.7828 H   0  0  0  0  0  0
  -24.8941  -32.2895   26.4885 H   0  0  0  0  0  0
  -25.8120  -30.8926   27.0229 H   0  0  0  0  0  0
  -26.2866  -29.6828   24.1022 H   0  0  0  0  0  0
  -27.3959  -29.7199   25.4521 H   0  0  0  0  0  0
  -27.8728  -30.4313   23.9292 H   0  0  0  0  0  0
  -27.2674  -33.3588   26.2081 H   0  0  0  0  0  0
  -28.3866  -32.6863   25.0316 H   0  0  0  0  0  0
  -28.0699  -31.8384   26.5370 H   0  0  0  0  0  0
  -28.2611  -38.0085   24.7470 H   0  0  0  0  0  0
  -28.1053  -36.2606   24.6358 H   0  0  0  0  0  0
  -27.2297  -37.1515   25.8888 H   0  0  0  0  0  0
  -20.9314  -29.8727   21.6889 H   0  0  0  0  0  0
  -26.0188  -38.2861   24.1400 H   0  0  0  0  0  0
  -27.1025  -16.4911   16.5803 H   0  0  0  0  0  0
  -28.4539  -16.1643   17.6588 H   0  0  0  0  0  0
  -28.4115  -17.6643   16.7251 H   0  0  0  0  0  0
  -29.8220  -24.3379   22.1083 H   0  0  0  0  0  0
  -29.7407  -26.0782   22.3380 H   0  0  0  0  0  0
  -30.5385  -25.4161   20.9170 H   0  0  0  0  0  0
  -27.3673  -24.3508   22.5283 H   0  0  0  0  0  0
  -26.2369  -25.1278   21.4452 H   0  0  0  0  0  0
  -27.2167  -26.0907   22.5466 H   0  0  0  0  0  0
  -26.3221  -18.3385   17.9739 H   0  0  0  0  0  0
  -26.4477  -16.9301   18.9614 H   0  0  0  0  0  0
  -27.5973  -24.3964   19.0042 H   0  0  0  0  0  0
  -29.2966  -24.1884   19.2045 H   0  0  0  0  0  0
  -29.9882  -22.0927   19.9826 H   0  0  0  0  0  0
  -30.9119  -16.5248   20.2938 H   0  0  0  0  0  0
  1 25  1  0  0  0
  1 30  2  0  0  0
  1 84  1  0  0  0
  2  3  1  0  0  0
  2 25  1  0  0  0
  2 88  1  0  0  0
  2 89  1  0  0  0
  3  4  1  0  0  0
  3 90  1  0  0  0
  3 91  1  0  0  0
  4  5  1  0  0  0
  4 92  1  0  0  0
  4 93  1  0  0  0
  5  6  1  0  0  0
  5 26  1  0  0  0
  5 94  1  0  0  0
  6 25  1  0  0  0
  6 95  1  0  0  0
  6 96  1  0  0  0
  7  8  2  0  0  0
  7 26  1  0  0  0
  7 29  1  0  0  0
  8  9  1  0  0  0
  8 22  1  0  0  0
  9 10  1  0  0  0
  9 27  2  0  0  0
 10 11  2  0  0  0
 10 15  1  0  0  0
 11 12  1  0  0  0
 11 97  1  0  0  0
 12 13  2  0  0  0
 12 98  1  0  0  0
 13 14  1  0  0  0
 13 31  1  0  0  0
 14 15  2  0  0  0
 14 99  1  0  0  0
 15100  1  0  0  0
 16 17  2  0  0  0
 16 21  1  0  0  0
 16 31  1  0  0  0
 17 18  1  0  0  0
 17101  1  0  0  0
 18 19  2  0  0  0
 18102  1  0  0  0
 19 20  1  0  0  0
 19 24  1  0  0  0
 20 21  2  0  0  0
 20103  1  0  0  0
 21 23  1  0  0  0
 22 28  1  0  0  0
 22 32  2  0  0  0
 26 27  1  0  0  0
 28104  1  0  0  0
 28105  1  0  0  0
 29106  1  0  0  0
 29107  1  0  0  0
 33 34  1  0  0  0
 33 66  1  0  0  0
 33 70  2  0  0  0
 34 36  1  0  0  0
 34 59  1  0  0  0
 34108  1  0  0  0
 35 44  2  0  0  0
 35 45  1  0  0  0
 35 68  1  0  0  0
 36 56  1  0  0  0
 36109  1  0  0  0
 37 39  1  0  0  0
 37 47  1  0  0  0
 37 66  1  0  0  0
 37110  1  0  0  0
 38 43  2  0  0  0
 38 46  1  0  0  0
 38 47  1  0  0  0
 39 64  1  0  0  0
 39 67  2  0  0  0
 40 52  1  0  0  0
 40 53  2  0  0  0
 40 58  1  0  0  0
 41111  1  0  0  0
 41112  1  0  0  0
 41113  1  0  0  0
 41 48  1  0  0  0
 42 43  1  0  0  0
 42 66  1  0  0  0
 42114  1  0  0  0
 42115  1  0  0  0
 43 44  1  0  0  0
 44116  1  0  0  0
 45 46  2  0  0  0
 45117  1  0  0  0
 46118  1  0  0  0
 47119  1  0  0  0
 47120  1  0  0  0
 48 56  1  0  0  0
 48 65  1  0  0  0
 48121  1  0  0  0
 49 50  1  0  0  0
 49 53  1  0  0  0
 49 64  1  0  0  0
 49122  1  0  0  0
 50 51  1  0  0  0
 50123  1  0  0  0
 50124  1  0  0  0
 51 52  1  0  0  0
 51125  1  0  0  0
 51126  1  0  0  0
 52127  1  0  0  0
 52128  1  0  0  0
 53 54  1  0  0  0
 54 55  2  0  0  0
 54129  1  0  0  0
 55 57  1  0  0  0
 55130  1  0  0  0
 56 69  2  0  0  0
 57 58  2  0  0  0
 57131  1  0  0  0
 58132  1  0  0  0
 59 60  1  0  0  0
 59 61  1  0  0  0
 59 62  1  0  0  0
 60133  1  0  0  0
 60134  1  0  0  0
 60135  1  0  0  0
 61136  1  0  0  0
 61137  1  0  0  0
 61138  1  0  0  0
 62139  1  0  0  0
 62140  1  0  0  0
 62141  1  0  0  0
 63 65  1  0  0  0
 63142  1  0  0  0
 63143  1  0  0  0
 63144  1  0  0  0
 64145  1  0  0  0
 65146  1  0  0  0
 68 81  1  0  0  0
 71 72  2  0  0  0
 71 74  1  0  0  0
 71 87  1  0  0  0
 72 79  1  0  0  0
 72 82  1  0  0  0
 73 82  2  0  0  0
 73 83  1  0  0  0
 73 87  1  0  0  0
 74 84  1  0  0  0
 74 85  2  0  0  0
 75 80  1  0  0  0
 75 83  1  0  0  0
 75 86  2  0  0  0
 76 79  1  0  0  0
 76147  1  0  0  0
 76148  1  0  0  0
 76149  1  0  0  0
 77150  1  0  0  0
 77151  1  0  0  0
 77152  1  0  0  0
 77 81  1  0  0  0
 78 81  1  0  0  0
 78153  1  0  0  0
 78154  1  0  0  0
 78155  1  0  0  0
 79156  1  0  0  0
 79157  1  0  0  0
 80 81  1  0  0  0
 80158  1  0  0  0
 80159  1  0  0  0
 83160  1  0  0  0
 84161  1  0  0  0
M  ISO  4   1 100  68 101  81 101  84 100
M  END
> <chiral flag>
0

> <version>
0

> <s_m_source_file>
/data/baiqing/PycharmProjects/Reinvent-master-3.2/result/LINK_invent/BTK/process_docking_weight1_custom_product_contain_oxygen_bond_distance_aromatic_linkinvent_7_9_3/rearranged_h_0184.sdf

> <i_m_source_file_index>
38

> <r_mmod_Potential_Energy-OPLS-2005>
-79.8864974975586

> <r_mmod_Stretch_Energy-OPLS-2005>
47.9783592224121

> <r_mmod_Bend_Energy-OPLS-2005>
181.211074829102

> <r_mmod_Torsional_Energy-OPLS-2005>
279.960632324219

> <r_mmod_Improper_Torsional_Energy-OPLS-2005>
11.1659631729126

> <r_mmod_Van_der_Waal_Energy-OPLS-2005>
126.704925537109

> <r_mmod_Electrostatic_Energy-OPLS-2005>
-544.375305175781

> <r_mmod_Solvation_Energy-OPLS-2005>
-218.584045410156

> <b_mmod_Minimization_Converged-OPLS-2005>
0

> <r_mmod_RMS_Derivative-OPLS-2005>
2.96719741821289

$$$$
38
                    3D
 Structure written by MMmdl.
161169  0  0  1  0            999 V2000
  -30.6190  -14.7794   20.3512 C   0  0  0  0  0  0
  -30.4451  -12.4524   19.4443 C   0  0  0  0  0  0
  -29.4930  -12.3665   18.2292 C   0  0  0  0  0  0
  -28.0180  -12.2721   18.6614 C   0  0  0  0  0  0
  -27.6380  -13.2116   19.8386 C   0  0  2  0  0  0
  -28.7060  -13.2119   20.9478 C   0  0  0  0  0  0
  -25.2541  -13.8156   20.5739 C   0  0  0  0  0  0
  -24.1809  -13.0434   20.9243 C   0  0  0  0  0  0
  -24.6375  -11.6904   20.8817 C   0  0  0  0  0  0
  -23.9057  -10.4290   21.0447 C   0  0  0  0  0  0
  -24.3622   -9.4185   21.9197 C   0  0  0  0  0  0
  -23.6300   -8.2219   22.0754 C   0  0  0  0  0  0
  -22.4286   -8.0269   21.3537 C   0  0  0  0  0  0
  -21.9928   -9.0250   20.4648 C   0  0  0  0  0  0
  -22.7243  -10.2142   20.3080 C   0  0  0  0  0  0
  -21.6857   -6.0739   22.5278 C   0  0  0  0  0  0
  -21.4007   -6.5640   23.8209 C   0  0  0  0  0  0
  -21.3648   -5.6788   24.9177 C   0  0  0  0  0  0
  -21.6041   -4.3056   24.7226 C   0  0  0  0  0  0
  -21.8825   -3.8151   23.4347 C   0  0  0  0  0  0
  -21.9198   -4.6968   22.3406 C   0  0  0  0  0  0
  -22.7831  -13.5239   21.1857 C   0  0  0  0  0  0
  -22.1670   -4.2158   21.0984 F   0  0  0  0  0  0
  -21.5633   -3.4532   25.7737 F   0  0  0  0  0  0
  -29.9790  -13.5568   20.3037 N   0  0  0  0  0  0
  -26.2950  -12.9325   20.3364 N   0  0  0  0  0  0
  -25.9306  -11.6498   20.5882 N   0  0  0  0  0  0
  -22.0436  -12.8257   22.0399 N   0  0  0  0  0  0
  -25.4204  -15.1870   20.4120 N   0  0  0  0  0  0
  -31.8515  -14.8096   20.3588 O   0  0  0  0  0  0
  -21.6641   -6.8877   21.4239 O   0  0  0  0  0  0
  -22.3531  -14.5543   20.6691 O   0  0  0  0  0  0
  -24.6292  -31.8578   23.2013 C   0  0  0  0  0  0
  -25.9130  -32.4769   23.8352 C   0  0  1  0  0  0
  -27.2229  -27.2895   20.1401 C   0  0  0  0  0  0
  -25.5932  -33.8570   24.2281 N   0  0  0  0  0  0
  -23.4249  -30.4809   21.5428 C   0  0  2  0  0  0
  -24.8743  -28.9305   20.1137 C   0  0  0  0  0  0
  -22.7481  -29.4629   22.4923 C   0  0  0  0  0  0
  -18.0288  -28.1418   22.8485 C   0  0  0  0  0  0
  -24.1477  -36.7267   23.2643 C   0  0  0  0  0  0
  -25.9674  -30.7822   21.3745 C   0  0  0  0  0  0
  -26.0439  -29.4052   20.7220 C   0  0  0  0  0  0
  -27.2238  -28.5980   20.7223 C   0  0  0  0  0  0
  -26.0374  -26.8819   19.4896 C   0  0  0  0  0  0
  -24.8751  -27.6758   19.4853 C   0  0  0  0  0  0
  -23.6425  -29.8137   20.1591 C   0  0  0  0  0  0
  -25.4105  -36.3068   24.0331 C   0  0  1  0  0  0
  -20.5887  -28.3716   23.1276 C   0  0  2  0  0  0
  -20.6766  -26.9437   22.5409 C   0  0  0  0  0  0
  -19.5740  -26.6412   21.5213 C   0  0  0  0  0  0
  -18.1928  -26.7958   22.1633 C   0  0  0  0  0  0
  -19.1540  -28.8880   23.2879 C   0  0  0  0  0  0
  -18.9467  -30.1482   23.8900 C   0  0  0  0  0  0
  -17.6469  -30.6607   24.0581 C   0  0  0  0  0  0
  -25.9046  -34.9443   23.5101 C   0  0  0  0  0  0
  -16.5358  -29.9112   23.6343 C   0  0  0  0  0  0
  -16.7277  -28.6532   23.0357 C   0  0  0  0  0  0
  -26.4518  -31.6579   25.0720 C   0  0  0  0  0  0
  -25.3749  -31.3718   26.1440 C   0  0  0  0  0  0
  -27.0361  -30.3005   24.6180 C   0  0  0  0  0  0
  -27.6078  -32.4315   25.7484 C   0  0  0  0  0  0
  -27.5569  -37.1787   24.8474 C   0  0  0  0  0  0
  -21.4189  -29.3059   22.3650 N   0  0  0  0  0  0
  -26.4279  -37.3767   23.9416 N   0  0  0  0  0  0
  -24.6926  -31.0575   22.0968 N   0  0  0  0  0  0
  -23.4178  -28.8173   23.3026 O   0  0  0  0  0  0
  -28.3083  -26.3940   20.1907 O   0  0  0  0  0  0
  -26.5620  -34.8909   22.4673 O   0  0  0  0  0  0
  -23.5445  -32.1383   23.7318 O   0  0  0  0  0  0
  -28.8998  -17.6070   21.3499 C   0  0  0  0  0  0
  -29.8270  -17.1633   20.4196 C   0  0  0  0  0  0
  -29.5574  -19.7474   20.6846 C   0  0  0  0  0  0
  -29.0012  -23.8169   20.3836 C   0  0  0  0  0  0
  -29.7415  -15.9135   18.4700 C   0  0  0  0  0  0
  -29.0129  -22.4685   22.5764 C   0  0  0  0  0  0
  -29.1967  -17.7377   16.7784 C   0  0  0  0  0  0
  -27.5263  -15.9138   17.1739 C   0  0  0  0  0  0
  -27.9880  -25.0145   20.6797 C   0  0  0  0  0  0
  -28.7678  -22.3612   21.0597 C   0  0  2  0  0  0
  -28.6128  -16.7814   17.8406 C   0  0  0  0  0  0
  -28.7459  -19.0212   21.4681 N   0  0  0  0  0  0
  -29.5404  -21.1796   20.5229 N   0  0  0  0  0  0
  -29.9402  -15.8912   19.8268 N   0  0  0  0  0  0
  -29.9634  -24.0096   19.6349 O   0  0  0  0  0  0
  -30.5159  -15.3771   17.6700 O   0  0  0  0  0  0
  -30.6721  -18.6369   19.8273 S   0  0  0  0  0  0
  -31.4703  -12.6079   19.1046 H   0  0  0  0  0  0
  -30.4462  -11.5160   20.0031 H   0  0  0  0  0  0
  -29.7526  -11.4906   17.6339 H   0  0  0  0  0  0
  -29.6145  -13.2003   17.5498 H   0  0  0  0  0  0
  -27.8512  -11.2343   18.9534 H   0  0  0  0  0  0
  -27.3622  -12.4495   17.8082 H   0  0  0  0  0  0
  -27.6174  -14.2168   19.4319 H   0  0  0  0  0  0
  -28.7688  -12.2411   21.4410 H   0  0  0  0  0  0
  -28.4569  -13.9459   21.7167 H   0  0  0  0  0  0
  -25.2772   -9.5646   22.4772 H   0  0  0  0  0  0
  -24.0007   -7.4608   22.7469 H   0  0  0  0  0  0
  -21.0862   -8.8768   19.8960 H   0  0  0  0  0  0
  -22.3689  -10.9691   19.6201 H   0  0  0  0  0  0
  -21.1987   -7.6146   23.9711 H   0  0  0  0  0  0
  -21.1470   -6.0523   25.9078 H   0  0  0  0  0  0
  -22.0623   -2.7614   23.2841 H   0  0  0  0  0  0
  -22.4028  -11.9922   22.4811 H   0  0  0  0  0  0
  -21.1050  -13.1302   22.2555 H   0  0  0  0  0  0
  -24.6377  -15.8269   20.5003 H   0  0  0  0  0  0
  -26.2661  -15.6381   20.0957 H   0  0  0  0  0  0
  -26.7197  -32.5455   23.1095 H   0  0  0  0  0  0
  -25.0076  -33.9707   25.0426 H   0  0  0  0  0  0
  -22.7205  -31.3027   21.3970 H   0  0  0  0  0  0
  -23.3739  -35.9600   23.3314 H   0  0  0  0  0  0
  -24.3562  -36.8873   22.2055 H   0  0  0  0  0  0
  -23.7222  -37.6468   23.6654 H   0  0  0  0  0  0
  -26.0982  -31.5415   20.6019 H   0  0  0  0  0  0
  -26.8480  -30.8383   22.0022 H   0  0  0  0  0  0
  -28.1193  -28.9555   21.2110 H   0  0  0  0  0  0
  -25.9935  -25.9290   18.9836 H   0  0  0  0  0  0
  -23.9834  -27.3115   18.9930 H   0  0  0  0  0  0
  -23.7640  -30.5894   19.4021 H   0  0  0  0  0  0
  -22.7609  -29.2446   19.8574 H   0  0  0  0  0  0
  -25.1287  -36.1912   25.0823 H   0  0  0  0  0  0
  -21.0009  -28.3314   24.1390 H   0  0  0  0  0  0
  -20.5669  -26.2341   23.3617 H   0  0  0  0  0  0
  -21.6638  -26.7459   22.1213 H   0  0  0  0  0  0
  -19.6895  -25.6327   21.1244 H   0  0  0  0  0  0
  -19.6676  -27.3216   20.6739 H   0  0  0  0  0  0
  -17.4194  -26.6711   21.4042 H   0  0  0  0  0  0
  -18.0328  -26.0107   22.9039 H   0  0  0  0  0  0
  -19.7939  -30.7302   24.2270 H   0  0  0  0  0  0
  -17.5021  -31.6285   24.5188 H   0  0  0  0  0  0
  -15.5359  -30.3022   23.7655 H   0  0  0  0  0  0
  -15.8677  -28.0853   22.7073 H   0  0  0  0  0  0
  -24.5944  -30.7039   25.7776 H   0  0  0  0  0  0
  -24.8914  -32.2882   26.4847 H   0  0  0  0  0  0
  -25.8086  -30.8925   27.0227 H   0  0  0  0  0  0
  -26.2940  -29.6743   24.1217 H   0  0  0  0  0  0
  -27.4069  -29.7276   25.4692 H   0  0  0  0  0  0
  -27.8805  -30.4282   23.9397 H   0  0  0  0  0  0
  -27.2707  -33.3634   26.2036 H   0  0  0  0  0  0
  -28.3908  -32.6846   25.0320 H   0  0  0  0  0  0
  -28.0724  -31.8451   26.5420 H   0  0  0  0  0  0
  -28.2607  -38.0068   24.7515 H   0  0  0  0  0  0
  -28.1045  -36.2602   24.6311 H   0  0  0  0  0  0
  -27.2289  -37.1456   25.8879 H   0  0  0  0  0  0
  -20.9371  -29.8762   21.6837 H   0  0  0  0  0  0
  -26.0151  -38.2834   24.1441 H   0  0  0  0  0  0
  -28.1949  -16.9879   21.8861 H   0  0  0  0  0  0
  -28.4026  -23.2497   23.0314 H   0  0  0  0  0  0
  -30.0572  -22.6924   22.8020 H   0  0  0  0  0  0
  -28.7604  -21.5365   23.0832 H   0  0  0  0  0  0
  -30.0914  -18.2520   17.1251 H   0  0  0  0  0  0
  -28.4706  -18.5012   16.4987 H   0  0  0  0  0  0
  -29.4754  -17.1991   15.8711 H   0  0  0  0  0  0
  -26.8249  -15.5126   17.9010 H   0  0  0  0  0  0
  -27.9515  -15.0783   16.6169 H   0  0  0  0  0  0
  -26.9314  -16.5011   16.4723 H   0  0  0  0  0  0
  -27.8689  -25.0818   21.7602 H   0  0  0  0  0  0
  -27.0219  -24.6833   20.3051 H   0  0  0  0  0  0
  -27.7136  -22.1160   20.9243 H   0  0  0  0  0  0
  -28.1159  -17.3903   18.5934 H   0  0  0  0  0  0
  -30.2258  -21.4907   19.8386 H   0  0  0  0  0  0
  1 25  1  0  0  0
  1 30  2  0  0  0
  1 84  1  0  0  0
  2  3  1  0  0  0
  2 25  1  0  0  0
  2 88  1  0  0  0
  2 89  1  0  0  0
  3  4  1  0  0  0
  3 90  1  0  0  0
  3 91  1  0  0  0
  4  5  1  0  0  0
  4 92  1  0  0  0
  4 93  1  0  0  0
  5  6  1  0  0  0
  5 26  1  0  0  0
  5 94  1  0  0  0
  6 25  1  0  0  0
  6 95  1  0  0  0
  6 96  1  0  0  0
  7  8  2  0  0  0
  7 26  1  0  0  0
  7 29  1  0  0  0
  8  9  1  0  0  0
  8 22  1  0  0  0
  9 10  1  0  0  0
  9 27  2  0  0  0
 10 11  2  0  0  0
 10 15  1  0  0  0
 11 12  1  0  0  0
 11 97  1  0  0  0
 12 13  2  0  0  0
 12 98  1  0  0  0
 13 14  1  0  0  0
 13 31  1  0  0  0
 14 15  2  0  0  0
 14 99  1  0  0  0
 15100  1  0  0  0
 16 17  2  0  0  0
 16 21  1  0  0  0
 16 31  1  0  0  0
 17 18  1  0  0  0
 17101  1  0  0  0
 18 19  2  0  0  0
 18102  1  0  0  0
 19 20  1  0  0  0
 19 24  1  0  0  0
 20 21  2  0  0  0
 20103  1  0  0  0
 21 23  1  0  0  0
 22 28  1  0  0  0
 22 32  2  0  0  0
 26 27  1  0  0  0
 28104  1  0  0  0
 28105  1  0  0  0
 29106  1  0  0  0
 29107  1  0  0  0
 33 34  1  0  0  0
 33 66  1  0  0  0
 33 70  2  0  0  0
 34 36  1  0  0  0
 34 59  1  0  0  0
 34108  1  0  0  0
 35 44  2  0  0  0
 35 45  1  0  0  0
 35 68  1  0  0  0
 36 56  1  0  0  0
 36109  1  0  0  0
 37 39  1  0  0  0
 37 47  1  0  0  0
 37 66  1  0  0  0
 37110  1  0  0  0
 38 43  2  0  0  0
 38 46  1  0  0  0
 38 47  1  0  0  0
 39 64  1  0  0  0
 39 67  2  0  0  0
 40 52  1  0  0  0
 40 53  2  0  0  0
 40 58  1  0  0  0
 41111  1  0  0  0
 41112  1  0  0  0
 41113  1  0  0  0
 41 48  1  0  0  0
 42 43  1  0  0  0
 42 66  1  0  0  0
 42114  1  0  0  0
 42115  1  0  0  0
 43 44  1  0  0  0
 44116  1  0  0  0
 45 46  2  0  0  0
 45117  1  0  0  0
 46118  1  0  0  0
 47119  1  0  0  0
 47120  1  0  0  0
 48 56  1  0  0  0
 48 65  1  0  0  0
 48121  1  0  0  0
 49 50  1  0  0  0
 49 53  1  0  0  0
 49 64  1  0  0  0
 49122  1  0  0  0
 50 51  1  0  0  0
 50123  1  0  0  0
 50124  1  0  0  0
 51 52  1  0  0  0
 51125  1  0  0  0
 51126  1  0  0  0
 52127  1  0  0  0
 52128  1  0  0  0
 53 54  1  0  0  0
 54 55  2  0  0  0
 54129  1  0  0  0
 55 57  1  0  0  0
 55130  1  0  0  0
 56 69  2  0  0  0
 57 58  2  0  0  0
 57131  1  0  0  0
 58132  1  0  0  0
 59 60  1  0  0  0
 59 61  1  0  0  0
 59 62  1  0  0  0
 60133  1  0  0  0
 60134  1  0  0  0
 60135  1  0  0  0
 61136  1  0  0  0
 61137  1  0  0  0
 61138  1  0  0  0
 62139  1  0  0  0
 62140  1  0  0  0
 62141  1  0  0  0
 63 65  1  0  0  0
 63142  1  0  0  0
 63143  1  0  0  0
 63144  1  0  0  0
 64145  1  0  0  0
 65146  1  0  0  0
 68 79  1  0  0  0
 71 72  2  0  0  0
 71 82  1  0  0  0
 71147  1  0  0  0
 72 84  1  0  0  0
 72 87  1  0  0  0
 73 82  2  0  0  0
 73 83  1  0  0  0
 73 87  1  0  0  0
 74 79  1  0  0  0
 74 80  1  0  0  0
 74 85  2  0  0  0
 75 81  1  0  0  0
 75 84  1  0  0  0
 75 86  2  0  0  0
 76148  1  0  0  0
 76149  1  0  0  0
 76150  1  0  0  0
 76 80  1  0  0  0
 77151  1  0  0  0
 77152  1  0  0  0
 77153  1  0  0  0
 77 81  1  0  0  0
 78 81  1  0  0  0
 78154  1  0  0  0
 78155  1  0  0  0
 78156  1  0  0  0
 79157  1  0  0  0
 79158  1  0  0  0
 80 83  1  0  0  0
 80159  1  0  0  0
 81160  1  0  0  0
 83161  1  0  0  0
M  ISO  4   1 100  68 101  79 101  84 100
M  END
> <chiral flag>
0

> <version>
0

> <s_m_source_file>
/data/baiqing/PycharmProjects/Reinvent-master-3.2/result/LINK_invent/BTK/process_docking_weight1_custom_product_contain_oxygen_bond_distance_aromatic_linkinvent_7_9_3/rearranged_h_0184.sdf

> <i_m_source_file_index>
39

> <r_mmod_Potential_Energy-OPLS-2005>
286.408905029297

> <r_mmod_Stretch_Energy-OPLS-2005>
109.734039306641

> <r_mmod_Bend_Energy-OPLS-2005>
153.609039306641

> <r_mmod_Torsional_Energy-OPLS-2005>
350.223266601562

> <r_mmod_Improper_Torsional_Energy-OPLS-2005>
23.3550701141357

> <r_mmod_Van_der_Waal_Energy-OPLS-2005>
124.359573364258

> <r_mmod_Electrostatic_Energy-OPLS-2005>
-350.168487548828

> <r_mmod_Solvation_Energy-OPLS-2005>
-231.320190429688

> <b_mmod_Minimization_Converged-OPLS-2005>
0

> <r_mmod_RMS_Derivative-OPLS-2005>
2.05573272705078

$$$$
39
                    3D
 Structure written by MMmdl.
158166  0  0  1  0            999 V2000
  -30.7021  -14.5666   20.5399 C   0  0  0  0  0  0
  -30.4159  -12.3617   19.4405 C   0  0  0  0  0  0
  -29.4926  -12.5009   18.2142 C   0  0  0  0  0  0
  -28.0184  -12.3427   18.6307 C   0  0  0  0  0  0
  -27.6487  -13.2136   19.8606 C   0  0  2  0  0  0
  -28.6944  -13.0814   20.9901 C   0  0  0  0  0  0
  -25.2552  -13.8161   20.5701 C   0  0  0  0  0  0
  -24.1815  -13.0430   20.9197 C   0  0  0  0  0  0
  -24.6387  -11.6902   20.8754 C   0  0  0  0  0  0
  -23.9060  -10.4287   21.0415 C   0  0  0  0  0  0
  -24.3614   -9.4199   21.9189 C   0  0  0  0  0  0
  -23.6289   -8.2235   22.0754 C   0  0  0  0  0  0
  -22.4272   -8.0276   21.3544 C   0  0  0  0  0  0
  -21.9910   -9.0249   20.4645 C   0  0  0  0  0  0
  -22.7239  -10.2128   20.3057 C   0  0  0  0  0  0
  -21.6849   -6.0736   22.5281 C   0  0  0  0  0  0
  -21.4012   -6.5642   23.8214 C   0  0  0  0  0  0
  -21.3655   -5.6794   24.9177 C   0  0  0  0  0  0
  -21.6040   -4.3056   24.7223 C   0  0  0  0  0  0
  -21.8819   -3.8151   23.4346 C   0  0  0  0  0  0
  -21.9194   -4.6967   22.3405 C   0  0  0  0  0  0
  -22.7841  -13.5226   21.1855 C   0  0  0  0  0  0
  -22.1661   -4.2153   21.0982 F   0  0  0  0  0  0
  -21.5629   -3.4539   25.7739 F   0  0  0  0  0  0
  -30.0137  -13.3904   20.4204 N   0  0  0  0  0  0
  -26.2969  -12.9338   20.3330 N   0  0  0  0  0  0
  -25.9310  -11.6494   20.5775 N   0  0  0  0  0  0
  -22.0481  -12.8215   22.0409 N   0  0  0  0  0  0
  -25.4276  -15.1882   20.4130 N   0  0  0  0  0  0
  -31.8431  -14.6895   20.0843 O   0  0  0  0  0  0
  -21.6636   -6.8876   21.4245 O   0  0  0  0  0  0
  -22.3533  -14.5536   20.6709 O   0  0  0  0  0  0
  -24.6193  -31.8629   23.2047 C   0  0  0  0  0  0
  -25.9066  -32.4794   23.8360 C   0  0  1  0  0  0
  -27.2293  -27.3700   20.1012 C   0  0  0  0  0  0
  -25.5909  -33.8597   24.2289 N   0  0  0  0  0  0
  -23.4099  -30.4851   21.5466 C   0  0  2  0  0  0
  -24.8541  -28.9416   20.1103 C   0  0  0  0  0  0
  -22.7437  -29.4629   22.4965 C   0  0  0  0  0  0
  -18.0274  -28.1370   22.8498 C   0  0  0  0  0  0
  -24.1489  -36.7293   23.2640 C   0  0  0  0  0  0
  -25.9440  -30.8074   21.3670 C   0  0  0  0  0  0
  -26.0168  -29.4375   20.7111 C   0  0  0  0  0  0
  -27.2032  -28.6595   20.7018 C   0  0  0  0  0  0
  -26.0427  -26.9009   19.4946 C   0  0  0  0  0  0
  -24.8656  -27.6763   19.4983 C   0  0  0  0  0  0
  -23.6192  -29.8165   20.1612 C   0  0  0  0  0  0
  -25.4112  -36.3091   24.0333 C   0  0  1  0  0  0
  -20.5871  -28.3657   23.1311 C   0  0  2  0  0  0
  -20.6762  -26.9387   22.5417 C   0  0  0  0  0  0
  -19.5741  -26.6375   21.5218 C   0  0  0  0  0  0
  -18.1919  -26.7918   22.1624 C   0  0  0  0  0  0
  -19.1523  -28.8832   23.2905 C   0  0  0  0  0  0
  -18.9457  -30.1442   23.8901 C   0  0  0  0  0  0
  -17.6459  -30.6575   24.0566 C   0  0  0  0  0  0
  -25.9048  -34.9461   23.5109 C   0  0  0  0  0  0
  -16.5346  -29.9076   23.6329 C   0  0  0  0  0  0
  -16.7262  -28.6494   23.0344 C   0  0  0  0  0  0
  -26.4466  -31.6593   25.0718 C   0  0  0  0  0  0
  -25.3719  -31.3725   26.1468 C   0  0  0  0  0  0
  -27.0290  -30.3025   24.6129 C   0  0  0  0  0  0
  -27.6051  -32.4311   25.7468 C   0  0  0  0  0  0
  -27.5585  -37.1797   24.8458 C   0  0  0  0  0  0
  -21.4159  -29.3024   22.3715 N   0  0  0  0  0  0
  -26.4285  -37.3790   23.9418 N   0  0  0  0  0  0
  -24.6762  -31.0682   22.0968 N   0  0  0  0  0  0
  -23.4187  -28.8180   23.3033 O   0  0  0  0  0  0
  -28.3984  -26.6171   20.1453 O   0  0  0  0  0  0
  -26.5623  -34.8925   22.4679 O   0  0  0  0  0  0
  -23.5375  -32.1405   23.7412 O   0  0  0  0  0  0
  -30.9574  -18.1170   19.3980 C   0  0  0  0  0  0
  -31.3209  -19.2660   18.7896 C   0  0  0  0  0  0
  -29.0248  -19.1613   20.3134 C   0  0  0  0  0  0
  -29.7127  -17.9926   20.1357 C   0  0  0  0  0  0
  -30.4742  -20.4441   18.8472 C   0  0  0  0  0  0
  -28.9637  -22.7999   20.4268 C   0  0  0  0  0  0
  -30.8428  -16.2098   22.3114 C   0  0  0  0  0  0
  -29.1745  -16.5900   20.5419 C   0  0  0  0  0  0
  -28.5052  -25.2876   19.5449 C   0  0  0  0  0  0
  -27.9886  -24.0291   20.3462 C   0  0  2  0  0  0
  -30.6633  -21.4612   18.0799 N   0  0  0  0  0  0
  -29.4224  -20.4213   19.7889 N   0  0  0  0  0  0
  -28.5708  -21.5848   19.9443 N   0  0  0  0  0  0
  -30.1117  -15.6175   21.1890 N   0  0  0  0  0  0
  -30.0649  -22.9490   20.9693 O   0  0  0  0  0  0
  -27.7102  -24.4120   21.5967 F   0  0  0  0  0  0
  -31.4604  -12.4526   19.1372 H   0  0  0  0  0  0
  -30.3227  -11.3675   19.8803 H   0  0  0  0  0  0
  -29.7496  -11.7539   17.4619 H   0  0  0  0  0  0
  -29.6427  -13.4737   17.7441 H   0  0  0  0  0  0
  -27.8514  -11.2898   18.8593 H   0  0  0  0  0  0
  -27.3622  -12.5774   17.7917 H   0  0  0  0  0  0
  -27.6590  -14.2435   19.5118 H   0  0  0  0  0  0
  -28.6935  -12.0703   21.3999 H   0  0  0  0  0  0
  -28.4452  -13.7422   21.8218 H   0  0  0  0  0  0
  -25.2762   -9.5676   22.4767 H   0  0  0  0  0  0
  -23.9999   -7.4623   22.7469 H   0  0  0  0  0  0
  -21.0845   -8.8767   19.8947 H   0  0  0  0  0  0
  -22.3704  -10.9668   19.6166 H   0  0  0  0  0  0
  -21.2000   -7.6148   23.9721 H   0  0  0  0  0  0
  -21.1475   -6.0524   25.9081 H   0  0  0  0  0  0
  -22.0602   -2.7612   23.2847 H   0  0  0  0  0  0
  -22.4090  -11.9868   22.4786 H   0  0  0  0  0  0
  -21.1097  -13.1244   22.2610 H   0  0  0  0  0  0
  -24.6646  -15.8459   20.5323 H   0  0  0  0  0  0
  -26.2860  -15.6277   20.1081 H   0  0  0  0  0  0
  -26.7134  -32.5462   23.1112 H   0  0  0  0  0  0
  -25.0068  -33.9755   25.0442 H   0  0  0  0  0  0
  -22.7012  -31.3035   21.4059 H   0  0  0  0  0  0
  -23.3766  -35.9610   23.3282 H   0  0  0  0  0  0
  -24.3594  -36.8927   22.2059 H   0  0  0  0  0  0
  -23.7218  -37.6484   23.6668 H   0  0  0  0  0  0
  -26.0695  -31.5728   20.6000 H   0  0  0  0  0  0
  -26.8270  -30.8550   21.9924 H   0  0  0  0  0  0
  -28.1003  -29.0385   21.1710 H   0  0  0  0  0  0
  -25.9990  -25.9295   19.0257 H   0  0  0  0  0  0
  -23.9704  -27.2872   19.0326 H   0  0  0  0  0  0
  -23.7285  -30.5918   19.4018 H   0  0  0  0  0  0
  -22.7397  -29.2410   19.8649 H   0  0  0  0  0  0
  -25.1286  -36.1947   25.0826 H   0  0  0  0  0  0
  -20.9968  -28.3217   24.1428 H   0  0  0  0  0  0
  -20.5667  -26.2262   23.3607 H   0  0  0  0  0  0
  -21.6632  -26.7421   22.1204 H   0  0  0  0  0  0
  -19.6905  -25.6295   21.1224 H   0  0  0  0  0  0
  -19.6678  -27.3205   20.6767 H   0  0  0  0  0  0
  -17.4194  -26.6681   21.4020 H   0  0  0  0  0  0
  -18.0303  -26.0044   22.9000 H   0  0  0  0  0  0
  -19.7938  -30.7268   24.2252 H   0  0  0  0  0  0
  -17.5011  -31.6257   24.5168 H   0  0  0  0  0  0
  -15.5352  -30.2982   23.7654 H   0  0  0  0  0  0
  -15.8660  -28.0826   22.7042 H   0  0  0  0  0  0
  -24.5886  -30.7073   25.7808 H   0  0  0  0  0  0
  -24.8917  -32.2887   26.4919 H   0  0  0  0  0  0
  -25.8062  -30.8891   27.0229 H   0  0  0  0  0  0
  -26.2835  -29.6800   24.1166 H   0  0  0  0  0  0
  -27.4017  -29.7257   25.4606 H   0  0  0  0  0  0
  -27.8692  -30.4324   23.9305 H   0  0  0  0  0  0
  -27.2692  -33.3628   26.2032 H   0  0  0  0  0  0
  -28.3865  -32.6837   25.0287 H   0  0  0  0  0  0
  -28.0709  -31.8434   26.5390 H   0  0  0  0  0  0
  -28.2582  -38.0119   24.7550 H   0  0  0  0  0  0
  -28.1100  -36.2653   24.6216 H   0  0  0  0  0  0
  -27.2315  -37.1356   25.8864 H   0  0  0  0  0  0
  -20.9316  -29.8754   21.6943 H   0  0  0  0  0  0
  -26.0165  -38.2859   24.1458 H   0  0  0  0  0  0
  -31.6167  -17.2648   19.3241 H   0  0  0  0  0  0
  -32.2540  -19.2620   18.2437 H   0  0  0  0  0  0
  -28.0664  -19.1772   20.8121 H   0  0  0  0  0  0
  -30.2059  -16.8799   22.8902 H   0  0  0  0  0  0
  -31.7046  -16.7804   21.9609 H   0  0  0  0  0  0
  -31.2078  -15.4395   22.9927 H   0  0  0  0  0  0
  -28.7815  -16.1480   19.6265 H   0  0  0  0  0  0
  -28.3143  -16.7180   21.2004 H   0  0  0  0  0  0
  -28.0726  -25.2918   18.5440 H   0  0  0  0  0  0
  -29.5723  -25.1572   19.3627 H   0  0  0  0  0  0
  -27.0352  -23.7066   19.9282 H   0  0  0  0  0  0
  -31.4632  -21.2855   17.4733 H   0  0  0  0  0  0
  -27.6710  -21.4946   19.4933 H   0  0  0  0  0  0
  1 25  1  0  0  0
  1 30  2  0  0  0
  1 84  1  0  0  0
  2  3  1  0  0  0
  2 25  1  0  0  0
  2 87  1  0  0  0
  2 88  1  0  0  0
  3  4  1  0  0  0
  3 89  1  0  0  0
  3 90  1  0  0  0
  4  5  1  0  0  0
  4 91  1  0  0  0
  4 92  1  0  0  0
  5  6  1  0  0  0
  5 26  1  0  0  0
  5 93  1  0  0  0
  6 25  1  0  0  0
  6 94  1  0  0  0
  6 95  1  0  0  0
  7  8  2  0  0  0
  7 26  1  0  0  0
  7 29  1  0  0  0
  8  9  1  0  0  0
  8 22  1  0  0  0
  9 10  1  0  0  0
  9 27  2  0  0  0
 10 11  2  0  0  0
 10 15  1  0  0  0
 11 12  1  0  0  0
 11 96  1  0  0  0
 12 13  2  0  0  0
 12 97  1  0  0  0
 13 14  1  0  0  0
 13 31  1  0  0  0
 14 15  2  0  0  0
 14 98  1  0  0  0
 15 99  1  0  0  0
 16 17  2  0  0  0
 16 21  1  0  0  0
 16 31  1  0  0  0
 17 18  1  0  0  0
 17100  1  0  0  0
 18 19  2  0  0  0
 18101  1  0  0  0
 19 20  1  0  0  0
 19 24  1  0  0  0
 20 21  2  0  0  0
 20102  1  0  0  0
 21 23  1  0  0  0
 22 28  1  0  0  0
 22 32  2  0  0  0
 26 27  1  0  0  0
 28103  1  0  0  0
 28104  1  0  0  0
 29105  1  0  0  0
 29106  1  0  0  0
 33 34  1  0  0  0
 33 66  1  0  0  0
 33 70  2  0  0  0
 34 36  1  0  0  0
 34 59  1  0  0  0
 34107  1  0  0  0
 35 44  2  0  0  0
 35 45  1  0  0  0
 35 68  1  0  0  0
 36 56  1  0  0  0
 36108  1  0  0  0
 37 39  1  0  0  0
 37 47  1  0  0  0
 37 66  1  0  0  0
 37109  1  0  0  0
 38 43  2  0  0  0
 38 46  1  0  0  0
 38 47  1  0  0  0
 39 64  1  0  0  0
 39 67  2  0  0  0
 40 52  1  0  0  0
 40 53  2  0  0  0
 40 58  1  0  0  0
 41110  1  0  0  0
 41111  1  0  0  0
 41112  1  0  0  0
 41 48  1  0  0  0
 42 43  1  0  0  0
 42 66  1  0  0  0
 42113  1  0  0  0
 42114  1  0  0  0
 43 44  1  0  0  0
 44115  1  0  0  0
 45 46  2  0  0  0
 45116  1  0  0  0
 46117  1  0  0  0
 47118  1  0  0  0
 47119  1  0  0  0
 48 56  1  0  0  0
 48 65  1  0  0  0
 48120  1  0  0  0
 49 50  1  0  0  0
 49 53  1  0  0  0
 49 64  1  0  0  0
 49121  1  0  0  0
 50 51  1  0  0  0
 50122  1  0  0  0
 50123  1  0  0  0
 51 52  1  0  0  0
 51124  1  0  0  0
 51125  1  0  0  0
 52126  1  0  0  0
 52127  1  0  0  0
 53 54  1  0  0  0
 54 55  2  0  0  0
 54128  1  0  0  0
 55 57  1  0  0  0
 55129  1  0  0  0
 56 69  2  0  0  0
 57 58  2  0  0  0
 57130  1  0  0  0
 58131  1  0  0  0
 59 60  1  0  0  0
 59 61  1  0  0  0
 59 62  1  0  0  0
 60132  1  0  0  0
 60133  1  0  0  0
 60134  1  0  0  0
 61135  1  0  0  0
 61136  1  0  0  0
 61137  1  0  0  0
 62138  1  0  0  0
 62139  1  0  0  0
 62140  1  0  0  0
 63 65  1  0  0  0
 63141  1  0  0  0
 63142  1  0  0  0
 63143  1  0  0  0
 64144  1  0  0  0
 65145  1  0  0  0
 68 79  1  0  0  0
 71 72  2  0  0  0
 71 74  1  0  0  0
 71146  1  0  0  0
 72 75  1  0  0  0
 72147  1  0  0  0
 73 74  2  0  0  0
 73 82  1  0  0  0
 73148  1  0  0  0
 74 78  1  0  0  0
 75 81  2  0  0  0
 75 82  1  0  0  0
 76 80  1  0  0  0
 76 83  1  0  0  0
 76 85  2  0  0  0
 77 84  1  0  0  0
 77149  1  0  0  0
 77150  1  0  0  0
 77151  1  0  0  0
 78 84  1  0  0  0
 78152  1  0  0  0
 78153  1  0  0  0
 79 80  1  0  0  0
 79154  1  0  0  0
 79155  1  0  0  0
 80 86  1  0  0  0
 80156  1  0  0  0
 81157  1  0  0  0
 82 83  1  0  0  0
 83158  1  0  0  0
M  ISO  4   1 100  68 101  79 101  84 100
M  END
> <chiral flag>
0

> <version>
0

> <s_m_source_file>
/data/baiqing/PycharmProjects/Reinvent-master-3.2/result/LINK_invent/BTK/process_docking_weight1_custom_product_contain_oxygen_bond_distance_aromatic_linkinvent_7_9_3/rearranged_h_0184.sdf

> <i_m_source_file_index>
40

> <r_mmod_Potential_Energy-OPLS-2005>
58.5014572143555

> <r_mmod_Stretch_Energy-OPLS-2005>
67.4937896728516

> <r_mmod_Bend_Energy-OPLS-2005>
138.47883605957

> <r_mmod_Torsional_Energy-OPLS-2005>
292.981750488281

> <r_mmod_Improper_Torsional_Energy-OPLS-2005>
4.87555074691772

> <r_mmod_Van_der_Waal_Energy-OPLS-2005>
152.780456542969

> <r_mmod_Electrostatic_Energy-OPLS-2005>
-365.939483642578

> <r_mmod_Solvation_Energy-OPLS-2005>
-260.343048095703

> <b_mmod_Minimization_Converged-OPLS-2005>
0

> <r_mmod_RMS_Derivative-OPLS-2005>
1.04074954986572

$$$$
40
                    3D
 Structure written by MMmdl.
153161  0  0  1  0            999 V2000
  -30.6844  -14.5390   20.5199 C   0  0  0  0  0  0
  -30.4177  -12.3296   19.4455 C   0  0  0  0  0  0
  -29.5046  -12.5088   18.2160 C   0  0  0  0  0  0
  -28.0239  -12.3672   18.6198 C   0  0  0  0  0  0
  -27.6558  -13.2198   19.8649 C   0  0  2  0  0  0
  -28.6969  -13.0456   20.9974 C   0  0  0  0  0  0
  -25.2547  -13.8188   20.5694 C   0  0  0  0  0  0
  -24.1817  -13.0442   20.9179 C   0  0  0  0  0  0
  -24.6384  -11.6913   20.8714 C   0  0  0  0  0  0
  -23.9043  -10.4295   21.0405 C   0  0  0  0  0  0
  -24.3602   -9.4219   21.9194 C   0  0  0  0  0  0
  -23.6284   -8.2246   22.0764 C   0  0  0  0  0  0
  -22.4258   -8.0276   21.3556 C   0  0  0  0  0  0
  -21.9889   -9.0253   20.4657 C   0  0  0  0  0  0
  -22.7216  -10.2135   20.3055 C   0  0  0  0  0  0
  -21.6849   -6.0727   22.5294 C   0  0  0  0  0  0
  -21.4012   -6.5624   23.8227 C   0  0  0  0  0  0
  -21.3666   -5.6776   24.9197 C   0  0  0  0  0  0
  -21.6056   -4.3036   24.7230 C   0  0  0  0  0  0
  -21.8821   -3.8124   23.4342 C   0  0  0  0  0  0
  -21.9195   -4.6959   22.3396 C   0  0  0  0  0  0
  -22.7832  -13.5252   21.1833 C   0  0  0  0  0  0
  -22.1663   -4.2152   21.0976 F   0  0  0  0  0  0
  -21.5635   -3.4510   25.7727 F   0  0  0  0  0  0
  -30.0249  -13.3448   20.4406 N   0  0  0  0  0  0
  -26.2989  -12.9385   20.3295 N   0  0  0  0  0  0
  -25.9311  -11.6531   20.5663 N   0  0  0  0  0  0
  -22.0437  -12.8290   22.0398 N   0  0  0  0  0  0
  -25.4170  -15.1934   20.4169 N   0  0  0  0  0  0
  -31.8449  -14.6576   20.1110 O   0  0  0  0  0  0
  -21.6624   -6.8874   21.4256 O   0  0  0  0  0  0
  -22.3537  -14.5575   20.6701 O   0  0  0  0  0  0
  -24.6174  -31.8683   23.2065 C   0  0  0  0  0  0
  -25.9045  -32.4843   23.8376 C   0  0  1  0  0  0
  -27.2326  -27.4039   20.1163 C   0  0  0  0  0  0
  -25.5891  -33.8637   24.2304 N   0  0  0  0  0  0
  -23.4089  -30.4902   21.5491 C   0  0  2  0  0  0
  -24.8574  -28.9522   20.1139 C   0  0  0  0  0  0
  -22.7425  -29.4649   22.4966 C   0  0  0  0  0  0
  -18.0289  -28.1367   22.8505 C   0  0  0  0  0  0
  -24.1486  -36.7320   23.2642 C   0  0  0  0  0  0
  -25.9415  -30.8252   21.3638 C   0  0  0  0  0  0
  -26.0194  -29.4561   20.7137 C   0  0  0  0  0  0
  -27.2132  -28.6919   20.7070 C   0  0  0  0  0  0
  -26.0577  -26.9235   19.5025 C   0  0  0  0  0  0
  -24.8743  -27.6861   19.4999 C   0  0  0  0  0  0
  -23.6215  -29.8248   20.1636 C   0  0  0  0  0  0
  -25.4111  -36.3126   24.0340 C   0  0  1  0  0  0
  -20.5879  -28.3649   23.1324 C   0  0  2  0  0  0
  -20.6777  -26.9384   22.5439 C   0  0  0  0  0  0
  -19.5760  -26.6375   21.5231 C   0  0  0  0  0  0
  -18.1931  -26.7922   22.1629 C   0  0  0  0  0  0
  -19.1539  -28.8823   23.2920 C   0  0  0  0  0  0
  -18.9462  -30.1429   23.8926 C   0  0  0  0  0  0
  -17.6466  -30.6570   24.0571 C   0  0  0  0  0  0
  -25.9045  -34.9496   23.5129 C   0  0  0  0  0  0
  -16.5357  -29.9085   23.6320 C   0  0  0  0  0  0
  -16.7274  -28.6500   23.0345 C   0  0  0  0  0  0
  -26.4436  -31.6630   25.0718 C   0  0  0  0  0  0
  -25.3679  -31.3793   26.1454 C   0  0  0  0  0  0
  -27.0248  -30.3067   24.6101 C   0  0  0  0  0  0
  -27.6010  -32.4339   25.7481 C   0  0  0  0  0  0
  -27.5596  -37.1810   24.8451 C   0  0  0  0  0  0
  -21.4149  -29.3012   22.3702 N   0  0  0  0  0  0
  -26.4293  -37.3818   23.9421 N   0  0  0  0  0  0
  -24.6750  -31.0754   22.0983 N   0  0  0  0  0  0
  -23.4190  -28.8188   23.3011 O   0  0  0  0  0  0
  -28.3640  -26.6075   20.1277 O   0  0  0  0  0  0
  -26.5607  -34.8950   22.4690 O   0  0  0  0  0  0
  -23.5351  -32.1428   23.7449 O   0  0  0  0  0  0
  -31.0097  -17.4586   19.6139 C   0  0  0  0  0  0
  -30.1863  -17.0109   20.6210 C   0  0  0  0  0  0
  -29.8805  -19.3096   20.8349 C   0  0  0  0  0  0
  -29.4101  -20.6319   21.3946 C   0  0  0  0  0  0
  -29.0197  -24.1724   20.3411 C   0  0  0  0  0  0
  -30.7166  -23.5146   22.0975 C   0  0  0  0  0  0
  -28.2163  -25.3845   20.8997 C   0  0  0  0  0  0
  -29.4365  -23.0539   21.3652 C   0  0  2  0  0  0
  -29.5344  -18.0752   21.2881 N   0  0  0  0  0  0
  -29.7061  -21.7311   20.7507 N   0  0  0  0  0  0
  -28.7492  -20.5103   22.6011 N   0  0  0  0  0  0
  -29.9574  -15.6147   20.9199 N   0  0  0  0  0  0
  -29.3166  -24.1283   19.1417 O   0  0  0  0  0  0
  -31.0314  -19.2017   19.4980 S   0  0  0  0  0  0
  -31.4673  -12.4090   19.1562 H   0  0  0  0  0  0
  -30.2997  -11.3272   19.8579 H   0  0  0  0  0  0
  -29.7615  -11.7814   17.4455 H   0  0  0  0  0  0
  -29.6727  -13.4921   17.7743 H   0  0  0  0  0  0
  -27.8371  -11.3100   18.8216 H   0  0  0  0  0  0
  -27.3815  -12.6345   17.7799 H   0  0  0  0  0  0
  -27.6856  -14.2615   19.5460 H   0  0  0  0  0  0
  -28.6805  -12.0232   21.3804 H   0  0  0  0  0  0
  -28.4570  -13.6806   21.8524 H   0  0  0  0  0  0
  -25.2764   -9.5726   22.4745 H   0  0  0  0  0  0
  -24.0024   -7.4637   22.7471 H   0  0  0  0  0  0
  -21.0811   -8.8759   19.8945 H   0  0  0  0  0  0
  -22.3685  -10.9659   19.6124 H   0  0  0  0  0  0
  -21.1997   -7.6133   23.9742 H   0  0  0  0  0  0
  -21.1493   -6.0490   25.9113 H   0  0  0  0  0  0
  -22.0592   -2.7585   23.2821 H   0  0  0  0  0  0
  -22.3992  -11.9955   22.4824 H   0  0  0  0  0  0
  -21.1060  -13.1358   22.2515 H   0  0  0  0  0  0
  -24.6407  -15.8325   20.5516 H   0  0  0  0  0  0
  -26.2639  -15.6570   20.1113 H   0  0  0  0  0  0
  -26.7124  -32.5540   23.1145 H   0  0  0  0  0  0
  -25.0033  -33.9810   25.0441 H   0  0  0  0  0  0
  -22.6991  -31.3084   21.4112 H   0  0  0  0  0  0
  -23.3772  -35.9630   23.3303 H   0  0  0  0  0  0
  -24.3587  -36.8941   22.2061 H   0  0  0  0  0  0
  -23.7210  -37.6513   23.6655 H   0  0  0  0  0  0
  -26.0582  -31.5886   20.5928 H   0  0  0  0  0  0
  -26.8282  -30.8811   21.9842 H   0  0  0  0  0  0
  -28.1077  -29.0773   21.1762 H   0  0  0  0  0  0
  -26.0568  -25.9503   19.0310 H   0  0  0  0  0  0
  -23.9840  -27.2943   19.0273 H   0  0  0  0  0  0
  -23.7368  -30.6049   19.4096 H   0  0  0  0  0  0
  -22.7430  -29.2517   19.8623 H   0  0  0  0  0  0
  -25.1290  -36.1995   25.0834 H   0  0  0  0  0  0
  -21.0010  -28.3235   24.1428 H   0  0  0  0  0  0
  -20.5703  -26.2249   23.3627 H   0  0  0  0  0  0
  -21.6648  -26.7438   22.1218 H   0  0  0  0  0  0
  -19.6928  -25.6296   21.1246 H   0  0  0  0  0  0
  -19.6717  -27.3197   20.6775 H   0  0  0  0  0  0
  -17.4222  -26.6700   21.4008 H   0  0  0  0  0  0
  -18.0307  -26.0048   22.9002 H   0  0  0  0  0  0
  -19.7943  -30.7238   24.2308 H   0  0  0  0  0  0
  -17.5029  -31.6252   24.5178 H   0  0  0  0  0  0
  -15.5363  -30.2999   23.7628 H   0  0  0  0  0  0
  -15.8680  -28.0839   22.7030 H   0  0  0  0  0  0
  -24.5800  -30.7203   25.7789 H   0  0  0  0  0  0
  -24.8915  -32.2985   26.4883 H   0  0  0  0  0  0
  -25.7980  -30.8951   27.0231 H   0  0  0  0  0  0
  -26.2792  -29.6869   24.1109 H   0  0  0  0  0  0
  -27.3965  -29.7264   25.4556 H   0  0  0  0  0  0
  -27.8649  -30.4380   23.9278 H   0  0  0  0  0  0
  -27.2625  -33.3635   26.2070 H   0  0  0  0  0  0
  -28.3807  -32.6920   25.0305 H   0  0  0  0  0  0
  -28.0684  -31.8459   26.5389 H   0  0  0  0  0  0
  -28.2596  -38.0127   24.7560 H   0  0  0  0  0  0
  -28.1109  -36.2671   24.6191 H   0  0  0  0  0  0
  -27.2335  -37.1370   25.8856 H   0  0  0  0  0  0
  -20.9296  -29.8702   21.6908 H   0  0  0  0  0  0
  -26.0193  -38.2901   24.1429 H   0  0  0  0  0  0
  -31.6125  -16.8800   18.9257 H   0  0  0  0  0  0
  -30.6320  -24.5380   22.4695 H   0  0  0  0  0  0
  -31.5856  -23.4880   21.4362 H   0  0  0  0  0  0
  -30.9307  -22.8826   22.9594 H   0  0  0  0  0  0
  -28.5462  -25.5838   21.9191 H   0  0  0  0  0  0
  -27.1700  -25.0817   20.9719 H   0  0  0  0  0  0
  -28.6328  -22.9838   22.0993 H   0  0  0  0  0  0
  -28.5696  -19.6043   23.0203 H   0  0  0  0  0  0
  -28.3843  -21.2579   23.1738 H   0  0  0  0  0  0
  -29.0815  -15.4032   21.3708 H   0  0  0  0  0  0
  1 25  1  0  0  0
  1 30  2  0  0  0
  1 82  1  0  0  0
  2  3  1  0  0  0
  2 25  1  0  0  0
  2 85  1  0  0  0
  2 86  1  0  0  0
  3  4  1  0  0  0
  3 87  1  0  0  0
  3 88  1  0  0  0
  4  5  1  0  0  0
  4 89  1  0  0  0
  4 90  1  0  0  0
  5  6  1  0  0  0
  5 26  1  0  0  0
  5 91  1  0  0  0
  6 25  1  0  0  0
  6 92  1  0  0  0
  6 93  1  0  0  0
  7  8  2  0  0  0
  7 26  1  0  0  0
  7 29  1  0  0  0
  8  9  1  0  0  0
  8 22  1  0  0  0
  9 10  1  0  0  0
  9 27  2  0  0  0
 10 11  2  0  0  0
 10 15  1  0  0  0
 11 12  1  0  0  0
 11 94  1  0  0  0
 12 13  2  0  0  0
 12 95  1  0  0  0
 13 14  1  0  0  0
 13 31  1  0  0  0
 14 15  2  0  0  0
 14 96  1  0  0  0
 15 97  1  0  0  0
 16 17  2  0  0  0
 16 21  1  0  0  0
 16 31  1  0  0  0
 17 18  1  0  0  0
 17 98  1  0  0  0
 18 19  2  0  0  0
 18 99  1  0  0  0
 19 20  1  0  0  0
 19 24  1  0  0  0
 20 21  2  0  0  0
 20100  1  0  0  0
 21 23  1  0  0  0
 22 28  1  0  0  0
 22 32  2  0  0  0
 26 27  1  0  0  0
 28101  1  0  0  0
 28102  1  0  0  0
 29103  1  0  0  0
 29104  1  0  0  0
 33 34  1  0  0  0
 33 66  1  0  0  0
 33 70  2  0  0  0
 34 36  1  0  0  0
 34 59  1  0  0  0
 34105  1  0  0  0
 35 44  2  0  0  0
 35 45  1  0  0  0
 35 68  1  0  0  0
 36 56  1  0  0  0
 36106  1  0  0  0
 37 39  1  0  0  0
 37 47  1  0  0  0
 37 66  1  0  0  0
 37107  1  0  0  0
 38 43  2  0  0  0
 38 46  1  0  0  0
 38 47  1  0  0  0
 39 64  1  0  0  0
 39 67  2  0  0  0
 40 52  1  0  0  0
 40 53  2  0  0  0
 40 58  1  0  0  0
 41108  1  0  0  0
 41109  1  0  0  0
 41110  1  0  0  0
 41 48  1  0  0  0
 42 43  1  0  0  0
 42 66  1  0  0  0
 42111  1  0  0  0
 42112  1  0  0  0
 43 44  1  0  0  0
 44113  1  0  0  0
 45 46  2  0  0  0
 45114  1  0  0  0
 46115  1  0  0  0
 47116  1  0  0  0
 47117  1  0  0  0
 48 56  1  0  0  0
 48 65  1  0  0  0
 48118  1  0  0  0
 49 50  1  0  0  0
 49 53  1  0  0  0
 49 64  1  0  0  0
 49119  1  0  0  0
 50 51  1  0  0  0
 50120  1  0  0  0
 50121  1  0  0  0
 51 52  1  0  0  0
 51122  1  0  0  0
 51123  1  0  0  0
 52124  1  0  0  0
 52125  1  0  0  0
 53 54  1  0  0  0
 54 55  2  0  0  0
 54126  1  0  0  0
 55 57  1  0  0  0
 55127  1  0  0  0
 56 69  2  0  0  0
 57 58  2  0  0  0
 57128  1  0  0  0
 58129  1  0  0  0
 59 60  1  0  0  0
 59 61  1  0  0  0
 59 62  1  0  0  0
 60130  1  0  0  0
 60131  1  0  0  0
 60132  1  0  0  0
 61133  1  0  0  0
 61134  1  0  0  0
 61135  1  0  0  0
 62136  1  0  0  0
 62137  1  0  0  0
 62138  1  0  0  0
 63 65  1  0  0  0
 63139  1  0  0  0
 63140  1  0  0  0
 63141  1  0  0  0
 64142  1  0  0  0
 65143  1  0  0  0
 68 77  1  0  0  0
 71 72  2  0  0  0
 71 84  1  0  0  0
 71144  1  0  0  0
 72 79  1  0  0  0
 72 82  1  0  0  0
 73 74  1  0  0  0
 73 79  2  0  0  0
 73 84  1  0  0  0
 74 80  2  0  0  0
 74 81  1  0  0  0
 75 77  1  0  0  0
 75 78  1  0  0  0
 75 83  2  0  0  0
 76145  1  0  0  0
 76146  1  0  0  0
 76147  1  0  0  0
 76 78  1  0  0  0
 77148  1  0  0  0
 77149  1  0  0  0
 78 80  1  0  0  0
 78150  1  0  0  0
 81151  1  0  0  0
 81152  1  0  0  0
 82153  1  0  0  0
M  ISO  4   1 100  68 101  77 101  82 100
M  END
> <chiral flag>
0

> <version>
0

> <s_m_source_file>
/data/baiqing/PycharmProjects/Reinvent-master-3.2/result/LINK_invent/BTK/process_docking_weight1_custom_product_contain_oxygen_bond_distance_aromatic_linkinvent_7_9_3/rearranged_h_0184.sdf

> <i_m_source_file_index>
41

> <r_mmod_Potential_Energy-OPLS-2005>
-55.7123374938965

> <r_mmod_Stretch_Energy-OPLS-2005>
53.3144912719727

> <r_mmod_Bend_Energy-OPLS-2005>
115.179046630859

> <r_mmod_Torsional_Energy-OPLS-2005>
256.323425292969

> <r_mmod_Improper_Torsional_Energy-OPLS-2005>
4.09067440032959

> <r_mmod_Van_der_Waal_Energy-OPLS-2005>
133.451263427734

> <r_mmod_Electrostatic_Energy-OPLS-2005>
-381.595916748047

> <r_mmod_Solvation_Energy-OPLS-2005>
-258.969360351562

> <b_mmod_Minimization_Converged-OPLS-2005>
0

> <r_mmod_RMS_Derivative-OPLS-2005>
3.65017151832581

$$$$
41
                    3D
 Structure written by MMmdl.
156164  0  0  1  0            999 V2000
  -30.6918  -14.4912   20.5430 C   0  0  0  0  0  0
  -30.4188  -12.3118   19.4241 C   0  0  0  0  0  0
  -29.4906  -12.4913   18.2053 C   0  0  0  0  0  0
  -28.0124  -12.3576   18.6208 C   0  0  0  0  0  0
  -27.6565  -13.2087   19.8690 C   0  0  2  0  0  0
  -28.7000  -13.0130   20.9911 C   0  0  0  0  0  0
  -25.2586  -13.8168   20.5706 C   0  0  0  0  0  0
  -24.1834  -13.0444   20.9187 C   0  0  0  0  0  0
  -24.6386  -11.6913   20.8735 C   0  0  0  0  0  0
  -23.9055  -10.4291   21.0404 C   0  0  0  0  0  0
  -24.3609   -9.4207   21.9182 C   0  0  0  0  0  0
  -23.6291   -8.2239   22.0755 C   0  0  0  0  0  0
  -22.4269   -8.0274   21.3547 C   0  0  0  0  0  0
  -21.9900   -9.0246   20.4649 C   0  0  0  0  0  0
  -22.7226  -10.2130   20.3057 C   0  0  0  0  0  0
  -21.6854   -6.0731   22.5283 C   0  0  0  0  0  0
  -21.4009   -6.5637   23.8212 C   0  0  0  0  0  0
  -21.3660   -5.6794   24.9175 C   0  0  0  0  0  0
  -21.6042   -4.3056   24.7230 C   0  0  0  0  0  0
  -21.8820   -3.8148   23.4351 C   0  0  0  0  0  0
  -21.9193   -4.6961   22.3406 C   0  0  0  0  0  0
  -22.7859  -13.5241   21.1842 C   0  0  0  0  0  0
  -22.1664   -4.2145   21.0985 F   0  0  0  0  0  0
  -21.5631   -3.4544   25.7744 F   0  0  0  0  0  0
  -30.0243  -13.3128   20.4274 N   0  0  0  0  0  0
  -26.3008  -12.9340   20.3367 N   0  0  0  0  0  0
  -25.9311  -11.6500   20.5767 N   0  0  0  0  0  0
  -22.0502  -12.8226   22.0395 N   0  0  0  0  0  0
  -25.4319  -15.1885   20.4116 N   0  0  0  0  0  0
  -31.8408  -14.6428   20.1203 O   0  0  0  0  0  0
  -21.6639   -6.8870   21.4239 O   0  0  0  0  0  0
  -22.3544  -14.5550   20.6697 O   0  0  0  0  0  0
  -24.6167  -31.8660   23.2105 C   0  0  0  0  0  0
  -25.9046  -32.4807   23.8414 C   0  0  1  0  0  0
  -27.2116  -27.3931   20.0848 C   0  0  0  0  0  0
  -25.5897  -33.8610   24.2324 N   0  0  0  0  0  0
  -23.4056  -30.4947   21.5518 C   0  0  2  0  0  0
  -24.8452  -28.9606   20.1102 C   0  0  0  0  0  0
  -22.7425  -29.4652   22.4965 C   0  0  0  0  0  0
  -18.0275  -28.1373   22.8505 C   0  0  0  0  0  0
  -24.1481  -36.7309   23.2643 C   0  0  0  0  0  0
  -25.9399  -30.8163   21.3725 C   0  0  0  0  0  0
  -26.0097  -29.4509   20.7108 C   0  0  0  0  0  0
  -27.1943  -28.6744   20.6963 C   0  0  0  0  0  0
  -26.0250  -26.9335   19.4692 C   0  0  0  0  0  0
  -24.8479  -27.7028   19.4876 C   0  0  0  0  0  0
  -23.6141  -29.8368   20.1631 C   0  0  0  0  0  0
  -25.4099  -36.3099   24.0336 C   0  0  1  0  0  0
  -20.5864  -28.3668   23.1303 C   0  0  2  0  0  0
  -20.6765  -26.9400   22.5419 C   0  0  0  0  0  0
  -19.5748  -26.6385   21.5214 C   0  0  0  0  0  0
  -18.1920  -26.7921   22.1620 C   0  0  0  0  0  0
  -19.1528  -28.8839   23.2903 C   0  0  0  0  0  0
  -18.9463  -30.1453   23.8908 C   0  0  0  0  0  0
  -17.6459  -30.6584   24.0578 C   0  0  0  0  0  0
  -25.9042  -34.9468   23.5123 C   0  0  0  0  0  0
  -16.5356  -29.9086   23.6335 C   0  0  0  0  0  0
  -16.7265  -28.6502   23.0347 C   0  0  0  0  0  0
  -26.4478  -31.6599   25.0764 C   0  0  0  0  0  0
  -25.3765  -31.3676   26.1540 C   0  0  0  0  0  0
  -27.0314  -30.3034   24.6164 C   0  0  0  0  0  0
  -27.6059  -32.4344   25.7486 C   0  0  0  0  0  0
  -27.5575  -37.1798   24.8461 C   0  0  0  0  0  0
  -21.4150  -29.3040   22.3710 N   0  0  0  0  0  0
  -26.4274  -37.3792   23.9426 N   0  0  0  0  0  0
  -24.6726  -31.0739   22.1025 N   0  0  0  0  0  0
  -23.4185  -28.8201   23.3025 O   0  0  0  0  0  0
  -28.3732  -26.6355   20.1234 O   0  0  0  0  0  0
  -26.5611  -34.8917   22.4692 O   0  0  0  0  0  0
  -23.5359  -32.1437   23.7488 O   0  0  0  0  0  0
  -28.6015  -18.4917   21.9879 C   0  0  0  0  0  0
  -29.5606  -18.0798   21.0787 C   0  0  0  0  0  0
  -28.6309  -20.3499   20.6391 C   0  0  0  0  0  0
  -27.8521  -24.1824   20.4992 C   0  0  0  0  0  0
  -30.2253  -23.2341   20.9122 C   0  0  0  0  0  0
  -30.5218  -16.9050   21.1508 C   0  0  0  0  0  0
  -28.4198  -25.2940   19.5598 C   0  0  0  0  0  0
  -28.7159  -22.9438   20.9251 C   0  0  2  0  0  0
  -28.1127  -17.7511   23.2118 C   0  0  0  0  0  0
  -28.1487  -19.8121   21.7585 N   0  0  0  0  0  0
  -28.4302  -21.6738   20.2374 N   0  0  0  0  0  0
  -29.9784  -15.5423   21.0033 N   0  0  0  0  0  0
  -26.6881  -24.2738   20.8963 O   0  0  0  0  0  0
  -28.2776  -16.4317   23.1000 F   0  0  0  0  0  0
  -28.7641  -18.1486   24.3045 F   0  0  0  0  0  0
  -26.8120  -17.9621   23.4178 F   0  0  0  0  0  0
  -29.7278  -19.2642   19.7900 S   0  0  0  0  0  0
  -31.4634  -12.4070   19.1222 H   0  0  0  0  0  0
  -30.3202  -11.3070   19.8396 H   0  0  0  0  0  0
  -29.7283  -11.7541   17.4375 H   0  0  0  0  0  0
  -29.6577  -13.4698   17.7522 H   0  0  0  0  0  0
  -27.8209  -11.3037   18.8276 H   0  0  0  0  0  0
  -27.3610  -12.6252   17.7882 H   0  0  0  0  0  0
  -27.6935  -14.2522   19.5574 H   0  0  0  0  0  0
  -28.6818  -11.9839   21.3534 H   0  0  0  0  0  0
  -28.4698  -13.6340   21.8581 H   0  0  0  0  0  0
  -25.2754   -9.5689   22.4755 H   0  0  0  0  0  0
  -24.0009   -7.4630   22.7471 H   0  0  0  0  0  0
  -21.0835   -8.8757   19.8956 H   0  0  0  0  0  0
  -22.3679  -10.9665   19.6169 H   0  0  0  0  0  0
  -21.1995   -7.6145   23.9713 H   0  0  0  0  0  0
  -21.1482   -6.0525   25.9077 H   0  0  0  0  0  0
  -22.0597   -2.7610   23.2857 H   0  0  0  0  0  0
  -22.4124  -11.9884   22.4780 H   0  0  0  0  0  0
  -21.1117  -13.1244   22.2602 H   0  0  0  0  0  0
  -24.6648  -15.8430   20.5173 H   0  0  0  0  0  0
  -26.2765  -15.6215   20.0629 H   0  0  0  0  0  0
  -26.7118  -32.5470   23.1163 H   0  0  0  0  0  0
  -25.0071  -33.9815   25.0484 H   0  0  0  0  0  0
  -22.6970  -31.3142   21.4166 H   0  0  0  0  0  0
  -23.3742  -35.9643   23.3304 H   0  0  0  0  0  0
  -24.3578  -36.8933   22.2063 H   0  0  0  0  0  0
  -23.7243  -37.6515   23.6669 H   0  0  0  0  0  0
  -26.0701  -31.5830   20.6078 H   0  0  0  0  0  0
  -26.8221  -30.8569   22.0008 H   0  0  0  0  0  0
  -28.0952  -29.0466   21.1642 H   0  0  0  0  0  0
  -25.9709  -25.9728   18.9811 H   0  0  0  0  0  0
  -23.9504  -27.3227   19.0205 H   0  0  0  0  0  0
  -23.7340  -30.6210   19.4134 H   0  0  0  0  0  0
  -22.7322  -29.2721   19.8568 H   0  0  0  0  0  0
  -25.1257  -36.1956   25.0825 H   0  0  0  0  0  0
  -20.9987  -28.3236   24.1408 H   0  0  0  0  0  0
  -20.5663  -26.2283   23.3610 H   0  0  0  0  0  0
  -21.6633  -26.7422   22.1210 H   0  0  0  0  0  0
  -19.6920  -25.6302   21.1235 H   0  0  0  0  0  0
  -19.6679  -27.3213   20.6751 H   0  0  0  0  0  0
  -17.4195  -26.6703   21.4006 H   0  0  0  0  0  0
  -18.0303  -26.0027   22.8975 H   0  0  0  0  0  0
  -19.7943  -30.7285   24.2252 H   0  0  0  0  0  0
  -17.5017  -31.6261   24.5197 H   0  0  0  0  0  0
  -15.5367  -30.2999   23.7654 H   0  0  0  0  0  0
  -15.8656  -28.0853   22.7023 H   0  0  0  0  0  0
  -24.5960  -30.6973   25.7903 H   0  0  0  0  0  0
  -24.8934  -32.2812   26.5017 H   0  0  0  0  0  0
  -25.8167  -30.8865   27.0284 H   0  0  0  0  0  0
  -26.2851  -29.6783   24.1257 H   0  0  0  0  0  0
  -27.4110  -29.7282   25.4618 H   0  0  0  0  0  0
  -27.8670  -30.4334   23.9284 H   0  0  0  0  0  0
  -27.2686  -33.3654   26.2045 H   0  0  0  0  0  0
  -28.3844  -32.6901   25.0282 H   0  0  0  0  0  0
  -28.0758  -31.8503   26.5412 H   0  0  0  0  0  0
  -28.2572  -38.0117   24.7537 H   0  0  0  0  0  0
  -28.1095  -36.2652   24.6222 H   0  0  0  0  0  0
  -27.2329  -37.1373   25.8877 H   0  0  0  0  0  0
  -20.9321  -29.8767   21.6927 H   0  0  0  0  0  0
  -26.0155  -38.2857   24.1466 H   0  0  0  0  0  0
  -30.4506  -24.1903   21.3872 H   0  0  0  0  0  0
  -30.6252  -23.2567   19.8972 H   0  0  0  0  0  0
  -30.7743  -22.4670   21.4594 H   0  0  0  0  0  0
  -31.0379  -16.9406   22.1108 H   0  0  0  0  0  0
  -31.3054  -17.0672   20.4084 H   0  0  0  0  0  0
  -27.9076  -25.2579   18.5984 H   0  0  0  0  0  0
  -29.4615  -25.0799   19.3266 H   0  0  0  0  0  0
  -28.4598  -22.7588   21.9689 H   0  0  0  0  0  0
  -28.4887  -21.7619   19.2278 H   0  0  0  0  0  0
  -29.0374  -15.3628   21.3203 H   0  0  0  0  0  0
  1 25  1  0  0  0
  1 30  2  0  0  0
  1 82  1  0  0  0
  2  3  1  0  0  0
  2 25  1  0  0  0
  2 88  1  0  0  0
  2 89  1  0  0  0
  3  4  1  0  0  0
  3 90  1  0  0  0
  3 91  1  0  0  0
  4  5  1  0  0  0
  4 92  1  0  0  0
  4 93  1  0  0  0
  5  6  1  0  0  0
  5 26  1  0  0  0
  5 94  1  0  0  0
  6 25  1  0  0  0
  6 95  1  0  0  0
  6 96  1  0  0  0
  7  8  2  0  0  0
  7 26  1  0  0  0
  7 29  1  0  0  0
  8  9  1  0  0  0
  8 22  1  0  0  0
  9 10  1  0  0  0
  9 27  2  0  0  0
 10 11  2  0  0  0
 10 15  1  0  0  0
 11 12  1  0  0  0
 11 97  1  0  0  0
 12 13  2  0  0  0
 12 98  1  0  0  0
 13 14  1  0  0  0
 13 31  1  0  0  0
 14 15  2  0  0  0
 14 99  1  0  0  0
 15100  1  0  0  0
 16 17  2  0  0  0
 16 21  1  0  0  0
 16 31  1  0  0  0
 17 18  1  0  0  0
 17101  1  0  0  0
 18 19  2  0  0  0
 18102  1  0  0  0
 19 20  1  0  0  0
 19 24  1  0  0  0
 20 21  2  0  0  0
 20103  1  0  0  0
 21 23  1  0  0  0
 22 28  1  0  0  0
 22 32  2  0  0  0
 26 27  1  0  0  0
 28104  1  0  0  0
 28105  1  0  0  0
 29106  1  0  0  0
 29107  1  0  0  0
 33 34  1  0  0  0
 33 66  1  0  0  0
 33 70  2  0  0  0
 34 36  1  0  0  0
 34 59  1  0  0  0
 34108  1  0  0  0
 35 44  2  0  0  0
 35 45  1  0  0  0
 35 68  1  0  0  0
 36 56  1  0  0  0
 36109  1  0  0  0
 37 39  1  0  0  0
 37 47  1  0  0  0
 37 66  1  0  0  0
 37110  1  0  0  0
 38 43  2  0  0  0
 38 46  1  0  0  0
 38 47  1  0  0  0
 39 64  1  0  0  0
 39 67  2  0  0  0
 40 52  1  0  0  0
 40 53  2  0  0  0
 40 58  1  0  0  0
 41111  1  0  0  0
 41112  1  0  0  0
 41113  1  0  0  0
 41 48  1  0  0  0
 42 43  1  0  0  0
 42 66  1  0  0  0
 42114  1  0  0  0
 42115  1  0  0  0
 43 44  1  0  0  0
 44116  1  0  0  0
 45 46  2  0  0  0
 45117  1  0  0  0
 46118  1  0  0  0
 47119  1  0  0  0
 47120  1  0  0  0
 48 56  1  0  0  0
 48 65  1  0  0  0
 48121  1  0  0  0
 49 50  1  0  0  0
 49 53  1  0  0  0
 49 64  1  0  0  0
 49122  1  0  0  0
 50 51  1  0  0  0
 50123  1  0  0  0
 50124  1  0  0  0
 51 52  1  0  0  0
 51125  1  0  0  0
 51126  1  0  0  0
 52127  1  0  0  0
 52128  1  0  0  0
 53 54  1  0  0  0
 54 55  2  0  0  0
 54129  1  0  0  0
 55 57  1  0  0  0
 55130  1  0  0  0
 56 69  2  0  0  0
 57 58  2  0  0  0
 57131  1  0  0  0
 58132  1  0  0  0
 59 60  1  0  0  0
 59 61  1  0  0  0
 59 62  1  0  0  0
 60133  1  0  0  0
 60134  1  0  0  0
 60135  1  0  0  0
 61136  1  0  0  0
 61137  1  0  0  0
 61138  1  0  0  0
 62139  1  0  0  0
 62140  1  0  0  0
 62141  1  0  0  0
 63 65  1  0  0  0
 63142  1  0  0  0
 63143  1  0  0  0
 63144  1  0  0  0
 64145  1  0  0  0
 65146  1  0  0  0
 68 77  1  0  0  0
 71 72  2  0  0  0
 71 79  1  0  0  0
 71 80  1  0  0  0
 72 76  1  0  0  0
 72 87  1  0  0  0
 73 80  2  0  0  0
 73 81  1  0  0  0
 73 87  1  0  0  0
 74 77  1  0  0  0
 74 78  1  0  0  0
 74 83  2  0  0  0
 75147  1  0  0  0
 75148  1  0  0  0
 75149  1  0  0  0
 75 78  1  0  0  0
 76 82  1  0  0  0
 76150  1  0  0  0
 76151  1  0  0  0
 77152  1  0  0  0
 77153  1  0  0  0
 78 81  1  0  0  0
 78154  1  0  0  0
 79 84  1  0  0  0
 79 85  1  0  0  0
 79 86  1  0  0  0
 81155  1  0  0  0
 82156  1  0  0  0
M  ISO  4   1 100  68 101  77 101  82 100
M  END
> <chiral flag>
0

> <version>
0

> <s_m_source_file>
/data/baiqing/PycharmProjects/Reinvent-master-3.2/result/LINK_invent/BTK/process_docking_weight1_custom_product_contain_oxygen_bond_distance_aromatic_linkinvent_7_9_3/rearranged_h_0184.sdf

> <i_m_source_file_index>
42

> <r_mmod_Potential_Energy-OPLS-2005>
-47.446907043457

> <r_mmod_Stretch_Energy-OPLS-2005>
43.5747413635254

> <r_mmod_Bend_Energy-OPLS-2005>
114.199111938477

> <r_mmod_Torsional_Energy-OPLS-2005>
221.411544799805

> <r_mmod_Improper_Torsional_Energy-OPLS-2005>
6.70398092269897

> <r_mmod_Van_der_Waal_Energy-OPLS-2005>
124.982322692871

> <r_mmod_Electrostatic_Energy-OPLS-2005>
-341.199249267578

> <r_mmod_Solvation_Energy-OPLS-2005>
-236.50715637207

> <b_mmod_Minimization_Converged-OPLS-2005>
0

> <r_mmod_RMS_Derivative-OPLS-2005>
2.27981758117676

$$$$
42
                    3D
 Structure written by MMmdl.
166174  0  0  1  0            999 V2000
  -30.6761  -14.7371   20.5167 C   0  0  0  0  0  0
  -30.4206  -12.4572   19.5107 C   0  0  0  0  0  0
  -29.5185  -12.5286   18.2585 C   0  0  0  0  0  0
  -28.0463  -12.3355   18.6614 C   0  0  0  0  0  0
  -27.6417  -13.2415   19.8504 C   0  0  2  0  0  0
  -28.6710  -13.1843   20.9981 C   0  0  0  0  0  0
  -25.2498  -13.8223   20.5720 C   0  0  0  0  0  0
  -24.1806  -13.0427   20.9233 C   0  0  0  0  0  0
  -24.6422  -11.6918   20.8752 C   0  0  0  0  0  0
  -23.9085  -10.4291   21.0394 C   0  0  0  0  0  0
  -24.3600   -9.4203   21.9191 C   0  0  0  0  0  0
  -23.6268   -8.2248   22.0760 C   0  0  0  0  0  0
  -22.4269   -8.0278   21.3525 C   0  0  0  0  0  0
  -21.9897   -9.0265   20.4657 C   0  0  0  0  0  0
  -22.7238  -10.2137   20.3059 C   0  0  0  0  0  0
  -21.6863   -6.0714   22.5263 C   0  0  0  0  0  0
  -21.4019   -6.5620   23.8197 C   0  0  0  0  0  0
  -21.3666   -5.6782   24.9163 C   0  0  0  0  0  0
  -21.6055   -4.3041   24.7225 C   0  0  0  0  0  0
  -21.8826   -3.8123   23.4349 C   0  0  0  0  0  0
  -21.9185   -4.6934   22.3397 C   0  0  0  0  0  0
  -22.7797  -13.5151   21.1912 C   0  0  0  0  0  0
  -22.1636   -4.2107   21.0981 F   0  0  0  0  0  0
  -21.5669   -3.4539   25.7749 F   0  0  0  0  0  0
  -29.9958  -13.5270   20.4554 N   0  0  0  0  0  0
  -26.2920  -12.9456   20.3227 N   0  0  0  0  0  0
  -25.9347  -11.6592   20.5746 N   0  0  0  0  0  0
  -22.0448  -12.8127   22.0478 N   0  0  0  0  0  0
  -25.4201  -15.1952   20.4147 N   0  0  0  0  0  0
  -31.7829  -14.8036   19.9759 O   0  0  0  0  0  0
  -21.6657   -6.8856   21.4216 O   0  0  0  0  0  0
  -22.3492  -14.5494   20.6809 O   0  0  0  0  0  0
  -24.6306  -31.8543   23.1958 C   0  0  0  0  0  0
  -25.9121  -32.4755   23.8309 C   0  0  1  0  0  0
  -27.2301  -27.2678   20.1115 C   0  0  0  0  0  0
  -25.5908  -33.8564   24.2242 N   0  0  0  0  0  0
  -23.4266  -30.4732   21.5432 C   0  0  2  0  0  0
  -24.8700  -28.9152   20.1116 C   0  0  0  0  0  0
  -22.7483  -29.4593   22.4966 C   0  0  0  0  0  0
  -18.0275  -28.1402   22.8509 C   0  0  0  0  0  0
  -24.1485  -36.7279   23.2645 C   0  0  0  0  0  0
  -25.9703  -30.7676   21.3719 C   0  0  0  0  0  0
  -26.0418  -29.3891   20.7147 C   0  0  0  0  0  0
  -27.2183  -28.5773   20.7026 C   0  0  0  0  0  0
  -26.0218  -26.8389   19.5215 C   0  0  0  0  0  0
  -24.8674  -27.6478   19.5059 C   0  0  0  0  0  0
  -23.6410  -29.8017   20.1611 C   0  0  0  0  0  0
  -25.4119  -36.3088   24.0324 C   0  0  1  0  0  0
  -20.5870  -28.3703   23.1296 C   0  0  2  0  0  0
  -20.6761  -26.9424   22.5423 C   0  0  0  0  0  0
  -19.5736  -26.6400   21.5230 C   0  0  0  0  0  0
  -18.1914  -26.7942   22.1639 C   0  0  0  0  0  0
  -19.1524  -28.8876   23.2893 C   0  0  0  0  0  0
  -18.9443  -30.1475   23.8923 C   0  0  0  0  0  0
  -17.6440  -30.6601   24.0586 C   0  0  0  0  0  0
  -25.9064  -34.9452   23.5097 C   0  0  0  0  0  0
  -16.5342  -29.9100   23.6345 C   0  0  0  0  0  0
  -16.7257  -28.6507   23.0389 C   0  0  0  0  0  0
  -26.4491  -31.6593   25.0706 C   0  0  0  0  0  0
  -25.3715  -31.3741   26.1433 C   0  0  0  0  0  0
  -27.0336  -30.3016   24.6188 C   0  0  0  0  0  0
  -27.6054  -32.4336   25.7485 C   0  0  0  0  0  0
  -27.5582  -37.1798   24.8466 C   0  0  0  0  0  0
  -21.4193  -29.3036   22.3683 N   0  0  0  0  0  0
  -26.4298  -37.3783   23.9409 N   0  0  0  0  0  0
  -24.6950  -31.0494   22.0943 N   0  0  0  0  0  0
  -23.4169  -28.8179   23.3105 O   0  0  0  0  0  0
  -28.3779  -26.4428   20.1641 O   0  0  0  0  0  0
  -26.5641  -34.8920   22.4666 O   0  0  0  0  0  0
  -23.5440  -32.1371   23.7225 O   0  0  0  0  0  0
  -28.2074  -20.5196   21.0121 C   0  0  0  0  0  0
  -28.4671  -19.0811   21.1185 C   0  0  0  0  0  0
  -29.6155  -18.6441   20.4744 C   0  0  0  0  0  0
  -29.0935  -21.2659   20.2536 C   0  0  0  0  0  0
  -28.3142  -23.7302   20.1387 C   0  0  0  0  0  0
  -30.1089  -15.9276   22.4351 C   0  0  0  0  0  0
  -27.5360  -18.1655   21.8582 C   0  0  0  0  0  0
  -29.6058  -25.5611   17.0625 C   0  0  0  0  0  0
  -27.5373  -24.1251   17.2476 C   0  0  0  0  0  0
  -30.6640  -17.3622   24.2555 C   0  0  0  0  0  0
  -30.3109  -17.2195   20.2539 C   0  0  0  0  0  0
  -28.6269  -25.1518   19.4266 C   0  0  2  0  0  0
  -28.3368  -25.2789   17.8858 C   0  0  0  0  0  0
  -29.1254  -22.6287   19.8872 N   0  0  0  0  0  0
  -30.1355  -15.9069   21.0702 N   0  0  0  0  0  0
  -27.3500  -23.6505   20.9059 O   0  0  0  0  0  0
  -29.9779  -14.9572   23.1935 O   0  0  0  0  0  0
  -30.3838  -17.1637   22.8774 O   0  0  0  0  0  0
  -30.3281  -20.0962   19.7090 S   0  0  0  0  0  0
  -31.4691  -12.5386   19.2175 H   0  0  0  0  0  0
  -30.3313  -11.4794   19.9912 H   0  0  0  0  0  0
  -29.8126  -11.7653   17.5375 H   0  0  0  0  0  0
  -29.6446  -13.4901   17.7559 H   0  0  0  0  0  0
  -27.9220  -11.2907   18.9474 H   0  0  0  0  0  0
  -27.3909  -12.5062   17.8055 H   0  0  0  0  0  0
  -27.6384  -14.2643   19.4711 H   0  0  0  0  0  0
  -28.6989  -12.1986   21.4621 H   0  0  0  0  0  0
  -28.3459  -13.8681   21.7763 H   0  0  0  0  0  0
  -25.2746   -9.5686   22.4761 H   0  0  0  0  0  0
  -23.9959   -7.4629   22.7470 H   0  0  0  0  0  0
  -21.0822   -8.8788   19.8969 H   0  0  0  0  0  0
  -22.3678  -10.9659   19.6157 H   0  0  0  0  0  0
  -21.2011   -7.6125   23.9701 H   0  0  0  0  0  0
  -21.1477   -6.0499   25.9061 H   0  0  0  0  0  0
  -22.0595   -2.7582   23.2857 H   0  0  0  0  0  0
  -22.3988  -11.9725   22.4851 H   0  0  0  0  0  0
  -21.1100  -13.1230   22.2753 H   0  0  0  0  0  0
  -24.6566  -15.8524   20.5297 H   0  0  0  0  0  0
  -26.2603  -15.6280   20.0524 H   0  0  0  0  0  0
  -26.7180  -32.5404   23.1042 H   0  0  0  0  0  0
  -25.0033  -33.9715   25.0376 H   0  0  0  0  0  0
  -22.7238  -31.2945   21.3945 H   0  0  0  0  0  0
  -23.3757  -35.9599   23.3308 H   0  0  0  0  0  0
  -24.3590  -36.8905   22.2062 H   0  0  0  0  0  0
  -23.7206  -37.6472   23.6669 H   0  0  0  0  0  0
  -26.1060  -31.5272   20.6009 H   0  0  0  0  0  0
  -26.8476  -30.8183   22.0049 H   0  0  0  0  0  0
  -28.1204  -28.9410   21.1748 H   0  0  0  0  0  0
  -25.9444  -25.8540   19.0854 H   0  0  0  0  0  0
  -23.9651  -27.2720   19.0442 H   0  0  0  0  0  0
  -23.7526  -30.5754   19.3991 H   0  0  0  0  0  0
  -22.7578  -29.2306   19.8687 H   0  0  0  0  0  0
  -25.1296  -36.1958   25.0816 H   0  0  0  0  0  0
  -20.9958  -28.3287   24.1422 H   0  0  0  0  0  0
  -20.5709  -26.2307   23.3626 H   0  0  0  0  0  0
  -21.6629  -26.7484   22.1209 H   0  0  0  0  0  0
  -19.6912  -25.6314   21.1262 H   0  0  0  0  0  0
  -19.6690  -27.3212   20.6756 H   0  0  0  0  0  0
  -17.4199  -26.6708   21.4036 H   0  0  0  0  0  0
  -18.0309  -26.0087   22.9028 H   0  0  0  0  0  0
  -19.7929  -30.7282   24.2317 H   0  0  0  0  0  0
  -17.5005  -31.6302   24.5152 H   0  0  0  0  0  0
  -15.5349  -30.3019   23.7659 H   0  0  0  0  0  0
  -15.8652  -28.0830   22.7125 H   0  0  0  0  0  0
  -24.5877  -30.7104   25.7766 H   0  0  0  0  0  0
  -24.8904  -32.2910   26.4860 H   0  0  0  0  0  0
  -25.8013  -30.8923   27.0218 H   0  0  0  0  0  0
  -26.2911  -29.6784   24.1185 H   0  0  0  0  0  0
  -27.3997  -29.7278   25.4708 H   0  0  0  0  0  0
  -27.8804  -30.4307   23.9438 H   0  0  0  0  0  0
  -27.2653  -33.3623   26.2075 H   0  0  0  0  0  0
  -28.3846  -32.6910   25.0305 H   0  0  0  0  0  0
  -28.0743  -31.8460   26.5392 H   0  0  0  0  0  0
  -28.2596  -38.0096   24.7521 H   0  0  0  0  0  0
  -28.1074  -36.2627   24.6280 H   0  0  0  0  0  0
  -27.2310  -37.1447   25.8873 H   0  0  0  0  0  0
  -20.9383  -29.8718   21.6864 H   0  0  0  0  0  0
  -26.0180  -38.2864   24.1406 H   0  0  0  0  0  0
  -27.3420  -20.9550   21.4868 H   0  0  0  0  0  0
  -27.7996  -18.0977   22.9123 H   0  0  0  0  0  0
  -27.5572  -17.1555   21.4516 H   0  0  0  0  0  0
  -26.5017  -18.5067   21.8013 H   0  0  0  0  0  0
  -29.3516  -25.8150   16.0323 H   0  0  0  0  0  0
  -30.2715  -24.7008   17.0364 H   0  0  0  0  0  0
  -30.1613  -26.4094   17.4650 H   0  0  0  0  0  0
  -28.0913  -23.1877   17.2741 H   0  0  0  0  0  0
  -27.3135  -24.3409   16.2003 H   0  0  0  0  0  0
  -26.5844  -23.9644   17.7529 H   0  0  0  0  0  0
  -29.7626  -17.2560   24.8597 H   0  0  0  0  0  0
  -31.0682  -18.3618   24.4065 H   0  0  0  0  0  0
  -31.4081  -16.6484   24.6147 H   0  0  0  0  0  0
  -31.3859  -17.4114   20.2577 H   0  0  0  0  0  0
  -30.1014  -16.9478   19.2186 H   0  0  0  0  0  0
  -29.7159  -25.1306   19.4910 H   0  0  0  0  0  0
  -27.7315  -26.1688   17.7282 H   0  0  0  0  0  0
  -29.8819  -22.8558   19.2547 H   0  0  0  0  0  0
  1 25  1  0  0  0
  1 30  2  0  0  0
  1 85  1  0  0  0
  2  3  1  0  0  0
  2 25  1  0  0  0
  2 90  1  0  0  0
  2 91  1  0  0  0
  3  4  1  0  0  0
  3 92  1  0  0  0
  3 93  1  0  0  0
  4  5  1  0  0  0
  4 94  1  0  0  0
  4 95  1  0  0  0
  5  6  1  0  0  0
  5 26  1  0  0  0
  5 96  1  0  0  0
  6 25  1  0  0  0
  6 97  1  0  0  0
  6 98  1  0  0  0
  7  8  2  0  0  0
  7 26  1  0  0  0
  7 29  1  0  0  0
  8  9  1  0  0  0
  8 22  1  0  0  0
  9 10  1  0  0  0
  9 27  2  0  0  0
 10 11  2  0  0  0
 10 15  1  0  0  0
 11 12  1  0  0  0
 11 99  1  0  0  0
 12 13  2  0  0  0
 12100  1  0  0  0
 13 14  1  0  0  0
 13 31  1  0  0  0
 14 15  2  0  0  0
 14101  1  0  0  0
 15102  1  0  0  0
 16 17  2  0  0  0
 16 21  1  0  0  0
 16 31  1  0  0  0
 17 18  1  0  0  0
 17103  1  0  0  0
 18 19  2  0  0  0
 18104  1  0  0  0
 19 20  1  0  0  0
 19 24  1  0  0  0
 20 21  2  0  0  0
 20105  1  0  0  0
 21 23  1  0  0  0
 22 28  1  0  0  0
 22 32  2  0  0  0
 26 27  1  0  0  0
 28106  1  0  0  0
 28107  1  0  0  0
 29108  1  0  0  0
 29109  1  0  0  0
 33 34  1  0  0  0
 33 66  1  0  0  0
 33 70  2  0  0  0
 34 36  1  0  0  0
 34 59  1  0  0  0
 34110  1  0  0  0
 35 44  2  0  0  0
 35 45  1  0  0  0
 35 68  1  0  0  0
 36 56  1  0  0  0
 36111  1  0  0  0
 37 39  1  0  0  0
 37 47  1  0  0  0
 37 66  1  0  0  0
 37112  1  0  0  0
 38 43  2  0  0  0
 38 46  1  0  0  0
 38 47  1  0  0  0
 39 64  1  0  0  0
 39 67  2  0  0  0
 40 52  1  0  0  0
 40 53  2  0  0  0
 40 58  1  0  0  0
 41113  1  0  0  0
 41114  1  0  0  0
 41115  1  0  0  0
 41 48  1  0  0  0
 42 43  1  0  0  0
 42 66  1  0  0  0
 42116  1  0  0  0
 42117  1  0  0  0
 43 44  1  0  0  0
 44118  1  0  0  0
 45 46  2  0  0  0
 45119  1  0  0  0
 46120  1  0  0  0
 47121  1  0  0  0
 47122  1  0  0  0
 48 56  1  0  0  0
 48 65  1  0  0  0
 48123  1  0  0  0
 49 50  1  0  0  0
 49 53  1  0  0  0
 49 64  1  0  0  0
 49124  1  0  0  0
 50 51  1  0  0  0
 50125  1  0  0  0
 50126  1  0  0  0
 51 52  1  0  0  0
 51127  1  0  0  0
 51128  1  0  0  0
 52129  1  0  0  0
 52130  1  0  0  0
 53 54  1  0  0  0
 54 55  2  0  0  0
 54131  1  0  0  0
 55 57  1  0  0  0
 55132  1  0  0  0
 56 69  2  0  0  0
 57 58  2  0  0  0
 57133  1  0  0  0
 58134  1  0  0  0
 59 60  1  0  0  0
 59 61  1  0  0  0
 59 62  1  0  0  0
 60135  1  0  0  0
 60136  1  0  0  0
 60137  1  0  0  0
 61138  1  0  0  0
 61139  1  0  0  0
 61140  1  0  0  0
 62141  1  0  0  0
 62142  1  0  0  0
 62143  1  0  0  0
 63 65  1  0  0  0
 63144  1  0  0  0
 63145  1  0  0  0
 63146  1  0  0  0
 64147  1  0  0  0
 65148  1  0  0  0
 68 82  1  0  0  0
 71 72  1  0  0  0
 71 74  2  0  0  0
 71149  1  0  0  0
 72 73  2  0  0  0
 72 77  1  0  0  0
 73 81  1  0  0  0
 73 89  1  0  0  0
 74 84  1  0  0  0
 74 89  1  0  0  0
 75 82  1  0  0  0
 75 84  1  0  0  0
 75 86  2  0  0  0
 76 85  1  0  0  0
 76 87  2  0  0  0
 76 88  1  0  0  0
 77150  1  0  0  0
 77151  1  0  0  0
 77152  1  0  0  0
 78153  1  0  0  0
 78154  1  0  0  0
 78155  1  0  0  0
 78 83  1  0  0  0
 79 83  1  0  0  0
 79156  1  0  0  0
 79157  1  0  0  0
 79158  1  0  0  0
 80 88  1  0  0  0
 80159  1  0  0  0
 80160  1  0  0  0
 80161  1  0  0  0
 81 85  1  0  0  0
 81162  1  0  0  0
 81163  1  0  0  0
 82 83  1  0  0  0
 82164  1  0  0  0
 83165  1  0  0  0
 84166  1  0  0  0
M  ISO  4   1 100  68 101  82 101  85 100
M  END
> <chiral flag>
0

> <version>
0

> <s_m_source_file>
/data/baiqing/PycharmProjects/Reinvent-master-3.2/result/LINK_invent/BTK/process_docking_weight1_custom_product_contain_oxygen_bond_distance_aromatic_linkinvent_7_9_3/rearranged_h_0184.sdf

> <i_m_source_file_index>
43

> <r_mmod_Potential_Energy-OPLS-2005>
319.228973388672

> <r_mmod_Stretch_Energy-OPLS-2005>
140.365386962891

> <r_mmod_Bend_Energy-OPLS-2005>
261.745971679688

> <r_mmod_Torsional_Energy-OPLS-2005>
264.14794921875

> <r_mmod_Improper_Torsional_Energy-OPLS-2005>
5.81113433837891

> <r_mmod_Van_der_Waal_Energy-OPLS-2005>
133.892349243164

> <r_mmod_Electrostatic_Energy-OPLS-2005>
-354.384674072266

> <r_mmod_Solvation_Energy-OPLS-2005>
-208.57243347168

> <b_mmod_Minimization_Converged-OPLS-2005>
0

> <r_mmod_RMS_Derivative-OPLS-2005>
3.92247033119202

$$$$
43
                    3D
 Structure written by MMmdl.
152160  0  0  1  0            999 V2000
  -30.5784  -14.8474   20.4379 C   0  0  0  0  0  0
  -30.4394  -12.5171   19.4936 C   0  0  0  0  0  0
  -29.5184  -12.5239   18.2520 C   0  0  0  0  0  0
  -28.0480  -12.3270   18.6667 C   0  0  0  0  0  0
  -27.6388  -13.2422   19.8517 C   0  0  2  0  0  0
  -28.6838  -13.2188   20.9891 C   0  0  0  0  0  0
  -25.2470  -13.8191   20.5705 C   0  0  0  0  0  0
  -24.1772  -13.0415   20.9173 C   0  0  0  0  0  0
  -24.6397  -11.6905   20.8729 C   0  0  0  0  0  0
  -23.9080  -10.4281   21.0393 C   0  0  0  0  0  0
  -24.3627   -9.4198   21.9175 C   0  0  0  0  0  0
  -23.6294   -8.2238   22.0753 C   0  0  0  0  0  0
  -22.4277   -8.0276   21.3543 C   0  0  0  0  0  0
  -21.9913   -9.0249   20.4645 C   0  0  0  0  0  0
  -22.7247  -10.2122   20.3048 C   0  0  0  0  0  0
  -21.6851   -6.0732   22.5278 C   0  0  0  0  0  0
  -21.4017   -6.5641   23.8210 C   0  0  0  0  0  0
  -21.3663   -5.6796   24.9174 C   0  0  0  0  0  0
  -21.6042   -4.3056   24.7224 C   0  0  0  0  0  0
  -21.8819   -3.8143   23.4346 C   0  0  0  0  0  0
  -21.9190   -4.6961   22.3400 C   0  0  0  0  0  0
  -22.7796  -13.5190   21.1845 C   0  0  0  0  0  0
  -22.1658   -4.2146   21.0979 F   0  0  0  0  0  0
  -21.5625   -3.4541   25.7735 F   0  0  0  0  0  0
  -29.9784  -13.5971   20.4048 N   0  0  0  0  0  0
  -26.2931  -12.9434   20.3316 N   0  0  0  0  0  0
  -25.9344  -11.6562   20.5770 N   0  0  0  0  0  0
  -22.0468  -12.8179   22.0417 N   0  0  0  0  0  0
  -25.4105  -15.1916   20.4214 N   0  0  0  0  0  0
  -31.7665  -14.9346   20.1126 O   0  0  0  0  0  0
  -21.6639   -6.8875   21.4239 O   0  0  0  0  0  0
  -22.3473  -14.5502   20.6712 O   0  0  0  0  0  0
  -24.6387  -31.8488   23.1931 C   0  0  0  0  0  0
  -25.9176  -32.4725   23.8312 C   0  0  1  0  0  0
  -27.2223  -27.1977   20.1405 C   0  0  0  0  0  0
  -25.5938  -33.8529   24.2225 N   0  0  0  0  0  0
  -23.4418  -30.4699   21.5363 C   0  0  2  0  0  0
  -24.8961  -28.9121   20.1051 C   0  0  0  0  0  0
  -22.7558  -29.4562   22.4858 C   0  0  0  0  0  0
  -18.0306  -28.1394   22.8473 C   0  0  0  0  0  0
  -24.1490  -36.7274   23.2641 C   0  0  0  0  0  0
  -25.9946  -30.7410   21.3870 C   0  0  0  0  0  0
  -26.0708  -29.3585   20.7272 C   0  0  0  0  0  0
  -27.2391  -28.5139   20.7366 C   0  0  0  0  0  0
  -26.0308  -26.8466   19.4697 C   0  0  0  0  0  0
  -24.8852  -27.6664   19.4614 C   0  0  0  0  0  0
  -23.6687  -29.8055   20.1530 C   0  0  0  0  0  0
  -25.4118  -36.3052   24.0321 C   0  0  1  0  0  0
  -20.5918  -28.3716   23.1239 C   0  0  2  0  0  0
  -20.6790  -26.9423   22.5401 C   0  0  0  0  0  0
  -19.5768  -26.6382   21.5206 C   0  0  0  0  0  0
  -18.1949  -26.7931   22.1620 C   0  0  0  0  0  0
  -19.1562  -28.8873   23.2850 C   0  0  0  0  0  0
  -18.9478  -30.1466   23.8882 C   0  0  0  0  0  0
  -17.6475  -30.6587   24.0563 C   0  0  0  0  0  0
  -25.9062  -34.9421   23.5079 C   0  0  0  0  0  0
  -16.5366  -29.9084   23.6332 C   0  0  0  0  0  0
  -16.7292  -28.6504   23.0350 C   0  0  0  0  0  0
  -26.4510  -31.6574   25.0730 C   0  0  0  0  0  0
  -25.3711  -31.3753   26.1436 C   0  0  0  0  0  0
  -27.0366  -30.2976   24.6276 C   0  0  0  0  0  0
  -27.6054  -32.4327   25.7506 C   0  0  0  0  0  0
  -27.5578  -37.1791   24.8464 C   0  0  0  0  0  0
  -21.4254  -29.3043   22.3608 N   0  0  0  0  0  0
  -26.4287  -37.3759   23.9407 N   0  0  0  0  0  0
  -24.7107  -31.0392   22.0944 N   0  0  0  0  0  0
  -23.4215  -28.8104   23.2992 O   0  0  0  0  0  0
  -28.2205  -26.1739   20.2227 O   0  0  0  0  0  0
  -26.5648  -34.8906   22.4655 O   0  0  0  0  0  0
  -23.5513  -32.1336   23.7174 O   0  0  0  0  0  0
  -30.7736  -19.7777   19.8341 C   0  0  0  0  0  0
  -29.0536  -18.4944   20.7819 C   0  0  0  0  0  0
  -29.5357  -19.8772   20.4170 C   0  0  0  0  0  0
  -29.9331  -17.3972   20.4872 C   0  0  0  0  0  0
  -27.7877  -24.9417   20.8382 C   0  0  0  0  0  0
  -27.7588  -18.2060   21.4255 C   0  0  0  0  0  0
  -28.0577  -23.5501   20.9014 C   0  0  0  0  0  0
  -29.0603  -22.5706   20.2881 C   0  0  0  0  0  0
  -26.7063  -19.3074   21.4469 C   0  0  0  0  0  0
  -28.8615  -21.2194   20.6533 N   0  0  0  0  0  0
  -29.7828  -15.9835   20.6768 N   0  0  0  0  0  0
  -27.4461  -17.1166   21.9179 O   0  0  0  0  0  0
  -29.9750  -22.9061   19.5345 O   0  0  0  0  0  0
  -27.2017  -22.9131   21.7232 O   0  0  0  0  0  0
  -31.3567  -18.1111   19.7351 S   0  0  0  0  0  0
  -31.4786  -12.6525   19.1893 H   0  0  0  0  0  0
  -30.4005  -11.5505   19.9986 H   0  0  0  0  0  0
  -29.8184  -11.7431   17.5520 H   0  0  0  0  0  0
  -29.6257  -13.4711   17.7207 H   0  0  0  0  0  0
  -27.9270  -11.2810   18.9502 H   0  0  0  0  0  0
  -27.3869  -12.4890   17.8147 H   0  0  0  0  0  0
  -27.6170  -14.2562   19.4508 H   0  0  0  0  0  0
  -28.7410  -12.2313   21.4485 H   0  0  0  0  0  0
  -28.4003  -13.9097   21.7849 H   0  0  0  0  0  0
  -25.2775   -9.5671   22.4749 H   0  0  0  0  0  0
  -23.9994   -7.4636   22.7484 H   0  0  0  0  0  0
  -21.0837   -8.8771   19.8963 H   0  0  0  0  0  0
  -22.3703  -10.9659   19.6156 H   0  0  0  0  0  0
  -21.2021   -7.6152   23.9712 H   0  0  0  0  0  0
  -21.1483   -6.0528   25.9075 H   0  0  0  0  0  0
  -22.0596   -2.7607   23.2848 H   0  0  0  0  0  0
  -22.4096  -11.9836   22.4788 H   0  0  0  0  0  0
  -21.1094  -13.1200   22.2651 H   0  0  0  0  0  0
  -24.6577  -15.8405   20.6216 H   0  0  0  0  0  0
  -26.3034  -15.6513   20.2997 H   0  0  0  0  0  0
  -26.7245  -32.5356   23.1052 H   0  0  0  0  0  0
  -25.0063  -33.9653   25.0356 H   0  0  0  0  0  0
  -22.7415  -31.2940   21.3857 H   0  0  0  0  0  0
  -23.3749  -35.9610   23.3299 H   0  0  0  0  0  0
  -24.3576  -36.8903   22.2055 H   0  0  0  0  0  0
  -23.7244  -37.6471   23.6674 H   0  0  0  0  0  0
  -26.1442  -31.4991   20.6170 H   0  0  0  0  0  0
  -26.8669  -30.7909   22.0269 H   0  0  0  0  0  0
  -28.1296  -28.8409   21.2546 H   0  0  0  0  0  0
  -25.9675  -25.8825   18.9850 H   0  0  0  0  0  0
  -23.9902  -27.3201   18.9629 H   0  0  0  0  0  0
  -23.8015  -30.5839   19.4008 H   0  0  0  0  0  0
  -22.7862  -29.2450   19.8395 H   0  0  0  0  0  0
  -25.1301  -36.1892   25.0815 H   0  0  0  0  0  0
  -21.0011  -28.3304   24.1361 H   0  0  0  0  0  0
  -20.5678  -26.2331   23.3617 H   0  0  0  0  0  0
  -21.6657  -26.7426   22.1204 H   0  0  0  0  0  0
  -19.6929  -25.6288   21.1246 H   0  0  0  0  0  0
  -19.6705  -27.3184   20.6729 H   0  0  0  0  0  0
  -17.4212  -26.6666   21.4028 H   0  0  0  0  0  0
  -18.0362  -26.0080   22.9029 H   0  0  0  0  0  0
  -19.7952  -30.7285   24.2249 H   0  0  0  0  0  0
  -17.5027  -31.6261   24.5176 H   0  0  0  0  0  0
  -15.5366  -30.2983   23.7662 H   0  0  0  0  0  0
  -15.8691  -28.0818   22.7074 H   0  0  0  0  0  0
  -24.5887  -30.7104   25.7756 H   0  0  0  0  0  0
  -24.8904  -32.2934   26.4824 H   0  0  0  0  0  0
  -25.8004  -30.8946   27.0237 H   0  0  0  0  0  0
  -26.2971  -29.6707   24.1277 H   0  0  0  0  0  0
  -27.3989  -29.7260   25.4830 H   0  0  0  0  0  0
  -27.8878  -30.4221   23.9579 H   0  0  0  0  0  0
  -27.2655  -33.3636   26.2058 H   0  0  0  0  0  0
  -28.3878  -32.6871   25.0345 H   0  0  0  0  0  0
  -28.0711  -31.8470   26.5441 H   0  0  0  0  0  0
  -28.2591  -38.0092   24.7503 H   0  0  0  0  0  0
  -28.1076  -36.2618   24.6298 H   0  0  0  0  0  0
  -27.2296  -37.1451   25.8867 H   0  0  0  0  0  0
  -20.9460  -29.8763   21.6797 H   0  0  0  0  0  0
  -26.0159  -38.2828   24.1411 H   0  0  0  0  0  0
  -31.4021  -20.5785   19.4634 H   0  0  0  0  0  0
  -26.9597  -25.2308   21.4736 H   0  0  0  0  0  0
  -26.6347  -19.7874   20.4715 H   0  0  0  0  0  0
  -26.9485  -20.0504   22.2055 H   0  0  0  0  0  0
  -25.7290  -18.8874   21.6829 H   0  0  0  0  0  0
  -28.0407  -21.1810   21.2448 H   0  0  0  0  0  0
  -28.8645  -15.7253   21.0107 H   0  0  0  0  0  0
  -26.6036  -23.5586   22.0753 H   0  0  0  0  0  0
  1 25  1  0  0  0
  1 30  2  0  0  0
  1 81  1  0  0  0
  2  3  1  0  0  0
  2 25  1  0  0  0
  2 86  1  0  0  0
  2 87  1  0  0  0
  3  4  1  0  0  0
  3 88  1  0  0  0
  3 89  1  0  0  0
  4  5  1  0  0  0
  4 90  1  0  0  0
  4 91  1  0  0  0
  5  6  1  0  0  0
  5 26  1  0  0  0
  5 92  1  0  0  0
  6 25  1  0  0  0
  6 93  1  0  0  0
  6 94  1  0  0  0
  7  8  2  0  0  0
  7 26  1  0  0  0
  7 29  1  0  0  0
  8  9  1  0  0  0
  8 22  1  0  0  0
  9 10  1  0  0  0
  9 27  2  0  0  0
 10 11  2  0  0  0
 10 15  1  0  0  0
 11 12  1  0  0  0
 11 95  1  0  0  0
 12 13  2  0  0  0
 12 96  1  0  0  0
 13 14  1  0  0  0
 13 31  1  0  0  0
 14 15  2  0  0  0
 14 97  1  0  0  0
 15 98  1  0  0  0
 16 17  2  0  0  0
 16 21  1  0  0  0
 16 31  1  0  0  0
 17 18  1  0  0  0
 17 99  1  0  0  0
 18 19  2  0  0  0
 18100  1  0  0  0
 19 20  1  0  0  0
 19 24  1  0  0  0
 20 21  2  0  0  0
 20101  1  0  0  0
 21 23  1  0  0  0
 22 28  1  0  0  0
 22 32  2  0  0  0
 26 27  1  0  0  0
 28102  1  0  0  0
 28103  1  0  0  0
 29104  1  0  0  0
 29105  1  0  0  0
 33 34  1  0  0  0
 33 66  1  0  0  0
 33 70  2  0  0  0
 34 36  1  0  0  0
 34 59  1  0  0  0
 34106  1  0  0  0
 35 44  2  0  0  0
 35 45  1  0  0  0
 35 68  1  0  0  0
 36 56  1  0  0  0
 36107  1  0  0  0
 37 39  1  0  0  0
 37 47  1  0  0  0
 37 66  1  0  0  0
 37108  1  0  0  0
 38 43  2  0  0  0
 38 46  1  0  0  0
 38 47  1  0  0  0
 39 64  1  0  0  0
 39 67  2  0  0  0
 40 52  1  0  0  0
 40 53  2  0  0  0
 40 58  1  0  0  0
 41109  1  0  0  0
 41110  1  0  0  0
 41111  1  0  0  0
 41 48  1  0  0  0
 42 43  1  0  0  0
 42 66  1  0  0  0
 42112  1  0  0  0
 42113  1  0  0  0
 43 44  1  0  0  0
 44114  1  0  0  0
 45 46  2  0  0  0
 45115  1  0  0  0
 46116  1  0  0  0
 47117  1  0  0  0
 47118  1  0  0  0
 48 56  1  0  0  0
 48 65  1  0  0  0
 48119  1  0  0  0
 49 50  1  0  0  0
 49 53  1  0  0  0
 49 64  1  0  0  0
 49120  1  0  0  0
 50 51  1  0  0  0
 50121  1  0  0  0
 50122  1  0  0  0
 51 52  1  0  0  0
 51123  1  0  0  0
 51124  1  0  0  0
 52125  1  0  0  0
 52126  1  0  0  0
 53 54  1  0  0  0
 54 55  2  0  0  0
 54127  1  0  0  0
 55 57  1  0  0  0
 55128  1  0  0  0
 56 69  2  0  0  0
 57 58  2  0  0  0
 57129  1  0  0  0
 58130  1  0  0  0
 59 60  1  0  0  0
 59 61  1  0  0  0
 59 62  1  0  0  0
 60131  1  0  0  0
 60132  1  0  0  0
 60133  1  0  0  0
 61134  1  0  0  0
 61135  1  0  0  0
 61136  1  0  0  0
 62137  1  0  0  0
 62138  1  0  0  0
 62139  1  0  0  0
 63 65  1  0  0  0
 63140  1  0  0  0
 63141  1  0  0  0
 63142  1  0  0  0
 64143  1  0  0  0
 65144  1  0  0  0
 68 75  1  0  0  0
 71 73  2  0  0  0
 71 85  1  0  0  0
 71145  1  0  0  0
 72 73  1  0  0  0
 72 74  2  0  0  0
 72 76  1  0  0  0
 73 80  1  0  0  0
 74 81  1  0  0  0
 74 85  1  0  0  0
 75 77  2  0  0  0
 75146  1  0  0  0
 76 79  1  0  0  0
 76 82  2  0  0  0
 77 78  1  0  0  0
 77 84  1  0  0  0
 78 80  1  0  0  0
 78 83  2  0  0  0
 79147  1  0  0  0
 79148  1  0  0  0
 79149  1  0  0  0
 80150  1  0  0  0
 81151  1  0  0  0
 84152  1  0  0  0
M  ISO  4   1 100  68 101  75 101  81 100
M  END
> <chiral flag>
0

> <version>
0

> <s_m_source_file>
/data/baiqing/PycharmProjects/Reinvent-master-3.2/result/LINK_invent/BTK/process_docking_weight1_custom_product_contain_oxygen_bond_distance_aromatic_linkinvent_7_9_3/rearranged_h_0184.sdf

> <i_m_source_file_index>
44

> <r_mmod_Potential_Energy-OPLS-2005>
385.550384521484

> <r_mmod_Stretch_Energy-OPLS-2005>
176.774505615234

> <r_mmod_Bend_Energy-OPLS-2005>
277.018402099609

> <r_mmod_Torsional_Energy-OPLS-2005>
230.568817138672

> <r_mmod_Improper_Torsional_Energy-OPLS-2005>
4.26414775848389

> <r_mmod_Van_der_Waal_Energy-OPLS-2005>
128.684768676758

> <r_mmod_Electrostatic_Energy-OPLS-2005>
-333.936737060547

> <r_mmod_Solvation_Energy-OPLS-2005>
-242.381271362305

> <b_mmod_Minimization_Converged-OPLS-2005>
0

> <r_mmod_RMS_Derivative-OPLS-2005>
0.846705257892609

$$$$
44
                    3D
 Structure written by MMmdl.
150158  0  0  1  0            999 V2000
  -30.5727  -14.7285   20.4688 C   0  0  0  0  0  0
  -30.4498  -12.4423   19.4662 C   0  0  0  0  0  0
  -29.5166  -12.5132   18.2335 C   0  0  0  0  0  0
  -28.0386  -12.3332   18.6402 C   0  0  0  0  0  0
  -27.6493  -13.2114   19.8576 C   0  0  2  0  0  0
  -28.6953  -13.0796   20.9866 C   0  0  0  0  0  0
  -25.2561  -13.8146   20.5679 C   0  0  0  0  0  0
  -24.1824  -13.0424   20.9192 C   0  0  0  0  0  0
  -24.6383  -11.6892   20.8738 C   0  0  0  0  0  0
  -23.9052  -10.4283   21.0409 C   0  0  0  0  0  0
  -24.3608   -9.4200   21.9186 C   0  0  0  0  0  0
  -23.6286   -8.2234   22.0754 C   0  0  0  0  0  0
  -22.4269   -8.0274   21.3544 C   0  0  0  0  0  0
  -21.9902   -9.0247   20.4649 C   0  0  0  0  0  0
  -22.7225  -10.2127   20.3058 C   0  0  0  0  0  0
  -21.6848   -6.0734   22.5279 C   0  0  0  0  0  0
  -21.4010   -6.5639   23.8213 C   0  0  0  0  0  0
  -21.3660   -5.6791   24.9176 C   0  0  0  0  0  0
  -21.6044   -4.3054   24.7225 C   0  0  0  0  0  0
  -21.8819   -3.8146   23.4346 C   0  0  0  0  0  0
  -21.9189   -4.6962   22.3402 C   0  0  0  0  0  0
  -22.7851  -13.5229   21.1859 C   0  0  0  0  0  0
  -22.1657   -4.2150   21.0979 F   0  0  0  0  0  0
  -21.5632   -3.4538   25.7737 F   0  0  0  0  0  0
  -29.9995  -13.4726   20.4296 N   0  0  0  0  0  0
  -26.2970  -12.9308   20.3286 N   0  0  0  0  0  0
  -25.9307  -11.6473   20.5740 N   0  0  0  0  0  0
  -22.0485  -12.8232   22.0418 N   0  0  0  0  0  0
  -25.4286  -15.1868   20.4102 N   0  0  0  0  0  0
  -31.7557  -14.8606   20.1367 O   0  0  0  0  0  0
  -21.6631   -6.8875   21.4241 O   0  0  0  0  0  0
  -22.3545  -14.5537   20.6705 O   0  0  0  0  0  0
  -24.6281  -31.8570   23.1991 C   0  0  0  0  0  0
  -25.9115  -32.4766   23.8334 C   0  0  1  0  0  0
  -27.2302  -27.2973   20.1340 C   0  0  0  0  0  0
  -25.5919  -33.8567   24.2261 N   0  0  0  0  0  0
  -23.4244  -30.4774   21.5418 C   0  0  2  0  0  0
  -24.8745  -28.9214   20.1172 C   0  0  0  0  0  0
  -22.7485  -29.4611   22.4930 C   0  0  0  0  0  0
  -18.0287  -28.1387   22.8487 C   0  0  0  0  0  0
  -24.1489  -36.7291   23.2641 C   0  0  0  0  0  0
  -25.9662  -30.7817   21.3725 C   0  0  0  0  0  0
  -26.0436  -29.4042   20.7206 C   0  0  0  0  0  0
  -27.2283  -28.6053   20.7145 C   0  0  0  0  0  0
  -26.0411  -26.8642   19.5140 C   0  0  0  0  0  0
  -24.8755  -27.6571   19.5040 C   0  0  0  0  0  0
  -23.6427  -29.8050   20.1603 C   0  0  0  0  0  0
  -25.4115  -36.3078   24.0328 C   0  0  1  0  0  0
  -20.5889  -28.3695   23.1278 C   0  0  2  0  0  0
  -20.6776  -26.9416   22.5412 C   0  0  0  0  0  0
  -19.5752  -26.6384   21.5214 C   0  0  0  0  0  0
  -18.1932  -26.7928   22.1626 C   0  0  0  0  0  0
  -19.1539  -28.8858   23.2878 C   0  0  0  0  0  0
  -18.9462  -30.1459   23.8896 C   0  0  0  0  0  0
  -17.6462  -30.6590   24.0562 C   0  0  0  0  0  0
  -25.9052  -34.9447   23.5099 C   0  0  0  0  0  0
  -16.5354  -29.9088   23.6331 C   0  0  0  0  0  0
  -16.7274  -28.6504   23.0353 C   0  0  0  0  0  0
  -26.4493  -31.6581   25.0713 C   0  0  0  0  0  0
  -25.3722  -31.3728   26.1439 C   0  0  0  0  0  0
  -27.0336  -30.3000   24.6181 C   0  0  0  0  0  0
  -27.6050  -32.4320   25.7486 C   0  0  0  0  0  0
  -27.5579  -37.1802   24.8466 C   0  0  0  0  0  0
  -21.4196  -29.3042   22.3669 N   0  0  0  0  0  0
  -26.4293  -37.3773   23.9407 N   0  0  0  0  0  0
  -24.6918  -31.0560   22.0950 N   0  0  0  0  0  0
  -23.4193  -28.8158   23.3028 O   0  0  0  0  0  0
  -28.3375  -26.4330   20.1171 O   0  0  0  0  0  0
  -26.5629  -34.8920   22.4671 O   0  0  0  0  0  0
  -23.5437  -32.1376   23.7304 O   0  0  0  0  0  0
  -28.4450  -19.1398   19.5502 C   0  0  0  0  0  0
  -28.2266  -20.5687   19.5879 C   0  0  0  0  0  0
  -29.4914  -18.6830   20.3266 C   0  0  0  0  0  0
  -29.0555  -21.3100   20.4060 C   0  0  0  0  0  0
  -29.9015  -17.2601   20.5399 C   0  0  0  0  0  0
  -29.6486  -15.8979   20.7159 C   0  0  0  0  0  0
  -28.5480  -23.7860   20.0740 C   0  0  0  0  0  0
  -29.1288  -25.3069   22.1070 C   0  0  0  0  0  0
  -28.2369  -25.1463   20.8651 C   0  0  1  0  0  0
  -28.9992  -22.6672   20.7522 N   0  0  0  0  0  0
  -28.3785  -23.7668   18.8527 O   0  0  0  0  0  0
  -27.2301  -21.1010   18.9179 F   0  0  0  0  0  0
  -30.1878  -20.1183   21.1354 S   0  0  0  0  0  0
  -31.4867  -12.5891   19.1605 H   0  0  0  0  0  0
  -30.4138  -11.4514   19.9217 H   0  0  0  0  0  0
  -29.7987  -11.7535   17.5038 H   0  0  0  0  0  0
  -29.6429  -13.4759   17.7356 H   0  0  0  0  0  0
  -27.8884  -11.2806   18.8835 H   0  0  0  0  0  0
  -27.3835  -12.5456   17.7944 H   0  0  0  0  0  0
  -27.6575  -14.2399   19.4987 H   0  0  0  0  0  0
  -28.7344  -12.0505   21.3469 H   0  0  0  0  0  0
  -28.4279  -13.6741   21.8604 H   0  0  0  0  0  0
  -25.2753   -9.5676   22.4761 H   0  0  0  0  0  0
  -23.9996   -7.4624   22.7472 H   0  0  0  0  0  0
  -21.0831   -8.8764   19.8958 H   0  0  0  0  0  0
  -22.3681  -10.9668   19.6170 H   0  0  0  0  0  0
  -21.2000   -7.6148   23.9718 H   0  0  0  0  0  0
  -21.1485   -6.0521   25.9079 H   0  0  0  0  0  0
  -22.0599   -2.7609   23.2842 H   0  0  0  0  0  0
  -22.4090  -11.9892   22.4813 H   0  0  0  0  0  0
  -21.1111  -13.1277   22.2628 H   0  0  0  0  0  0
  -24.6623  -15.8416   20.5226 H   0  0  0  0  0  0
  -26.2785  -15.6254   20.0800 H   0  0  0  0  0  0
  -26.7185  -32.5434   23.1084 H   0  0  0  0  0  0
  -25.0049  -33.9706   25.0395 H   0  0  0  0  0  0
  -22.7197  -31.2982   21.3935 H   0  0  0  0  0  0
  -23.3748  -35.9627   23.3309 H   0  0  0  0  0  0
  -24.3576  -36.8909   22.2054 H   0  0  0  0  0  0
  -23.7247  -37.6497   23.6662 H   0  0  0  0  0  0
  -26.0968  -31.5418   20.6009 H   0  0  0  0  0  0
  -26.8463  -30.8354   22.0018 H   0  0  0  0  0  0
  -28.1298  -28.9747   21.1831 H   0  0  0  0  0  0
  -26.0138  -25.8923   19.0411 H   0  0  0  0  0  0
  -23.9799  -27.2807   19.0289 H   0  0  0  0  0  0
  -23.7645  -30.5777   19.4004 H   0  0  0  0  0  0
  -22.7627  -29.2339   19.8586 H   0  0  0  0  0  0
  -25.1297  -36.1929   25.0820 H   0  0  0  0  0  0
  -20.9982  -28.3275   24.1399 H   0  0  0  0  0  0
  -20.5678  -26.2307   23.3615 H   0  0  0  0  0  0
  -21.6645  -26.7444   22.1206 H   0  0  0  0  0  0
  -19.6915  -25.6293   21.1249 H   0  0  0  0  0  0
  -19.6689  -27.3191   20.6741 H   0  0  0  0  0  0
  -17.4202  -26.6674   21.4030 H   0  0  0  0  0  0
  -18.0335  -26.0072   22.9025 H   0  0  0  0  0  0
  -19.7939  -30.7274   24.2267 H   0  0  0  0  0  0
  -17.5018  -31.6271   24.5162 H   0  0  0  0  0  0
  -15.5354  -30.2990   23.7655 H   0  0  0  0  0  0
  -15.8674  -28.0823   22.7069 H   0  0  0  0  0  0
  -24.5888  -30.7090   25.7764 H   0  0  0  0  0  0
  -24.8925  -32.2899   26.4868 H   0  0  0  0  0  0
  -25.8039  -30.8896   27.0213 H   0  0  0  0  0  0
  -26.2914  -29.6752   24.1200 H   0  0  0  0  0  0
  -27.4019  -29.7257   25.4692 H   0  0  0  0  0  0
  -27.8789  -30.4276   23.9415 H   0  0  0  0  0  0
  -27.2657  -33.3619   26.2061 H   0  0  0  0  0  0
  -28.3861  -32.6883   25.0316 H   0  0  0  0  0  0
  -28.0719  -31.8449   26.5405 H   0  0  0  0  0  0
  -28.2603  -38.0093   24.7503 H   0  0  0  0  0  0
  -28.1068  -36.2624   24.6303 H   0  0  0  0  0  0
  -27.2297  -37.1467   25.8869 H   0  0  0  0  0  0
  -20.9381  -29.8753   21.6863 H   0  0  0  0  0  0
  -26.0174  -38.2851   24.1397 H   0  0  0  0  0  0
  -27.8098  -18.5001   18.9557 H   0  0  0  0  0  0
  -29.0065  -17.3649   21.1363 H   0  0  0  0  0  0
  -28.6536  -15.6061   21.0315 H   0  0  0  0  0  0
  -29.0266  -24.4672   22.7946 H   0  0  0  0  0  0
  -28.8587  -26.2064   22.6605 H   0  0  0  0  0  0
  -30.1795  -25.3928   21.8295 H   0  0  0  0  0  0
  -27.2121  -25.0344   21.2227 H   0  0  0  0  0  0
  -29.2864  -22.8648   21.7004 H   0  0  0  0  0  0
  1 25  1  0  0  0
  1 30  2  0  0  0
  1 76  1  0  0  0
  2  3  1  0  0  0
  2 25  1  0  0  0
  2 84  1  0  0  0
  2 85  1  0  0  0
  3  4  1  0  0  0
  3 86  1  0  0  0
  3 87  1  0  0  0
  4  5  1  0  0  0
  4 88  1  0  0  0
  4 89  1  0  0  0
  5  6  1  0  0  0
  5 26  1  0  0  0
  5 90  1  0  0  0
  6 25  1  0  0  0
  6 91  1  0  0  0
  6 92  1  0  0  0
  7  8  2  0  0  0
  7 26  1  0  0  0
  7 29  1  0  0  0
  8  9  1  0  0  0
  8 22  1  0  0  0
  9 10  1  0  0  0
  9 27  2  0  0  0
 10 11  2  0  0  0
 10 15  1  0  0  0
 11 12  1  0  0  0
 11 93  1  0  0  0
 12 13  2  0  0  0
 12 94  1  0  0  0
 13 14  1  0  0  0
 13 31  1  0  0  0
 14 15  2  0  0  0
 14 95  1  0  0  0
 15 96  1  0  0  0
 16 17  2  0  0  0
 16 21  1  0  0  0
 16 31  1  0  0  0
 17 18  1  0  0  0
 17 97  1  0  0  0
 18 19  2  0  0  0
 18 98  1  0  0  0
 19 20  1  0  0  0
 19 24  1  0  0  0
 20 21  2  0  0  0
 20 99  1  0  0  0
 21 23  1  0  0  0
 22 28  1  0  0  0
 22 32  2  0  0  0
 26 27  1  0  0  0
 28100  1  0  0  0
 28101  1  0  0  0
 29102  1  0  0  0
 29103  1  0  0  0
 33 34  1  0  0  0
 33 66  1  0  0  0
 33 70  2  0  0  0
 34 36  1  0  0  0
 34 59  1  0  0  0
 34104  1  0  0  0
 35 44  2  0  0  0
 35 45  1  0  0  0
 35 68  1  0  0  0
 36 56  1  0  0  0
 36105  1  0  0  0
 37 39  1  0  0  0
 37 47  1  0  0  0
 37 66  1  0  0  0
 37106  1  0  0  0
 38 43  2  0  0  0
 38 46  1  0  0  0
 38 47  1  0  0  0
 39 64  1  0  0  0
 39 67  2  0  0  0
 40 52  1  0  0  0
 40 53  2  0  0  0
 40 58  1  0  0  0
 41107  1  0  0  0
 41108  1  0  0  0
 41109  1  0  0  0
 41 48  1  0  0  0
 42 43  1  0  0  0
 42 66  1  0  0  0
 42110  1  0  0  0
 42111  1  0  0  0
 43 44  1  0  0  0
 44112  1  0  0  0
 45 46  2  0  0  0
 45113  1  0  0  0
 46114  1  0  0  0
 47115  1  0  0  0
 47116  1  0  0  0
 48 56  1  0  0  0
 48 65  1  0  0  0
 48117  1  0  0  0
 49 50  1  0  0  0
 49 53  1  0  0  0
 49 64  1  0  0  0
 49118  1  0  0  0
 50 51  1  0  0  0
 50119  1  0  0  0
 50120  1  0  0  0
 51 52  1  0  0  0
 51121  1  0  0  0
 51122  1  0  0  0
 52123  1  0  0  0
 52124  1  0  0  0
 53 54  1  0  0  0
 54 55  2  0  0  0
 54125  1  0  0  0
 55 57  1  0  0  0
 55126  1  0  0  0
 56 69  2  0  0  0
 57 58  2  0  0  0
 57127  1  0  0  0
 58128  1  0  0  0
 59 60  1  0  0  0
 59 61  1  0  0  0
 59 62  1  0  0  0
 60129  1  0  0  0
 60130  1  0  0  0
 60131  1  0  0  0
 61132  1  0  0  0
 61133  1  0  0  0
 61134  1  0  0  0
 62135  1  0  0  0
 62136  1  0  0  0
 62137  1  0  0  0
 63 65  1  0  0  0
 63138  1  0  0  0
 63139  1  0  0  0
 63140  1  0  0  0
 64141  1  0  0  0
 65142  1  0  0  0
 68 79  1  0  0  0
 71 72  1  0  0  0
 71 73  2  0  0  0
 71143  1  0  0  0
 72 74  2  0  0  0
 72 82  1  0  0  0
 73 75  1  0  0  0
 73 83  1  0  0  0
 74 80  1  0  0  0
 74 83  1  0  0  0
 75 76  2  0  0  0
 75144  1  0  0  0
 76145  1  0  0  0
 77 79  1  0  0  0
 77 80  1  0  0  0
 77 81  2  0  0  0
 78146  1  0  0  0
 78147  1  0  0  0
 78148  1  0  0  0
 78 79  1  0  0  0
 79149  1  0  0  0
 80150  1  0  0  0
M  ISO  4   1 100  68 101  76 100  79 101
M  END
> <chiral flag>
0

> <version>
0

> <s_m_source_file>
/data/baiqing/PycharmProjects/Reinvent-master-3.2/result/LINK_invent/BTK/process_docking_weight1_custom_product_contain_oxygen_bond_distance_aromatic_linkinvent_7_9_3/rearranged_h_0184.sdf

> <i_m_source_file_index>
45

> <r_mmod_Potential_Energy-OPLS-2005>
337.043426513672

> <r_mmod_Stretch_Energy-OPLS-2005>
99.5945663452148

> <r_mmod_Bend_Energy-OPLS-2005>
339.166900634766

> <r_mmod_Torsional_Energy-OPLS-2005>
266.087982177734

> <r_mmod_Improper_Torsional_Energy-OPLS-2005>
14.9131393432617

> <r_mmod_Van_der_Waal_Energy-OPLS-2005>
127.454200744629

> <r_mmod_Electrostatic_Energy-OPLS-2005>
-344.817596435547

> <r_mmod_Solvation_Energy-OPLS-2005>
-233.727523803711

> <b_mmod_Minimization_Converged-OPLS-2005>
0

> <r_mmod_RMS_Derivative-OPLS-2005>
0.334419697523117

$$$$
45
                    3D
 Structure written by MMmdl.
160168  0  0  1  0            999 V2000
  -30.6243  -14.6038   20.5221 C   0  0  0  0  0  0
  -30.4430  -12.3690   19.4573 C   0  0  0  0  0  0
  -29.5093  -12.4924   18.2315 C   0  0  0  0  0  0
  -28.0319  -12.3297   18.6429 C   0  0  0  0  0  0
  -27.6552  -13.1973   19.8729 C   0  0  2  0  0  0
  -28.6985  -13.0327   21.0010 C   0  0  0  0  0  0
  -25.2530  -13.8059   20.5792 C   0  0  0  0  0  0
  -24.1785  -13.0347   20.9190 C   0  0  0  0  0  0
  -24.6335  -11.6838   20.8717 C   0  0  0  0  0  0
  -23.9012  -10.4251   21.0398 C   0  0  0  0  0  0
  -24.3570   -9.4180   21.9179 C   0  0  0  0  0  0
  -23.6267   -8.2213   22.0755 C   0  0  0  0  0  0
  -22.4242   -8.0248   21.3557 C   0  0  0  0  0  0
  -21.9870   -9.0211   20.4655 C   0  0  0  0  0  0
  -22.7182  -10.2086   20.3055 C   0  0  0  0  0  0
  -21.6834   -6.0732   22.5290 C   0  0  0  0  0  0
  -21.4014   -6.5646   23.8215 C   0  0  0  0  0  0
  -21.3656   -5.6791   24.9186 C   0  0  0  0  0  0
  -21.6038   -4.3053   24.7228 C   0  0  0  0  0  0
  -21.8813   -3.8150   23.4349 C   0  0  0  0  0  0
  -21.9197   -4.6977   22.3406 C   0  0  0  0  0  0
  -22.7812  -13.5187   21.1859 C   0  0  0  0  0  0
  -22.1663   -4.2160   21.0986 F   0  0  0  0  0  0
  -21.5621   -3.4530   25.7740 F   0  0  0  0  0  0
  -30.0219  -13.3749   20.4497 N   0  0  0  0  0  0
  -26.2983  -12.9249   20.3394 N   0  0  0  0  0  0
  -25.9267  -11.6421   20.5755 N   0  0  0  0  0  0
  -22.0439  -12.8219   22.0421 N   0  0  0  0  0  0
  -25.4183  -15.1780   20.4463 N   0  0  0  0  0  0
  -31.7630  -14.7964   20.0795 O   0  0  0  0  0  0
  -21.6619   -6.8848   21.4239 O   0  0  0  0  0  0
  -22.3542  -14.5518   20.6724 O   0  0  0  0  0  0
  -24.6180  -31.8631   23.2071 C   0  0  0  0  0  0
  -25.9028  -32.4807   23.8375 C   0  0  1  0  0  0
  -27.2302  -27.3706   20.1173 C   0  0  0  0  0  0
  -25.5878  -33.8607   24.2313 N   0  0  0  0  0  0
  -23.4061  -30.4873   21.5523 C   0  0  2  0  0  0
  -24.8538  -28.9506   20.1155 C   0  0  0  0  0  0
  -22.7414  -29.4606   22.4988 C   0  0  0  0  0  0
  -18.0274  -28.1312   22.8481 C   0  0  0  0  0  0
  -24.1500  -36.7327   23.2629 C   0  0  0  0  0  0
  -25.9423  -30.8148   21.3682 C   0  0  0  0  0  0
  -26.0190  -29.4444   20.7150 C   0  0  0  0  0  0
  -27.2098  -28.6667   20.7066 C   0  0  0  0  0  0
  -26.0432  -26.9233   19.4892 C   0  0  0  0  0  0
  -24.8665  -27.6948   19.4922 C   0  0  0  0  0  0
  -23.6165  -29.8224   20.1656 C   0  0  0  0  0  0
  -25.4113  -36.3101   24.0327 C   0  0  1  0  0  0
  -20.5862  -28.3589   23.1319 C   0  0  2  0  0  0
  -20.6773  -26.9340   22.5380 C   0  0  0  0  0  0
  -19.5736  -26.6331   21.5181 C   0  0  0  0  0  0
  -18.1927  -26.7857   22.1616 C   0  0  0  0  0  0
  -19.1522  -28.8774   23.2884 C   0  0  0  0  0  0
  -18.9452  -30.1403   23.8852 C   0  0  0  0  0  0
  -17.6446  -30.6527   24.0533 C   0  0  0  0  0  0
  -25.9028  -34.9458   23.5111 C   0  0  0  0  0  0
  -16.5348  -29.9009   23.6309 C   0  0  0  0  0  0
  -16.7262  -28.6420   23.0341 C   0  0  0  0  0  0
  -26.4476  -31.6593   25.0703 C   0  0  0  0  0  0
  -25.3774  -31.3695   26.1459 C   0  0  0  0  0  0
  -27.0269  -30.3019   24.6072 C   0  0  0  0  0  0
  -27.6050  -32.4310   25.7471 C   0  0  0  0  0  0
  -27.5576  -37.1814   24.8448 C   0  0  0  0  0  0
  -21.4133  -29.2976   22.3762 N   0  0  0  0  0  0
  -26.4293  -37.3776   23.9410 N   0  0  0  0  0  0
  -24.6747  -31.0701   22.1007 N   0  0  0  0  0  0
  -23.4192  -28.8137   23.3004 O   0  0  0  0  0  0
  -28.3813  -26.5796   20.1430 O   0  0  0  0  0  0
  -26.5576  -34.8916   22.4664 O   0  0  0  0  0  0
  -23.5351  -32.1352   23.7450 O   0  0  0  0  0  0
  -28.3491  -17.1178   19.8374 C   0  0  0  0  0  0
  -29.5577  -16.9014   20.4517 C   0  0  0  0  0  0
  -29.7346  -19.1670   19.9247 C   0  0  0  0  0  0
  -29.2009  -22.7078   19.7707 C   0  0  0  0  0  0
  -30.3147  -24.8045   18.9166 C   0  0  0  0  0  0
  -32.7814  -21.5941   19.5379 C   0  0  0  0  0  0
  -28.2168  -25.1256   20.2920 C   0  0  0  0  0  0
  -30.3988  -20.4876   19.4992 C   0  0  2  0  0  0
  -29.4949  -24.2232   20.0872 C   0  0  1  0  0  0
  -31.9322  -20.3444   19.2465 C   0  0  1  0  0  0
  -30.3132  -18.1006   20.5540 N   0  0  0  0  0  0
  -29.8508  -15.6060   21.0256 N   0  0  0  0  0  0
  -30.0218  -21.7310   20.2460 N   0  0  0  0  0  0
  -28.2800  -22.4297   19.0004 O   0  0  0  0  0  0
  -32.1772  -20.0083   17.8903 O   0  0  0  0  0  0
  -28.1310  -18.7674   19.3213 S   0  0  0  0  0  0
  -31.4831  -12.4958   19.1543 H   0  0  0  0  0  0
  -30.3836  -11.3719   19.8949 H   0  0  0  0  0  0
  -29.7707  -11.7414   17.4836 H   0  0  0  0  0  0
  -29.6508  -13.4631   17.7566 H   0  0  0  0  0  0
  -27.8696  -11.2753   18.8733 H   0  0  0  0  0  0
  -27.3770  -12.5601   17.8030 H   0  0  0  0  0  0
  -27.6792  -14.2292   19.5326 H   0  0  0  0  0  0
  -28.7062  -12.0027   21.3598 H   0  0  0  0  0  0
  -28.4368  -13.6408   21.8688 H   0  0  0  0  0  0
  -25.2704   -9.5665   22.4763 H   0  0  0  0  0  0
  -23.9981   -7.4599   22.7456 H   0  0  0  0  0  0
  -21.0804   -8.8714   19.8954 H   0  0  0  0  0  0
  -22.3635  -10.9629   19.6170 H   0  0  0  0  0  0
  -21.2005   -7.6152   23.9724 H   0  0  0  0  0  0
  -21.1485   -6.0529   25.9080 H   0  0  0  0  0  0
  -22.0600   -2.7618   23.2846 H   0  0  0  0  0  0
  -22.4025  -11.9872   22.4816 H   0  0  0  0  0  0
  -21.1076  -13.1304   22.2635 H   0  0  0  0  0  0
  -24.6562  -15.8262   20.6115 H   0  0  0  0  0  0
  -26.3017  -15.6364   20.2983 H   0  0  0  0  0  0
  -26.7115  -32.5484   23.1151 H   0  0  0  0  0  0
  -25.0112  -33.9781   25.0514 H   0  0  0  0  0  0
  -22.6950  -31.3058   21.4183 H   0  0  0  0  0  0
  -23.3738  -35.9678   23.3275 H   0  0  0  0  0  0
  -24.3586  -36.8935   22.2040 H   0  0  0  0  0  0
  -23.7288  -37.6548   23.6647 H   0  0  0  0  0  0
  -26.0598  -31.5787   20.5997 H   0  0  0  0  0  0
  -26.8276  -30.8680   21.9893 H   0  0  0  0  0  0
  -28.1062  -29.0465   21.1786 H   0  0  0  0  0  0
  -25.9923  -25.9798   18.9709 H   0  0  0  0  0  0
  -23.9812  -27.3138   19.0034 H   0  0  0  0  0  0
  -23.7247  -30.5986   19.4078 H   0  0  0  0  0  0
  -22.7376  -29.2424   19.8728 H   0  0  0  0  0  0
  -25.1311  -36.1971   25.0825 H   0  0  0  0  0  0
  -20.9973  -28.3131   24.1418 H   0  0  0  0  0  0
  -20.5663  -26.2197   23.3553 H   0  0  0  0  0  0
  -21.6661  -26.7355   22.1193 H   0  0  0  0  0  0
  -19.6922  -25.6234   21.1195 H   0  0  0  0  0  0
  -19.6698  -27.3153   20.6723 H   0  0  0  0  0  0
  -17.4215  -26.6574   21.4018 H   0  0  0  0  0  0
  -18.0358  -25.9985   22.8997 H   0  0  0  0  0  0
  -19.7944  -30.7234   24.2185 H   0  0  0  0  0  0
  -17.5001  -31.6205   24.5112 H   0  0  0  0  0  0
  -15.5344  -30.2899   23.7606 H   0  0  0  0  0  0
  -15.8683  -28.0720   22.7064 H   0  0  0  0  0  0
  -24.5973  -30.7001   25.7821 H   0  0  0  0  0  0
  -24.8945  -32.2845   26.4894 H   0  0  0  0  0  0
  -25.8153  -30.8897   27.0215 H   0  0  0  0  0  0
  -26.2781  -29.6818   24.1126 H   0  0  0  0  0  0
  -27.4026  -29.7217   25.4508 H   0  0  0  0  0  0
  -27.8646  -30.4309   23.9212 H   0  0  0  0  0  0
  -27.2681  -33.3630   26.2023 H   0  0  0  0  0  0
  -28.3888  -32.6817   25.0313 H   0  0  0  0  0  0
  -28.0688  -31.8439   26.5397 H   0  0  0  0  0  0
  -28.2577  -38.0128   24.7485 H   0  0  0  0  0  0
  -28.1099  -36.2640   24.6312 H   0  0  0  0  0  0
  -27.2260  -37.1502   25.8839 H   0  0  0  0  0  0
  -20.9276  -29.8757   21.7071 H   0  0  0  0  0  0
  -26.0167  -38.2842   24.1449 H   0  0  0  0  0  0
  -27.5613  -16.4223   19.6198 H   0  0  0  0  0  0
  -31.1600  -24.1709   18.6555 H   0  0  0  0  0  0
  -30.7100  -25.7913   19.1581 H   0  0  0  0  0  0
  -29.6976  -24.9053   18.0222 H   0  0  0  0  0  0
  -32.6355  -21.9503   20.5562 H   0  0  0  0  0  0
  -32.5428  -22.4055   18.8523 H   0  0  0  0  0  0
  -33.8461  -21.3808   19.4309 H   0  0  0  0  0  0
  -27.4694  -24.7553   19.6007 H   0  0  0  0  0  0
  -27.8224  -24.9421   21.2922 H   0  0  0  0  0  0
  -29.9869  -20.6571   18.5045 H   0  0  0  0  0  0
  -30.1077  -24.2679   20.9883 H   0  0  0  0  0  0
  -32.3354  -19.5428   19.8692 H   0  0  0  0  0  0
  -29.0510  -15.2047   21.4892 H   0  0  0  0  0  0
  -30.7011  -22.0219   20.9315 H   0  0  0  0  0  0
  -33.1103  -19.8522   17.7934 H   0  0  0  0  0  0
  1 25  1  0  0  0
  1 30  2  0  0  0
  1 82  1  0  0  0
  2  3  1  0  0  0
  2 25  1  0  0  0
  2 87  1  0  0  0
  2 88  1  0  0  0
  3  4  1  0  0  0
  3 89  1  0  0  0
  3 90  1  0  0  0
  4  5  1  0  0  0
  4 91  1  0  0  0
  4 92  1  0  0  0
  5  6  1  0  0  0
  5 26  1  0  0  0
  5 93  1  0  0  0
  6 25  1  0  0  0
  6 94  1  0  0  0
  6 95  1  0  0  0
  7  8  2  0  0  0
  7 26  1  0  0  0
  7 29  1  0  0  0
  8  9  1  0  0  0
  8 22  1  0  0  0
  9 10  1  0  0  0
  9 27  2  0  0  0
 10 11  2  0  0  0
 10 15  1  0  0  0
 11 12  1  0  0  0
 11 96  1  0  0  0
 12 13  2  0  0  0
 12 97  1  0  0  0
 13 14  1  0  0  0
 13 31  1  0  0  0
 14 15  2  0  0  0
 14 98  1  0  0  0
 15 99  1  0  0  0
 16 17  2  0  0  0
 16 21  1  0  0  0
 16 31  1  0  0  0
 17 18  1  0  0  0
 17100  1  0  0  0
 18 19  2  0  0  0
 18101  1  0  0  0
 19 20  1  0  0  0
 19 24  1  0  0  0
 20 21  2  0  0  0
 20102  1  0  0  0
 21 23  1  0  0  0
 22 28  1  0  0  0
 22 32  2  0  0  0
 26 27  1  0  0  0
 28103  1  0  0  0
 28104  1  0  0  0
 29105  1  0  0  0
 29106  1  0  0  0
 33 34  1  0  0  0
 33 66  1  0  0  0
 33 70  2  0  0  0
 34 36  1  0  0  0
 34 59  1  0  0  0
 34107  1  0  0  0
 35 44  2  0  0  0
 35 45  1  0  0  0
 35 68  1  0  0  0
 36 56  1  0  0  0
 36108  1  0  0  0
 37 39  1  0  0  0
 37 47  1  0  0  0
 37 66  1  0  0  0
 37109  1  0  0  0
 38 43  2  0  0  0
 38 46  1  0  0  0
 38 47  1  0  0  0
 39 64  1  0  0  0
 39 67  2  0  0  0
 40 52  1  0  0  0
 40 53  2  0  0  0
 40 58  1  0  0  0
 41110  1  0  0  0
 41111  1  0  0  0
 41112  1  0  0  0
 41 48  1  0  0  0
 42 43  1  0  0  0
 42 66  1  0  0  0
 42113  1  0  0  0
 42114  1  0  0  0
 43 44  1  0  0  0
 44115  1  0  0  0
 45 46  2  0  0  0
 45116  1  0  0  0
 46117  1  0  0  0
 47118  1  0  0  0
 47119  1  0  0  0
 48 56  1  0  0  0
 48 65  1  0  0  0
 48120  1  0  0  0
 49 50  1  0  0  0
 49 53  1  0  0  0
 49 64  1  0  0  0
 49121  1  0  0  0
 50 51  1  0  0  0
 50122  1  0  0  0
 50123  1  0  0  0
 51 52  1  0  0  0
 51124  1  0  0  0
 51125  1  0  0  0
 52126  1  0  0  0
 52127  1  0  0  0
 53 54  1  0  0  0
 54 55  2  0  0  0
 54128  1  0  0  0
 55 57  1  0  0  0
 55129  1  0  0  0
 56 69  2  0  0  0
 57 58  2  0  0  0
 57130  1  0  0  0
 58131  1  0  0  0
 59 60  1  0  0  0
 59 61  1  0  0  0
 59 62  1  0  0  0
 60132  1  0  0  0
 60133  1  0  0  0
 60134  1  0  0  0
 61135  1  0  0  0
 61136  1  0  0  0
 61137  1  0  0  0
 62138  1  0  0  0
 62139  1  0  0  0
 62140  1  0  0  0
 63 65  1  0  0  0
 63141  1  0  0  0
 63142  1  0  0  0
 63143  1  0  0  0
 64144  1  0  0  0
 65145  1  0  0  0
 68 77  1  0  0  0
 71 72  2  0  0  0
 71 86  1  0  0  0
 71146  1  0  0  0
 72 81  1  0  0  0
 72 82  1  0  0  0
 73 78  1  0  0  0
 73 81  2  0  0  0
 73 86  1  0  0  0
 74 79  1  0  0  0
 74 83  1  0  0  0
 74 84  2  0  0  0
 75147  1  0  0  0
 75148  1  0  0  0
 75149  1  0  0  0
 75 79  1  0  0  0
 76150  1  0  0  0
 76151  1  0  0  0
 76152  1  0  0  0
 76 80  1  0  0  0
 77 79  1  0  0  0
 77153  1  0  0  0
 77154  1  0  0  0
 78 80  1  0  0  0
 78 83  1  0  0  0
 78155  1  0  0  0
 79156  1  0  0  0
 80 85  1  0  0  0
 80157  1  0  0  0
 82158  1  0  0  0
 83159  1  0  0  0
 85160  1  0  0  0
M  ISO  4   1 100  68 101  77 101  82 100
M  END
> <chiral flag>
0

> <version>
0

> <s_m_source_file>
/data/baiqing/PycharmProjects/Reinvent-master-3.2/result/LINK_invent/BTK/process_docking_weight1_custom_product_contain_oxygen_bond_distance_aromatic_linkinvent_7_9_3/rearranged_h_0184.sdf

> <i_m_source_file_index>
46

> <r_mmod_Potential_Energy-OPLS-2005>
-63.5747413635254

> <r_mmod_Stretch_Energy-OPLS-2005>
63.2451133728027

> <r_mmod_Bend_Energy-OPLS-2005>
141.418182373047

> <r_mmod_Torsional_Energy-OPLS-2005>
269.454040527344

> <r_mmod_Improper_Torsional_Energy-OPLS-2005>
10.0554361343384

> <r_mmod_Van_der_Waal_Energy-OPLS-2005>
130.206573486328

> <r_mmod_Electrostatic_Energy-OPLS-2005>
-442.011444091797

> <r_mmod_Solvation_Energy-OPLS-2005>
-268.589782714844

> <b_mmod_Minimization_Converged-OPLS-2005>
0

> <r_mmod_RMS_Derivative-OPLS-2005>
3.81800699234009

$$$$
46
                    3D
 Structure written by MMmdl.
155164  0  0  1  0            999 V2000
  -30.6326  -14.7718   20.4410 C   0  0  0  0  0  0
  -30.4332  -12.4699   19.4717 C   0  0  0  0  0  0
  -29.5156  -12.5207   18.2311 C   0  0  0  0  0  0
  -28.0392  -12.3489   18.6404 C   0  0  0  0  0  0
  -27.6421  -13.2453   19.8430 C   0  0  2  0  0  0
  -28.6894  -13.2004   20.9781 C   0  0  0  0  0  0
  -25.2478  -13.8214   20.5649 C   0  0  0  0  0  0
  -24.1794  -13.0441   20.9214 C   0  0  0  0  0  0
  -24.6416  -11.6929   20.8745 C   0  0  0  0  0  0
  -23.9082  -10.4295   21.0419 C   0  0  0  0  0  0
  -24.3639   -9.4192   21.9191 C   0  0  0  0  0  0
  -23.6316   -8.2210   22.0733 C   0  0  0  0  0  0
  -22.4286   -8.0278   21.3533 C   0  0  0  0  0  0
  -21.9924   -9.0260   20.4648 C   0  0  0  0  0  0
  -22.7262  -10.2137   20.3077 C   0  0  0  0  0  0
  -21.6841   -6.0752   22.5286 C   0  0  0  0  0  0
  -21.4012   -6.5636   23.8235 C   0  0  0  0  0  0
  -21.3673   -5.6784   24.9184 C   0  0  0  0  0  0
  -21.6045   -4.3035   24.7218 C   0  0  0  0  0  0
  -21.8806   -3.8152   23.4332 C   0  0  0  0  0  0
  -21.9191   -4.6981   22.3407 C   0  0  0  0  0  0
  -22.7810  -13.5215   21.1919 C   0  0  0  0  0  0
  -22.1655   -4.2176   21.0972 F   0  0  0  0  0  0
  -21.5655   -3.4515   25.7728 F   0  0  0  0  0  0
  -29.9886  -13.5494   20.3850 N   0  0  0  0  0  0
  -26.2942  -12.9478   20.3223 N   0  0  0  0  0  0
  -25.9343  -11.6604   20.5687 N   0  0  0  0  0  0
  -22.0447  -12.8214   22.0477 N   0  0  0  0  0  0
  -25.4104  -15.1939   20.4023 N   0  0  0  0  0  0
  -31.8378  -14.8276   20.1817 O   0  0  0  0  0  0
  -21.6618   -6.8880   21.4248 O   0  0  0  0  0  0
  -22.3475  -14.5512   20.6783 O   0  0  0  0  0  0
  -24.6347  -31.8512   23.1969 C   0  0  0  0  0  0
  -25.9159  -32.4746   23.8333 C   0  0  1  0  0  0
  -27.2304  -27.2368   20.1217 C   0  0  0  0  0  0
  -25.5940  -33.8544   24.2267 N   0  0  0  0  0  0
  -23.4343  -30.4743   21.5384 C   0  0  2  0  0  0
  -24.8855  -28.9134   20.1120 C   0  0  0  0  0  0
  -22.7517  -29.4585   22.4865 C   0  0  0  0  0  0
  -18.0315  -28.1400   22.8485 C   0  0  0  0  0  0
  -24.1494  -36.7248   23.2627 C   0  0  0  0  0  0
  -25.9834  -30.7518   21.3849 C   0  0  0  0  0  0
  -26.0561  -29.3714   20.7286 C   0  0  0  0  0  0
  -27.2322  -28.5493   20.7170 C   0  0  0  0  0  0
  -26.0338  -26.8483   19.4847 C   0  0  0  0  0  0
  -24.8820  -27.6627   19.4749 C   0  0  0  0  0  0
  -23.6600  -29.8098   20.1533 C   0  0  0  0  0  0
  -25.4116  -36.3048   24.0323 C   0  0  1  0  0  0
  -20.5919  -28.3716   23.1254 C   0  0  2  0  0  0
  -20.6816  -26.9430   22.5403 C   0  0  0  0  0  0
  -19.5782  -26.6392   21.5214 C   0  0  0  0  0  0
  -18.1959  -26.7942   22.1624 C   0  0  0  0  0  0
  -19.1561  -28.8869   23.2883 C   0  0  0  0  0  0
  -18.9475  -30.1470   23.8911 C   0  0  0  0  0  0
  -17.6469  -30.6605   24.0549 C   0  0  0  0  0  0
  -25.9066  -34.9427   23.5092 C   0  0  0  0  0  0
  -16.5368  -29.9096   23.6322 C   0  0  0  0  0  0
  -16.7292  -28.6507   23.0355 C   0  0  0  0  0  0
  -26.4513  -31.6567   25.0726 C   0  0  0  0  0  0
  -25.3731  -31.3728   26.1445 C   0  0  0  0  0  0
  -27.0326  -30.2972   24.6230 C   0  0  0  0  0  0
  -27.6120  -32.4253   25.7468 C   0  0  0  0  0  0
  -27.5582  -37.1774   24.8460 C   0  0  0  0  0  0
  -21.4229  -29.3046   22.3621 N   0  0  0  0  0  0
  -26.4279  -37.3761   23.9428 N   0  0  0  0  0  0
  -24.7022  -31.0473   22.0955 N   0  0  0  0  0  0
  -23.4201  -28.8111   23.2968 O   0  0  0  0  0  0
  -28.3418  -26.3529   20.1047 O   0  0  0  0  0  0
  -26.5635  -34.8900   22.4666 O   0  0  0  0  0  0
  -23.5488  -32.1340   23.7258 O   0  0  0  0  0  0
  -31.4240  -17.8098   21.1462 C   0  0  0  0  0  0
  -30.2597  -17.3770   20.5555 C   0  0  0  0  0  0
  -30.1105  -19.7603   20.1855 C   0  0  0  0  0  0
  -28.5338  -23.5073   18.1886 C   0  0  0  0  0  0
  -29.3070  -22.4904   17.3314 C   0  0  0  0  0  0
  -29.3872  -21.0945   18.0027 C   0  0  0  0  0  0
  -29.8141  -21.1707   19.4869 C   0  0  1  0  0  0
  -28.9885  -23.6634   19.6624 C   0  0  1  0  0  0
  -28.1760  -24.8744   20.4221 C   0  0  0  0  0  0
  -29.5036  -18.5205   20.0620 N   0  0  0  0  0  0
  -29.8697  -15.9369   20.5370 N   0  0  0  0  0  0
  -28.9897  -22.2177   20.2577 N   0  3  0  0  0  0
  -27.5983  -24.1282   17.6828 O   0  0  0  0  0  0
  -31.6343  -19.5542   21.0633 S   0  0  0  0  0  0
  -31.4784  -12.5771   19.1796 H   0  0  0  0  0  0
  -30.3587  -11.4985   19.9636 H   0  0  0  0  0  0
  -29.8041  -11.7459   17.5179 H   0  0  0  0  0  0
  -29.6451  -13.4755   17.7167 H   0  0  0  0  0  0
  -27.8908  -11.2988   18.8989 H   0  0  0  0  0  0
  -27.3851  -12.5540   17.7905 H   0  0  0  0  0  0
  -27.6315  -14.2647   19.4558 H   0  0  0  0  0  0
  -28.7222  -12.2102   21.4359 H   0  0  0  0  0  0
  -28.4241  -13.8977   21.7751 H   0  0  0  0  0  0
  -25.2785   -9.5686   22.4753 H   0  0  0  0  0  0
  -24.0062   -7.4588   22.7419 H   0  0  0  0  0  0
  -21.0871   -8.8790   19.8936 H   0  0  0  0  0  0
  -22.3733  -10.9689   19.6178 H   0  0  0  0  0  0
  -21.1971   -7.6141   23.9749 H   0  0  0  0  0  0
  -21.1529   -6.0494   25.9096 H   0  0  0  0  0  0
  -22.0582   -2.7618   23.2802 H   0  0  0  0  0  0
  -22.4052  -11.9871   22.4864 H   0  0  0  0  0  0
  -21.1069  -13.1267   22.2671 H   0  0  0  0  0  0
  -24.6184  -15.8257   20.4633 H   0  0  0  0  0  0
  -26.2364  -15.6329   20.0191 H   0  0  0  0  0  0
  -26.7219  -32.5395   23.1064 H   0  0  0  0  0  0
  -25.0092  -33.9701   25.0416 H   0  0  0  0  0  0
  -22.7320  -31.2972   21.3929 H   0  0  0  0  0  0
  -23.3780  -35.9553   23.3251 H   0  0  0  0  0  0
  -24.3597  -36.8906   22.2049 H   0  0  0  0  0  0
  -23.7211  -37.6420   23.6674 H   0  0  0  0  0  0
  -26.1371  -31.5064   20.6121 H   0  0  0  0  0  0
  -26.8547  -30.7985   22.0261 H   0  0  0  0  0  0
  -28.1323  -28.8997   21.2008 H   0  0  0  0  0  0
  -25.9786  -25.8962   18.9755 H   0  0  0  0  0  0
  -23.9961  -27.3183   18.9631 H   0  0  0  0  0  0
  -23.8038  -30.5902   19.4044 H   0  0  0  0  0  0
  -22.7759  -29.2567   19.8311 H   0  0  0  0  0  0
  -25.1301  -36.1865   25.0812 H   0  0  0  0  0  0
  -21.0054  -28.3312   24.1357 H   0  0  0  0  0  0
  -20.5765  -26.2309   23.3609 H   0  0  0  0  0  0
  -21.6678  -26.7490   22.1162 H   0  0  0  0  0  0
  -19.6950  -25.6297   21.1253 H   0  0  0  0  0  0
  -19.6718  -27.3196   20.6734 H   0  0  0  0  0  0
  -17.4236  -26.6674   21.4028 H   0  0  0  0  0  0
  -18.0382  -26.0107   22.9042 H   0  0  0  0  0  0
  -19.7943  -30.7287   24.2299 H   0  0  0  0  0  0
  -17.5015  -31.6292   24.5146 H   0  0  0  0  0  0
  -15.5362  -30.2989   23.7659 H   0  0  0  0  0  0
  -15.8691  -28.0817   22.7078 H   0  0  0  0  0  0
  -24.5893  -30.7115   25.7734 H   0  0  0  0  0  0
  -24.8950  -32.2904   26.4881 H   0  0  0  0  0  0
  -25.8021  -30.8852   27.0210 H   0  0  0  0  0  0
  -26.2884  -29.6731   24.1275 H   0  0  0  0  0  0
  -27.3997  -29.7236   25.4748 H   0  0  0  0  0  0
  -27.8790  -30.4220   23.9479 H   0  0  0  0  0  0
  -27.2829  -33.3600   26.2016 H   0  0  0  0  0  0
  -28.3940  -32.6705   25.0269 H   0  0  0  0  0  0
  -28.0773  -31.8363   26.5386 H   0  0  0  0  0  0
  -28.2565  -38.0108   24.7571 H   0  0  0  0  0  0
  -28.1105  -36.2641   24.6193 H   0  0  0  0  0  0
  -27.2320  -37.1332   25.8866 H   0  0  0  0  0  0
  -20.9427  -29.8674   21.6737 H   0  0  0  0  0  0
  -26.0133  -38.2811   24.1481 H   0  0  0  0  0  0
  -32.1877  -17.2162   21.6326 H   0  0  0  0  0  0
  -30.3102  -22.8817   17.1501 H   0  0  0  0  0  0
  -28.8337  -22.4096   16.3499 H   0  0  0  0  0  0
  -30.0938  -20.4775   17.4440 H   0  0  0  0  0  0
  -28.4252  -20.5879   17.9184 H   0  0  0  0  0  0
  -30.8052  -21.6283   19.4553 H   0  0  0  0  0  0
  -30.0335  -23.9735   19.6513 H   0  0  0  0  0  0
  -28.4942  -24.8211   21.4642 H   0  0  0  0  0  0
  -27.1181  -24.6137   20.4713 H   0  0  0  0  0  0
  -28.8769  -15.7735   20.5708 H   0  0  0  0  0  0
  -29.3489  -22.2578   21.1984 H   0  0  0  0  0  0
  -28.0449  -21.8691   20.3162 H   0  0  0  0  0  0
  1 25  1  0  0  0
  1 30  2  0  0  0
  1 81  1  0  0  0
  2  3  1  0  0  0
  2 25  1  0  0  0
  2 85  1  0  0  0
  2 86  1  0  0  0
  3  4  1  0  0  0
  3 87  1  0  0  0
  3 88  1  0  0  0
  4  5  1  0  0  0
  4 89  1  0  0  0
  4 90  1  0  0  0
  5  6  1  0  0  0
  5 26  1  0  0  0
  5 91  1  0  0  0
  6 25  1  0  0  0
  6 92  1  0  0  0
  6 93  1  0  0  0
  7  8  2  0  0  0
  7 26  1  0  0  0
  7 29  1  0  0  0
  8  9  1  0  0  0
  8 22  1  0  0  0
  9 10  1  0  0  0
  9 27  2  0  0  0
 10 11  2  0  0  0
 10 15  1  0  0  0
 11 12  1  0  0  0
 11 94  1  0  0  0
 12 13  2  0  0  0
 12 95  1  0  0  0
 13 14  1  0  0  0
 13 31  1  0  0  0
 14 15  2  0  0  0
 14 96  1  0  0  0
 15 97  1  0  0  0
 16 17  2  0  0  0
 16 21  1  0  0  0
 16 31  1  0  0  0
 17 18  1  0  0  0
 17 98  1  0  0  0
 18 19  2  0  0  0
 18 99  1  0  0  0
 19 20  1  0  0  0
 19 24  1  0  0  0
 20 21  2  0  0  0
 20100  1  0  0  0
 21 23  1  0  0  0
 22 28  1  0  0  0
 22 32  2  0  0  0
 26 27  1  0  0  0
 28101  1  0  0  0
 28102  1  0  0  0
 29103  1  0  0  0
 29104  1  0  0  0
 33 34  1  0  0  0
 33 66  1  0  0  0
 33 70  2  0  0  0
 34 36  1  0  0  0
 34 59  1  0  0  0
 34105  1  0  0  0
 35 44  2  0  0  0
 35 45  1  0  0  0
 35 68  1  0  0  0
 36 56  1  0  0  0
 36106  1  0  0  0
 37 39  1  0  0  0
 37 47  1  0  0  0
 37 66  1  0  0  0
 37107  1  0  0  0
 38 43  2  0  0  0
 38 46  1  0  0  0
 38 47  1  0  0  0
 39 64  1  0  0  0
 39 67  2  0  0  0
 40 52  1  0  0  0
 40 53  2  0  0  0
 40 58  1  0  0  0
 41108  1  0  0  0
 41109  1  0  0  0
 41110  1  0  0  0
 41 48  1  0  0  0
 42 43  1  0  0  0
 42 66  1  0  0  0
 42111  1  0  0  0
 42112  1  0  0  0
 43 44  1  0  0  0
 44113  1  0  0  0
 45 46  2  0  0  0
 45114  1  0  0  0
 46115  1  0  0  0
 47116  1  0  0  0
 47117  1  0  0  0
 48 56  1  0  0  0
 48 65  1  0  0  0
 48118  1  0  0  0
 49 50  1  0  0  0
 49 53  1  0  0  0
 49 64  1  0  0  0
 49119  1  0  0  0
 50 51  1  0  0  0
 50120  1  0  0  0
 50121  1  0  0  0
 51 52  1  0  0  0
 51122  1  0  0  0
 51123  1  0  0  0
 52124  1  0  0  0
 52125  1  0  0  0
 53 54  1  0  0  0
 54 55  2  0  0  0
 54126  1  0  0  0
 55 57  1  0  0  0
 55127  1  0  0  0
 56 69  2  0  0  0
 57 58  2  0  0  0
 57128  1  0  0  0
 58129  1  0  0  0
 59 60  1  0  0  0
 59 61  1  0  0  0
 59 62  1  0  0  0
 60130  1  0  0  0
 60131  1  0  0  0
 60132  1  0  0  0
 61133  1  0  0  0
 61134  1  0  0  0
 61135  1  0  0  0
 62136  1  0  0  0
 62137  1  0  0  0
 62138  1  0  0  0
 63 65  1  0  0  0
 63139  1  0  0  0
 63140  1  0  0  0
 63141  1  0  0  0
 64142  1  0  0  0
 65143  1  0  0  0
 68 79  1  0  0  0
 71 72  2  0  0  0
 71 84  1  0  0  0
 71144  1  0  0  0
 72 80  1  0  0  0
 72 81  1  0  0  0
 73 80  2  0  0  0
 73 84  1  0  0  0
 73 77  1  0  0  0
 74 75  1  0  0  0
 74 78  1  0  0  0
 74 83  2  0  0  0
 75 76  1  0  0  0
 75145  1  0  0  0
 75146  1  0  0  0
 76 77  1  0  0  0
 76147  1  0  0  0
 76148  1  0  0  0
 77 82  1  0  0  0
 77149  1  0  0  0
 78 79  1  0  0  0
 78 82  1  0  0  0
 78150  1  0  0  0
 79151  1  0  0  0
 79152  1  0  0  0
 81153  1  0  0  0
 82154  1  0  0  0
 82155  1  0  0  0
M  CHG  1  82   1
M  ISO  4   1 100  68 101  79 101  81 100
M  END
> <chiral flag>
0

> <version>
0

> <s_m_source_file>
/data/baiqing/PycharmProjects/Reinvent-master-3.2/result/LINK_invent/BTK/process_docking_weight1_custom_product_contain_oxygen_bond_distance_aromatic_linkinvent_7_9_3/rearranged_h_0184.sdf

> <i_m_source_file_index>
47

> <r_mmod_Potential_Energy-OPLS-2005>
-93.6704025268555

> <r_mmod_Stretch_Energy-OPLS-2005>
148.650650024414

> <r_mmod_Bend_Energy-OPLS-2005>
204.508224487305

> <r_mmod_Torsional_Energy-OPLS-2005>
236.989349365234

> <r_mmod_Improper_Torsional_Energy-OPLS-2005>
7.90073537826538

> <r_mmod_Van_der_Waal_Energy-OPLS-2005>
116.280281066895

> <r_mmod_Electrostatic_Energy-OPLS-2005>
-399.256713867188

> <r_mmod_Solvation_Energy-OPLS-2005>
-504.687072753906

> <b_mmod_Minimization_Converged-OPLS-2005>
0

> <r_mmod_RMS_Derivative-OPLS-2005>
4.74070882797241

$$$$
47
                    3D
 Structure written by MMmdl.
150158  0  0  1  0            999 V2000
  -30.6545  -14.7472   20.4534 C   0  0  0  0  0  0
  -30.4218  -12.4583   19.4738 C   0  0  0  0  0  0
  -29.5043  -12.5027   18.2344 C   0  0  0  0  0  0
  -28.0324  -12.3293   18.6522 C   0  0  0  0  0  0
  -27.6371  -13.2405   19.8455 C   0  0  2  0  0  0
  -28.6853  -13.2051   20.9793 C   0  0  0  0  0  0
  -25.2487  -13.8218   20.5720 C   0  0  0  0  0  0
  -24.1788  -13.0442   20.9209 C   0  0  0  0  0  0
  -24.6398  -11.6927   20.8748 C   0  0  0  0  0  0
  -23.9080  -10.4296   21.0404 C   0  0  0  0  0  0
  -24.3628   -9.4210   21.9183 C   0  0  0  0  0  0
  -23.6299   -8.2246   22.0754 C   0  0  0  0  0  0
  -22.4281   -8.0284   21.3544 C   0  0  0  0  0  0
  -21.9919   -9.0259   20.4646 C   0  0  0  0  0  0
  -22.7251  -10.2137   20.3055 C   0  0  0  0  0  0
  -21.6856   -6.0738   22.5279 C   0  0  0  0  0  0
  -21.4016   -6.5641   23.8212 C   0  0  0  0  0  0
  -21.3661   -5.6793   24.9174 C   0  0  0  0  0  0
  -21.6044   -4.3056   24.7225 C   0  0  0  0  0  0
  -21.8818   -3.8149   23.4345 C   0  0  0  0  0  0
  -21.9193   -4.6966   22.3402 C   0  0  0  0  0  0
  -22.7808  -13.5214   21.1869 C   0  0  0  0  0  0
  -22.1661   -4.2151   21.0979 F   0  0  0  0  0  0
  -21.5629   -3.4539   25.7738 F   0  0  0  0  0  0
  -29.9834  -13.5434   20.3845 N   0  0  0  0  0  0
  -26.2924  -12.9447   20.3292 N   0  0  0  0  0  0
  -25.9334  -11.6578   20.5761 N   0  0  0  0  0  0
  -22.0464  -12.8198   22.0428 N   0  0  0  0  0  0
  -25.4122  -15.1952   20.4186 N   0  0  0  0  0  0
  -31.8574  -14.7520   20.1794 O   0  0  0  0  0  0
  -21.6644   -6.8882   21.4240 O   0  0  0  0  0  0
  -22.3482  -14.5518   20.6720 O   0  0  0  0  0  0
  -24.6340  -31.8560   23.2012 C   0  0  0  0  0  0
  -25.9163  -32.4759   23.8351 C   0  0  1  0  0  0
  -27.2072  -27.2401   20.1147 C   0  0  0  0  0  0
  -25.5954  -33.8563   24.2264 N   0  0  0  0  0  0
  -23.4303  -30.4835   21.5460 C   0  0  2  0  0  0
  -24.8741  -28.9384   20.1091 C   0  0  0  0  0  0
  -22.7516  -29.4612   22.4907 C   0  0  0  0  0  0
  -18.0297  -28.1389   22.8485 C   0  0  0  0  0  0
  -24.1490  -36.7280   23.2638 C   0  0  0  0  0  0
  -25.9817  -30.7590   21.3896 C   0  0  0  0  0  0
  -26.0494  -29.3825   20.7270 C   0  0  0  0  0  0
  -27.2156  -28.5442   20.7266 C   0  0  0  0  0  0
  -26.0059  -26.8917   19.4480 C   0  0  0  0  0  0
  -24.8589  -27.7007   19.4600 C   0  0  0  0  0  0
  -23.6487  -29.8284   20.1594 C   0  0  0  0  0  0
  -25.4119  -36.3070   24.0322 C   0  0  1  0  0  0
  -20.5905  -28.3707   23.1258 C   0  0  2  0  0  0
  -20.6787  -26.9423   22.5401 C   0  0  0  0  0  0
  -19.5758  -26.6386   21.5212 C   0  0  0  0  0  0
  -18.1940  -26.7930   22.1627 C   0  0  0  0  0  0
  -19.1552  -28.8865   23.2868 C   0  0  0  0  0  0
  -18.9471  -30.1465   23.8888 C   0  0  0  0  0  0
  -17.6469  -30.6590   24.0564 C   0  0  0  0  0  0
  -25.9063  -34.9441   23.5091 C   0  0  0  0  0  0
  -16.5360  -29.9086   23.6333 C   0  0  0  0  0  0
  -16.7283  -28.6503   23.0354 C   0  0  0  0  0  0
  -26.4514  -31.6586   25.0747 C   0  0  0  0  0  0
  -25.3722  -31.3747   26.1455 C   0  0  0  0  0  0
  -27.0367  -30.2994   24.6264 C   0  0  0  0  0  0
  -27.6064  -32.4331   25.7521 C   0  0  0  0  0  0
  -27.5577  -37.1799   24.8466 C   0  0  0  0  0  0
  -21.4222  -29.3055   22.3647 N   0  0  0  0  0  0
  -26.4291  -37.3770   23.9406 N   0  0  0  0  0  0
  -24.7013  -31.0509   22.1008 N   0  0  0  0  0  0
  -23.4209  -28.8137   23.3000 O   0  0  0  0  0  0
  -28.2803  -26.3040   20.1949 O   0  0  0  0  0  0
  -26.5632  -34.8914   22.4658 O   0  0  0  0  0  0
  -23.5484  -32.1398   23.7288 O   0  0  0  0  0  0
  -27.6574  -20.0196   20.2431 C   0  0  0  0  0  0
  -28.1345  -18.6586   20.3605 C   0  0  0  0  0  0
  -29.4869  -18.4948   20.5072 C   0  0  0  0  0  0
  -28.6106  -21.0245   20.2905 C   0  0  0  0  0  0
  -30.4047  -17.2480   20.5948 C   0  0  0  0  0  0
  -28.8733  -23.6307   20.2791 C   0  0  0  0  0  0
  -28.4112  -24.9675   18.1531 C   0  0  0  0  0  0
  -28.0913  -24.8988   19.6586 C   0  0  2  0  0  0
  -28.2997  -22.3835   20.0836 N   0  0  0  0  0  0
  -29.9323  -15.9339   20.5919 N   0  0  0  0  0  0
  -31.6152  -17.4890   20.6665 O   0  0  0  0  0  0
  -29.9382  -23.7823   20.8827 O   0  0  0  0  0  0
  -27.3064  -17.6397   20.3000 F   0  0  0  0  0  0
  -30.1751  -20.1712   20.5269 S   0  0  0  0  0  0
  -31.4642  -12.5584   19.1675 H   0  0  0  0  0  0
  -30.3520  -11.4902   19.9724 H   0  0  0  0  0  0
  -29.7866  -11.7230   17.5257 H   0  0  0  0  0  0
  -29.6313  -13.4527   17.7129 H   0  0  0  0  0  0
  -27.8932  -11.2826   18.9255 H   0  0  0  0  0  0
  -27.3730  -12.5105   17.8027 H   0  0  0  0  0  0
  -27.6208  -14.2566   19.4503 H   0  0  0  0  0  0
  -28.7225  -12.2201   21.4469 H   0  0  0  0  0  0
  -28.4236  -13.9117   21.7685 H   0  0  0  0  0  0
  -25.2772   -9.5686   22.4759 H   0  0  0  0  0  0
  -24.0008   -7.4638   22.7473 H   0  0  0  0  0  0
  -21.0851   -8.8779   19.8952 H   0  0  0  0  0  0
  -22.3709  -10.9675   19.6165 H   0  0  0  0  0  0
  -21.2009   -7.6149   23.9716 H   0  0  0  0  0  0
  -21.1483   -6.0524   25.9077 H   0  0  0  0  0  0
  -22.0597   -2.7610   23.2845 H   0  0  0  0  0  0
  -22.4096  -11.9865   22.4812 H   0  0  0  0  0  0
  -21.1081  -13.1211   22.2639 H   0  0  0  0  0  0
  -24.6413  -15.8395   20.5531 H   0  0  0  0  0  0
  -26.2629  -15.6655   20.1357 H   0  0  0  0  0  0
  -26.7225  -32.5395   23.1086 H   0  0  0  0  0  0
  -25.0104  -33.9706   25.0411 H   0  0  0  0  0  0
  -22.7278  -31.3076   21.4045 H   0  0  0  0  0  0
  -23.3756  -35.9610   23.3302 H   0  0  0  0  0  0
  -24.3577  -36.8903   22.2052 H   0  0  0  0  0  0
  -23.7238  -37.6479   23.6663 H   0  0  0  0  0  0
  -26.1297  -31.5202   20.6223 H   0  0  0  0  0  0
  -26.8563  -30.8019   22.0268 H   0  0  0  0  0  0
  -28.1093  -28.8752   21.2370 H   0  0  0  0  0  0
  -25.8875  -25.9695   18.9045 H   0  0  0  0  0  0
  -23.9634  -27.3603   18.9585 H   0  0  0  0  0  0
  -23.7785  -30.6100   19.4098 H   0  0  0  0  0  0
  -22.7648  -29.2685   19.8488 H   0  0  0  0  0  0
  -25.1299  -36.1918   25.0815 H   0  0  0  0  0  0
  -21.0000  -28.3287   24.1378 H   0  0  0  0  0  0
  -20.5693  -26.2320   23.3611 H   0  0  0  0  0  0
  -21.6652  -26.7448   22.1190 H   0  0  0  0  0  0
  -19.6920  -25.6294   21.1247 H   0  0  0  0  0  0
  -19.6687  -27.3192   20.6739 H   0  0  0  0  0  0
  -17.4206  -26.6679   21.4032 H   0  0  0  0  0  0
  -18.0341  -26.0072   22.9025 H   0  0  0  0  0  0
  -19.7947  -30.7286   24.2249 H   0  0  0  0  0  0
  -17.5022  -31.6267   24.5169 H   0  0  0  0  0  0
  -15.5360  -30.2986   23.7659 H   0  0  0  0  0  0
  -15.8684  -28.0820   22.7073 H   0  0  0  0  0  0
  -24.5909  -30.7084   25.7778 H   0  0  0  0  0  0
  -24.8902  -32.2920   26.4846 H   0  0  0  0  0  0
  -25.8025  -30.8946   27.0254 H   0  0  0  0  0  0
  -26.2965  -29.6736   24.1263 H   0  0  0  0  0  0
  -27.4000  -29.7264   25.4807 H   0  0  0  0  0  0
  -27.8867  -30.4251   23.9554 H   0  0  0  0  0  0
  -27.2671  -33.3642   26.2074 H   0  0  0  0  0  0
  -28.3887  -32.6874   25.0356 H   0  0  0  0  0  0
  -28.0719  -31.8472   26.5457 H   0  0  0  0  0  0
  -28.2597  -38.0094   24.7509 H   0  0  0  0  0  0
  -28.1070  -36.2624   24.6299 H   0  0  0  0  0  0
  -27.2293  -37.1456   25.8869 H   0  0  0  0  0  0
  -20.9409  -29.8788   21.6859 H   0  0  0  0  0  0
  -26.0168  -38.2843   24.1410 H   0  0  0  0  0  0
  -26.6024  -20.2037   20.1021 H   0  0  0  0  0  0
  -28.2725  -24.0016   17.6662 H   0  0  0  0  0  0
  -29.4466  -25.2703   17.9940 H   0  0  0  0  0  0
  -27.7801  -25.6848   17.6308 H   0  0  0  0  0  0
  -27.0587  -24.5942   19.8129 H   0  0  0  0  0  0
  -27.3896  -22.4997   19.6586 H   0  0  0  0  0  0
  -28.9321  -15.8386   20.6401 H   0  0  0  0  0  0
  1 25  1  0  0  0
  1 30  2  0  0  0
  1 80  1  0  0  0
  2  3  1  0  0  0
  2 25  1  0  0  0
  2 85  1  0  0  0
  2 86  1  0  0  0
  3  4  1  0  0  0
  3 87  1  0  0  0
  3 88  1  0  0  0
  4  5  1  0  0  0
  4 89  1  0  0  0
  4 90  1  0  0  0
  5  6  1  0  0  0
  5 26  1  0  0  0
  5 91  1  0  0  0
  6 25  1  0  0  0
  6 92  1  0  0  0
  6 93  1  0  0  0
  7  8  2  0  0  0
  7 26  1  0  0  0
  7 29  1  0  0  0
  8  9  1  0  0  0
  8 22  1  0  0  0
  9 10  1  0  0  0
  9 27  2  0  0  0
 10 11  2  0  0  0
 10 15  1  0  0  0
 11 12  1  0  0  0
 11 94  1  0  0  0
 12 13  2  0  0  0
 12 95  1  0  0  0
 13 14  1  0  0  0
 13 31  1  0  0  0
 14 15  2  0  0  0
 14 96  1  0  0  0
 15 97  1  0  0  0
 16 17  2  0  0  0
 16 21  1  0  0  0
 16 31  1  0  0  0
 17 18  1  0  0  0
 17 98  1  0  0  0
 18 19  2  0  0  0
 18 99  1  0  0  0
 19 20  1  0  0  0
 19 24  1  0  0  0
 20 21  2  0  0  0
 20100  1  0  0  0
 21 23  1  0  0  0
 22 28  1  0  0  0
 22 32  2  0  0  0
 26 27  1  0  0  0
 28101  1  0  0  0
 28102  1  0  0  0
 29103  1  0  0  0
 29104  1  0  0  0
 33 34  1  0  0  0
 33 66  1  0  0  0
 33 70  2  0  0  0
 34 36  1  0  0  0
 34 59  1  0  0  0
 34105  1  0  0  0
 35 44  2  0  0  0
 35 45  1  0  0  0
 35 68  1  0  0  0
 36 56  1  0  0  0
 36106  1  0  0  0
 37 39  1  0  0  0
 37 47  1  0  0  0
 37 66  1  0  0  0
 37107  1  0  0  0
 38 43  2  0  0  0
 38 46  1  0  0  0
 38 47  1  0  0  0
 39 64  1  0  0  0
 39 67  2  0  0  0
 40 52  1  0  0  0
 40 53  2  0  0  0
 40 58  1  0  0  0
 41108  1  0  0  0
 41109  1  0  0  0
 41110  1  0  0  0
 41 48  1  0  0  0
 42 43  1  0  0  0
 42 66  1  0  0  0
 42111  1  0  0  0
 42112  1  0  0  0
 43 44  1  0  0  0
 44113  1  0  0  0
 45 46  2  0  0  0
 45114  1  0  0  0
 46115  1  0  0  0
 47116  1  0  0  0
 47117  1  0  0  0
 48 56  1  0  0  0
 48 65  1  0  0  0
 48118  1  0  0  0
 49 50  1  0  0  0
 49 53  1  0  0  0
 49 64  1  0  0  0
 49119  1  0  0  0
 50 51  1  0  0  0
 50120  1  0  0  0
 50121  1  0  0  0
 51 52  1  0  0  0
 51122  1  0  0  0
 51123  1  0  0  0
 52124  1  0  0  0
 52125  1  0  0  0
 53 54  1  0  0  0
 54 55  2  0  0  0
 54126  1  0  0  0
 55 57  1  0  0  0
 55127  1  0  0  0
 56 69  2  0  0  0
 57 58  2  0  0  0
 57128  1  0  0  0
 58129  1  0  0  0
 59 60  1  0  0  0
 59 61  1  0  0  0
 59 62  1  0  0  0
 60130  1  0  0  0
 60131  1  0  0  0
 60132  1  0  0  0
 61133  1  0  0  0
 61134  1  0  0  0
 61135  1  0  0  0
 62136  1  0  0  0
 62137  1  0  0  0
 62138  1  0  0  0
 63 65  1  0  0  0
 63139  1  0  0  0
 63140  1  0  0  0
 63141  1  0  0  0
 64142  1  0  0  0
 65143  1  0  0  0
 68 78  1  0  0  0
 71 72  1  0  0  0
 71 74  2  0  0  0
 71144  1  0  0  0
 72 73  2  0  0  0
 72 83  1  0  0  0
 73 75  1  0  0  0
 73 84  1  0  0  0
 74 79  1  0  0  0
 74 84  1  0  0  0
 75 80  1  0  0  0
 75 81  2  0  0  0
 76 78  1  0  0  0
 76 79  1  0  0  0
 76 82  2  0  0  0
 77145  1  0  0  0
 77146  1  0  0  0
 77147  1  0  0  0
 77 78  1  0  0  0
 78148  1  0  0  0
 79149  1  0  0  0
 80150  1  0  0  0
M  ISO  4   1 100  68 101  78 101  80 100
M  END
> <chiral flag>
0

> <version>
0

> <s_m_source_file>
/data/baiqing/PycharmProjects/Reinvent-master-3.2/result/LINK_invent/BTK/process_docking_weight1_custom_product_contain_oxygen_bond_distance_aromatic_linkinvent_7_9_3/rearranged_h_0184.sdf

> <i_m_source_file_index>
48

> <r_mmod_Potential_Energy-OPLS-2005>
85.2642593383789

> <r_mmod_Stretch_Energy-OPLS-2005>
121.768348693848

> <r_mmod_Bend_Energy-OPLS-2005>
205.458221435547

> <r_mmod_Torsional_Energy-OPLS-2005>
217.278427124023

> <r_mmod_Improper_Torsional_Energy-OPLS-2005>
5.37899351119995

> <r_mmod_Van_der_Waal_Energy-OPLS-2005>
129.808471679688

> <r_mmod_Electrostatic_Energy-OPLS-2005>
-432.945159912109

> <r_mmod_Solvation_Energy-OPLS-2005>
-258.904479980469

> <b_mmod_Minimization_Converged-OPLS-2005>
0

> <r_mmod_RMS_Derivative-OPLS-2005>
0.376452624797821

$$$$
48
                    3D
 Structure written by MMmdl.
150158  0  0  1  0            999 V2000
  -30.5477  -14.7652   20.4946 C   0  0  0  0  0  0
  -30.4601  -12.4728   19.4634 C   0  0  0  0  0  0
  -29.5189  -12.5249   18.2355 C   0  0  0  0  0  0
  -28.0439  -12.3385   18.6483 C   0  0  0  0  0  0
  -27.6527  -13.2183   19.8639 C   0  0  2  0  0  0
  -28.7014  -13.0931   20.9930 C   0  0  0  0  0  0
  -25.2536  -13.8143   20.5636 C   0  0  0  0  0  0
  -24.1814  -13.0413   20.9161 C   0  0  0  0  0  0
  -24.6400  -11.6892   20.8741 C   0  0  0  0  0  0
  -23.9067  -10.4281   21.0408 C   0  0  0  0  0  0
  -24.3615   -9.4202   21.9190 C   0  0  0  0  0  0
  -23.6288   -8.2239   22.0758 C   0  0  0  0  0  0
  -22.4271   -8.0277   21.3547 C   0  0  0  0  0  0
  -21.9905   -9.0254   20.4653 C   0  0  0  0  0  0
  -22.7237  -10.2129   20.3061 C   0  0  0  0  0  0
  -21.6852   -6.0733   22.5281 C   0  0  0  0  0  0
  -21.4016   -6.5637   23.8216 C   0  0  0  0  0  0
  -21.3659   -5.6787   24.9176 C   0  0  0  0  0  0
  -21.6041   -4.3049   24.7226 C   0  0  0  0  0  0
  -21.8819   -3.8143   23.4347 C   0  0  0  0  0  0
  -21.9194   -4.6961   22.3404 C   0  0  0  0  0  0
  -22.7839  -13.5222   21.1827 C   0  0  0  0  0  0
  -22.1660   -4.2144   21.0982 F   0  0  0  0  0  0
  -21.5625   -3.4534   25.7741 F   0  0  0  0  0  0
  -30.0055  -13.4953   20.4336 N   0  0  0  0  0  0
  -26.2993  -12.9338   20.3329 N   0  0  0  0  0  0
  -25.9338  -11.6492   20.5779 N   0  0  0  0  0  0
  -22.0475  -12.8244   22.0400 N   0  0  0  0  0  0
  -25.4181  -15.1856   20.3996 N   0  0  0  0  0  0
  -31.6973  -14.9737   20.0892 O   0  0  0  0  0  0
  -21.6634   -6.8877   21.4245 O   0  0  0  0  0  0
  -22.3526  -14.5529   20.6672 O   0  0  0  0  0  0
  -24.6337  -31.8537   23.1973 C   0  0  0  0  0  0
  -25.9153  -32.4748   23.8325 C   0  0  1  0  0  0
  -27.2268  -27.2429   20.1255 C   0  0  0  0  0  0
  -25.5939  -33.8550   24.2245 N   0  0  0  0  0  0
  -23.4320  -30.4759   21.5416 C   0  0  2  0  0  0
  -24.8803  -28.9205   20.1124 C   0  0  0  0  0  0
  -22.7516  -29.4597   22.4909 C   0  0  0  0  0  0
  -18.0292  -28.1391   22.8480 C   0  0  0  0  0  0
  -24.1491  -36.7280   23.2639 C   0  0  0  0  0  0
  -25.9808  -30.7609   21.3802 C   0  0  0  0  0  0
  -26.0549  -29.3820   20.7199 C   0  0  0  0  0  0
  -27.2303  -28.5580   20.7120 C   0  0  0  0  0  0
  -26.0222  -26.8562   19.4923 C   0  0  0  0  0  0
  -24.8706  -27.6661   19.4873 C   0  0  0  0  0  0
  -23.6522  -29.8100   20.1583 C   0  0  0  0  0  0
  -25.4119  -36.3065   24.0322 C   0  0  1  0  0  0
  -20.5898  -28.3706   23.1261 C   0  0  2  0  0  0
  -20.6783  -26.9423   22.5401 C   0  0  0  0  0  0
  -19.5759  -26.6384   21.5208 C   0  0  0  0  0  0
  -18.1940  -26.7932   22.1622 C   0  0  0  0  0  0
  -19.1547  -28.8865   23.2866 C   0  0  0  0  0  0
  -18.9467  -30.1463   23.8889 C   0  0  0  0  0  0
  -17.6467  -30.6595   24.0556 C   0  0  0  0  0  0
  -25.9062  -34.9436   23.5088 C   0  0  0  0  0  0
  -16.5357  -29.9090   23.6330 C   0  0  0  0  0  0
  -16.7279  -28.6504   23.0356 C   0  0  0  0  0  0
  -26.4508  -31.6577   25.0721 C   0  0  0  0  0  0
  -25.3718  -31.3736   26.1431 C   0  0  0  0  0  0
  -27.0356  -30.2989   24.6225 C   0  0  0  0  0  0
  -27.6063  -32.4315   25.7495 C   0  0  0  0  0  0
  -27.5582  -37.1795   24.8464 C   0  0  0  0  0  0
  -21.4221  -29.3047   22.3649 N   0  0  0  0  0  0
  -26.4291  -37.3769   23.9411 N   0  0  0  0  0  0
  -24.7015  -31.0481   22.0960 N   0  0  0  0  0  0
  -23.4203  -28.8138   23.3020 O   0  0  0  0  0  0
  -28.3206  -26.3341   20.1772 O   0  0  0  0  0  0
  -26.5638  -34.8916   22.4661 O   0  0  0  0  0  0
  -23.5478  -32.1367   23.7249 O   0  0  0  0  0  0
  -29.3911  -17.2015   20.9475 C   0  0  0  0  0  0
  -28.2205  -17.4851   21.6001 C   0  0  0  0  0  0
  -29.1899  -19.5818   20.7029 C   0  0  0  0  0  0
  -28.6627  -22.1294   20.3889 C   0  0  0  0  0  0
  -30.2550  -23.7774   19.1837 C   0  0  0  0  0  0
  -28.0568  -24.8445   20.0604 C   0  0  0  0  0  0
  -29.1715  -23.6623   20.2695 C   0  0  1  0  0  0
  -29.9623  -18.4452   20.4371 N   0  0  0  0  0  0
  -29.6760  -15.7396   20.9438 N   0  0  0  0  0  0
  -29.5005  -21.0067   20.3757 N   0  0  0  0  0  0
  -27.4432  -21.9797   20.4783 O   0  0  0  0  0  0
  -27.4630  -16.5304   22.1947 F   0  0  0  0  0  0
  -27.7357  -19.1546   21.6202 S   0  0  0  0  0  0
  -31.4926  -12.6410   19.1533 H   0  0  0  0  0  0
  -30.4436  -11.4824   19.9203 H   0  0  0  0  0  0
  -29.8023  -11.7597   17.5114 H   0  0  0  0  0  0
  -29.6350  -13.4832   17.7272 H   0  0  0  0  0  0
  -27.9011  -11.2859   18.8957 H   0  0  0  0  0  0
  -27.3852  -12.5420   17.8031 H   0  0  0  0  0  0
  -27.6600  -14.2494   19.5095 H   0  0  0  0  0  0
  -28.7467  -12.0661   21.3590 H   0  0  0  0  0  0
  -28.4201  -13.6963   21.8571 H   0  0  0  0  0  0
  -25.2756   -9.5675   22.4769 H   0  0  0  0  0  0
  -23.9989   -7.4632   22.7482 H   0  0  0  0  0  0
  -21.0828   -8.8784   19.8965 H   0  0  0  0  0  0
  -22.3700  -10.9673   19.6170 H   0  0  0  0  0  0
  -21.2011   -7.6144   23.9720 H   0  0  0  0  0  0
  -21.1478   -6.0516   25.9080 H   0  0  0  0  0  0
  -22.0598   -2.7604   23.2850 H   0  0  0  0  0  0
  -22.4071  -11.9917   22.4823 H   0  0  0  0  0  0
  -21.1102  -13.1307   22.2594 H   0  0  0  0  0  0
  -24.6592  -15.8390   20.5563 H   0  0  0  0  0  0
  -26.2909  -15.6423   20.1745 H   0  0  0  0  0  0
  -26.7220  -32.5394   23.1063 H   0  0  0  0  0  0
  -25.0063  -33.9682   25.0374 H   0  0  0  0  0  0
  -22.7296  -31.2989   21.3942 H   0  0  0  0  0  0
  -23.3757  -35.9609   23.3294 H   0  0  0  0  0  0
  -24.3577  -36.8912   22.2054 H   0  0  0  0  0  0
  -23.7240  -37.6476   23.6671 H   0  0  0  0  0  0
  -26.1222  -31.5229   20.6122 H   0  0  0  0  0  0
  -26.8563  -30.8086   22.0162 H   0  0  0  0  0  0
  -28.1287  -28.9087   21.2001 H   0  0  0  0  0  0
  -25.9312  -25.9005   19.0010 H   0  0  0  0  0  0
  -23.9716  -27.3069   19.0052 H   0  0  0  0  0  0
  -23.7812  -30.5866   19.4036 H   0  0  0  0  0  0
  -22.7697  -29.2463   19.8505 H   0  0  0  0  0  0
  -25.1302  -36.1906   25.0813 H   0  0  0  0  0  0
  -20.9985  -28.3286   24.1385 H   0  0  0  0  0  0
  -20.5689  -26.2319   23.3607 H   0  0  0  0  0  0
  -21.6653  -26.7453   22.1195 H   0  0  0  0  0  0
  -19.6925  -25.6290   21.1253 H   0  0  0  0  0  0
  -19.6698  -27.3181   20.6727 H   0  0  0  0  0  0
  -17.4208  -26.6666   21.4028 H   0  0  0  0  0  0
  -18.0352  -26.0079   22.9025 H   0  0  0  0  0  0
  -19.7942  -30.7277   24.2264 H   0  0  0  0  0  0
  -17.5021  -31.6277   24.5156 H   0  0  0  0  0  0
  -15.5358  -30.2990   23.7661 H   0  0  0  0  0  0
  -15.8676  -28.0819   22.7085 H   0  0  0  0  0  0
  -24.5882  -30.7109   25.7742 H   0  0  0  0  0  0
  -24.8924  -32.2909   26.4859 H   0  0  0  0  0  0
  -25.8011  -30.8893   27.0209 H   0  0  0  0  0  0
  -26.2947  -29.6735   24.1232 H   0  0  0  0  0  0
  -27.4008  -29.7259   25.4758 H   0  0  0  0  0  0
  -27.8839  -30.4257   23.9496 H   0  0  0  0  0  0
  -27.2676  -33.3612   26.2078 H   0  0  0  0  0  0
  -28.3871  -32.6879   25.0322 H   0  0  0  0  0  0
  -28.0738  -31.8438   26.5404 H   0  0  0  0  0  0
  -28.2590  -38.0101   24.7520 H   0  0  0  0  0  0
  -28.1085  -36.2631   24.6278 H   0  0  0  0  0  0
  -27.2300  -37.1430   25.8866 H   0  0  0  0  0  0
  -20.9417  -29.8763   21.6840 H   0  0  0  0  0  0
  -26.0165  -38.2840   24.1420 H   0  0  0  0  0  0
  -31.0667  -23.0657   19.3361 H   0  0  0  0  0  0
  -30.6972  -24.7740   19.1853 H   0  0  0  0  0  0
  -29.8388  -23.6027   18.1910 H   0  0  0  0  0  0
  -27.2348  -24.6300   20.7451 H   0  0  0  0  0  0
  -27.6581  -24.6735   19.0607 H   0  0  0  0  0  0
  -29.6497  -23.8620   21.2285 H   0  0  0  0  0  0
  -28.8802  -15.2677   21.3467 H   0  0  0  0  0  0
  -30.4699  -21.1934   20.1665 H   0  0  0  0  0  0
  1 25  1  0  0  0
  1 30  2  0  0  0
  1 79  1  0  0  0
  2  3  1  0  0  0
  2 25  1  0  0  0
  2 84  1  0  0  0
  2 85  1  0  0  0
  3  4  1  0  0  0
  3 86  1  0  0  0
  3 87  1  0  0  0
  4  5  1  0  0  0
  4 88  1  0  0  0
  4 89  1  0  0  0
  5  6  1  0  0  0
  5 26  1  0  0  0
  5 90  1  0  0  0
  6 25  1  0  0  0
  6 91  1  0  0  0
  6 92  1  0  0  0
  7  8  2  0  0  0
  7 26  1  0  0  0
  7 29  1  0  0  0
  8  9  1  0  0  0
  8 22  1  0  0  0
  9 10  1  0  0  0
  9 27  2  0  0  0
 10 11  2  0  0  0
 10 15  1  0  0  0
 11 12  1  0  0  0
 11 93  1  0  0  0
 12 13  2  0  0  0
 12 94  1  0  0  0
 13 14  1  0  0  0
 13 31  1  0  0  0
 14 15  2  0  0  0
 14 95  1  0  0  0
 15 96  1  0  0  0
 16 17  2  0  0  0
 16 21  1  0  0  0
 16 31  1  0  0  0
 17 18  1  0  0  0
 17 97  1  0  0  0
 18 19  2  0  0  0
 18 98  1  0  0  0
 19 20  1  0  0  0
 19 24  1  0  0  0
 20 21  2  0  0  0
 20 99  1  0  0  0
 21 23  1  0  0  0
 22 28  1  0  0  0
 22 32  2  0  0  0
 26 27  1  0  0  0
 28100  1  0  0  0
 28101  1  0  0  0
 29102  1  0  0  0
 29103  1  0  0  0
 33 34  1  0  0  0
 33 66  1  0  0  0
 33 70  2  0  0  0
 34 36  1  0  0  0
 34 59  1  0  0  0
 34104  1  0  0  0
 35 44  2  0  0  0
 35 45  1  0  0  0
 35 68  1  0  0  0
 36 56  1  0  0  0
 36105  1  0  0  0
 37 39  1  0  0  0
 37 47  1  0  0  0
 37 66  1  0  0  0
 37106  1  0  0  0
 38 43  2  0  0  0
 38 46  1  0  0  0
 38 47  1  0  0  0
 39 64  1  0  0  0
 39 67  2  0  0  0
 40 52  1  0  0  0
 40 53  2  0  0  0
 40 58  1  0  0  0
 41107  1  0  0  0
 41108  1  0  0  0
 41109  1  0  0  0
 41 48  1  0  0  0
 42 43  1  0  0  0
 42 66  1  0  0  0
 42110  1  0  0  0
 42111  1  0  0  0
 43 44  1  0  0  0
 44112  1  0  0  0
 45 46  2  0  0  0
 45113  1  0  0  0
 46114  1  0  0  0
 47115  1  0  0  0
 47116  1  0  0  0
 48 56  1  0  0  0
 48 65  1  0  0  0
 48117  1  0  0  0
 49 50  1  0  0  0
 49 53  1  0  0  0
 49 64  1  0  0  0
 49118  1  0  0  0
 50 51  1  0  0  0
 50119  1  0  0  0
 50120  1  0  0  0
 51 52  1  0  0  0
 51121  1  0  0  0
 51122  1  0  0  0
 52123  1  0  0  0
 52124  1  0  0  0
 53 54  1  0  0  0
 54 55  2  0  0  0
 54125  1  0  0  0
 55 57  1  0  0  0
 55126  1  0  0  0
 56 69  2  0  0  0
 57 58  2  0  0  0
 57127  1  0  0  0
 58128  1  0  0  0
 59 60  1  0  0  0
 59 61  1  0  0  0
 59 62  1  0  0  0
 60129  1  0  0  0
 60130  1  0  0  0
 60131  1  0  0  0
 61132  1  0  0  0
 61133  1  0  0  0
 61134  1  0  0  0
 62135  1  0  0  0
 62136  1  0  0  0
 62137  1  0  0  0
 63 65  1  0  0  0
 63138  1  0  0  0
 63139  1  0  0  0
 63140  1  0  0  0
 64141  1  0  0  0
 65142  1  0  0  0
 68 76  1  0  0  0
 71 72  2  0  0  0
 71 78  1  0  0  0
 71 79  1  0  0  0
 72 82  1  0  0  0
 72 83  1  0  0  0
 73 78  2  0  0  0
 73 80  1  0  0  0
 73 83  1  0  0  0
 74 77  1  0  0  0
 74 80  1  0  0  0
 74 81  2  0  0  0
 75143  1  0  0  0
 75144  1  0  0  0
 75145  1  0  0  0
 75 77  1  0  0  0
 76 77  1  0  0  0
 76146  1  0  0  0
 76147  1  0  0  0
 77148  1  0  0  0
 79149  1  0  0  0
 80150  1  0  0  0
M  ISO  4   1 100  68 101  76 101  79 100
M  END
> <chiral flag>
0

> <version>
0

> <s_m_source_file>
/data/baiqing/PycharmProjects/Reinvent-master-3.2/result/LINK_invent/BTK/process_docking_weight1_custom_product_contain_oxygen_bond_distance_aromatic_linkinvent_7_9_3/rearranged_h_0184.sdf

> <i_m_source_file_index>
49

> <r_mmod_Potential_Energy-OPLS-2005>
136.492324829102

> <r_mmod_Stretch_Energy-OPLS-2005>
141.982269287109

> <r_mmod_Bend_Energy-OPLS-2005>
241.994323730469

> <r_mmod_Torsional_Energy-OPLS-2005>
215.772583007812

> <r_mmod_Improper_Torsional_Energy-OPLS-2005>
2.9900484085083

> <r_mmod_Van_der_Waal_Energy-OPLS-2005>
122.940719604492

> <r_mmod_Electrostatic_Energy-OPLS-2005>
-453.983642578125

> <r_mmod_Solvation_Energy-OPLS-2005>
-230.639266967773

> <b_mmod_Minimization_Converged-OPLS-2005>
0

> <r_mmod_RMS_Derivative-OPLS-2005>
0.737216830253601

$$$$
49
                    3D
 Structure written by MMmdl.
150158  0  0  1  0            999 V2000
  -30.6072  -14.7123   20.4765 C   0  0  0  0  0  0
  -30.4390  -12.4330   19.4706 C   0  0  0  0  0  0
  -29.5140  -12.5163   18.2349 C   0  0  0  0  0  0
  -28.0383  -12.3422   18.6436 C   0  0  0  0  0  0
  -27.6496  -13.2264   19.8589 C   0  0  2  0  0  0
  -28.6933  -13.1191   20.9938 C   0  0  0  0  0  0
  -25.2540  -13.8180   20.5693 C   0  0  0  0  0  0
  -24.1814  -13.0436   20.9188 C   0  0  0  0  0  0
  -24.6398  -11.6913   20.8730 C   0  0  0  0  0  0
  -23.9069  -10.4292   21.0394 C   0  0  0  0  0  0
  -24.3616   -9.4207   21.9176 C   0  0  0  0  0  0
  -23.6287   -8.2246   22.0757 C   0  0  0  0  0  0
  -22.4272   -8.0282   21.3543 C   0  0  0  0  0  0
  -21.9904   -9.0259   20.4649 C   0  0  0  0  0  0
  -22.7237  -10.2135   20.3051 C   0  0  0  0  0  0
  -21.6853   -6.0732   22.5279 C   0  0  0  0  0  0
  -21.4016   -6.5633   23.8213 C   0  0  0  0  0  0
  -21.3660   -5.6785   24.9173 C   0  0  0  0  0  0
  -21.6048   -4.3049   24.7220 C   0  0  0  0  0  0
  -21.8820   -3.8141   23.4340 C   0  0  0  0  0  0
  -21.9191   -4.6959   22.3399 C   0  0  0  0  0  0
  -22.7835  -13.5231   21.1853 C   0  0  0  0  0  0
  -22.1660   -4.2144   21.0976 F   0  0  0  0  0  0
  -21.5630   -3.4538   25.7731 F   0  0  0  0  0  0
  -30.0042  -13.4741   20.4299 N   0  0  0  0  0  0
  -26.2973  -12.9380   20.3299 N   0  0  0  0  0  0
  -25.9328  -11.6524   20.5736 N   0  0  0  0  0  0
  -22.0469  -12.8235   22.0410 N   0  0  0  0  0  0
  -25.4230  -15.1906   20.4129 N   0  0  0  0  0  0
  -31.7709  -14.8455   20.0821 O   0  0  0  0  0  0
  -21.6636   -6.8878   21.4242 O   0  0  0  0  0  0
  -22.3526  -14.5537   20.6694 O   0  0  0  0  0  0
  -24.6316  -31.8564   23.1997 C   0  0  0  0  0  0
  -25.9146  -32.4759   23.8335 C   0  0  1  0  0  0
  -27.2119  -27.2668   20.1233 C   0  0  0  0  0  0
  -25.5937  -33.8558   24.2254 N   0  0  0  0  0  0
  -23.4277  -30.4818   21.5426 C   0  0  2  0  0  0
  -24.8748  -28.9373   20.1032 C   0  0  0  0  0  0
  -22.7508  -29.4610   22.4899 C   0  0  0  0  0  0
  -18.0296  -28.1394   22.8488 C   0  0  0  0  0  0
  -24.1489  -36.7284   23.2638 C   0  0  0  0  0  0
  -25.9756  -30.7695   21.3827 C   0  0  0  0  0  0
  -26.0465  -29.3954   20.7196 C   0  0  0  0  0  0
  -27.2192  -28.5722   20.7213 C   0  0  0  0  0  0
  -26.0259  -26.8959   19.4481 C   0  0  0  0  0  0
  -24.8700  -27.6950   19.4559 C   0  0  0  0  0  0
  -23.6450  -29.8218   20.1563 C   0  0  0  0  0  0
  -25.4120  -36.3073   24.0322 C   0  0  1  0  0  0
  -20.5903  -28.3706   23.1265 C   0  0  2  0  0  0
  -20.6783  -26.9420   22.5412 C   0  0  0  0  0  0
  -19.5757  -26.6385   21.5217 C   0  0  0  0  0  0
  -18.1937  -26.7940   22.1629 C   0  0  0  0  0  0
  -19.1550  -28.8869   23.2871 C   0  0  0  0  0  0
  -18.9470  -30.1468   23.8893 C   0  0  0  0  0  0
  -17.6467  -30.6594   24.0568 C   0  0  0  0  0  0
  -25.9059  -34.9444   23.5091 C   0  0  0  0  0  0
  -16.5358  -29.9092   23.6333 C   0  0  0  0  0  0
  -16.7282  -28.6509   23.0357 C   0  0  0  0  0  0
  -26.4498  -31.6583   25.0726 C   0  0  0  0  0  0
  -25.3706  -31.3745   26.1434 C   0  0  0  0  0  0
  -27.0345  -30.2994   24.6231 C   0  0  0  0  0  0
  -27.6045  -32.4320   25.7517 C   0  0  0  0  0  0
  -27.5577  -37.1814   24.8469 C   0  0  0  0  0  0
  -21.4215  -29.3049   22.3648 N   0  0  0  0  0  0
  -26.4298  -37.3772   23.9397 N   0  0  0  0  0  0
  -24.6972  -31.0537   22.0976 N   0  0  0  0  0  0
  -23.4212  -28.8147   23.2991 O   0  0  0  0  0  0
  -28.2769  -26.3364   20.2232 O   0  0  0  0  0  0
  -26.5631  -34.8923   22.4660 O   0  0  0  0  0  0
  -23.5466  -32.1380   23.7296 O   0  0  0  0  0  0
  -30.3644  -19.2274   19.4837 C   0  0  0  0  0  0
  -29.7860  -19.8430   20.5812 C   0  0  0  0  0  0
  -29.9319  -17.2405   20.6251 C   0  0  0  0  0  0
  -29.1422  -23.8254   20.4901 C   0  0  0  0  0  0
  -26.9657  -24.6209   21.4733 C   0  0  0  0  0  0
  -29.8250  -21.3663   20.9932 C   0  0  0  0  0  0
  -27.9394  -24.8612   20.2943 C   0  0  1  0  0  0
  -30.4470  -17.8027   19.5174 N   0  0  0  0  0  0
  -29.8338  -15.7873   20.8687 N   0  0  0  0  0  0
  -28.9341  -22.4543   20.4136 N   0  0  0  0  0  0
  -30.2547  -24.2707   20.7800 O   0  0  0  0  0  0
  -29.2477  -18.5348   21.6762 S   0  0  0  0  0  0
  -31.4807  -12.5568   19.1688 H   0  0  0  0  0  0
  -30.3797  -11.4453   19.9301 H   0  0  0  0  0  0
  -29.7920  -11.7574   17.5029 H   0  0  0  0  0  0
  -29.6459  -13.4806   17.7413 H   0  0  0  0  0  0
  -27.8876  -11.2904   18.8892 H   0  0  0  0  0  0
  -27.3830  -12.5525   17.7972 H   0  0  0  0  0  0
  -27.6570  -14.2558   19.4998 H   0  0  0  0  0  0
  -28.7188  -12.1053   21.3965 H   0  0  0  0  0  0
  -28.4267  -13.7671   21.8293 H   0  0  0  0  0  0
  -25.2761   -9.5683   22.4750 H   0  0  0  0  0  0
  -23.9994   -7.4639   22.7481 H   0  0  0  0  0  0
  -21.0833   -8.8776   19.8963 H   0  0  0  0  0  0
  -22.3690  -10.9669   19.6159 H   0  0  0  0  0  0
  -21.2007   -7.6141   23.9714 H   0  0  0  0  0  0
  -21.1487   -6.0513   25.9076 H   0  0  0  0  0  0
  -22.0598   -2.7603   23.2838 H   0  0  0  0  0  0
  -22.4068  -11.9896   22.4816 H   0  0  0  0  0  0
  -21.1092  -13.1285   22.2612 H   0  0  0  0  0  0
  -24.6526  -15.8409   20.5245 H   0  0  0  0  0  0
  -26.2676  -15.6338   20.0750 H   0  0  0  0  0  0
  -26.7218  -32.5414   23.1080 H   0  0  0  0  0  0
  -25.0083  -33.9692   25.0400 H   0  0  0  0  0  0
  -22.7237  -31.3042   21.4000 H   0  0  0  0  0  0
  -23.3747  -35.9622   23.3322 H   0  0  0  0  0  0
  -24.3571  -36.8884   22.2047 H   0  0  0  0  0  0
  -23.7253  -37.6497   23.6650 H   0  0  0  0  0  0
  -26.1207  -31.5330   20.6169 H   0  0  0  0  0  0
  -26.8508  -30.8119   22.0195 H   0  0  0  0  0  0
  -28.1103  -28.9086   21.2329 H   0  0  0  0  0  0
  -25.9500  -25.9512   18.9333 H   0  0  0  0  0  0
  -23.9769  -27.3430   18.9577 H   0  0  0  0  0  0
  -23.7684  -30.6011   19.4034 H   0  0  0  0  0  0
  -22.7632  -29.2555   19.8503 H   0  0  0  0  0  0
  -25.1308  -36.1924   25.0816 H   0  0  0  0  0  0
  -21.0003  -28.3299   24.1384 H   0  0  0  0  0  0
  -20.5676  -26.2323   23.3626 H   0  0  0  0  0  0
  -21.6653  -26.7438   22.1214 H   0  0  0  0  0  0
  -19.6913  -25.6289   21.1262 H   0  0  0  0  0  0
  -19.6699  -27.3186   20.6740 H   0  0  0  0  0  0
  -17.4207  -26.6688   21.4030 H   0  0  0  0  0  0
  -18.0337  -26.0084   22.9027 H   0  0  0  0  0  0
  -19.7940  -30.7289   24.2265 H   0  0  0  0  0  0
  -17.5016  -31.6275   24.5165 H   0  0  0  0  0  0
  -15.5357  -30.2992   23.7654 H   0  0  0  0  0  0
  -15.8685  -28.0823   22.7077 H   0  0  0  0  0  0
  -24.5910  -30.7054   25.7767 H   0  0  0  0  0  0
  -24.8858  -32.2915   26.4797 H   0  0  0  0  0  0
  -25.8013  -30.8977   27.0250 H   0  0  0  0  0  0
  -26.2938  -29.6752   24.1221 H   0  0  0  0  0  0
  -27.3968  -29.7253   25.4768 H   0  0  0  0  0  0
  -27.8842  -30.4250   23.9520 H   0  0  0  0  0  0
  -27.2662  -33.3657   26.2028 H   0  0  0  0  0  0
  -28.3914  -32.6811   25.0383 H   0  0  0  0  0  0
  -28.0643  -31.8470   26.5499 H   0  0  0  0  0  0
  -28.2610  -38.0093   24.7493 H   0  0  0  0  0  0
  -28.1057  -36.2627   24.6335 H   0  0  0  0  0  0
  -27.2289  -37.1509   25.8870 H   0  0  0  0  0  0
  -20.9394  -29.8777   21.6860 H   0  0  0  0  0  0
  -26.0176  -38.2850   24.1374 H   0  0  0  0  0  0
  -30.8304  -19.7365   18.6506 H   0  0  0  0  0  0
  -26.7563  -23.5607   21.6198 H   0  0  0  0  0  0
  -25.9981  -25.0970   21.3302 H   0  0  0  0  0  0
  -27.3849  -25.0032   22.4041 H   0  0  0  0  0  0
  -30.8546  -21.7008   20.8610 H   0  0  0  0  0  0
  -29.6699  -21.4135   22.0720 H   0  0  0  0  0  0
  -27.4719  -24.5560   19.3591 H   0  0  0  0  0  0
  -28.9933  -15.5149   21.3530 H   0  0  0  0  0  0
  -28.0057  -22.1634   20.1376 H   0  0  0  0  0  0
  1 25  1  0  0  0
  1 30  2  0  0  0
  1 79  1  0  0  0
  2  3  1  0  0  0
  2 25  1  0  0  0
  2 83  1  0  0  0
  2 84  1  0  0  0
  3  4  1  0  0  0
  3 85  1  0  0  0
  3 86  1  0  0  0
  4  5  1  0  0  0
  4 87  1  0  0  0
  4 88  1  0  0  0
  5  6  1  0  0  0
  5 26  1  0  0  0
  5 89  1  0  0  0
  6 25  1  0  0  0
  6 90  1  0  0  0
  6 91  1  0  0  0
  7  8  2  0  0  0
  7 26  1  0  0  0
  7 29  1  0  0  0
  8  9  1  0  0  0
  8 22  1  0  0  0
  9 10  1  0  0  0
  9 27  2  0  0  0
 10 11  2  0  0  0
 10 15  1  0  0  0
 11 12  1  0  0  0
 11 92  1  0  0  0
 12 13  2  0  0  0
 12 93  1  0  0  0
 13 14  1  0  0  0
 13 31  1  0  0  0
 14 15  2  0  0  0
 14 94  1  0  0  0
 15 95  1  0  0  0
 16 17  2  0  0  0
 16 21  1  0  0  0
 16 31  1  0  0  0
 17 18  1  0  0  0
 17 96  1  0  0  0
 18 19  2  0  0  0
 18 97  1  0  0  0
 19 20  1  0  0  0
 19 24  1  0  0  0
 20 21  2  0  0  0
 20 98  1  0  0  0
 21 23  1  0  0  0
 22 28  1  0  0  0
 22 32  2  0  0  0
 26 27  1  0  0  0
 28 99  1  0  0  0
 28100  1  0  0  0
 29101  1  0  0  0
 29102  1  0  0  0
 33 34  1  0  0  0
 33 66  1  0  0  0
 33 70  2  0  0  0
 34 36  1  0  0  0
 34 59  1  0  0  0
 34103  1  0  0  0
 35 44  2  0  0  0
 35 45  1  0  0  0
 35 68  1  0  0  0
 36 56  1  0  0  0
 36104  1  0  0  0
 37 39  1  0  0  0
 37 47  1  0  0  0
 37 66  1  0  0  0
 37105  1  0  0  0
 38 43  2  0  0  0
 38 46  1  0  0  0
 38 47  1  0  0  0
 39 64  1  0  0  0
 39 67  2  0  0  0
 40 52  1  0  0  0
 40 53  2  0  0  0
 40 58  1  0  0  0
 41106  1  0  0  0
 41107  1  0  0  0
 41108  1  0  0  0
 41 48  1  0  0  0
 42 43  1  0  0  0
 42 66  1  0  0  0
 42109  1  0  0  0
 42110  1  0  0  0
 43 44  1  0  0  0
 44111  1  0  0  0
 45 46  2  0  0  0
 45112  1  0  0  0
 46113  1  0  0  0
 47114  1  0  0  0
 47115  1  0  0  0
 48 56  1  0  0  0
 48 65  1  0  0  0
 48116  1  0  0  0
 49 50  1  0  0  0
 49 53  1  0  0  0
 49 64  1  0  0  0
 49117  1  0  0  0
 50 51  1  0  0  0
 50118  1  0  0  0
 50119  1  0  0  0
 51 52  1  0  0  0
 51120  1  0  0  0
 51121  1  0  0  0
 52122  1  0  0  0
 52123  1  0  0  0
 53 54  1  0  0  0
 54 55  2  0  0  0
 54124  1  0  0  0
 55 57  1  0  0  0
 55125  1  0  0  0
 56 69  2  0  0  0
 57 58  2  0  0  0
 57126  1  0  0  0
 58127  1  0  0  0
 59 60  1  0  0  0
 59 61  1  0  0  0
 59 62  1  0  0  0
 60128  1  0  0  0
 60129  1  0  0  0
 60130  1  0  0  0
 61131  1  0  0  0
 61132  1  0  0  0
 61133  1  0  0  0
 62134  1  0  0  0
 62135  1  0  0  0
 62136  1  0  0  0
 63 65  1  0  0  0
 63137  1  0  0  0
 63138  1  0  0  0
 63139  1  0  0  0
 64140  1  0  0  0
 65141  1  0  0  0
 68 77  1  0  0  0
 71 72  2  0  0  0
 71 78  1  0  0  0
 71142  1  0  0  0
 72 76  1  0  0  0
 72 82  1  0  0  0
 73 78  2  0  0  0
 73 79  1  0  0  0
 73 82  1  0  0  0
 74 77  1  0  0  0
 74 80  1  0  0  0
 74 81  2  0  0  0
 75143  1  0  0  0
 75144  1  0  0  0
 75145  1  0  0  0
 75 77  1  0  0  0
 76 80  1  0  0  0
 76146  1  0  0  0
 76147  1  0  0  0
 77148  1  0  0  0
 79149  1  0  0  0
 80150  1  0  0  0
M  ISO  4   1 100  68 101  77 101  79 100
M  END
> <chiral flag>
0

> <version>
0

> <s_m_source_file>
/data/baiqing/PycharmProjects/Reinvent-master-3.2/result/LINK_invent/BTK/process_docking_weight1_custom_product_contain_oxygen_bond_distance_aromatic_linkinvent_7_9_3/rearranged_h_0184.sdf

> <i_m_source_file_index>
50

> <r_mmod_Potential_Energy-OPLS-2005>
23.9884967803955

> <r_mmod_Stretch_Energy-OPLS-2005>
108.338836669922

> <r_mmod_Bend_Energy-OPLS-2005>
159.991409301758

> <r_mmod_Torsional_Energy-OPLS-2005>
232.59049987793

> <r_mmod_Improper_Torsional_Energy-OPLS-2005>
5.4937686920166

> <r_mmod_Van_der_Waal_Energy-OPLS-2005>
124.598709106445

> <r_mmod_Electrostatic_Energy-OPLS-2005>
-423.226654052734

> <r_mmod_Solvation_Energy-OPLS-2005>
-264.050720214844

> <b_mmod_Minimization_Converged-OPLS-2005>
0

> <r_mmod_RMS_Derivative-OPLS-2005>
1.02722549438477

$$$$
50
                    3D
 Structure written by MMmdl.
153161  0  0  1  0            999 V2000
  -29.5716  -15.9570   20.3525 C   0  0  0  0  0  0
  -30.2662  -13.3654   19.6225 C   0  0  0  0  0  0
  -29.5179  -12.7533   18.3891 C   0  0  0  0  0  0
  -28.1099  -12.2807   18.7794 C   0  0  0  0  0  0
  -27.5002  -13.2725   19.7922 C   0  0  2  0  0  0
  -28.4042  -13.6284   20.9692 C   0  0  0  0  0  0
  -25.1890  -13.8137   20.5682 C   0  0  0  0  0  0
  -24.1346  -13.0315   20.9283 C   0  0  0  0  0  0
  -24.6031  -11.6812   20.8752 C   0  0  0  0  0  0
  -23.8846  -10.4189   21.0449 C   0  0  0  0  0  0
  -24.3497   -9.4151   21.9206 C   0  0  0  0  0  0
  -23.6230   -8.2168   22.0753 C   0  0  0  0  0  0
  -22.4222   -8.0192   21.3538 C   0  0  0  0  0  0
  -21.9799   -9.0133   20.4646 C   0  0  0  0  0  0
  -22.7064  -10.2031   20.3066 C   0  0  0  0  0  0
  -21.6825   -6.0689   22.5287 C   0  0  0  0  0  0
  -21.3999   -6.5614   23.8213 C   0  0  0  0  0  0
  -21.3657   -5.6782   24.9182 C   0  0  0  0  0  0
  -21.6038   -4.3041   24.7244 C   0  0  0  0  0  0
  -21.8822   -3.8117   23.4371 C   0  0  0  0  0  0
  -21.9186   -4.6923   22.3418 C   0  0  0  0  0  0
  -22.7447  -13.5130   21.2016 C   0  0  0  0  0  0
  -22.1663   -4.2113   21.0998 F   0  0  0  0  0  0
  -21.5627   -3.4532   25.7760 F   0  0  0  0  0  0
  -29.4275  -14.4659   20.3564 N   0  0  0  0  0  0
  -26.2040  -12.9283   20.2816 N   0  0  0  0  0  0
  -25.8855  -11.6414   20.5448 N   0  0  0  0  0  0
  -22.0145  -12.8115   22.0599 N   0  0  0  0  0  0
  -25.3652  -15.1890   20.4328 N   0  0  0  0  0  0
  -30.8217  -16.0337   20.1067 O   0  0  0  0  0  0
  -21.6602   -6.8798   21.4238 O   0  0  0  0  0  0
  -22.3176  -14.5454   20.6871 O   0  0  0  0  0  0
  -24.7608  -31.7323   22.7102 C   0  0  0  0  0  0
  -25.9746  -32.3931   23.5596 C   0  0  1  0  0  0
  -26.3596  -28.2257   21.6777 C   0  0  0  0  0  0
  -25.5691  -33.7621   23.9978 N   0  0  0  0  0  0
  -24.1335  -29.3082   20.8307 C   0  0  2  0  0  0
  -25.5529  -28.9730   19.3740 C   0  0  0  0  0  0
  -23.7242  -27.4506   22.3687 C   0  0  0  0  0  0
  -18.1899  -28.1097   22.7934 C   0  0  0  0  0  0
  -24.1428  -36.6852   23.2782 C   0  0  0  0  0  0
  -25.9986  -31.1284   20.6806 C   0  0  0  0  0  0
  -26.4571  -29.7824   20.1506 C   0  0  0  0  0  0
  -27.2579  -29.0828   21.0497 C   0  0  0  0  0  0
  -26.1038  -27.1786   20.6732 C   0  0  0  0  0  0
  -25.6286  -27.5828   19.4253 C   0  0  0  0  0  0
  -24.1788  -29.3599   19.3559 C   0  0  0  0  0  0
  -25.4190  -36.2463   24.0129 C   0  0  1  0  0  0
  -20.7767  -27.5818   23.2834 C   0  0  2  0  0  0
  -20.3599  -26.2552   22.6901 C   0  0  0  0  0  0
  -19.3494  -26.2616   21.5460 C   0  0  0  0  0  0
  -18.0546  -26.7787   22.1016 C   0  0  0  0  0  0
  -19.4737  -28.6376   23.2300 C   0  0  0  0  0  0
  -19.3189  -29.9293   23.8503 C   0  0  0  0  0  0
  -18.0495  -30.5840   24.0278 C   0  0  0  0  0  0
  -25.9313  -34.9102   23.4203 C   0  0  0  0  0  0
  -16.8435  -29.9806   23.6279 C   0  0  0  0  0  0
  -16.9309  -28.7345   23.0055 C   0  0  0  0  0  0
  -26.4360  -31.6575   24.9219 C   0  0  0  0  0  0
  -25.3113  -31.3930   25.9564 C   0  0  0  0  0  0
  -27.1194  -30.3060   24.6614 C   0  0  0  0  0  0
  -27.5322  -32.4987   25.6400 C   0  0  0  0  0  0
  -27.5500  -37.1502   24.8466 C   0  0  0  0  0  0
  -22.3856  -27.3744   23.1386 N   0  0  0  0  0  0
  -26.4146  -37.3422   23.9482 N   0  0  0  0  0  0
  -24.7790  -30.9216   21.4345 N   0  0  0  0  0  0
  -24.2909  -27.2074   23.4132 O   0  0  0  0  0  0
  -25.3490  -29.0543   22.6352 O   0  0  0  0  0  0
  -26.6474  -34.9308   22.4229 O   0  0  0  0  0  0
  -23.7197  -32.0566   23.3338 O   0  0  0  0  0  0
  -25.6304  -21.7067   20.2490 C   0  0  0  0  0  0
  -25.6622  -20.4942   19.4056 C   0  0  0  0  0  0
  -27.5751  -18.8262   20.3788 C   0  0  0  0  0  0
  -24.5739  -23.3038   20.0834 C   0  0  0  0  0  0
  -22.7406  -26.2236   20.1947 C   0  0  0  0  0  0
  -23.0434  -29.6091   22.7046 C   0  0  0  0  0  0
  -22.0394  -28.1469   20.8770 C   0  0  1  0  0  0
  -26.5166  -19.1781   19.4936 N   0  0  0  0  0  0
  -24.7859  -20.4652   18.3249 N   0  0  0  0  0  0
  -28.5188  -17.2241   20.6777 N   0  0  0  0  0  0
  -23.9057  -24.7560   20.6266 N   0  0  0  0  0  0
  -24.0895  -23.1859   18.8389 N   0  3  0  0  0  0
  -22.2203  -25.9691   19.1056 O   0  0  0  0  0  0
  -21.5960  -28.8349   19.8144 F   0  0  0  0  0  0
  -27.1274  -20.7034   21.2457 S   0  0  0  0  0  0
  -31.2023  -13.7986   19.2751 H   0  0  0  0  0  0
  -30.5720  -12.5691   20.3092 H   0  0  0  0  0  0
  -30.0905  -11.9378   17.9463 H   0  0  0  0  0  0
  -29.4329  -13.5212   17.6182 H   0  0  0  0  0  0
  -28.1832  -11.2908   19.2293 H   0  0  0  0  0  0
  -27.4792  -12.1722   17.8956 H   0  0  0  0  0  0
  -27.3409  -14.1727   19.1959 H   0  0  0  0  0  0
  -28.7638  -12.7358   21.4858 H   0  0  0  0  0  0
  -27.8620  -14.2030   21.7215 H   0  0  0  0  0  0
  -25.2640   -9.5678   22.4774 H   0  0  0  0  0  0
  -23.9960   -7.4560   22.7463 H   0  0  0  0  0  0
  -21.0728   -8.8610   19.8960 H   0  0  0  0  0  0
  -22.3493  -10.9566   19.6179 H   0  0  0  0  0  0
  -21.1987   -7.6123   23.9704 H   0  0  0  0  0  0
  -21.1484   -6.0519   25.9086 H   0  0  0  0  0  0
  -22.0606   -2.7580   23.2880 H   0  0  0  0  0  0
  -22.3777  -11.9764   22.4948 H   0  0  0  0  0  0
  -21.0787  -13.1153   22.2858 H   0  0  0  0  0  0
  -24.6045  -15.8444   20.5803 H   0  0  0  0  0  0
  -26.2169  -15.6399   20.1224 H   0  0  0  0  0  0
  -26.8699  -32.5015   22.9548 H   0  0  0  0  0  0
  -24.8790  -33.7957   24.7305 H   0  0  0  0  0  0
  -23.2934  -29.9553   20.5669 H   0  0  0  0  0  0
  -23.3801  -35.9059   23.3173 H   0  0  0  0  0  0
  -24.3412  -36.8933   22.2261 H   0  0  0  0  0  0
  -23.7108  -37.5815   23.7275 H   0  0  0  0  0  0
  -25.7532  -31.7834   19.8425 H   0  0  0  0  0  0
  -26.8356  -31.6212   21.1624 H   0  0  0  0  0  0
  -27.8003  -29.7354   21.7116 H   0  0  0  0  0  0
  -26.0728  -26.1402   20.9563 H   0  0  0  0  0  0
  -25.1263  -26.9122   18.7457 H   0  0  0  0  0  0
  -24.0681  -30.3363   18.8666 H   0  0  0  0  0  0
  -23.5814  -28.6349   18.8077 H   0  0  0  0  0  0
  -25.1581  -36.0802   25.0603 H   0  0  0  0  0  0
  -20.7475  -27.4450   24.3678 H   0  0  0  0  0  0
  -19.8946  -25.7017   23.5095 H   0  0  0  0  0  0
  -21.1763  -25.5863   22.4259 H   0  0  0  0  0  0
  -19.1895  -25.2290   21.2306 H   0  0  0  0  0  0
  -19.5981  -26.7710   20.6205 H   0  0  0  0  0  0
  -17.3406  -26.8679   21.2806 H   0  0  0  0  0  0
  -17.6287  -26.0644   22.8095 H   0  0  0  0  0  0
  -20.1944  -30.4101   24.2642 H   0  0  0  0  0  0
  -18.0204  -31.5445   24.5235 H   0  0  0  0  0  0
  -15.8911  -30.4639   23.8009 H   0  0  0  0  0  0
  -16.0143  -28.2525   22.6861 H   0  0  0  0  0  0
  -24.5756  -30.6914   25.5628 H   0  0  0  0  0  0
  -24.7752  -32.3037   26.2246 H   0  0  0  0  0  0
  -25.6986  -30.9596   26.8785 H   0  0  0  0  0  0
  -26.4155  -29.4889   24.5564 H   0  0  0  0  0  0
  -27.7263  -30.0078   25.5158 H   0  0  0  0  0  0
  -27.7908  -30.3424   23.8090 H   0  0  0  0  0  0
  -27.1555  -33.4580   25.9963 H   0  0  0  0  0  0
  -28.3557  -32.7072   24.9548 H   0  0  0  0  0  0
  -27.9530  -31.9879   26.5085 H   0  0  0  0  0  0
  -28.2390  -37.9910   24.7599 H   0  0  0  0  0  0
  -28.1113  -36.2424   24.6173 H   0  0  0  0  0  0
  -27.2240  -37.0954   25.8868 H   0  0  0  0  0  0
  -22.6803  -26.9666   24.0238 H   0  0  0  0  0  0
  -25.9814  -38.2365   24.1688 H   0  0  0  0  0  0
  -22.6886  -29.5924   23.7439 H   0  0  0  0  0  0
  -22.5409  -30.5179   22.3687 H   0  0  0  0  0  0
  -20.9960  -28.0640   21.0778 H   0  0  0  0  0  0
  -25.3365  -20.3479   17.4763 H   0  0  0  0  0  0
  -24.2862  -19.5814   18.3616 H   0  0  0  0  0  0
  -28.5443  -17.1605   21.6891 H   0  0  0  0  0  0
  -24.3175  -24.8164   21.5396 H   0  0  0  0  0  0
  -24.2159  -22.2766   18.3860 H   0  0  0  0  0  0
  -23.5243  -23.8888   18.3923 H   0  0  0  0  0  0
  1 25  1  0  0  0
  1 30  2  0  0  0
  1 80  1  0  0  0
  2  3  1  0  0  0
  2 25  1  0  0  0
  2 86  1  0  0  0
  2 87  1  0  0  0
  3  4  1  0  0  0
  3 88  1  0  0  0
  3 89  1  0  0  0
  4  5  1  0  0  0
  4 90  1  0  0  0
  4 91  1  0  0  0
  5  6  1  0  0  0
  5 26  1  0  0  0
  5 92  1  0  0  0
  6 25  1  0  0  0
  6 93  1  0  0  0
  6 94  1  0  0  0
  7  8  2  0  0  0
  7 26  1  0  0  0
  7 29  1  0  0  0
  8  9  1  0  0  0
  8 22  1  0  0  0
  9 10  1  0  0  0
  9 27  2  0  0  0
 10 11  2  0  0  0
 10 15  1  0  0  0
 11 12  1  0  0  0
 11 95  1  0  0  0
 12 13  2  0  0  0
 12 96  1  0  0  0
 13 14  1  0  0  0
 13 31  1  0  0  0
 14 15  2  0  0  0
 14 97  1  0  0  0
 15 98  1  0  0  0
 16 17  2  0  0  0
 16 21  1  0  0  0
 16 31  1  0  0  0
 17 18  1  0  0  0
 17 99  1  0  0  0
 18 19  2  0  0  0
 18100  1  0  0  0
 19 20  1  0  0  0
 19 24  1  0  0  0
 20 21  2  0  0  0
 20101  1  0  0  0
 21 23  1  0  0  0
 22 28  1  0  0  0
 22 32  2  0  0  0
 26 27  1  0  0  0
 28102  1  0  0  0
 28103  1  0  0  0
 29104  1  0  0  0
 29105  1  0  0  0
 33 34  1  0  0  0
 33 66  1  0  0  0
 33 70  2  0  0  0
 34 36  1  0  0  0
 34 59  1  0  0  0
 34106  1  0  0  0
 35 44  2  0  0  0
 35 45  1  0  0  0
 35 68  1  0  0  0
 36 56  1  0  0  0
 36107  1  0  0  0
 37 39  1  0  0  0
 37 47  1  0  0  0
 37 66  1  0  0  0
 37108  1  0  0  0
 38 43  2  0  0  0
 38 46  1  0  0  0
 38 47  1  0  0  0
 39 64  1  0  0  0
 39 67  2  0  0  0
 40 52  1  0  0  0
 40 53  2  0  0  0
 40 58  1  0  0  0
 41109  1  0  0  0
 41110  1  0  0  0
 41111  1  0  0  0
 41 48  1  0  0  0
 42 43  1  0  0  0
 42 66  1  0  0  0
 42112  1  0  0  0
 42113  1  0  0  0
 43 44  1  0  0  0
 44114  1  0  0  0
 45 46  2  0  0  0
 45115  1  0  0  0
 46116  1  0  0  0
 47117  1  0  0  0
 47118  1  0  0  0
 48 56  1  0  0  0
 48 65  1  0  0  0
 48119  1  0  0  0
 49 50  1  0  0  0
 49 53  1  0  0  0
 49 64  1  0  0  0
 49120  1  0  0  0
 50 51  1  0  0  0
 50121  1  0  0  0
 50122  1  0  0  0
 51 52  1  0  0  0
 51123  1  0  0  0
 51124  1  0  0  0
 52125  1  0  0  0
 52126  1  0  0  0
 53 54  1  0  0  0
 54 55  2  0  0  0
 54127  1  0  0  0
 55 57  1  0  0  0
 55128  1  0  0  0
 56 69  2  0  0  0
 57 58  2  0  0  0
 57129  1  0  0  0
 58130  1  0  0  0
 59 60  1  0  0  0
 59 61  1  0  0  0
 59 62  1  0  0  0
 60131  1  0  0  0
 60132  1  0  0  0
 60133  1  0  0  0
 61134  1  0  0  0
 61135  1  0  0  0
 61136  1  0  0  0
 62137  1  0  0  0
 62138  1  0  0  0
 62139  1  0  0  0
 63 65  1  0  0  0
 63140  1  0  0  0
 63141  1  0  0  0
 63142  1  0  0  0
 64143  1  0  0  0
 65144  1  0  0  0
 68 76  1  0  0  0
 71 72  2  0  0  0
 71 74  1  0  0  0
 71 85  1  0  0  0
 72 78  1  0  0  0
 72 79  1  0  0  0
 73 78  2  0  0  0
 73 80  1  0  0  0
 73 85  1  0  0  0
 74 81  1  0  0  0
 74 82  2  0  0  0
 75 77  1  0  0  0
 75 81  1  0  0  0
 75 83  2  0  0  0
 76 77  1  0  0  0
 76145  1  0  0  0
 76146  1  0  0  0
 77 84  1  0  0  0
 77147  1  0  0  0
 79148  1  0  0  0
 79149  1  0  0  0
 80150  1  0  0  0
 81151  1  0  0  0
 82152  1  0  0  0
 82153  1  0  0  0
M  CHG  1  82   1
M  ISO  4   1 100  68 101  76 101  80 100
M  END
> <chiral flag>
0

> <version>
0

> <s_m_source_file>
/data/baiqing/PycharmProjects/Reinvent-master-3.2/result/LINK_invent/BTK/process_docking_weight1_custom_product_contain_oxygen_bond_distance_aromatic_linkinvent_7_9_3/rearranged_h_0184.sdf

> <i_m_source_file_index>
51

> <r_mmod_Potential_Energy-OPLS-2005>
17212.14453125

> <r_mmod_Stretch_Energy-OPLS-2005>
6697.1630859375

> <r_mmod_Bend_Energy-OPLS-2005>
2170.88842773438

> <r_mmod_Torsional_Energy-OPLS-2005>
713.968505859375

> <r_mmod_Improper_Torsional_Energy-OPLS-2005>
116.402778625488

> <r_mmod_Van_der_Waal_Energy-OPLS-2005>
2162.4462890625

> <r_mmod_Electrostatic_Energy-OPLS-2005>
-350.894866943359

> <r_mmod_Solvation_Energy-OPLS-2005>
-451.875762939453

> <b_mmod_Minimization_Converged-OPLS-2005>
0

> <r_mmod_RMS_Derivative-OPLS-2005>
15.205099105835

$$$$
51
                    3D
 Structure written by MMmdl.
165173  0  0  1  0            999 V2000
  -30.7221  -14.4923   20.6119 C   0  0  0  0  0  0
  -30.4182  -12.3405   19.4255 C   0  0  0  0  0  0
  -29.4940  -12.5202   18.2054 C   0  0  0  0  0  0
  -28.0164  -12.3677   18.6167 C   0  0  0  0  0  0
  -27.6542  -13.2155   19.8653 C   0  0  2  0  0  0
  -28.6947  -13.0247   20.9913 C   0  0  0  0  0  0
  -25.2514  -13.8131   20.5651 C   0  0  0  0  0  0
  -24.1803  -13.0405   20.9199 C   0  0  0  0  0  0
  -24.6383  -11.6884   20.8743 C   0  0  0  0  0  0
  -23.9057  -10.4273   21.0395 C   0  0  0  0  0  0
  -24.3608   -9.4196   21.9174 C   0  0  0  0  0  0
  -23.6284   -8.2239   22.0751 C   0  0  0  0  0  0
  -22.4264   -8.0280   21.3547 C   0  0  0  0  0  0
  -21.9902   -9.0245   20.4642 C   0  0  0  0  0  0
  -22.7230  -10.2120   20.3039 C   0  0  0  0  0  0
  -21.6857   -6.0729   22.5277 C   0  0  0  0  0  0
  -21.4014   -6.5626   23.8213 C   0  0  0  0  0  0
  -21.3653   -5.6774   24.9168 C   0  0  0  0  0  0
  -21.6041   -4.3039   24.7212 C   0  0  0  0  0  0
  -21.8825   -3.8138   23.4334 C   0  0  0  0  0  0
  -21.9198   -4.6959   22.3395 C   0  0  0  0  0  0
  -22.7830  -13.5221   21.1844 C   0  0  0  0  0  0
  -22.1667   -4.2154   21.0976 F   0  0  0  0  0  0
  -21.5617   -3.4521   25.7720 F   0  0  0  0  0  0
  -30.0242  -13.3345   20.4396 N   0  0  0  0  0  0
  -26.2975  -12.9343   20.3300 N   0  0  0  0  0  0
  -25.9308  -11.6497   20.5735 N   0  0  0  0  0  0
  -22.0447  -12.8230   22.0393 N   0  0  0  0  0  0
  -25.4105  -15.1826   20.3952 N   0  0  0  0  0  0
  -31.8334  -14.6716   20.1105 O   0  0  0  0  0  0
  -21.6632   -6.8874   21.4243 O   0  0  0  0  0  0
  -22.3529  -14.5537   20.6686 O   0  0  0  0  0  0
  -24.6189  -31.8685   23.2115 C   0  0  0  0  0  0
  -25.9083  -32.4817   23.8401 C   0  0  1  0  0  0
  -27.2226  -27.4094   20.0874 C   0  0  0  0  0  0
  -25.5952  -33.8613   24.2347 N   0  0  0  0  0  0
  -23.4058  -30.4977   21.5529 C   0  0  2  0  0  0
  -24.8483  -28.9703   20.1102 C   0  0  0  0  0  0
  -22.7436  -29.4669   22.4966 C   0  0  0  0  0  0
  -18.0283  -28.1383   22.8472 C   0  0  0  0  0  0
  -24.1488  -36.7293   23.2629 C   0  0  0  0  0  0
  -25.9392  -30.8277   21.3672 C   0  0  0  0  0  0
  -26.0139  -29.4630   20.7093 C   0  0  0  0  0  0
  -27.2038  -28.6917   20.6941 C   0  0  0  0  0  0
  -26.0307  -26.9502   19.4730 C   0  0  0  0  0  0
  -24.8534  -27.7140   19.4893 C   0  0  0  0  0  0
  -23.6152  -29.8437   20.1625 C   0  0  0  0  0  0
  -25.4102  -36.3096   24.0339 C   0  0  1  0  0  0
  -20.5878  -28.3676   23.1304 C   0  0  2  0  0  0
  -20.6774  -26.9404   22.5419 C   0  0  0  0  0  0
  -19.5760  -26.6392   21.5207 C   0  0  0  0  0  0
  -18.1929  -26.7938   22.1594 C   0  0  0  0  0  0
  -19.1531  -28.8845   23.2889 C   0  0  0  0  0  0
  -18.9455  -30.1447   23.8902 C   0  0  0  0  0  0
  -17.6460  -30.6583   24.0566 C   0  0  0  0  0  0
  -25.9045  -34.9470   23.5130 C   0  0  0  0  0  0
  -16.5350  -29.9088   23.6320 C   0  0  0  0  0  0
  -16.7273  -28.6508   23.0327 C   0  0  0  0  0  0
  -26.4499  -31.6574   25.0724 C   0  0  0  0  0  0
  -25.3770  -31.3693   26.1480 C   0  0  0  0  0  0
  -27.0297  -30.3005   24.6089 C   0  0  0  0  0  0
  -27.6086  -32.4270   25.7487 C   0  0  0  0  0  0
  -27.5585  -37.1788   24.8448 C   0  0  0  0  0  0
  -21.4161  -29.3047   22.3709 N   0  0  0  0  0  0
  -26.4274  -37.3795   23.9432 N   0  0  0  0  0  0
  -24.6732  -31.0788   22.1019 N   0  0  0  0  0  0
  -23.4203  -28.8191   23.2995 O   0  0  0  0  0  0
  -28.3719  -26.6270   20.1179 O   0  0  0  0  0  0
  -26.5581  -34.8919   22.4677 O   0  0  0  0  0  0
  -23.5377  -32.1443   23.7505 O   0  0  0  0  0  0
  -28.8440  -18.3952   21.1191 C   0  0  0  0  0  0
  -30.1523  -18.0267   21.3768 C   0  0  0  0  0  0
  -29.8224  -20.4478   20.8031 C   0  0  0  0  0  0
  -28.9953  -22.7598   20.2218 C   0  0  0  0  0  0
  -27.6223  -17.5349   21.1708 C   0  0  0  0  0  0
  -29.5452  -16.6060   24.1257 C   0  0  0  0  0  0
  -31.7215  -17.8184   23.9899 C   0  0  0  0  0  0
  -29.3525  -24.2691   20.3063 C   0  0  0  0  0  0
  -28.1779  -25.2067   19.9058 C   0  0  0  0  0  0
  -30.7592  -16.7029   21.8660 C   0  0  1  0  0  0
  -30.9257  -16.6179   23.4294 C   0  0  0  0  0  0
  -28.6755  -19.7576   20.8102 N   0  0  0  0  0  0
  -29.9227  -21.8682   20.6400 N   0  0  0  0  0  0
  -30.1285  -15.4540   21.3574 N   0  0  0  0  0  0
  -31.6440  -15.3753   23.7904 N   0  3  0  0  0  0
  -27.9025  -22.4206   19.7575 O   0  0  0  0  0  0
  -31.2124  -19.4153   21.1206 S   0  0  0  0  0  0
  -31.4628  -12.4390   19.1256 H   0  0  0  0  0  0
  -30.3212  -11.3329   19.8333 H   0  0  0  0  0  0
  -29.7469  -11.7952   17.4305 H   0  0  0  0  0  0
  -29.6556  -13.5062   17.7661 H   0  0  0  0  0  0
  -27.8370  -11.3121   18.8230 H   0  0  0  0  0  0
  -27.3662  -12.6307   17.7811 H   0  0  0  0  0  0
  -27.6897  -14.2603   19.5560 H   0  0  0  0  0  0
  -28.6778  -11.9935   21.3487 H   0  0  0  0  0  0
  -28.4401  -13.6380   21.8559 H   0  0  0  0  0  0
  -25.2752   -9.5690   22.4745 H   0  0  0  0  0  0
  -23.9999   -7.4635   22.7473 H   0  0  0  0  0  0
  -21.0840   -8.8759   19.8946 H   0  0  0  0  0  0
  -22.3687  -10.9653   19.6142 H   0  0  0  0  0  0
  -21.2005   -7.6125   23.9717 H   0  0  0  0  0  0
  -21.1460   -6.0490   25.9076 H   0  0  0  0  0  0
  -22.0603   -2.7604   23.2820 H   0  0  0  0  0  0
  -22.4014  -11.9868   22.4775 H   0  0  0  0  0  0
  -21.1065  -13.1282   22.2564 H   0  0  0  0  0  0
  -24.6230  -15.8172   20.4701 H   0  0  0  0  0  0
  -26.2191  -15.6057   19.9614 H   0  0  0  0  0  0
  -26.7151  -32.5518   23.1155 H   0  0  0  0  0  0
  -25.0169  -33.9772   25.0542 H   0  0  0  0  0  0
  -22.6944  -31.3157   21.4206 H   0  0  0  0  0  0
  -23.3770  -35.9602   23.3258 H   0  0  0  0  0  0
  -24.3606  -36.8945   22.2056 H   0  0  0  0  0  0
  -23.7211  -37.6479   23.6656 H   0  0  0  0  0  0
  -26.0575  -31.5964   20.6014 H   0  0  0  0  0  0
  -26.8251  -30.8768   21.9879 H   0  0  0  0  0  0
  -28.0996  -29.0682   21.1678 H   0  0  0  0  0  0
  -25.9740  -25.9951   18.9735 H   0  0  0  0  0  0
  -23.9588  -27.3302   19.0188 H   0  0  0  0  0  0
  -23.7358  -30.6276   19.4138 H   0  0  0  0  0  0
  -22.7349  -29.2780   19.8547 H   0  0  0  0  0  0
  -25.1267  -36.1943   25.0827 H   0  0  0  0  0  0
  -20.9971  -28.3249   24.1425 H   0  0  0  0  0  0
  -20.5678  -26.2279   23.3610 H   0  0  0  0  0  0
  -21.6648  -26.7446   22.1222 H   0  0  0  0  0  0
  -19.6925  -25.6306   21.1230 H   0  0  0  0  0  0
  -19.6714  -27.3210   20.6739 H   0  0  0  0  0  0
  -17.4213  -26.6704   21.3977 H   0  0  0  0  0  0
  -18.0303  -26.0076   22.8984 H   0  0  0  0  0  0
  -19.7936  -30.7255   24.2278 H   0  0  0  0  0  0
  -17.5019  -31.6256   24.5186 H   0  0  0  0  0  0
  -15.5349  -30.2986   23.7651 H   0  0  0  0  0  0
  -15.8675  -28.0840   22.7015 H   0  0  0  0  0  0
  -24.5975  -30.6986   25.7854 H   0  0  0  0  0  0
  -24.8917  -32.2845   26.4881 H   0  0  0  0  0  0
  -25.8155  -30.8933   27.0260 H   0  0  0  0  0  0
  -26.2816  -29.6791   24.1155 H   0  0  0  0  0  0
  -27.4075  -29.7220   25.4530 H   0  0  0  0  0  0
  -27.8661  -30.4306   23.9217 H   0  0  0  0  0  0
  -27.2725  -33.3574   26.2071 H   0  0  0  0  0  0
  -28.3900  -32.6811   25.0316 H   0  0  0  0  0  0
  -28.0740  -31.8376   26.5399 H   0  0  0  0  0  0
  -28.2553  -38.0132   24.7559 H   0  0  0  0  0  0
  -28.1126  -36.2667   24.6167 H   0  0  0  0  0  0
  -27.2330  -37.1336   25.8855 H   0  0  0  0  0  0
  -20.9312  -29.8789   21.6952 H   0  0  0  0  0  0
  -26.0154  -38.2855   24.1491 H   0  0  0  0  0  0
  -27.6986  -16.7205   20.4529 H   0  0  0  0  0  0
  -26.7199  -18.0972   20.9269 H   0  0  0  0  0  0
  -27.4704  -17.1033   22.1590 H   0  0  0  0  0  0
  -28.9962  -17.5281   23.9344 H   0  0  0  0  0  0
  -29.6458  -16.5286   25.2092 H   0  0  0  0  0  0
  -28.9177  -15.7756   23.8024 H   0  0  0  0  0  0
  -31.1596  -18.7484   23.9061 H   0  0  0  0  0  0
  -32.6691  -17.9548   23.4678 H   0  0  0  0  0  0
  -31.9475  -17.6928   25.0495 H   0  0  0  0  0  0
  -30.2163  -24.4669   19.6714 H   0  0  0  0  0  0
  -29.6526  -24.4909   21.3301 H   0  0  0  0  0  0
  -27.3043  -24.8872   20.4785 H   0  0  0  0  0  0
  -27.9555  -25.0385   18.8506 H   0  0  0  0  0  0
  -31.7775  -16.7144   21.4741 H   0  0  0  0  0  0
  -30.8160  -22.2612   20.9019 H   0  0  0  0  0  0
  -29.1923  -15.2499   21.6719 H   0  0  0  0  0  0
  -31.7974  -15.3271   24.7825 H   0  0  0  0  0  0
  -32.5421  -15.3392   23.3387 H   0  0  0  0  0  0
  -31.1240  -14.5596   23.5209 H   0  0  0  0  0  0
  1 25  1  0  0  0
  1 30  2  0  0  0
  1 84  1  0  0  0
  2  3  1  0  0  0
  2 25  1  0  0  0
  2 88  1  0  0  0
  2 89  1  0  0  0
  3  4  1  0  0  0
  3 90  1  0  0  0
  3 91  1  0  0  0
  4  5  1  0  0  0
  4 92  1  0  0  0
  4 93  1  0  0  0
  5  6  1  0  0  0
  5 26  1  0  0  0
  5 94  1  0  0  0
  6 25  1  0  0  0
  6 95  1  0  0  0
  6 96  1  0  0  0
  7  8  2  0  0  0
  7 26  1  0  0  0
  7 29  1  0  0  0
  8  9  1  0  0  0
  8 22  1  0  0  0
  9 10  1  0  0  0
  9 27  2  0  0  0
 10 11  2  0  0  0
 10 15  1  0  0  0
 11 12  1  0  0  0
 11 97  1  0  0  0
 12 13  2  0  0  0
 12 98  1  0  0  0
 13 14  1  0  0  0
 13 31  1  0  0  0
 14 15  2  0  0  0
 14 99  1  0  0  0
 15100  1  0  0  0
 16 17  2  0  0  0
 16 21  1  0  0  0
 16 31  1  0  0  0
 17 18  1  0  0  0
 17101  1  0  0  0
 18 19  2  0  0  0
 18102  1  0  0  0
 19 20  1  0  0  0
 19 24  1  0  0  0
 20 21  2  0  0  0
 20103  1  0  0  0
 21 23  1  0  0  0
 22 28  1  0  0  0
 22 32  2  0  0  0
 26 27  1  0  0  0
 28104  1  0  0  0
 28105  1  0  0  0
 29106  1  0  0  0
 29107  1  0  0  0
 33 34  1  0  0  0
 33 66  1  0  0  0
 33 70  2  0  0  0
 34 36  1  0  0  0
 34 59  1  0  0  0
 34108  1  0  0  0
 35 44  2  0  0  0
 35 45  1  0  0  0
 35 68  1  0  0  0
 36 56  1  0  0  0
 36109  1  0  0  0
 37 39  1  0  0  0
 37 47  1  0  0  0
 37 66  1  0  0  0
 37110  1  0  0  0
 38 43  2  0  0  0
 38 46  1  0  0  0
 38 47  1  0  0  0
 39 64  1  0  0  0
 39 67  2  0  0  0
 40 52  1  0  0  0
 40 53  2  0  0  0
 40 58  1  0  0  0
 41111  1  0  0  0
 41112  1  0  0  0
 41113  1  0  0  0
 41 48  1  0  0  0
 42 43  1  0  0  0
 42 66  1  0  0  0
 42114  1  0  0  0
 42115  1  0  0  0
 43 44  1  0  0  0
 44116  1  0  0  0
 45 46  2  0  0  0
 45117  1  0  0  0
 46118  1  0  0  0
 47119  1  0  0  0
 47120  1  0  0  0
 48 56  1  0  0  0
 48 65  1  0  0  0
 48121  1  0  0  0
 49 50  1  0  0  0
 49 53  1  0  0  0
 49 64  1  0  0  0
 49122  1  0  0  0
 50 51  1  0  0  0
 50123  1  0  0  0
 50124  1  0  0  0
 51 52  1  0  0  0
 51125  1  0  0  0
 51126  1  0  0  0
 52127  1  0  0  0
 52128  1  0  0  0
 53 54  1  0  0  0
 54 55  2  0  0  0
 54129  1  0  0  0
 55 57  1  0  0  0
 55130  1  0  0  0
 56 69  2  0  0  0
 57 58  2  0  0  0
 57131  1  0  0  0
 58132  1  0  0  0
 59 60  1  0  0  0
 59 61  1  0  0  0
 59 62  1  0  0  0
 60133  1  0  0  0
 60134  1  0  0  0
 60135  1  0  0  0
 61136  1  0  0  0
 61137  1  0  0  0
 61138  1  0  0  0
 62139  1  0  0  0
 62140  1  0  0  0
 62141  1  0  0  0
 63 65  1  0  0  0
 63142  1  0  0  0
 63143  1  0  0  0
 63144  1  0  0  0
 64145  1  0  0  0
 65146  1  0  0  0
 68 79  1  0  0  0
 71 72  2  0  0  0
 71 75  1  0  0  0
 71 82  1  0  0  0
 72 80  1  0  0  0
 72 87  1  0  0  0
 73 82  2  0  0  0
 73 83  1  0  0  0
 73 87  1  0  0  0
 74 78  1  0  0  0
 74 83  1  0  0  0
 74 86  2  0  0  0
 75147  1  0  0  0
 75148  1  0  0  0
 75149  1  0  0  0
 76150  1  0  0  0
 76151  1  0  0  0
 76152  1  0  0  0
 76 81  1  0  0  0
 77 81  1  0  0  0
 77153  1  0  0  0
 77154  1  0  0  0
 77155  1  0  0  0
 78 79  1  0  0  0
 78156  1  0  0  0
 78157  1  0  0  0
 79158  1  0  0  0
 79159  1  0  0  0
 80 81  1  0  0  0
 80 84  1  0  0  0
 80160  1  0  0  0
 81 85  1  0  0  0
 83161  1  0  0  0
 84162  1  0  0  0
 85163  1  0  0  0
 85164  1  0  0  0
 85165  1  0  0  0
M  CHG  1  85   1
M  ISO  4   1 100  68 101  79 101  84 100
M  END
> <chiral flag>
0

> <version>
0

> <s_m_source_file>
/data/baiqing/PycharmProjects/Reinvent-master-3.2/result/LINK_invent/BTK/process_docking_weight1_custom_product_contain_oxygen_bond_distance_aromatic_linkinvent_7_9_3/rearranged_h_0184.sdf

> <i_m_source_file_index>
52

> <r_mmod_Potential_Energy-OPLS-2005>
-477.002624511719

> <r_mmod_Stretch_Energy-OPLS-2005>
47.6420783996582

> <r_mmod_Bend_Energy-OPLS-2005>
114.777992248535

> <r_mmod_Torsional_Energy-OPLS-2005>
222.526702880859

> <r_mmod_Improper_Torsional_Energy-OPLS-2005>
2.65865969657898

> <r_mmod_Van_der_Waal_Energy-OPLS-2005>
137.557464599609

> <r_mmod_Electrostatic_Energy-OPLS-2005>
-485.584381103516

> <r_mmod_Solvation_Energy-OPLS-2005>
-534.040649414062

> <b_mmod_Minimization_Converged-OPLS-2005>
0

> <r_mmod_RMS_Derivative-OPLS-2005>
1.7173148393631

$$$$
52
                    3D
 Structure written by MMmdl.
160168  0  0  1  0            999 V2000
  -30.7537  -14.4512   20.6961 C   0  0  0  0  0  0
  -30.4252  -12.3456   19.4198 C   0  0  0  0  0  0
  -29.4949  -12.5517   18.2059 C   0  0  0  0  0  0
  -28.0126  -12.4042   18.6021 C   0  0  0  0  0  0
  -27.6684  -13.2028   19.8849 C   0  0  2  0  0  0
  -28.7064  -12.8999   20.9835 C   0  0  0  0  0  0
  -25.2644  -13.8147   20.5681 C   0  0  0  0  0  0
  -24.1875  -13.0428   20.9165 C   0  0  0  0  0  0
  -24.6430  -11.6894   20.8738 C   0  0  0  0  0  0
  -23.9097  -10.4275   21.0430 C   0  0  0  0  0  0
  -24.3646   -9.4188   21.9202 C   0  0  0  0  0  0
  -23.6315   -8.2227   22.0761 C   0  0  0  0  0  0
  -22.4291   -8.0294   21.3552 C   0  0  0  0  0  0
  -21.9943   -9.0278   20.4656 C   0  0  0  0  0  0
  -22.7281  -10.2150   20.3073 C   0  0  0  0  0  0
  -21.6871   -6.0746   22.5267 C   0  0  0  0  0  0
  -21.4031   -6.5641   23.8205 C   0  0  0  0  0  0
  -21.3648   -5.6788   24.9158 C   0  0  0  0  0  0
  -21.6048   -4.3051   24.7213 C   0  0  0  0  0  0
  -21.8826   -3.8150   23.4328 C   0  0  0  0  0  0
  -21.9202   -4.6968   22.3391 C   0  0  0  0  0  0
  -22.7895  -13.5247   21.1817 C   0  0  0  0  0  0
  -22.1669   -4.2153   21.0969 F   0  0  0  0  0  0
  -21.5624   -3.4535   25.7723 F   0  0  0  0  0  0
  -30.0341  -13.2996   20.4835 N   0  0  0  0  0  0
  -26.3072  -12.9301   20.3401 N   0  0  0  0  0  0
  -25.9358  -11.6458   20.5772 N   0  0  0  0  0  0
  -22.0555  -12.8234   22.0383 N   0  0  0  0  0  0
  -25.4402  -15.1864   20.4080 N   0  0  0  0  0  0
  -31.7636  -14.6576   20.0127 O   0  0  0  0  0  0
  -21.6655   -6.8900   21.4234 O   0  0  0  0  0  0
  -22.3559  -14.5548   20.6676 O   0  0  0  0  0  0
  -24.6127  -31.8676   23.2083 C   0  0  0  0  0  0
  -25.9033  -32.4805   23.8381 C   0  0  1  0  0  0
  -27.2515  -27.4503   20.1002 C   0  0  0  0  0  0
  -25.5912  -33.8604   24.2325 N   0  0  0  0  0  0
  -23.4014  -30.4877   21.5466 C   0  0  2  0  0  0
  -24.8525  -28.9443   20.1213 C   0  0  0  0  0  0
  -22.7400  -29.4657   22.4972 C   0  0  0  0  0  0
  -18.0287  -28.1381   22.8501 C   0  0  0  0  0  0
  -24.1495  -36.7311   23.2641 C   0  0  0  0  0  0
  -25.9267  -30.8367   21.3610 C   0  0  0  0  0  0
  -26.0073  -29.4696   20.7132 C   0  0  0  0  0  0
  -27.2089  -28.7296   20.6975 C   0  0  0  0  0  0
  -26.0829  -26.9281   19.5091 C   0  0  0  0  0  0
  -24.8841  -27.6718   19.5182 C   0  0  0  0  0  0
  -23.6112  -29.8081   20.1648 C   0  0  0  0  0  0
  -25.4108  -36.3105   24.0351 C   0  0  1  0  0  0
  -20.5872  -28.3657   23.1325 C   0  0  2  0  0  0
  -20.6770  -26.9393   22.5418 C   0  0  0  0  0  0
  -19.5742  -26.6382   21.5217 C   0  0  0  0  0  0
  -18.1929  -26.7925   22.1630 C   0  0  0  0  0  0
  -19.1536  -28.8835   23.2908 C   0  0  0  0  0  0
  -18.9457  -30.1446   23.8901 C   0  0  0  0  0  0
  -17.6453  -30.6575   24.0573 C   0  0  0  0  0  0
  -25.9034  -34.9468   23.5126 C   0  0  0  0  0  0
  -16.5351  -29.9080   23.6336 C   0  0  0  0  0  0
  -16.7276  -28.6513   23.0343 C   0  0  0  0  0  0
  -26.4478  -31.6584   25.0708 C   0  0  0  0  0  0
  -25.3762  -31.3700   26.1473 C   0  0  0  0  0  0
  -27.0303  -30.3021   24.6091 C   0  0  0  0  0  0
  -27.6041  -32.4313   25.7472 C   0  0  0  0  0  0
  -27.5580  -37.1808   24.8462 C   0  0  0  0  0  0
  -21.4130  -29.3027   22.3723 N   0  0  0  0  0  0
  -26.4287  -37.3789   23.9410 N   0  0  0  0  0  0
  -24.6645  -31.0793   22.0969 N   0  0  0  0  0  0
  -23.4178  -28.8208   23.3015 O   0  0  0  0  0  0
  -28.4443  -26.7625   20.0407 O   0  0  0  0  0  0
  -26.5576  -34.8911   22.4676 O   0  0  0  0  0  0
  -23.5326  -32.1403   23.7495 O   0  0  0  0  0  0
  -29.5851  -17.2537   19.9331 C   0  0  0  0  0  0
  -30.2521  -16.9438   21.1024 C   0  0  0  0  0  0
  -29.9677  -19.3768   20.6645 C   0  0  0  0  0  0
  -29.0540  -21.6957   20.3358 C   0  0  0  0  0  0
  -27.8995  -25.7366   22.2574 C   0  0  0  0  0  0
  -31.7289  -15.6045   22.6742 C   0  0  0  0  0  0
  -29.2906  -15.3867   22.7440 C   0  0  0  0  0  0
  -28.5239  -24.2831   20.1941 C   0  0  0  0  0  0
  -29.2863  -23.1199   20.8891 C   0  0  2  0  0  0
  -28.6724  -25.6463   20.9211 C   0  0  1  0  0  0
  -30.4663  -15.5815   21.7694 C   0  0  0  0  0  0
  -29.4194  -18.6324   19.6976 N   0  0  0  0  0  0
  -29.9835  -20.7954   20.7097 N   0  0  0  0  0  0
  -28.0750  -21.4381   19.6278 O   0  0  0  0  0  0
  -30.5992  -23.3759   20.8700 F   0  0  0  0  0  0
  -30.7432  -18.4218   21.9143 S   0  0  0  0  0  0
  -31.4672  -12.4465   19.1134 H   0  0  0  0  0  0
  -30.3506  -11.3187   19.7836 H   0  0  0  0  0  0
  -29.7392  -11.8393   17.4175 H   0  0  0  0  0  0
  -29.6617  -13.5444   17.7851 H   0  0  0  0  0  0
  -27.8049  -11.3429   18.7553 H   0  0  0  0  0  0
  -27.3689  -12.7213   17.7811 H   0  0  0  0  0  0
  -27.7397  -14.2631   19.6416 H   0  0  0  0  0  0
  -28.7147  -11.8261   21.1778 H   0  0  0  0  0  0
  -28.3938  -13.2969   21.9347 H   0  0  0  0  0  0
  -25.2800   -9.5646   22.4770 H   0  0  0  0  0  0
  -24.0034   -7.4603   22.7455 H   0  0  0  0  0  0
  -21.0893   -8.8820   19.8945 H   0  0  0  0  0  0
  -22.3776  -10.9709   19.6182 H   0  0  0  0  0  0
  -21.2041   -7.6152   23.9709 H   0  0  0  0  0  0
  -21.1462   -6.0515   25.9061 H   0  0  0  0  0  0
  -22.0625   -2.7613   23.2826 H   0  0  0  0  0  0
  -22.4196  -11.9910   22.4781 H   0  0  0  0  0  0
  -21.1174  -13.1247   22.2603 H   0  0  0  0  0  0
  -24.6828  -15.8518   20.5247 H   0  0  0  0  0  0
  -26.3031  -15.6193   20.1022 H   0  0  0  0  0  0
  -26.7095  -32.5537   23.1141 H   0  0  0  0  0  0
  -25.0109  -33.9768   25.0504 H   0  0  0  0  0  0
  -22.6892  -31.3019   21.3999 H   0  0  0  0  0  0
  -23.3743  -35.9651   23.3312 H   0  0  0  0  0  0
  -24.3575  -36.8915   22.2046 H   0  0  0  0  0  0
  -23.7254  -37.6531   23.6636 H   0  0  0  0  0  0
  -26.0415  -31.6020   20.5910 H   0  0  0  0  0  0
  -26.8136  -30.8898   21.9815 H   0  0  0  0  0  0
  -28.1068  -29.1389   21.1396 H   0  0  0  0  0  0
  -26.1092  -25.9585   19.0306 H   0  0  0  0  0  0
  -23.9979  -27.2641   19.0527 H   0  0  0  0  0  0
  -23.7155  -30.5761   19.3977 H   0  0  0  0  0  0
  -22.7375  -29.2248   19.8712 H   0  0  0  0  0  0
  -25.1283  -36.1961   25.0843 H   0  0  0  0  0  0
  -20.9986  -28.3223   24.1433 H   0  0  0  0  0  0
  -20.5698  -26.2253   23.3593 H   0  0  0  0  0  0
  -21.6635  -26.7444   22.1185 H   0  0  0  0  0  0
  -19.6905  -25.6310   21.1215 H   0  0  0  0  0  0
  -19.6673  -27.3199   20.6757 H   0  0  0  0  0  0
  -17.4198  -26.6686   21.4038 H   0  0  0  0  0  0
  -18.0321  -26.0063   22.9020 H   0  0  0  0  0  0
  -19.7933  -30.7282   24.2241 H   0  0  0  0  0  0
  -17.5014  -31.6252   24.5178 H   0  0  0  0  0  0
  -15.5357  -30.2978   23.7671 H   0  0  0  0  0  0
  -15.8679  -28.0847   22.7025 H   0  0  0  0  0  0
  -24.5907  -30.7076   25.7831 H   0  0  0  0  0  0
  -24.8991  -32.2866   26.4957 H   0  0  0  0  0  0
  -25.8142  -30.8851   27.0204 H   0  0  0  0  0  0
  -26.2844  -29.6775   24.1163 H   0  0  0  0  0  0
  -27.4088  -29.7271   25.4550 H   0  0  0  0  0  0
  -27.8677  -30.4331   23.9223 H   0  0  0  0  0  0
  -27.2640  -33.3588   26.2081 H   0  0  0  0  0  0
  -28.3835  -32.6912   25.0301 H   0  0  0  0  0  0
  -28.0720  -31.8425   26.5370 H   0  0  0  0  0  0
  -28.2600  -38.0108   24.7496 H   0  0  0  0  0  0
  -28.1081  -36.2634   24.6300 H   0  0  0  0  0  0
  -27.2294  -37.1471   25.8868 H   0  0  0  0  0  0
  -20.9286  -29.8744   21.6940 H   0  0  0  0  0  0
  -26.0189  -38.2875   24.1398 H   0  0  0  0  0  0
  -29.1501  -16.5596   19.2273 H   0  0  0  0  0  0
  -28.2142  -24.9603   22.9538 H   0  0  0  0  0  0
  -26.8229  -25.6304   22.1129 H   0  0  0  0  0  0
  -28.0799  -26.6923   22.7523 H   0  0  0  0  0  0
  -31.6341  -16.3038   23.5063 H   0  0  0  0  0  0
  -32.6330  -15.8801   22.1295 H   0  0  0  0  0  0
  -31.9055  -14.6271   23.1233 H   0  0  0  0  0  0
  -29.2561  -16.2007   23.4684 H   0  0  0  0  0  0
  -29.3963  -14.4746   23.3331 H   0  0  0  0  0  0
  -28.3280  -15.4047   22.2328 H   0  0  0  0  0  0
  -27.4667  -24.0403   20.0944 H   0  0  0  0  0  0
  -28.9115  -24.3778   19.1799 H   0  0  0  0  0  0
  -29.0079  -23.0813   21.9419 H   0  0  0  0  0  0
  -29.7283  -25.7466   21.1761 H   0  0  0  0  0  0
  -30.7229  -21.1950   21.2705 H   0  0  0  0  0  0
  1 25  1  0  0  0
  1 30  2  0  0  0
  1 81  1  0  0  0
  2  3  1  0  0  0
  2 25  1  0  0  0
  2 87  1  0  0  0
  2 88  1  0  0  0
  3  4  1  0  0  0
  3 89  1  0  0  0
  3 90  1  0  0  0
  4  5  1  0  0  0
  4 91  1  0  0  0
  4 92  1  0  0  0
  5  6  1  0  0  0
  5 26  1  0  0  0
  5 93  1  0  0  0
  6 25  1  0  0  0
  6 94  1  0  0  0
  6 95  1  0  0  0
  7  8  2  0  0  0
  7 26  1  0  0  0
  7 29  1  0  0  0
  8  9  1  0  0  0
  8 22  1  0  0  0
  9 10  1  0  0  0
  9 27  2  0  0  0
 10 11  2  0  0  0
 10 15  1  0  0  0
 11 12  1  0  0  0
 11 96  1  0  0  0
 12 13  2  0  0  0
 12 97  1  0  0  0
 13 14  1  0  0  0
 13 31  1  0  0  0
 14 15  2  0  0  0
 14 98  1  0  0  0
 15 99  1  0  0  0
 16 17  2  0  0  0
 16 21  1  0  0  0
 16 31  1  0  0  0
 17 18  1  0  0  0
 17100  1  0  0  0
 18 19  2  0  0  0
 18101  1  0  0  0
 19 20  1  0  0  0
 19 24  1  0  0  0
 20 21  2  0  0  0
 20102  1  0  0  0
 21 23  1  0  0  0
 22 28  1  0  0  0
 22 32  2  0  0  0
 26 27  1  0  0  0
 28103  1  0  0  0
 28104  1  0  0  0
 29105  1  0  0  0
 29106  1  0  0  0
 33 34  1  0  0  0
 33 66  1  0  0  0
 33 70  2  0  0  0
 34 36  1  0  0  0
 34 59  1  0  0  0
 34107  1  0  0  0
 35 44  2  0  0  0
 35 45  1  0  0  0
 35 68  1  0  0  0
 36 56  1  0  0  0
 36108  1  0  0  0
 37 39  1  0  0  0
 37 47  1  0  0  0
 37 66  1  0  0  0
 37109  1  0  0  0
 38 43  2  0  0  0
 38 46  1  0  0  0
 38 47  1  0  0  0
 39 64  1  0  0  0
 39 67  2  0  0  0
 40 52  1  0  0  0
 40 53  2  0  0  0
 40 58  1  0  0  0
 41110  1  0  0  0
 41111  1  0  0  0
 41112  1  0  0  0
 41 48  1  0  0  0
 42 43  1  0  0  0
 42 66  1  0  0  0
 42113  1  0  0  0
 42114  1  0  0  0
 43 44  1  0  0  0
 44115  1  0  0  0
 45 46  2  0  0  0
 45116  1  0  0  0
 46117  1  0  0  0
 47118  1  0  0  0
 47119  1  0  0  0
 48 56  1  0  0  0
 48 65  1  0  0  0
 48120  1  0  0  0
 49 50  1  0  0  0
 49 53  1  0  0  0
 49 64  1  0  0  0
 49121  1  0  0  0
 50 51  1  0  0  0
 50122  1  0  0  0
 50123  1  0  0  0
 51 52  1  0  0  0
 51124  1  0  0  0
 51125  1  0  0  0
 52126  1  0  0  0
 52127  1  0  0  0
 53 54  1  0  0  0
 54 55  2  0  0  0
 54128  1  0  0  0
 55 57  1  0  0  0
 55129  1  0  0  0
 56 69  2  0  0  0
 57 58  2  0  0  0
 57130  1  0  0  0
 58131  1  0  0  0
 59 60  1  0  0  0
 59 61  1  0  0  0
 59 62  1  0  0  0
 60132  1  0  0  0
 60133  1  0  0  0
 60134  1  0  0  0
 61135  1  0  0  0
 61136  1  0  0  0
 61137  1  0  0  0
 62138  1  0  0  0
 62139  1  0  0  0
 62140  1  0  0  0
 63 65  1  0  0  0
 63141  1  0  0  0
 63142  1  0  0  0
 63143  1  0  0  0
 64144  1  0  0  0
 65145  1  0  0  0
 68 80  1  0  0  0
 71 72  2  0  0  0
 71 82  1  0  0  0
 71146  1  0  0  0
 72 81  1  0  0  0
 72 86  1  0  0  0
 73 82  2  0  0  0
 73 83  1  0  0  0
 73 86  1  0  0  0
 74 79  1  0  0  0
 74 83  1  0  0  0
 74 84  2  0  0  0
 75147  1  0  0  0
 75148  1  0  0  0
 75149  1  0  0  0
 75 80  1  0  0  0
 76150  1  0  0  0
 76151  1  0  0  0
 76152  1  0  0  0
 76 81  1  0  0  0
 77 81  1  0  0  0
 77153  1  0  0  0
 77154  1  0  0  0
 77155  1  0  0  0
 78 79  1  0  0  0
 78 80  1  0  0  0
 78156  1  0  0  0
 78157  1  0  0  0
 79 85  1  0  0  0
 79158  1  0  0  0
 80159  1  0  0  0
 83160  1  0  0  0
M  ISO  4   1 100  68 101  80 101  81 100
M  END
> <chiral flag>
0

> <version>
0

> <s_m_source_file>
/data/baiqing/PycharmProjects/Reinvent-master-3.2/result/LINK_invent/BTK/process_docking_weight1_custom_product_contain_oxygen_bond_distance_aromatic_linkinvent_7_9_3/rearranged_h_0184.sdf

> <i_m_source_file_index>
53

> <r_mmod_Potential_Energy-OPLS-2005>
-54.9510307312012

> <r_mmod_Stretch_Energy-OPLS-2005>
45.8039588928223

> <r_mmod_Bend_Energy-OPLS-2005>
154.183532714844

> <r_mmod_Torsional_Energy-OPLS-2005>
198.196716308594

> <r_mmod_Improper_Torsional_Energy-OPLS-2005>
2.57561206817627

> <r_mmod_Van_der_Waal_Energy-OPLS-2005>
140.381912231445

> <r_mmod_Electrostatic_Energy-OPLS-2005>
-386.188507080078

> <r_mmod_Solvation_Energy-OPLS-2005>
-220.402160644531

> <b_mmod_Minimization_Converged-OPLS-2005>
0

> <r_mmod_RMS_Derivative-OPLS-2005>
2.87045884132385

$$$$
53
                    3D
 Structure written by MMmdl.
173182  0  0  1  0            999 V2000
  -30.7005  -14.5281   20.5208 C   0  0  0  0  0  0
  -30.4166  -12.3245   19.4394 C   0  0  0  0  0  0
  -29.4960  -12.4953   18.2132 C   0  0  0  0  0  0
  -28.0164  -12.3584   18.6229 C   0  0  0  0  0  0
  -27.6543  -13.2160   19.8657 C   0  0  2  0  0  0
  -28.6999  -13.0491   20.9936 C   0  0  0  0  0  0
  -25.2562  -13.8191   20.5694 C   0  0  0  0  0  0
  -24.1826  -13.0448   20.9182 C   0  0  0  0  0  0
  -24.6389  -11.6914   20.8733 C   0  0  0  0  0  0
  -23.9054  -10.4298   21.0400 C   0  0  0  0  0  0
  -24.3613   -9.4217   21.9178 C   0  0  0  0  0  0
  -23.6291   -8.2246   22.0754 C   0  0  0  0  0  0
  -22.4275   -8.0279   21.3542 C   0  0  0  0  0  0
  -21.9903   -9.0248   20.4645 C   0  0  0  0  0  0
  -22.7227  -10.2133   20.3050 C   0  0  0  0  0  0
  -21.6849   -6.0732   22.5275 C   0  0  0  0  0  0
  -21.4013   -6.5633   23.8208 C   0  0  0  0  0  0
  -21.3660   -5.6788   24.9171 C   0  0  0  0  0  0
  -21.6048   -4.3046   24.7221 C   0  0  0  0  0  0
  -21.8820   -3.8141   23.4340 C   0  0  0  0  0  0
  -21.9192   -4.6957   22.3396 C   0  0  0  0  0  0
  -22.7850  -13.5236   21.1838 C   0  0  0  0  0  0
  -22.1660   -4.2142   21.0973 F   0  0  0  0  0  0
  -21.5631   -3.4535   25.7735 F   0  0  0  0  0  0
  -30.0235  -13.3457   20.4267 N   0  0  0  0  0  0
  -26.2993  -12.9366   20.3342 N   0  0  0  0  0  0
  -25.9320  -11.6521   20.5774 N   0  0  0  0  0  0
  -22.0484  -12.8237   22.0395 N   0  0  0  0  0  0
  -25.4287  -15.1919   20.4121 N   0  0  0  0  0  0
  -31.8639  -14.6220   20.1163 O   0  0  0  0  0  0
  -21.6635   -6.8879   21.4239 O   0  0  0  0  0  0
  -22.3540  -14.5538   20.6675 O   0  0  0  0  0  0
  -24.6184  -31.8636   23.2071 C   0  0  0  0  0  0
  -25.9065  -32.4790   23.8374 C   0  0  1  0  0  0
  -27.2218  -27.3982   20.1013 C   0  0  0  0  0  0
  -25.5915  -33.8592   24.2304 N   0  0  0  0  0  0
  -23.4068  -30.4875   21.5483 C   0  0  2  0  0  0
  -24.8529  -28.9518   20.1060 C   0  0  0  0  0  0
  -22.7427  -29.4630   22.4967 C   0  0  0  0  0  0
  -18.0275  -28.1376   22.8482 C   0  0  0  0  0  0
  -24.1487  -36.7311   23.2635 C   0  0  0  0  0  0
  -25.9394  -30.8162   21.3661 C   0  0  0  0  0  0
  -26.0145  -29.4488   20.7124 C   0  0  0  0  0  0
  -27.2051  -28.6784   20.7096 C   0  0  0  0  0  0
  -26.0568  -26.9430   19.4503 C   0  0  0  0  0  0
  -24.8708  -27.7003   19.4672 C   0  0  0  0  0  0
  -23.6141  -29.8191   20.1624 C   0  0  0  0  0  0
  -25.4102  -36.3087   24.0333 C   0  0  1  0  0  0
  -20.5867  -28.3659   23.1305 C   0  0  2  0  0  0
  -20.6766  -26.9390   22.5412 C   0  0  0  0  0  0
  -19.5744  -26.6375   21.5206 C   0  0  0  0  0  0
  -18.1922  -26.7919   22.1617 C   0  0  0  0  0  0
  -19.1528  -28.8834   23.2884 C   0  0  0  0  0  0
  -18.9452  -30.1444   23.8878 C   0  0  0  0  0  0
  -17.6455  -30.6576   24.0562 C   0  0  0  0  0  0
  -25.9040  -34.9456   23.5115 C   0  0  0  0  0  0
  -16.5343  -29.9075   23.6336 C   0  0  0  0  0  0
  -16.7262  -28.6502   23.0335 C   0  0  0  0  0  0
  -26.4487  -31.6575   25.0711 C   0  0  0  0  0  0
  -25.3756  -31.3692   26.1465 C   0  0  0  0  0  0
  -27.0316  -30.3006   24.6102 C   0  0  0  0  0  0
  -27.6051  -32.4296   25.7492 C   0  0  0  0  0  0
  -27.5579  -37.1807   24.8456 C   0  0  0  0  0  0
  -21.4151  -29.3028   22.3720 N   0  0  0  0  0  0
  -26.4284  -37.3774   23.9413 N   0  0  0  0  0  0
  -24.6731  -31.0709   22.0983 N   0  0  0  0  0  0
  -23.4180  -28.8165   23.3021 O   0  0  0  0  0  0
  -28.3372  -26.5775   20.1474 O   0  0  0  0  0  0
  -26.5593  -34.8916   22.4674 O   0  0  0  0  0  0
  -23.5373  -32.1401   23.7465 O   0  0  0  0  0  0
  -29.5718  -19.1226   20.7544 C   0  0  0  0  0  0
  -31.7017  -18.6591   21.0539 C   0  0  0  0  0  0
  -30.2666  -16.9734   20.8806 C   0  0  0  0  0  0
  -28.8536  -24.1076   20.2459 C   0  0  0  0  0  0
  -27.3273  -20.0926   22.9415 C   0  0  0  0  0  0
  -27.1807  -19.8545   21.4267 C   0  0  0  0  0  0
  -28.6918  -20.6920   23.3087 C   0  0  0  0  0  0
  -28.4513  -20.1893   20.6040 C   0  0  1  0  0  0
  -29.0785  -21.8747   22.3885 C   0  0  1  0  0  0
  -30.4879  -22.3931   22.7342 C   0  0  0  0  0  0
  -27.7133  -22.4262   18.7600 C   0  0  0  0  0  0
  -26.9298  -25.1179   21.7325 C   0  0  0  0  0  0
  -28.1047  -22.7171   20.2292 C   0  0  1  0  0  0
  -28.2621  -25.3657   20.9740 C   0  0  2  0  0  0
  -30.8038  -19.6051   20.8844 N   0  0  0  0  0  0
  -29.2386  -17.8172   20.7134 N   0  0  0  0  0  0
  -31.5259  -17.3563   21.0935 N   0  0  0  0  0  0
  -32.9718  -19.0918   21.2386 N   0  0  0  0  0  0
  -29.9603  -15.6143   20.8743 N   0  0  0  0  0  0
  -28.9067  -21.6092   20.9091 N   0  3  2  0  0  0
  -29.9480  -24.2222   19.6855 O   0  0  0  0  0  0
  -31.4632  -12.4037   19.1395 H   0  0  0  0  0  0
  -30.3072  -11.3258   19.8661 H   0  0  0  0  0  0
  -29.7420  -11.7555   17.4500 H   0  0  0  0  0  0
  -29.6641  -13.4721   17.7569 H   0  0  0  0  0  0
  -27.8272  -11.3048   18.8323 H   0  0  0  0  0  0
  -27.3681  -12.6206   17.7856 H   0  0  0  0  0  0
  -27.6807  -14.2556   19.5384 H   0  0  0  0  0  0
  -28.6862  -12.0291   21.3813 H   0  0  0  0  0  0
  -28.4649  -13.6918   21.8443 H   0  0  0  0  0  0
  -25.2766   -9.5687   22.4747 H   0  0  0  0  0  0
  -23.9996   -7.4643   22.7475 H   0  0  0  0  0  0
  -21.0832   -8.8756   19.8960 H   0  0  0  0  0  0
  -22.3678  -10.9659   19.6150 H   0  0  0  0  0  0
  -21.2002   -7.6144   23.9709 H   0  0  0  0  0  0
  -21.1484   -6.0518   25.9077 H   0  0  0  0  0  0
  -22.0600   -2.7599   23.2835 H   0  0  0  0  0  0
  -22.4078  -11.9885   22.4776 H   0  0  0  0  0  0
  -21.1107  -13.1269   22.2593 H   0  0  0  0  0  0
  -24.6586  -15.8437   20.5190 H   0  0  0  0  0  0
  -26.2749  -15.6335   20.0753 H   0  0  0  0  0  0
  -26.7135  -32.5487   23.1134 H   0  0  0  0  0  0
  -25.0119  -33.9739   25.0489 H   0  0  0  0  0  0
  -22.6979  -31.3057   21.4102 H   0  0  0  0  0  0
  -23.3735  -35.9657   23.3283 H   0  0  0  0  0  0
  -24.3595  -36.8935   22.2053 H   0  0  0  0  0  0
  -23.7256  -37.6521   23.6659 H   0  0  0  0  0  0
  -26.0568  -31.5766   20.5932 H   0  0  0  0  0  0
  -26.8283  -30.8701   21.9831 H   0  0  0  0  0  0
  -28.0969  -29.0450   21.1979 H   0  0  0  0  0  0
  -26.0567  -25.9837   18.9529 H   0  0  0  0  0  0
  -23.9833  -27.3152   18.9833 H   0  0  0  0  0  0
  -23.7171  -30.5915   19.3998 H   0  0  0  0  0  0
  -22.7378  -29.2355   19.8719 H   0  0  0  0  0  0
  -25.1280  -36.1941   25.0822 H   0  0  0  0  0  0
  -20.9961  -28.3219   24.1425 H   0  0  0  0  0  0
  -20.5658  -26.2266   23.3599 H   0  0  0  0  0  0
  -21.6639  -26.7429   22.1208 H   0  0  0  0  0  0
  -19.6895  -25.6285   21.1229 H   0  0  0  0  0  0
  -19.6677  -27.3195   20.6738 H   0  0  0  0  0  0
  -17.4196  -26.6661   21.4012 H   0  0  0  0  0  0
  -18.0319  -26.0057   22.9008 H   0  0  0  0  0  0
  -19.7927  -30.7276   24.2211 H   0  0  0  0  0  0
  -17.5010  -31.6246   24.5182 H   0  0  0  0  0  0
  -15.5344  -30.2971   23.7672 H   0  0  0  0  0  0
  -15.8662  -28.0831   22.7029 H   0  0  0  0  0  0
  -24.5919  -30.7041   25.7824 H   0  0  0  0  0  0
  -24.8964  -32.2853   26.4921 H   0  0  0  0  0  0
  -25.8120  -30.8862   27.0214 H   0  0  0  0  0  0
  -26.2863  -29.6766   24.1148 H   0  0  0  0  0  0
  -27.4073  -29.7236   25.4565 H   0  0  0  0  0  0
  -27.8709  -30.4315   23.9264 H   0  0  0  0  0  0
  -27.2654  -33.3582   26.2089 H   0  0  0  0  0  0
  -28.3868  -32.6866   25.0334 H   0  0  0  0  0  0
  -28.0708  -31.8400   26.5398 H   0  0  0  0  0  0
  -28.2575  -38.0124   24.7523 H   0  0  0  0  0  0
  -28.1095  -36.2661   24.6246 H   0  0  0  0  0  0
  -27.2310  -37.1411   25.8858 H   0  0  0  0  0  0
  -20.9313  -29.8788   21.6975 H   0  0  0  0  0  0
  -26.0160  -38.2845   24.1411 H   0  0  0  0  0  0
  -27.1807  -19.1567   23.4828 H   0  0  0  0  0  0
  -26.5319  -20.7586   23.2801 H   0  0  0  0  0  0
  -26.3576  -20.4698   21.0630 H   0  0  0  0  0  0
  -26.8617  -18.8290   21.2355 H   0  0  0  0  0  0
  -29.4601  -19.9196   23.2916 H   0  0  0  0  0  0
  -28.6652  -21.0280   24.3470 H   0  0  0  0  0  0
  -28.2043  -20.0908   19.5500 H   0  0  0  0  0  0
  -28.3883  -22.6645   22.6761 H   0  0  0  0  0  0
  -31.2602  -21.6472   22.5491 H   0  0  0  0  0  0
  -30.5465  -22.6567   23.7905 H   0  0  0  0  0  0
  -30.7525  -23.2895   22.1757 H   0  0  0  0  0  0
  -27.2893  -23.3135   18.2873 H   0  0  0  0  0  0
  -26.9434  -21.6581   18.6784 H   0  0  0  0  0  0
  -28.5736  -22.1274   18.1592 H   0  0  0  0  0  0
  -26.6003  -26.0155   22.2557 H   0  0  0  0  0  0
  -27.0308  -24.3577   22.5025 H   0  0  0  0  0  0
  -26.1232  -24.8053   21.0703 H   0  0  0  0  0  0
  -27.1674  -22.8053   20.7739 H   0  0  0  0  0  0
  -28.9898  -25.5637   21.7624 H   0  0  0  0  0  0
  -33.1795  -20.0307   20.9292 H   0  0  0  0  0  0
  -33.7055  -18.4130   21.0903 H   0  0  0  0  0  0
  -28.9947  -15.4091   21.0595 H   0  0  0  0  0  0
  -29.8422  -21.6030   20.5197 H   0  0  0  0  0  0
  1 25  1  0  0  0
  1 30  2  0  0  0
  1 89  1  0  0  0
  2  3  1  0  0  0
  2 25  1  0  0  0
  2 92  1  0  0  0
  2 93  1  0  0  0
  3  4  1  0  0  0
  3 94  1  0  0  0
  3 95  1  0  0  0
  4  5  1  0  0  0
  4 96  1  0  0  0
  4 97  1  0  0  0
  5  6  1  0  0  0
  5 26  1  0  0  0
  5 98  1  0  0  0
  6 25  1  0  0  0
  6 99  1  0  0  0
  6100  1  0  0  0
  7  8  2  0  0  0
  7 26  1  0  0  0
  7 29  1  0  0  0
  8  9  1  0  0  0
  8 22  1  0  0  0
  9 10  1  0  0  0
  9 27  2  0  0  0
 10 11  2  0  0  0
 10 15  1  0  0  0
 11 12  1  0  0  0
 11101  1  0  0  0
 12 13  2  0  0  0
 12102  1  0  0  0
 13 14  1  0  0  0
 13 31  1  0  0  0
 14 15  2  0  0  0
 14103  1  0  0  0
 15104  1  0  0  0
 16 17  2  0  0  0
 16 21  1  0  0  0
 16 31  1  0  0  0
 17 18  1  0  0  0
 17105  1  0  0  0
 18 19  2  0  0  0
 18106  1  0  0  0
 19 20  1  0  0  0
 19 24  1  0  0  0
 20 21  2  0  0  0
 20107  1  0  0  0
 21 23  1  0  0  0
 22 28  1  0  0  0
 22 32  2  0  0  0
 26 27  1  0  0  0
 28108  1  0  0  0
 28109  1  0  0  0
 29110  1  0  0  0
 29111  1  0  0  0
 33 34  1  0  0  0
 33 66  1  0  0  0
 33 70  2  0  0  0
 34 36  1  0  0  0
 34 59  1  0  0  0
 34112  1  0  0  0
 35 44  2  0  0  0
 35 45  1  0  0  0
 35 68  1  0  0  0
 36 56  1  0  0  0
 36113  1  0  0  0
 37 39  1  0  0  0
 37 47  1  0  0  0
 37 66  1  0  0  0
 37114  1  0  0  0
 38 43  2  0  0  0
 38 46  1  0  0  0
 38 47  1  0  0  0
 39 64  1  0  0  0
 39 67  2  0  0  0
 40 52  1  0  0  0
 40 53  2  0  0  0
 40 58  1  0  0  0
 41115  1  0  0  0
 41116  1  0  0  0
 41117  1  0  0  0
 41 48  1  0  0  0
 42 43  1  0  0  0
 42 66  1  0  0  0
 42118  1  0  0  0
 42119  1  0  0  0
 43 44  1  0  0  0
 44120  1  0  0  0
 45 46  2  0  0  0
 45121  1  0  0  0
 46122  1  0  0  0
 47123  1  0  0  0
 47124  1  0  0  0
 48 56  1  0  0  0
 48 65  1  0  0  0
 48125  1  0  0  0
 49 50  1  0  0  0
 49 53  1  0  0  0
 49 64  1  0  0  0
 49126  1  0  0  0
 50 51  1  0  0  0
 50127  1  0  0  0
 50128  1  0  0  0
 51 52  1  0  0  0
 51129  1  0  0  0
 51130  1  0  0  0
 52131  1  0  0  0
 52132  1  0  0  0
 53 54  1  0  0  0
 54 55  2  0  0  0
 54133  1  0  0  0
 55 57  1  0  0  0
 55134  1  0  0  0
 56 69  2  0  0  0
 57 58  2  0  0  0
 57135  1  0  0  0
 58136  1  0  0  0
 59 60  1  0  0  0
 59 61  1  0  0  0
 59 62  1  0  0  0
 60137  1  0  0  0
 60138  1  0  0  0
 60139  1  0  0  0
 61140  1  0  0  0
 61141  1  0  0  0
 61142  1  0  0  0
 62143  1  0  0  0
 62144  1  0  0  0
 62145  1  0  0  0
 63 65  1  0  0  0
 63146  1  0  0  0
 63147  1  0  0  0
 63148  1  0  0  0
 64149  1  0  0  0
 65150  1  0  0  0
 68 84  1  0  0  0
 71 85  1  0  0  0
 71 86  2  0  0  0
 71 78  1  0  0  0
 72 85  2  0  0  0
 72 87  1  0  0  0
 72 88  1  0  0  0
 73 86  1  0  0  0
 73 87  2  0  0  0
 73 89  1  0  0  0
 74 83  1  0  0  0
 74 84  1  0  0  0
 74 91  2  0  0  0
 75 76  1  0  0  0
 75 77  1  0  0  0
 75151  1  0  0  0
 75152  1  0  0  0
 76 78  1  0  0  0
 76153  1  0  0  0
 76154  1  0  0  0
 77 79  1  0  0  0
 77155  1  0  0  0
 77156  1  0  0  0
 78 90  1  0  0  0
 78157  1  0  0  0
 79 80  1  0  0  0
 79 90  1  0  0  0
 79158  1  0  0  0
 80159  1  0  0  0
 80160  1  0  0  0
 80161  1  0  0  0
 81162  1  0  0  0
 81163  1  0  0  0
 81164  1  0  0  0
 81 83  1  0  0  0
 82165  1  0  0  0
 82166  1  0  0  0
 82167  1  0  0  0
 82 84  1  0  0  0
 83168  1  0  0  0
 83 90  1  0  0  0
 84169  1  0  0  0
 88170  1  0  0  0
 88171  1  0  0  0
 89172  1  0  0  0
 90173  1  0  0  0
M  CHG  1  90   1
M  ISO  4   1 100  68 101  84 101  89 100
M  END
> <chiral flag>
0

> <version>
0

> <s_m_source_file>
/data/baiqing/PycharmProjects/Reinvent-master-3.2/result/LINK_invent/BTK/process_docking_weight1_custom_product_contain_oxygen_bond_distance_aromatic_linkinvent_7_9_3/rearranged_h_0184.sdf

> <i_m_source_file_index>
54

> <r_mmod_Potential_Energy-OPLS-2005>
-900.709167480469

> <r_mmod_Stretch_Energy-OPLS-2005>
65.4745559692383

> <r_mmod_Bend_Energy-OPLS-2005>
138.638336181641

> <r_mmod_Torsional_Energy-OPLS-2005>
329.311187744141

> <r_mmod_Improper_Torsional_Energy-OPLS-2005>
8.14691352844238

> <r_mmod_Van_der_Waal_Energy-OPLS-2005>
189.860641479492

> <r_mmod_Electrostatic_Energy-OPLS-2005>
-1204.98559570312

> <r_mmod_Solvation_Energy-OPLS-2005>
-451.943359375

> <b_mmod_Minimization_Converged-OPLS-2005>
0

> <r_mmod_RMS_Derivative-OPLS-2005>
1.58485043048859

$$$$
54
                    3D
 Structure written by MMmdl.
165173  0  0  1  0            999 V2000
  -30.6584  -14.7300   20.4405 C   0  0  0  0  0  0
  -30.4226  -12.4464   19.4771 C   0  0  0  0  0  0
  -29.5071  -12.5017   18.2361 C   0  0  0  0  0  0
  -28.0333  -12.3335   18.6508 C   0  0  0  0  0  0
  -27.6397  -13.2408   19.8480 C   0  0  2  0  0  0
  -28.6865  -13.2003   20.9830 C   0  0  0  0  0  0
  -25.2487  -13.8226   20.5703 C   0  0  0  0  0  0
  -24.1789  -13.0450   20.9212 C   0  0  0  0  0  0
  -24.6400  -11.6935   20.8753 C   0  0  0  0  0  0
  -23.9081  -10.4302   21.0407 C   0  0  0  0  0  0
  -24.3630   -9.4214   21.9183 C   0  0  0  0  0  0
  -23.6304   -8.2248   22.0754 C   0  0  0  0  0  0
  -22.4285   -8.0288   21.3545 C   0  0  0  0  0  0
  -21.9925   -9.0258   20.4644 C   0  0  0  0  0  0
  -22.7256  -10.2137   20.3053 C   0  0  0  0  0  0
  -21.6855   -6.0737   22.5279 C   0  0  0  0  0  0
  -21.4014   -6.5638   23.8212 C   0  0  0  0  0  0
  -21.3660   -5.6793   24.9176 C   0  0  0  0  0  0
  -21.6047   -4.3057   24.7228 C   0  0  0  0  0  0
  -21.8818   -3.8147   23.4349 C   0  0  0  0  0  0
  -21.9190   -4.6961   22.3405 C   0  0  0  0  0  0
  -22.7803  -13.5213   21.1873 C   0  0  0  0  0  0
  -22.1658   -4.2144   21.0981 F   0  0  0  0  0  0
  -21.5635   -3.4540   25.7741 F   0  0  0  0  0  0
  -29.9879  -13.5284   20.3908 N   0  0  0  0  0  0
  -26.2933  -12.9455   20.3299 N   0  0  0  0  0  0
  -25.9337  -11.6585   20.5770 N   0  0  0  0  0  0
  -22.0456  -12.8193   22.0432 N   0  0  0  0  0  0
  -25.4147  -15.1953   20.4116 N   0  0  0  0  0  0
  -31.8623  -14.7534   20.1879 O   0  0  0  0  0  0
  -21.6651   -6.8883   21.4242 O   0  0  0  0  0  0
  -22.3476  -14.5511   20.6721 O   0  0  0  0  0  0
  -24.6324  -31.8566   23.2010 C   0  0  0  0  0  0
  -25.9147  -32.4761   23.8353 C   0  0  1  0  0  0
  -27.2094  -27.2525   20.1241 C   0  0  0  0  0  0
  -25.5943  -33.8567   24.2269 N   0  0  0  0  0  0
  -23.4292  -30.4830   21.5453 C   0  0  2  0  0  0
  -24.8752  -28.9394   20.1086 C   0  0  0  0  0  0
  -22.7505  -29.4615   22.4908 C   0  0  0  0  0  0
  -18.0288  -28.1390   22.8488 C   0  0  0  0  0  0
  -24.1490  -36.7279   23.2639 C   0  0  0  0  0  0
  -25.9793  -30.7658   21.3860 C   0  0  0  0  0  0
  -26.0502  -29.3904   20.7239 C   0  0  0  0  0  0
  -27.2202  -28.5596   20.7248 C   0  0  0  0  0  0
  -26.0115  -26.8919   19.4585 C   0  0  0  0  0  0
  -24.8623  -27.6987   19.4639 C   0  0  0  0  0  0
  -23.6474  -29.8261   20.1594 C   0  0  0  0  0  0
  -25.4123  -36.3073   24.0322 C   0  0  1  0  0  0
  -20.5897  -28.3709   23.1260 C   0  0  2  0  0  0
  -20.6783  -26.9425   22.5405 C   0  0  0  0  0  0
  -19.5755  -26.6389   21.5214 C   0  0  0  0  0  0
  -18.1935  -26.7934   22.1624 C   0  0  0  0  0  0
  -19.1543  -28.8864   23.2871 C   0  0  0  0  0  0
  -18.9466  -30.1464   23.8894 C   0  0  0  0  0  0
  -17.6467  -30.6592   24.0567 C   0  0  0  0  0  0
  -25.9063  -34.9442   23.5096 C   0  0  0  0  0  0
  -16.5356  -29.9092   23.6336 C   0  0  0  0  0  0
  -16.7275  -28.6506   23.0366 C   0  0  0  0  0  0
  -26.4513  -31.6582   25.0741 C   0  0  0  0  0  0
  -25.3725  -31.3727   26.1449 C   0  0  0  0  0  0
  -27.0374  -30.2999   24.6244 C   0  0  0  0  0  0
  -27.6067  -32.4327   25.7512 C   0  0  0  0  0  0
  -27.5581  -37.1799   24.8469 C   0  0  0  0  0  0
  -21.4211  -29.3054   22.3644 N   0  0  0  0  0  0
  -26.4297  -37.3774   23.9405 N   0  0  0  0  0  0
  -24.6996  -31.0528   22.0998 N   0  0  0  0  0  0
  -23.4200  -28.8141   23.3001 O   0  0  0  0  0  0
  -28.2707  -26.3095   20.2047 O   0  0  0  0  0  0
  -26.5632  -34.8913   22.4664 O   0  0  0  0  0  0
  -23.5471  -32.1396   23.7293 O   0  0  0  0  0  0
  -27.7751  -19.9640   20.4456 C   0  0  0  0  0  0
  -28.6726  -21.0248   20.4022 C   0  0  0  0  0  0
  -29.6468  -18.5815   20.3484 C   0  0  0  0  0  0
  -28.8509  -23.6305   20.3409 C   0  0  0  0  0  0
  -26.2830  -20.0977   20.4737 C   0  0  0  0  0  0
  -32.2767  -19.1239   18.0393 C   0  0  0  0  0  0
  -33.1082  -16.7662   18.1282 C   0  0  0  0  0  0
  -31.7275  -17.5379   16.2055 C   0  0  0  0  0  0
  -27.8962  -24.8657   19.9669 C   0  0  0  0  0  0
  -30.5949  -17.2068   18.4181 C   0  0  0  0  0  0
  -30.4647  -17.2793   19.9792 C   0  0  2  0  0  0
  -31.9201  -17.6616   17.7309 C   0  0  0  0  0  0
  -28.3116  -18.6487   20.4082 N   0  0  0  0  0  0
  -28.2779  -22.3712   20.2884 N   0  0  0  0  0  0
  -29.9512  -15.9229   20.4836 N   0  0  0  0  0  0
  -30.0312  -23.8136   20.6502 O   0  0  0  0  0  0
  -30.2945  -20.2828   20.4399 S   0  0  0  0  0  0
  -31.4661  -12.5474   19.1740 H   0  0  0  0  0  0
  -30.3478  -11.4771   19.9725 H   0  0  0  0  0  0
  -29.7868  -11.7247   17.5237 H   0  0  0  0  0  0
  -29.6398  -13.4542   17.7201 H   0  0  0  0  0  0
  -27.8870  -11.2862   18.9175 H   0  0  0  0  0  0
  -27.3769  -12.5241   17.8010 H   0  0  0  0  0  0
  -27.6277  -14.2588   19.4590 H   0  0  0  0  0  0
  -28.7164  -12.2159   21.4514 H   0  0  0  0  0  0
  -28.4304  -13.9113   21.7701 H   0  0  0  0  0  0
  -25.2775   -9.5684   22.4757 H   0  0  0  0  0  0
  -24.0006   -7.4640   22.7477 H   0  0  0  0  0  0
  -21.0857   -8.8783   19.8949 H   0  0  0  0  0  0
  -22.3721  -10.9673   19.6159 H   0  0  0  0  0  0
  -21.2009   -7.6146   23.9717 H   0  0  0  0  0  0
  -21.1484   -6.0525   25.9079 H   0  0  0  0  0  0
  -22.0597   -2.7605   23.2861 H   0  0  0  0  0  0
  -22.4086  -11.9860   22.4811 H   0  0  0  0  0  0
  -21.1066  -13.1197   22.2635 H   0  0  0  0  0  0
  -24.6453  -15.8463   20.5255 H   0  0  0  0  0  0
  -26.2632  -15.6416   20.0878 H   0  0  0  0  0  0
  -26.7214  -32.5412   23.1094 H   0  0  0  0  0  0
  -25.0091  -33.9721   25.0414 H   0  0  0  0  0  0
  -22.7256  -31.3061   21.4028 H   0  0  0  0  0  0
  -23.3760  -35.9604   23.3309 H   0  0  0  0  0  0
  -24.3576  -36.8898   22.2051 H   0  0  0  0  0  0
  -23.7236  -37.6478   23.6666 H   0  0  0  0  0  0
  -26.1248  -31.5277   20.6189 H   0  0  0  0  0  0
  -26.8542  -30.8101   22.0225 H   0  0  0  0  0  0
  -28.1134  -28.8960   21.2325 H   0  0  0  0  0  0
  -25.9085  -25.9550   18.9338 H   0  0  0  0  0  0
  -23.9670  -27.3512   18.9663 H   0  0  0  0  0  0
  -23.7722  -30.6068   19.4081 H   0  0  0  0  0  0
  -22.7652  -29.2618   19.8509 H   0  0  0  0  0  0
  -25.1305  -36.1928   25.0816 H   0  0  0  0  0  0
  -20.9996  -28.3297   24.1378 H   0  0  0  0  0  0
  -20.5697  -26.2319   23.3615 H   0  0  0  0  0  0
  -21.6650  -26.7452   22.1190 H   0  0  0  0  0  0
  -19.6922  -25.6300   21.1245 H   0  0  0  0  0  0
  -19.6690  -27.3200   20.6749 H   0  0  0  0  0  0
  -17.4204  -26.6681   21.4028 H   0  0  0  0  0  0
  -18.0334  -26.0075   22.9021 H   0  0  0  0  0  0
  -19.7943  -30.7286   24.2259 H   0  0  0  0  0  0
  -17.5021  -31.6272   24.5172 H   0  0  0  0  0  0
  -15.5360  -30.2999   23.7662 H   0  0  0  0  0  0
  -15.8673  -28.0827   22.7094 H   0  0  0  0  0  0
  -24.5916  -30.7064   25.7767 H   0  0  0  0  0  0
  -24.8896  -32.2889   26.4855 H   0  0  0  0  0  0
  -25.8027  -30.8915   27.0238 H   0  0  0  0  0  0
  -26.2973  -29.6732   24.1255 H   0  0  0  0  0  0
  -27.4038  -29.7278   25.4778 H   0  0  0  0  0  0
  -27.8856  -30.4279   23.9515 H   0  0  0  0  0  0
  -27.2687  -33.3647   26.2057 H   0  0  0  0  0  0
  -28.3888  -32.6852   25.0337 H   0  0  0  0  0  0
  -28.0720  -31.8467   26.5448 H   0  0  0  0  0  0
  -28.2598  -38.0095   24.7515 H   0  0  0  0  0  0
  -28.1072  -36.2624   24.6301 H   0  0  0  0  0  0
  -27.2289  -37.1455   25.8868 H   0  0  0  0  0  0
  -20.9394  -29.8784   21.6857 H   0  0  0  0  0  0
  -26.0172  -38.2843   24.1417 H   0  0  0  0  0  0
  -25.9593  -20.7405   21.2928 H   0  0  0  0  0  0
  -25.7917  -19.1331   20.6054 H   0  0  0  0  0  0
  -25.9088  -20.5279   19.5447 H   0  0  0  0  0  0
  -33.1330  -19.4584   17.4523 H   0  0  0  0  0  0
  -32.5494  -19.2580   19.0854 H   0  0  0  0  0  0
  -31.4494  -19.7950   17.8074 H   0  0  0  0  0  0
  -34.0187  -17.0562   17.6018 H   0  0  0  0  0  0
  -32.9186  -15.7195   17.8886 H   0  0  0  0  0  0
  -33.3272  -16.8262   19.1941 H   0  0  0  0  0  0
  -32.6260  -17.8348   15.6623 H   0  0  0  0  0  0
  -30.9126  -18.1698   15.8496 H   0  0  0  0  0  0
  -31.4968  -16.5134   15.9097 H   0  0  0  0  0  0
  -26.9598  -24.6635   20.4898 H   0  0  0  0  0  0
  -27.6995  -24.7496   18.9006 H   0  0  0  0  0  0
  -29.7620  -17.7601   17.9800 H   0  0  0  0  0  0
  -30.4133  -16.1842   18.0864 H   0  0  0  0  0  0
  -31.4541  -17.4102   20.4174 H   0  0  0  0  0  0
  -27.2913  -22.4551   20.0854 H   0  0  0  0  0  0
  -28.9628  -15.8727   20.6797 H   0  0  0  0  0  0
  1 25  1  0  0  0
  1 30  2  0  0  0
  1 85  1  0  0  0
  2  3  1  0  0  0
  2 25  1  0  0  0
  2 88  1  0  0  0
  2 89  1  0  0  0
  3  4  1  0  0  0
  3 90  1  0  0  0
  3 91  1  0  0  0
  4  5  1  0  0  0
  4 92  1  0  0  0
  4 93  1  0  0  0
  5  6  1  0  0  0
  5 26  1  0  0  0
  5 94  1  0  0  0
  6 25  1  0  0  0
  6 95  1  0  0  0
  6 96  1  0  0  0
  7  8  2  0  0  0
  7 26  1  0  0  0
  7 29  1  0  0  0
  8  9  1  0  0  0
  8 22  1  0  0  0
  9 10  1  0  0  0
  9 27  2  0  0  0
 10 11  2  0  0  0
 10 15  1  0  0  0
 11 12  1  0  0  0
 11 97  1  0  0  0
 12 13  2  0  0  0
 12 98  1  0  0  0
 13 14  1  0  0  0
 13 31  1  0  0  0
 14 15  2  0  0  0
 14 99  1  0  0  0
 15100  1  0  0  0
 16 17  2  0  0  0
 16 21  1  0  0  0
 16 31  1  0  0  0
 17 18  1  0  0  0
 17101  1  0  0  0
 18 19  2  0  0  0
 18102  1  0  0  0
 19 20  1  0  0  0
 19 24  1  0  0  0
 20 21  2  0  0  0
 20103  1  0  0  0
 21 23  1  0  0  0
 22 28  1  0  0  0
 22 32  2  0  0  0
 26 27  1  0  0  0
 28104  1  0  0  0
 28105  1  0  0  0
 29106  1  0  0  0
 29107  1  0  0  0
 33 34  1  0  0  0
 33 66  1  0  0  0
 33 70  2  0  0  0
 34 36  1  0  0  0
 34 59  1  0  0  0
 34108  1  0  0  0
 35 44  2  0  0  0
 35 45  1  0  0  0
 35 68  1  0  0  0
 36 56  1  0  0  0
 36109  1  0  0  0
 37 39  1  0  0  0
 37 47  1  0  0  0
 37 66  1  0  0  0
 37110  1  0  0  0
 38 43  2  0  0  0
 38 46  1  0  0  0
 38 47  1  0  0  0
 39 64  1  0  0  0
 39 67  2  0  0  0
 40 52  1  0  0  0
 40 53  2  0  0  0
 40 58  1  0  0  0
 41111  1  0  0  0
 41112  1  0  0  0
 41113  1  0  0  0
 41 48  1  0  0  0
 42 43  1  0  0  0
 42 66  1  0  0  0
 42114  1  0  0  0
 42115  1  0  0  0
 43 44  1  0  0  0
 44116  1  0  0  0
 45 46  2  0  0  0
 45117  1  0  0  0
 46118  1  0  0  0
 47119  1  0  0  0
 47120  1  0  0  0
 48 56  1  0  0  0
 48 65  1  0  0  0
 48121  1  0  0  0
 49 50  1  0  0  0
 49 53  1  0  0  0
 49 64  1  0  0  0
 49122  1  0  0  0
 50 51  1  0  0  0
 50123  1  0  0  0
 50124  1  0  0  0
 51 52  1  0  0  0
 51125  1  0  0  0
 51126  1  0  0  0
 52127  1  0  0  0
 52128  1  0  0  0
 53 54  1  0  0  0
 54 55  2  0  0  0
 54129  1  0  0  0
 55 57  1  0  0  0
 55130  1  0  0  0
 56 69  2  0  0  0
 57 58  2  0  0  0
 57131  1  0  0  0
 58132  1  0  0  0
 59 60  1  0  0  0
 59 61  1  0  0  0
 59 62  1  0  0  0
 60133  1  0  0  0
 60134  1  0  0  0
 60135  1  0  0  0
 61136  1  0  0  0
 61137  1  0  0  0
 61138  1  0  0  0
 62139  1  0  0  0
 62140  1  0  0  0
 62141  1  0  0  0
 63 65  1  0  0  0
 63142  1  0  0  0
 63143  1  0  0  0
 63144  1  0  0  0
 64145  1  0  0  0
 65146  1  0  0  0
 68 79  1  0  0  0
 71 72  2  0  0  0
 71 75  1  0  0  0
 71 83  1  0  0  0
 72 84  1  0  0  0
 72 87  1  0  0  0
 73 81  1  0  0  0
 73 83  2  0  0  0
 73 87  1  0  0  0
 74 79  1  0  0  0
 74 84  1  0  0  0
 74 86  2  0  0  0
 75147  1  0  0  0
 75148  1  0  0  0
 75149  1  0  0  0
 76150  1  0  0  0
 76151  1  0  0  0
 76152  1  0  0  0
 76 82  1  0  0  0
 77 82  1  0  0  0
 77153  1  0  0  0
 77154  1  0  0  0
 77155  1  0  0  0
 78 82  1  0  0  0
 78156  1  0  0  0
 78157  1  0  0  0
 78158  1  0  0  0
 79159  1  0  0  0
 79160  1  0  0  0
 80 82  1  0  0  0
 80161  1  0  0  0
 80162  1  0  0  0
 80 81  1  0  0  0
 81 85  1  0  0  0
 81163  1  0  0  0
 84164  1  0  0  0
 85165  1  0  0  0
M  ISO  4   1 100  68 101  79 101  85 100
M  END
> <chiral flag>
0

> <version>
0

> <s_m_source_file>
/data/baiqing/PycharmProjects/Reinvent-master-3.2/result/LINK_invent/BTK/process_docking_weight1_custom_product_contain_oxygen_bond_distance_aromatic_linkinvent_7_9_3/rearranged_h_0184.sdf

> <i_m_source_file_index>
55

> <r_mmod_Potential_Energy-OPLS-2005>
76.233772277832

> <r_mmod_Stretch_Energy-OPLS-2005>
117.975379943848

> <r_mmod_Bend_Energy-OPLS-2005>
209.723754882812

> <r_mmod_Torsional_Energy-OPLS-2005>
212.996780395508

> <r_mmod_Improper_Torsional_Energy-OPLS-2005>
8.60192966461182

> <r_mmod_Van_der_Waal_Energy-OPLS-2005>
120.274421691895

> <r_mmod_Electrostatic_Energy-OPLS-2005>
-449.191284179688

> <r_mmod_Solvation_Energy-OPLS-2005>
-237.141220092773

> <b_mmod_Minimization_Converged-OPLS-2005>
0

> <r_mmod_RMS_Derivative-OPLS-2005>
1.00303792953491

$$$$
55
                    3D
 Structure written by MMmdl.
152160  0  0  1  0            999 V2000
  -30.6491  -14.6523   20.5952 C   0  0  0  0  0  0
  -30.4391  -12.4294   19.4485 C   0  0  0  0  0  0
  -29.5060  -12.5294   18.2216 C   0  0  0  0  0  0
  -28.0304  -12.3535   18.6323 C   0  0  0  0  0  0
  -27.6522  -13.2163   19.8653 C   0  0  2  0  0  0
  -28.6960  -13.0531   20.9902 C   0  0  0  0  0  0
  -25.2559  -13.8166   20.5677 C   0  0  0  0  0  0
  -24.1821  -13.0436   20.9174 C   0  0  0  0  0  0
  -24.6391  -11.6901   20.8725 C   0  0  0  0  0  0
  -23.9063  -10.4286   21.0396 C   0  0  0  0  0  0
  -24.3616   -9.4210   21.9179 C   0  0  0  0  0  0
  -23.6289   -8.2248   22.0750 C   0  0  0  0  0  0
  -22.4276   -8.0279   21.3537 C   0  0  0  0  0  0
  -21.9913   -9.0254   20.4645 C   0  0  0  0  0  0
  -22.7236  -10.2130   20.3049 C   0  0  0  0  0  0
  -21.6858   -6.0735   22.5275 C   0  0  0  0  0  0
  -21.4035   -6.5637   23.8213 C   0  0  0  0  0  0
  -21.3670   -5.6781   24.9173 C   0  0  0  0  0  0
  -21.6039   -4.3042   24.7218 C   0  0  0  0  0  0
  -21.8822   -3.8140   23.4339 C   0  0  0  0  0  0
  -21.9198   -4.6964   22.3399 C   0  0  0  0  0  0
  -22.7849  -13.5234   21.1837 C   0  0  0  0  0  0
  -22.1655   -4.2150   21.0976 F   0  0  0  0  0  0
  -21.5630   -3.4521   25.7731 F   0  0  0  0  0  0
  -30.0045  -13.4433   20.4387 N   0  0  0  0  0  0
  -26.2981  -12.9343   20.3312 N   0  0  0  0  0  0
  -25.9322  -11.6499   20.5749 N   0  0  0  0  0  0
  -22.0495  -12.8225   22.0393 N   0  0  0  0  0  0
  -25.4283  -15.1887   20.4110 N   0  0  0  0  0  0
  -31.7544  -14.8181   20.0683 O   0  0  0  0  0  0
  -21.6638   -6.8879   21.4236 O   0  0  0  0  0  0
  -22.3537  -14.5548   20.6694 O   0  0  0  0  0  0
  -24.6292  -31.8588   23.2015 C   0  0  0  0  0  0
  -25.9129  -32.4772   23.8346 C   0  0  1  0  0  0
  -27.2230  -27.2984   20.1176 C   0  0  0  0  0  0
  -25.5940  -33.8573   24.2277 N   0  0  0  0  0  0
  -23.4241  -30.4829   21.5445 C   0  0  2  0  0  0
  -24.8704  -28.9387   20.1099 C   0  0  0  0  0  0
  -22.7502  -29.4618   22.4929 C   0  0  0  0  0  0
  -18.0300  -28.1385   22.8493 C   0  0  0  0  0  0
  -24.1492  -36.7287   23.2640 C   0  0  0  0  0  0
  -25.9683  -30.7832   21.3766 C   0  0  0  0  0  0
  -26.0416  -29.4101   20.7165 C   0  0  0  0  0  0
  -27.2203  -28.6023   20.7103 C   0  0  0  0  0  0
  -26.0269  -26.8908   19.4803 C   0  0  0  0  0  0
  -24.8668  -27.6857   19.4818 C   0  0  0  0  0  0
  -23.6394  -29.8199   20.1595 C   0  0  0  0  0  0
  -25.4119  -36.3082   24.0334 C   0  0  1  0  0  0
  -20.5900  -28.3691   23.1284 C   0  0  2  0  0  0
  -20.6779  -26.9411   22.5410 C   0  0  0  0  0  0
  -19.5749  -26.6383   21.5221 C   0  0  0  0  0  0
  -18.1933  -26.7926   22.1633 C   0  0  0  0  0  0
  -19.1551  -28.8860   23.2878 C   0  0  0  0  0  0
  -18.9466  -30.1462   23.8891 C   0  0  0  0  0  0
  -17.6461  -30.6579   24.0569 C   0  0  0  0  0  0
  -25.9059  -34.9452   23.5106 C   0  0  0  0  0  0
  -16.5353  -29.9078   23.6329 C   0  0  0  0  0  0
  -16.7284  -28.6501   23.0348 C   0  0  0  0  0  0
  -26.4501  -31.6581   25.0720 C   0  0  0  0  0  0
  -25.3723  -31.3724   26.1440 C   0  0  0  0  0  0
  -27.0353  -30.3004   24.6186 C   0  0  0  0  0  0
  -27.6057  -32.4323   25.7488 C   0  0  0  0  0  0
  -27.5582  -37.1800   24.8469 C   0  0  0  0  0  0
  -21.4212  -29.3041   22.3674 N   0  0  0  0  0  0
  -26.4296  -37.3777   23.9410 N   0  0  0  0  0  0
  -24.6928  -31.0587   22.0971 N   0  0  0  0  0  0
  -23.4221  -28.8152   23.3008 O   0  0  0  0  0  0
  -28.3286  -26.4254   20.1790 O   0  0  0  0  0  0
  -26.5624  -34.8924   22.4670 O   0  0  0  0  0  0
  -23.5447  -32.1393   23.7326 O   0  0  0  0  0  0
  -28.8329  -17.6559   19.9581 C   0  0  0  0  0  0
  -28.6740  -19.0787   19.7408 C   0  0  0  0  0  0
  -29.8238  -17.2797   20.8355 C   0  0  0  0  0  0
  -29.5243  -19.9064   20.4520 C   0  0  0  0  0  0
  -28.7348  -22.3106   20.2738 C   0  0  0  0  0  0
  -28.0838  -24.9625   19.9923 C   0  0  0  0  0  0
  -30.0803  -15.8604   21.4689 C   0  0  2  0  0  0
  -29.1672  -23.8434   20.3841 C   0  0  2  0  0  0
  -29.6469  -21.3011   20.4996 N   0  0  0  0  0  0
  -30.9407  -15.9653   22.6576 N   0  3  0  0  0  0
  -27.5579  -22.0541   20.0120 O   0  0  0  0  0  0
  -28.0301  -16.7823   19.3912 F   0  0  0  0  0  0
  -27.7622  -19.5269   18.9079 F   0  0  0  0  0  0
  -30.2578  -24.0182   19.6318 F   0  0  0  0  0  0
  -30.6042  -18.8047   21.3575 S   0  0  0  0  0  0
  -31.4773  -12.5617   19.1385 H   0  0  0  0  0  0
  -30.3927  -11.4293   19.8841 H   0  0  0  0  0  0
  -29.7804  -11.7814   17.4768 H   0  0  0  0  0  0
  -29.6371  -13.5010   17.7432 H   0  0  0  0  0  0
  -27.8722  -11.2985   18.8609 H   0  0  0  0  0  0
  -27.3747  -12.5831   17.7922 H   0  0  0  0  0  0
  -27.6752  -14.2552   19.5388 H   0  0  0  0  0  0
  -28.7262  -12.0131   21.3206 H   0  0  0  0  0  0
  -28.4075  -13.6110   21.8781 H   0  0  0  0  0  0
  -25.2766   -9.5677   22.4744 H   0  0  0  0  0  0
  -23.9992   -7.4640   22.7474 H   0  0  0  0  0  0
  -21.0846   -8.8780   19.8951 H   0  0  0  0  0  0
  -22.3702  -10.9668   19.6149 H   0  0  0  0  0  0
  -21.2029   -7.6143   23.9724 H   0  0  0  0  0  0
  -21.1489   -6.0503   25.9076 H   0  0  0  0  0  0
  -22.0596   -2.7602   23.2837 H   0  0  0  0  0  0
  -22.4112  -11.9883   22.4772 H   0  0  0  0  0  0
  -21.1123  -13.1264   22.2614 H   0  0  0  0  0  0
  -24.6539  -15.8367   20.5061 H   0  0  0  0  0  0
  -26.2677  -15.6267   20.0493 H   0  0  0  0  0  0
  -26.7194  -32.5435   23.1091 H   0  0  0  0  0  0
  -25.0106  -33.9706   25.0435 H   0  0  0  0  0  0
  -22.7182  -31.3041   21.4012 H   0  0  0  0  0  0
  -23.3760  -35.9612   23.3310 H   0  0  0  0  0  0
  -24.3583  -36.8898   22.2051 H   0  0  0  0  0  0
  -23.7237  -37.6491   23.6652 H   0  0  0  0  0  0
  -26.1074  -31.5471   20.6103 H   0  0  0  0  0  0
  -26.8458  -30.8276   22.0102 H   0  0  0  0  0  0
  -28.1173  -28.9582   21.1972 H   0  0  0  0  0  0
  -25.9501  -25.9354   18.9832 H   0  0  0  0  0  0
  -23.9718  -27.3206   18.9981 H   0  0  0  0  0  0
  -23.7609  -30.5973   19.4045 H   0  0  0  0  0  0
  -22.7583  -29.2523   19.8553 H   0  0  0  0  0  0
  -25.1295  -36.1939   25.0826 H   0  0  0  0  0  0
  -20.9996  -28.3261   24.1403 H   0  0  0  0  0  0
  -20.5704  -26.2297   23.3609 H   0  0  0  0  0  0
  -21.6642  -26.7440   22.1186 H   0  0  0  0  0  0
  -19.6910  -25.6304   21.1239 H   0  0  0  0  0  0
  -19.6679  -27.3203   20.6760 H   0  0  0  0  0  0
  -17.4201  -26.6697   21.4029 H   0  0  0  0  0  0
  -18.0314  -26.0067   22.9026 H   0  0  0  0  0  0
  -19.7938  -30.7290   24.2243 H   0  0  0  0  0  0
  -17.5009  -31.6257   24.5175 H   0  0  0  0  0  0
  -15.5351  -30.2971   23.7656 H   0  0  0  0  0  0
  -15.8688  -28.0819   22.7048 H   0  0  0  0  0  0
  -24.5904  -30.7073   25.7761 H   0  0  0  0  0  0
  -24.8908  -32.2889   26.4856 H   0  0  0  0  0  0
  -25.8038  -30.8905   27.0221 H   0  0  0  0  0  0
  -26.2933  -29.6747   24.1215 H   0  0  0  0  0  0
  -27.4057  -29.7272   25.4694 H   0  0  0  0  0  0
  -27.8799  -30.4298   23.9416 H   0  0  0  0  0  0
  -27.2668  -33.3633   26.2051 H   0  0  0  0  0  0
  -28.3866  -32.6874   25.0308 H   0  0  0  0  0  0
  -28.0729  -31.8461   26.5414 H   0  0  0  0  0  0
  -28.2603  -38.0095   24.7515 H   0  0  0  0  0  0
  -28.1077  -36.2626   24.6297 H   0  0  0  0  0  0
  -27.2300  -37.1448   25.8873 H   0  0  0  0  0  0
  -20.9400  -29.8776   21.6888 H   0  0  0  0  0  0
  -26.0187  -38.2861   24.1393 H   0  0  0  0  0  0
  -27.1845  -24.7164   20.5592 H   0  0  0  0  0  0
  -27.8356  -24.8056   18.9424 H   0  0  0  0  0  0
  -29.1122  -15.5597   21.8576 H   0  0  0  0  0  0
  -29.4825  -24.0133   21.4133 H   0  0  0  0  0  0
  -30.5554  -21.6373   20.7895 H   0  0  0  0  0  0
  -31.8656  -16.2403   22.3795 H   0  0  0  0  0  0
  -31.0101  -15.0663   23.0998 H   0  0  0  0  0  0
  -30.5733  -16.6206   23.3217 H   0  0  0  0  0  0
  1 25  1  0  0  0
  1 30  2  0  0  0
  1 77  1  0  0  0
  2  3  1  0  0  0
  2 25  1  0  0  0
  2 86  1  0  0  0
  2 87  1  0  0  0
  3  4  1  0  0  0
  3 88  1  0  0  0
  3 89  1  0  0  0
  4  5  1  0  0  0
  4 90  1  0  0  0
  4 91  1  0  0  0
  5  6  1  0  0  0
  5 26  1  0  0  0
  5 92  1  0  0  0
  6 25  1  0  0  0
  6 93  1  0  0  0
  6 94  1  0  0  0
  7  8  2  0  0  0
  7 26  1  0  0  0
  7 29  1  0  0  0
  8  9  1  0  0  0
  8 22  1  0  0  0
  9 10  1  0  0  0
  9 27  2  0  0  0
 10 11  2  0  0  0
 10 15  1  0  0  0
 11 12  1  0  0  0
 11 95  1  0  0  0
 12 13  2  0  0  0
 12 96  1  0  0  0
 13 14  1  0  0  0
 13 31  1  0  0  0
 14 15  2  0  0  0
 14 97  1  0  0  0
 15 98  1  0  0  0
 16 17  2  0  0  0
 16 21  1  0  0  0
 16 31  1  0  0  0
 17 18  1  0  0  0
 17 99  1  0  0  0
 18 19  2  0  0  0
 18100  1  0  0  0
 19 20  1  0  0  0
 19 24  1  0  0  0
 20 21  2  0  0  0
 20101  1  0  0  0
 21 23  1  0  0  0
 22 28  1  0  0  0
 22 32  2  0  0  0
 26 27  1  0  0  0
 28102  1  0  0  0
 28103  1  0  0  0
 29104  1  0  0  0
 29105  1  0  0  0
 33 34  1  0  0  0
 33 66  1  0  0  0
 33 70  2  0  0  0
 34 36  1  0  0  0
 34 59  1  0  0  0
 34106  1  0  0  0
 35 44  2  0  0  0
 35 45  1  0  0  0
 35 68  1  0  0  0
 36 56  1  0  0  0
 36107  1  0  0  0
 37 39  1  0  0  0
 37 47  1  0  0  0
 37 66  1  0  0  0
 37108  1  0  0  0
 38 43  2  0  0  0
 38 46  1  0  0  0
 38 47  1  0  0  0
 39 64  1  0  0  0
 39 67  2  0  0  0
 40 52  1  0  0  0
 40 53  2  0  0  0
 40 58  1  0  0  0
 41109  1  0  0  0
 41110  1  0  0  0
 41111  1  0  0  0
 41 48  1  0  0  0
 42 43  1  0  0  0
 42 66  1  0  0  0
 42112  1  0  0  0
 42113  1  0  0  0
 43 44  1  0  0  0
 44114  1  0  0  0
 45 46  2  0  0  0
 45115  1  0  0  0
 46116  1  0  0  0
 47117  1  0  0  0
 47118  1  0  0  0
 48 56  1  0  0  0
 48 65  1  0  0  0
 48119  1  0  0  0
 49 50  1  0  0  0
 49 53  1  0  0  0
 49 64  1  0  0  0
 49120  1  0  0  0
 50 51  1  0  0  0
 50121  1  0  0  0
 50122  1  0  0  0
 51 52  1  0  0  0
 51123  1  0  0  0
 51124  1  0  0  0
 52125  1  0  0  0
 52126  1  0  0  0
 53 54  1  0  0  0
 54 55  2  0  0  0
 54127  1  0  0  0
 55 57  1  0  0  0
 55128  1  0  0  0
 56 69  2  0  0  0
 57 58  2  0  0  0
 57129  1  0  0  0
 58130  1  0  0  0
 59 60  1  0  0  0
 59 61  1  0  0  0
 59 62  1  0  0  0
 60131  1  0  0  0
 60132  1  0  0  0
 60133  1  0  0  0
 61134  1  0  0  0
 61135  1  0  0  0
 61136  1  0  0  0
 62137  1  0  0  0
 62138  1  0  0  0
 62139  1  0  0  0
 63 65  1  0  0  0
 63140  1  0  0  0
 63141  1  0  0  0
 63142  1  0  0  0
 64143  1  0  0  0
 65144  1  0  0  0
 68 76  1  0  0  0
 71 72  1  0  0  0
 71 73  2  0  0  0
 71 82  1  0  0  0
 72 74  2  0  0  0
 72 83  1  0  0  0
 73 77  1  0  0  0
 73 85  1  0  0  0
 74 79  1  0  0  0
 74 85  1  0  0  0
 75 78  1  0  0  0
 75 79  1  0  0  0
 75 81  2  0  0  0
 76 78  1  0  0  0
 76145  1  0  0  0
 76146  1  0  0  0
 77 80  1  0  0  0
 77147  1  0  0  0
 78 84  1  0  0  0
 78148  1  0  0  0
 79149  1  0  0  0
 80150  1  0  0  0
 80151  1  0  0  0
 80152  1  0  0  0
M  CHG  1  80   1
M  ISO  4   1 100  68 101  76 101  77 100
M  END
> <chiral flag>
0

> <version>
0

> <s_m_source_file>
/data/baiqing/PycharmProjects/Reinvent-master-3.2/result/LINK_invent/BTK/process_docking_weight1_custom_product_contain_oxygen_bond_distance_aromatic_linkinvent_7_9_3/rearranged_h_0184.sdf

> <i_m_source_file_index>
56

> <r_mmod_Potential_Energy-OPLS-2005>
-285.518798828125

> <r_mmod_Stretch_Energy-OPLS-2005>
97.3896484375

> <r_mmod_Bend_Energy-OPLS-2005>
158.096450805664

> <r_mmod_Torsional_Energy-OPLS-2005>
185.887802124023

> <r_mmod_Improper_Torsional_Energy-OPLS-2005>
3.087069272995

> <r_mmod_Van_der_Waal_Energy-OPLS-2005>
123.353034973145

> <r_mmod_Electrostatic_Energy-OPLS-2005>
-375.830841064453

> <r_mmod_Solvation_Energy-OPLS-2005>
-531.449951171875

> <b_mmod_Minimization_Converged-OPLS-2005>
0

> <r_mmod_RMS_Derivative-OPLS-2005>
1.26479744911194

$$$$
56
                    3D
 Structure written by MMmdl.
153161  0  0  1  0            999 V2000
  -30.7299  -14.5004   20.5147 C   0  0  0  0  0  0
  -30.4086  -12.3064   19.4494 C   0  0  0  0  0  0
  -29.4992  -12.4851   18.2176 C   0  0  0  0  0  0
  -28.0169  -12.3564   18.6211 C   0  0  0  0  0  0
  -27.6511  -13.2196   19.8591 C   0  0  2  0  0  0
  -28.6912  -13.0732   20.9925 C   0  0  0  0  0  0
  -25.2531  -13.8201   20.5655 C   0  0  0  0  0  0
  -24.1812  -13.0487   20.9191 C   0  0  0  0  0  0
  -24.6359  -11.6943   20.8716 C   0  0  0  0  0  0
  -23.9006  -10.4326   21.0403 C   0  0  0  0  0  0
  -24.3588   -9.4229   21.9163 C   0  0  0  0  0  0
  -23.6291   -8.2244   22.0730 C   0  0  0  0  0  0
  -22.4270   -8.0265   21.3511 C   0  0  0  0  0  0
  -21.9885   -9.0227   20.4621 C   0  0  0  0  0  0
  -22.7192  -10.2125   20.3039 C   0  0  0  0  0  0
  -21.6859   -6.0695   22.5262 C   0  0  0  0  0  0
  -21.4008   -6.5599   23.8182 C   0  0  0  0  0  0
  -21.3681   -5.6778   24.9161 C   0  0  0  0  0  0
  -21.6051   -4.3032   24.7206 C   0  0  0  0  0  0
  -21.8832   -3.8099   23.4342 C   0  0  0  0  0  0
  -21.9188   -4.6922   22.3395 C   0  0  0  0  0  0
  -22.7829  -13.5236   21.1845 C   0  0  0  0  0  0
  -22.1676   -4.2105   21.0966 F   0  0  0  0  0  0
  -21.5650   -3.4518   25.7729 F   0  0  0  0  0  0
  -30.0226  -13.3404   20.4270 N   0  0  0  0  0  0
  -26.2967  -12.9385   20.3274 N   0  0  0  0  0  0
  -25.9285  -11.6534   20.5707 N   0  0  0  0  0  0
  -22.0474  -12.8246   22.0425 N   0  0  0  0  0  0
  -25.4233  -15.1921   20.3983 N   0  0  0  0  0  0
  -31.8984  -14.5861   20.1258 O   0  0  0  0  0  0
  -21.6657   -6.8854   21.4225 O   0  0  0  0  0  0
  -22.3508  -14.5522   20.6662 O   0  0  0  0  0  0
  -24.6199  -31.8698   23.2142 C   0  0  0  0  0  0
  -25.9081  -32.4836   23.8429 C   0  0  1  0  0  0
  -27.2099  -27.4046   20.0659 C   0  0  0  0  0  0
  -25.5940  -33.8626   24.2338 N   0  0  0  0  0  0
  -23.4053  -30.5039   21.5597 C   0  0  2  0  0  0
  -24.8386  -28.9767   20.1230 C   0  0  0  0  0  0
  -22.7434  -29.4694   22.5008 C   0  0  0  0  0  0
  -18.0276  -28.1375   22.8502 C   0  0  0  0  0  0
  -24.1490  -36.7318   23.2637 C   0  0  0  0  0  0
  -25.9449  -30.8270   21.3702 C   0  0  0  0  0  0
  -26.0138  -29.4630   20.7072 C   0  0  0  0  0  0
  -27.2044  -28.6899   20.6694 C   0  0  0  0  0  0
  -25.9826  -26.9340   19.5259 C   0  0  0  0  0  0
  -24.8174  -27.7073   19.5376 C   0  0  0  0  0  0
  -23.6110  -29.8529   20.1713 C   0  0  0  0  0  0
  -25.4111  -36.3119   24.0342 C   0  0  1  0  0  0
  -20.5875  -28.3674   23.1327 C   0  0  2  0  0  0
  -20.6778  -26.9413   22.5429 C   0  0  0  0  0  0
  -19.5755  -26.6385   21.5236 C   0  0  0  0  0  0
  -18.1927  -26.7925   22.1638 C   0  0  0  0  0  0
  -19.1527  -28.8844   23.2907 C   0  0  0  0  0  0
  -18.9448  -30.1452   23.8910 C   0  0  0  0  0  0
  -17.6449  -30.6588   24.0564 C   0  0  0  0  0  0
  -25.9046  -34.9480   23.5132 C   0  0  0  0  0  0
  -16.5342  -29.9088   23.6324 C   0  0  0  0  0  0
  -16.7263  -28.6504   23.0350 C   0  0  0  0  0  0
  -26.4488  -31.6612   25.0756 C   0  0  0  0  0  0
  -25.3739  -31.3726   26.1500 C   0  0  0  0  0  0
  -27.0308  -30.3043   24.6155 C   0  0  0  0  0  0
  -27.6083  -32.4322   25.7506 C   0  0  0  0  0  0
  -27.5592  -37.1802   24.8446 C   0  0  0  0  0  0
  -21.4170  -29.3044   22.3723 N   0  0  0  0  0  0
  -26.4287  -37.3811   23.9428 N   0  0  0  0  0  0
  -24.6763  -31.0796   22.1050 N   0  0  0  0  0  0
  -23.4198  -28.8221   23.3028 O   0  0  0  0  0  0
  -28.3815  -26.6456   20.0187 O   0  0  0  0  0  0
  -26.5606  -34.8946   22.4686 O   0  0  0  0  0  0
  -23.5384  -32.1475   23.7519 O   0  0  0  0  0  0
  -28.4337  -18.2057   20.8916 C   0  0  0  0  0  0
  -29.8010  -18.1809   20.7652 C   0  0  0  0  0  0
  -29.4275  -20.4522   20.6170 C   0  0  0  0  0  0
  -28.9377  -22.7974   19.9599 C   0  0  0  0  0  0
  -28.1576  -25.2858   17.9511 C   0  0  0  0  0  0
  -30.6908  -16.9578   20.6706 C   0  0  0  0  0  0
  -29.4040  -24.2907   19.9735 C   0  0  2  0  0  0
  -28.2908  -25.2878   19.4984 C   0  0  1  0  0  0
  -30.3510  -19.4767   20.6438 N   0  0  0  0  0  0
  -29.7759  -21.8270   20.3960 N   0  0  0  0  0  0
  -30.0631  -15.6279   20.8420 N   0  0  0  0  0  0
  -27.8177  -22.5247   19.5234 O   0  0  0  0  0  0
  -30.5053  -24.4213   19.2236 F   0  0  0  0  0  0
  -27.7993  -19.8317   20.9009 S   0  0  0  0  0  0
  -31.4600  -12.3748   19.1598 H   0  0  0  0  0  0
  -30.2843  -11.3138   19.8825 H   0  0  0  0  0  0
  -29.7495  -11.7429   17.4580 H   0  0  0  0  0  0
  -29.6724  -13.4617   17.7630 H   0  0  0  0  0  0
  -27.8253  -11.3037   18.8315 H   0  0  0  0  0  0
  -27.3748  -12.6173   17.7805 H   0  0  0  0  0  0
  -27.6767  -14.2568   19.5243 H   0  0  0  0  0  0
  -28.6638  -12.0688   21.4139 H   0  0  0  0  0  0
  -28.4609  -13.7504   21.8160 H   0  0  0  0  0  0
  -25.2744   -9.5739   22.4720 H   0  0  0  0  0  0
  -24.0012   -7.4658   22.7453 H   0  0  0  0  0  0
  -21.0792   -8.8698   19.8967 H   0  0  0  0  0  0
  -22.3593  -10.9631   19.6139 H   0  0  0  0  0  0
  -21.1993   -7.6127   23.9671 H   0  0  0  0  0  0
  -21.1516   -6.0509   25.9064 H   0  0  0  0  0  0
  -22.0595   -2.7567   23.2829 H   0  0  0  0  0  0
  -22.4094  -11.9933   22.4864 H   0  0  0  0  0  0
  -21.1081  -13.1252   22.2583 H   0  0  0  0  0  0
  -24.6422  -15.8353   20.4632 H   0  0  0  0  0  0
  -26.2384  -15.6024   19.9632 H   0  0  0  0  0  0
  -26.7154  -32.5524   23.1187 H   0  0  0  0  0  0
  -25.0060  -33.9780   25.0466 H   0  0  0  0  0  0
  -22.6953  -31.3234   21.4297 H   0  0  0  0  0  0
  -23.3761  -35.9638   23.3274 H   0  0  0  0  0  0
  -24.3582  -36.8953   22.2057 H   0  0  0  0  0  0
  -23.7223  -37.6517   23.6651 H   0  0  0  0  0  0
  -26.0662  -31.5976   20.6073 H   0  0  0  0  0  0
  -26.8302  -30.8692   21.9922 H   0  0  0  0  0  0
  -28.1171  -29.0747   21.1053 H   0  0  0  0  0  0
  -25.8632  -25.9611   19.0773 H   0  0  0  0  0  0
  -23.9035  -27.3153   19.1093 H   0  0  0  0  0  0
  -23.7329  -30.6349   19.4212 H   0  0  0  0  0  0
  -22.7292  -29.2889   19.8644 H   0  0  0  0  0  0
  -25.1269  -36.1987   25.0836 H   0  0  0  0  0  0
  -20.9966  -28.3238   24.1453 H   0  0  0  0  0  0
  -20.5712  -26.2277   23.3610 H   0  0  0  0  0  0
  -21.6639  -26.7463   22.1199 H   0  0  0  0  0  0
  -19.6904  -25.6295   21.1247 H   0  0  0  0  0  0
  -19.6691  -27.3208   20.6772 H   0  0  0  0  0  0
  -17.4204  -26.6697   21.4024 H   0  0  0  0  0  0
  -18.0300  -26.0058   22.9018 H   0  0  0  0  0  0
  -19.7921  -30.7264   24.2290 H   0  0  0  0  0  0
  -17.4997  -31.6266   24.5169 H   0  0  0  0  0  0
  -15.5334  -30.2991   23.7634 H   0  0  0  0  0  0
  -15.8664  -28.0820   22.7051 H   0  0  0  0  0  0
  -24.5898  -30.7101   25.7818 H   0  0  0  0  0  0
  -24.8941  -32.2882   26.4971 H   0  0  0  0  0  0
  -25.8075  -30.8860   27.0245 H   0  0  0  0  0  0
  -26.2852  -29.6822   24.1187 H   0  0  0  0  0  0
  -27.4038  -29.7279   25.4636 H   0  0  0  0  0  0
  -27.8715  -30.4356   23.9335 H   0  0  0  0  0  0
  -27.2730  -33.3622   26.2115 H   0  0  0  0  0  0
  -28.3866  -32.6890   25.0300 H   0  0  0  0  0  0
  -28.0786  -31.8416   26.5383 H   0  0  0  0  0  0
  -28.2571  -38.0145   24.7564 H   0  0  0  0  0  0
  -28.1130  -36.2670   24.6160 H   0  0  0  0  0  0
  -27.2318  -37.1321   25.8852 H   0  0  0  0  0  0
  -20.9331  -29.8772   21.6950 H   0  0  0  0  0  0
  -26.0172  -38.2880   24.1476 H   0  0  0  0  0  0
  -27.7562  -17.3679   20.9560 H   0  0  0  0  0  0
  -27.7995  -24.3202   17.5946 H   0  0  0  0  0  0
  -29.1159  -25.4771   17.4670 H   0  0  0  0  0  0
  -27.4631  -26.0343   17.5735 H   0  0  0  0  0  0
  -31.5268  -17.0368   21.3667 H   0  0  0  0  0  0
  -31.1427  -16.9743   19.6734 H   0  0  0  0  0  0
  -29.7032  -24.5502   20.9889 H   0  0  0  0  0  0
  -27.3814  -24.8807   19.9390 H   0  0  0  0  0  0
  -30.7379  -22.0874   20.5577 H   0  0  0  0  0  0
  -29.0869  -15.5724   21.0919 H   0  0  0  0  0  0
  1 25  1  0  0  0
  1 30  2  0  0  0
  1 81  1  0  0  0
  2  3  1  0  0  0
  2 25  1  0  0  0
  2 85  1  0  0  0
  2 86  1  0  0  0
  3  4  1  0  0  0
  3 87  1  0  0  0
  3 88  1  0  0  0
  4  5  1  0  0  0
  4 89  1  0  0  0
  4 90  1  0  0  0
  5  6  1  0  0  0
  5 26  1  0  0  0
  5 91  1  0  0  0
  6 25  1  0  0  0
  6 92  1  0  0  0
  6 93  1  0  0  0
  7  8  2  0  0  0
  7 26  1  0  0  0
  7 29  1  0  0  0
  8  9  1  0  0  0
  8 22  1  0  0  0
  9 10  1  0  0  0
  9 27  2  0  0  0
 10 11  2  0  0  0
 10 15  1  0  0  0
 11 12  1  0  0  0
 11 94  1  0  0  0
 12 13  2  0  0  0
 12 95  1  0  0  0
 13 14  1  0  0  0
 13 31  1  0  0  0
 14 15  2  0  0  0
 14 96  1  0  0  0
 15 97  1  0  0  0
 16 17  2  0  0  0
 16 21  1  0  0  0
 16 31  1  0  0  0
 17 18  1  0  0  0
 17 98  1  0  0  0
 18 19  2  0  0  0
 18 99  1  0  0  0
 19 20  1  0  0  0
 19 24  1  0  0  0
 20 21  2  0  0  0
 20100  1  0  0  0
 21 23  1  0  0  0
 22 28  1  0  0  0
 22 32  2  0  0  0
 26 27  1  0  0  0
 28101  1  0  0  0
 28102  1  0  0  0
 29103  1  0  0  0
 29104  1  0  0  0
 33 34  1  0  0  0
 33 66  1  0  0  0
 33 70  2  0  0  0
 34 36  1  0  0  0
 34 59  1  0  0  0
 34105  1  0  0  0
 35 44  2  0  0  0
 35 45  1  0  0  0
 35 68  1  0  0  0
 36 56  1  0  0  0
 36106  1  0  0  0
 37 39  1  0  0  0
 37 47  1  0  0  0
 37 66  1  0  0  0
 37107  1  0  0  0
 38 43  2  0  0  0
 38 46  1  0  0  0
 38 47  1  0  0  0
 39 64  1  0  0  0
 39 67  2  0  0  0
 40 52  1  0  0  0
 40 53  2  0  0  0
 40 58  1  0  0  0
 41108  1  0  0  0
 41109  1  0  0  0
 41110  1  0  0  0
 41 48  1  0  0  0
 42 43  1  0  0  0
 42 66  1  0  0  0
 42111  1  0  0  0
 42112  1  0  0  0
 43 44  1  0  0  0
 44113  1  0  0  0
 45 46  2  0  0  0
 45114  1  0  0  0
 46115  1  0  0  0
 47116  1  0  0  0
 47117  1  0  0  0
 48 56  1  0  0  0
 48 65  1  0  0  0
 48118  1  0  0  0
 49 50  1  0  0  0
 49 53  1  0  0  0
 49 64  1  0  0  0
 49119  1  0  0  0
 50 51  1  0  0  0
 50120  1  0  0  0
 50121  1  0  0  0
 51 52  1  0  0  0
 51122  1  0  0  0
 51123  1  0  0  0
 52124  1  0  0  0
 52125  1  0  0  0
 53 54  1  0  0  0
 54 55  2  0  0  0
 54126  1  0  0  0
 55 57  1  0  0  0
 55127  1  0  0  0
 56 69  2  0  0  0
 57 58  2  0  0  0
 57128  1  0  0  0
 58129  1  0  0  0
 59 60  1  0  0  0
 59 61  1  0  0  0
 59 62  1  0  0  0
 60130  1  0  0  0
 60131  1  0  0  0
 60132  1  0  0  0
 61133  1  0  0  0
 61134  1  0  0  0
 61135  1  0  0  0
 62136  1  0  0  0
 62137  1  0  0  0
 62138  1  0  0  0
 63 65  1  0  0  0
 63139  1  0  0  0
 63140  1  0  0  0
 63141  1  0  0  0
 64142  1  0  0  0
 65143  1  0  0  0
 68 78  1  0  0  0
 71 72  2  0  0  0
 71 84  1  0  0  0
 71144  1  0  0  0
 72 76  1  0  0  0
 72 79  1  0  0  0
 73 79  2  0  0  0
 73 80  1  0  0  0
 73 84  1  0  0  0
 74 77  1  0  0  0
 74 80  1  0  0  0
 74 82  2  0  0  0
 75145  1  0  0  0
 75146  1  0  0  0
 75147  1  0  0  0
 75 78  1  0  0  0
 76 81  1  0  0  0
 76148  1  0  0  0
 76149  1  0  0  0
 77 78  1  0  0  0
 77 83  1  0  0  0
 77150  1  0  0  0
 78151  1  0  0  0
 80152  1  0  0  0
 81153  1  0  0  0
M  ISO  4   1 100  68 101  78 101  81 100
M  END
> <chiral flag>
0

> <version>
0

> <s_m_source_file>
/data/baiqing/PycharmProjects/Reinvent-master-3.2/result/LINK_invent/BTK/process_docking_weight1_custom_product_contain_oxygen_bond_distance_aromatic_linkinvent_7_9_3/rearranged_h_0184.sdf

> <i_m_source_file_index>
57

> <r_mmod_Potential_Energy-OPLS-2005>
-214.733535766602

> <r_mmod_Stretch_Energy-OPLS-2005>
46.139892578125

> <r_mmod_Bend_Energy-OPLS-2005>
107.775749206543

> <r_mmod_Torsional_Energy-OPLS-2005>
191.52946472168

> <r_mmod_Improper_Torsional_Energy-OPLS-2005>
5.56782722473145

> <r_mmod_Van_der_Waal_Energy-OPLS-2005>
157.207275390625

> <r_mmod_Electrostatic_Energy-OPLS-2005>
-515.46337890625

> <r_mmod_Solvation_Energy-OPLS-2005>
-230.925064086914

> <b_mmod_Minimization_Converged-OPLS-2005>
0

> <r_mmod_RMS_Derivative-OPLS-2005>
5.0384373664856

$$$$
57
                    3D
 Structure written by MMmdl.
150158  0  0  1  0            999 V2000
  -30.6346  -14.7626   20.4560 C   0  0  0  0  0  0
  -30.4224  -12.4705   19.4697 C   0  0  0  0  0  0
  -29.5031  -12.5017   18.2314 C   0  0  0  0  0  0
  -28.0319  -12.3232   18.6511 C   0  0  0  0  0  0
  -27.6336  -13.2369   19.8411 C   0  0  2  0  0  0
  -28.6807  -13.2061   20.9745 C   0  0  0  0  0  0
  -25.2477  -13.8206   20.5705 C   0  0  0  0  0  0
  -24.1782  -13.0441   20.9226 C   0  0  0  0  0  0
  -24.6385  -11.6923   20.8761 C   0  0  0  0  0  0
  -23.9068  -10.4294   21.0414 C   0  0  0  0  0  0
  -24.3621   -9.4207   21.9187 C   0  0  0  0  0  0
  -23.6295   -8.2242   22.0754 C   0  0  0  0  0  0
  -22.4278   -8.0281   21.3544 C   0  0  0  0  0  0
  -21.9914   -9.0255   20.4647 C   0  0  0  0  0  0
  -22.7243  -10.2135   20.3059 C   0  0  0  0  0  0
  -21.6855   -6.0736   22.5278 C   0  0  0  0  0  0
  -21.4016   -6.5639   23.8212 C   0  0  0  0  0  0
  -21.3660   -5.6791   24.9173 C   0  0  0  0  0  0
  -21.6045   -4.3054   24.7225 C   0  0  0  0  0  0
  -21.8819   -3.8146   23.4345 C   0  0  0  0  0  0
  -21.9193   -4.6963   22.3402 C   0  0  0  0  0  0
  -22.7803  -13.5217   21.1879 C   0  0  0  0  0  0
  -22.1661   -4.2148   21.0979 F   0  0  0  0  0  0
  -21.5628   -3.4537   25.7737 F   0  0  0  0  0  0
  -29.9727  -13.5550   20.3751 N   0  0  0  0  0  0
  -26.2899  -12.9423   20.3262 N   0  0  0  0  0  0
  -25.9314  -11.6562   20.5756 N   0  0  0  0  0  0
  -22.0452  -12.8206   22.0434 N   0  0  0  0  0  0
  -25.4145  -15.1934   20.4113 N   0  0  0  0  0  0
  -31.8426  -14.7712   20.2006 O   0  0  0  0  0  0
  -21.6642   -6.8879   21.4240 O   0  0  0  0  0  0
  -22.3488  -14.5521   20.6722 O   0  0  0  0  0  0
  -24.6308  -31.8541   23.1966 C   0  0  0  0  0  0
  -25.9131  -32.4749   23.8317 C   0  0  1  0  0  0
  -27.2184  -27.2590   20.1424 C   0  0  0  0  0  0
  -25.5923  -33.8551   24.2241 N   0  0  0  0  0  0
  -23.4282  -30.4742   21.5401 C   0  0  2  0  0  0
  -24.8761  -28.9133   20.1150 C   0  0  0  0  0  0
  -22.7501  -29.4593   22.4916 C   0  0  0  0  0  0
  -18.0290  -28.1387   22.8484 C   0  0  0  0  0  0
  -24.1489  -36.7284   23.2642 C   0  0  0  0  0  0
  -25.9726  -30.7669   21.3753 C   0  0  0  0  0  0
  -26.0466  -29.3864   20.7231 C   0  0  0  0  0  0
  -27.2242  -28.5726   20.7214 C   0  0  0  0  0  0
  -26.0305  -26.8472   19.5081 C   0  0  0  0  0  0
  -24.8723  -27.6515   19.4964 C   0  0  0  0  0  0
  -23.6473  -29.8022   20.1584 C   0  0  0  0  0  0
  -25.4117  -36.3068   24.0326 C   0  0  1  0  0  0
  -20.5893  -28.3697   23.1272 C   0  0  2  0  0  0
  -20.6777  -26.9414   22.5411 C   0  0  0  0  0  0
  -19.5754  -26.6382   21.5213 C   0  0  0  0  0  0
  -18.1934  -26.7928   22.1625 C   0  0  0  0  0  0
  -19.1544  -28.8859   23.2873 C   0  0  0  0  0  0
  -18.9465  -30.1459   23.8892 C   0  0  0  0  0  0
  -17.6464  -30.6588   24.0562 C   0  0  0  0  0  0
  -25.9056  -34.9438   23.5089 C   0  0  0  0  0  0
  -16.5356  -29.9085   23.6331 C   0  0  0  0  0  0
  -16.7277  -28.6503   23.0352 C   0  0  0  0  0  0
  -26.4498  -31.6579   25.0711 C   0  0  0  0  0  0
  -25.3720  -31.3733   26.1431 C   0  0  0  0  0  0
  -27.0349  -30.2994   24.6202 C   0  0  0  0  0  0
  -27.6044  -32.4328   25.7490 C   0  0  0  0  0  0
  -27.5579  -37.1799   24.8466 C   0  0  0  0  0  0
  -21.4207  -29.3042   22.3662 N   0  0  0  0  0  0
  -26.4291  -37.3768   23.9408 N   0  0  0  0  0  0
  -24.6963  -31.0502   22.0940 N   0  0  0  0  0  0
  -23.4198  -28.8142   23.3024 O   0  0  0  0  0  0
  -28.3182  -26.3743   20.1321 O   0  0  0  0  0  0
  -26.5637  -34.8917   22.4664 O   0  0  0  0  0  0
  -23.5458  -32.1364   23.7262 O   0  0  0  0  0  0
  -28.4531  -18.9273   19.7718 C   0  0  0  0  0  0
  -28.1380  -20.3555   19.7583 C   0  0  0  0  0  0
  -29.5591  -18.5574   20.5136 C   0  0  0  0  0  0
  -28.9752  -21.1802   20.4923 C   0  0  0  0  0  0
  -30.3901  -17.2503   20.7098 C   0  0  0  0  0  0
  -28.3113  -23.6577   20.1739 C   0  0  0  0  0  0
  -27.2736  -25.0947   22.0537 C   0  0  0  0  0  0
  -28.3231  -25.0871   20.9245 C   0  0  2  0  0  0
  -28.9460  -22.5652   20.7560 N   0  0  0  0  0  0
  -29.9034  -15.9501   20.5722 N   0  0  0  0  0  0
  -31.5692  -17.4364   21.0298 O   0  0  0  0  0  0
  -27.7230  -23.5552   19.0943 O   0  0  0  0  0  0
  -30.1981  -20.0840   21.2061 S   0  0  0  0  0  0
  -31.4634  -12.5827   19.1621 H   0  0  0  0  0  0
  -30.3635  -11.5038   19.9724 H   0  0  0  0  0  0
  -29.7886  -11.7191   17.5271 H   0  0  0  0  0  0
  -29.6243  -13.4494   17.7041 H   0  0  0  0  0  0
  -27.8978  -11.2774   18.9296 H   0  0  0  0  0  0
  -27.3709  -12.4975   17.8013 H   0  0  0  0  0  0
  -27.6162  -14.2511   19.4418 H   0  0  0  0  0  0
  -28.7252  -12.2210   21.4412 H   0  0  0  0  0  0
  -28.4159  -13.9112   21.7642 H   0  0  0  0  0  0
  -25.2764   -9.5683   22.4764 H   0  0  0  0  0  0
  -24.0003   -7.4633   22.7473 H   0  0  0  0  0  0
  -21.0846   -8.8776   19.8952 H   0  0  0  0  0  0
  -22.3702  -10.9675   19.6170 H   0  0  0  0  0  0
  -21.2009   -7.6147   23.9715 H   0  0  0  0  0  0
  -21.1482   -6.0522   25.9077 H   0  0  0  0  0  0
  -22.0598   -2.7608   23.2846 H   0  0  0  0  0  0
  -22.4072  -11.9872   22.4827 H   0  0  0  0  0  0
  -21.1067  -13.1225   22.2636 H   0  0  0  0  0  0
  -24.6423  -15.8421   20.5203 H   0  0  0  0  0  0
  -26.2520  -15.6345   20.0562 H   0  0  0  0  0  0
  -26.7198  -32.5401   23.1059 H   0  0  0  0  0  0
  -25.0054  -33.9684   25.0375 H   0  0  0  0  0  0
  -22.7249  -31.2961   21.3908 H   0  0  0  0  0  0
  -23.3752  -35.9615   23.3303 H   0  0  0  0  0  0
  -24.3575  -36.8911   22.2057 H   0  0  0  0  0  0
  -23.7243  -37.6483   23.6671 H   0  0  0  0  0  0
  -26.1092  -31.5247   20.6027 H   0  0  0  0  0  0
  -26.8508  -30.8194   22.0074 H   0  0  0  0  0  0
  -28.1257  -28.9326   21.1970 H   0  0  0  0  0  0
  -25.9954  -25.8756   19.0349 H   0  0  0  0  0  0
  -23.9761  -27.2836   19.0160 H   0  0  0  0  0  0
  -23.7736  -30.5751   19.3995 H   0  0  0  0  0  0
  -22.7655  -29.2352   19.8547 H   0  0  0  0  0  0
  -25.1302  -36.1913   25.0819 H   0  0  0  0  0  0
  -20.9985  -28.3273   24.1392 H   0  0  0  0  0  0
  -20.5673  -26.2307   23.3616 H   0  0  0  0  0  0
  -21.6645  -26.7434   22.1208 H   0  0  0  0  0  0
  -19.6915  -25.6290   21.1247 H   0  0  0  0  0  0
  -19.6691  -27.3188   20.6740 H   0  0  0  0  0  0
  -17.4204  -26.6673   21.4028 H   0  0  0  0  0  0
  -18.0335  -26.0072   22.9022 H   0  0  0  0  0  0
  -19.7941  -30.7275   24.2259 H   0  0  0  0  0  0
  -17.5019  -31.6268   24.5165 H   0  0  0  0  0  0
  -15.5357  -30.2987   23.7657 H   0  0  0  0  0  0
  -15.8676  -28.0821   22.7070 H   0  0  0  0  0  0
  -24.5893  -30.7084   25.7758 H   0  0  0  0  0  0
  -24.8913  -32.2905   26.4844 H   0  0  0  0  0  0
  -25.8033  -30.8916   27.0215 H   0  0  0  0  0  0
  -26.2934  -29.6736   24.1221 H   0  0  0  0  0  0
  -27.4023  -29.7264   25.4725 H   0  0  0  0  0  0
  -27.8813  -30.4266   23.9448 H   0  0  0  0  0  0
  -27.2642  -33.3631   26.2049 H   0  0  0  0  0  0
  -28.3864  -32.6885   25.0328 H   0  0  0  0  0  0
  -28.0702  -31.8468   26.5423 H   0  0  0  0  0  0
  -28.2597  -38.0094   24.7508 H   0  0  0  0  0  0
  -28.1074  -36.2625   24.6297 H   0  0  0  0  0  0
  -27.2295  -37.1454   25.8869 H   0  0  0  0  0  0
  -20.9395  -29.8758   21.6859 H   0  0  0  0  0  0
  -26.0170  -38.2843   24.1404 H   0  0  0  0  0  0
  -27.8618  -18.2256   19.2008 H   0  0  0  0  0  0
  -27.2863  -20.7213   19.2016 H   0  0  0  0  0  0
  -27.3833  -25.9738   22.6884 H   0  0  0  0  0  0
  -27.3799  -24.2189   22.6947 H   0  0  0  0  0  0
  -26.2570  -25.0836   21.6610 H   0  0  0  0  0  0
  -29.2934  -25.1124   21.4216 H   0  0  0  0  0  0
  -29.4864  -22.8315   21.5686 H   0  0  0  0  0  0
  -28.9039  -15.8646   20.5135 H   0  0  0  0  0  0
  1 25  1  0  0  0
  1 30  2  0  0  0
  1 80  1  0  0  0
  2  3  1  0  0  0
  2 25  1  0  0  0
  2 84  1  0  0  0
  2 85  1  0  0  0
  3  4  1  0  0  0
  3 86  1  0  0  0
  3 87  1  0  0  0
  4  5  1  0  0  0
  4 88  1  0  0  0
  4 89  1  0  0  0
  5  6  1  0  0  0
  5 26  1  0  0  0
  5 90  1  0  0  0
  6 25  1  0  0  0
  6 91  1  0  0  0
  6 92  1  0  0  0
  7  8  2  0  0  0
  7 26  1  0  0  0
  7 29  1  0  0  0
  8  9  1  0  0  0
  8 22  1  0  0  0
  9 10  1  0  0  0
  9 27  2  0  0  0
 10 11  2  0  0  0
 10 15  1  0  0  0
 11 12  1  0  0  0
 11 93  1  0  0  0
 12 13  2  0  0  0
 12 94  1  0  0  0
 13 14  1  0  0  0
 13 31  1  0  0  0
 14 15  2  0  0  0
 14 95  1  0  0  0
 15 96  1  0  0  0
 16 17  2  0  0  0
 16 21  1  0  0  0
 16 31  1  0  0  0
 17 18  1  0  0  0
 17 97  1  0  0  0
 18 19  2  0  0  0
 18 98  1  0  0  0
 19 20  1  0  0  0
 19 24  1  0  0  0
 20 21  2  0  0  0
 20 99  1  0  0  0
 21 23  1  0  0  0
 22 28  1  0  0  0
 22 32  2  0  0  0
 26 27  1  0  0  0
 28100  1  0  0  0
 28101  1  0  0  0
 29102  1  0  0  0
 29103  1  0  0  0
 33 34  1  0  0  0
 33 66  1  0  0  0
 33 70  2  0  0  0
 34 36  1  0  0  0
 34 59  1  0  0  0
 34104  1  0  0  0
 35 44  2  0  0  0
 35 45  1  0  0  0
 35 68  1  0  0  0
 36 56  1  0  0  0
 36105  1  0  0  0
 37 39  1  0  0  0
 37 47  1  0  0  0
 37 66  1  0  0  0
 37106  1  0  0  0
 38 43  2  0  0  0
 38 46  1  0  0  0
 38 47  1  0  0  0
 39 64  1  0  0  0
 39 67  2  0  0  0
 40 52  1  0  0  0
 40 53  2  0  0  0
 40 58  1  0  0  0
 41107  1  0  0  0
 41108  1  0  0  0
 41109  1  0  0  0
 41 48  1  0  0  0
 42 43  1  0  0  0
 42 66  1  0  0  0
 42110  1  0  0  0
 42111  1  0  0  0
 43 44  1  0  0  0
 44112  1  0  0  0
 45 46  2  0  0  0
 45113  1  0  0  0
 46114  1  0  0  0
 47115  1  0  0  0
 47116  1  0  0  0
 48 56  1  0  0  0
 48 65  1  0  0  0
 48117  1  0  0  0
 49 50  1  0  0  0
 49 53  1  0  0  0
 49 64  1  0  0  0
 49118  1  0  0  0
 50 51  1  0  0  0
 50119  1  0  0  0
 50120  1  0  0  0
 51 52  1  0  0  0
 51121  1  0  0  0
 51122  1  0  0  0
 52123  1  0  0  0
 52124  1  0  0  0
 53 54  1  0  0  0
 54 55  2  0  0  0
 54125  1  0  0  0
 55 57  1  0  0  0
 55126  1  0  0  0
 56 69  2  0  0  0
 57 58  2  0  0  0
 57127  1  0  0  0
 58128  1  0  0  0
 59 60  1  0  0  0
 59 61  1  0  0  0
 59 62  1  0  0  0
 60129  1  0  0  0
 60130  1  0  0  0
 60131  1  0  0  0
 61132  1  0  0  0
 61133  1  0  0  0
 61134  1  0  0  0
 62135  1  0  0  0
 62136  1  0  0  0
 62137  1  0  0  0
 63 65  1  0  0  0
 63138  1  0  0  0
 63139  1  0  0  0
 63140  1  0  0  0
 64141  1  0  0  0
 65142  1  0  0  0
 68 78  1  0  0  0
 71 72  1  0  0  0
 71 73  2  0  0  0
 71143  1  0  0  0
 72 74  2  0  0  0
 72144  1  0  0  0
 73 75  1  0  0  0
 73 83  1  0  0  0
 74 79  1  0  0  0
 74 83  1  0  0  0
 75 80  1  0  0  0
 75 81  2  0  0  0
 76 78  1  0  0  0
 76 79  1  0  0  0
 76 82  2  0  0  0
 77145  1  0  0  0
 77146  1  0  0  0
 77147  1  0  0  0
 77 78  1  0  0  0
 78148  1  0  0  0
 79149  1  0  0  0
 80150  1  0  0  0
M  ISO  4   1 100  68 101  78 101  80 100
M  END
> <chiral flag>
0

> <version>
0

> <s_m_source_file>
/data/baiqing/PycharmProjects/Reinvent-master-3.2/result/LINK_invent/BTK/process_docking_weight1_custom_product_contain_oxygen_bond_distance_aromatic_linkinvent_7_9_3/rearranged_h_0184.sdf

> <i_m_source_file_index>
58

> <r_mmod_Potential_Energy-OPLS-2005>
77.7136154174805

> <r_mmod_Stretch_Energy-OPLS-2005>
119.052093505859

> <r_mmod_Bend_Energy-OPLS-2005>
187.765426635742

> <r_mmod_Torsional_Energy-OPLS-2005>
262.611450195312

> <r_mmod_Improper_Torsional_Energy-OPLS-2005>
6.17218732833862

> <r_mmod_Van_der_Waal_Energy-OPLS-2005>
119.245941162109

> <r_mmod_Electrostatic_Energy-OPLS-2005>
-454.863159179688

> <r_mmod_Solvation_Energy-OPLS-2005>
-252.658630371094

> <b_mmod_Minimization_Converged-OPLS-2005>
0

> <r_mmod_RMS_Derivative-OPLS-2005>
0.228598475456238

$$$$
58
                    3D
 Structure written by MMmdl.
156164  0  0  1  0            999 V2000
  -30.5971  -14.7584   20.4387 C   0  0  0  0  0  0
  -30.4334  -12.4536   19.4926 C   0  0  0  0  0  0
  -29.5219  -12.5167   18.2459 C   0  0  0  0  0  0
  -28.0453  -12.3395   18.6519 C   0  0  0  0  0  0
  -27.6453  -13.2351   19.8545 C   0  0  2  0  0  0
  -28.6847  -13.1676   20.9959 C   0  0  0  0  0  0
  -25.2511  -13.8202   20.5671 C   0  0  0  0  0  0
  -24.1794  -13.0453   20.9184 C   0  0  0  0  0  0
  -24.6393  -11.6928   20.8732 C   0  0  0  0  0  0
  -23.9075  -10.4297   21.0404 C   0  0  0  0  0  0
  -24.3631   -9.4214   21.9181 C   0  0  0  0  0  0
  -23.6302   -8.2249   22.0754 C   0  0  0  0  0  0
  -22.4288   -8.0284   21.3551 C   0  0  0  0  0  0
  -21.9920   -9.0253   20.4661 C   0  0  0  0  0  0
  -22.7245  -10.2134   20.3064 C   0  0  0  0  0  0
  -21.6862   -6.0744   22.5283 C   0  0  0  0  0  0
  -21.4009   -6.5645   23.8218 C   0  0  0  0  0  0
  -21.3656   -5.6785   24.9178 C   0  0  0  0  0  0
  -21.6045   -4.3051   24.7217 C   0  0  0  0  0  0
  -21.8816   -3.8152   23.4333 C   0  0  0  0  0  0
  -21.9176   -4.6972   22.3394 C   0  0  0  0  0  0
  -22.7806  -13.5243   21.1819 C   0  0  0  0  0  0
  -22.1651   -4.2158   21.0966 F   0  0  0  0  0  0
  -21.5626   -3.4534   25.7736 F   0  0  0  0  0  0
  -29.9917  -13.5182   20.4264 N   0  0  0  0  0  0
  -26.2943  -12.9418   20.3263 N   0  0  0  0  0  0
  -25.9330  -11.6554   20.5744 N   0  0  0  0  0  0
  -22.0435  -12.8277   22.0392 N   0  0  0  0  0  0
  -25.4215  -15.1923   20.4079 N   0  0  0  0  0  0
  -31.7728  -14.8567   20.0694 O   0  0  0  0  0  0
  -21.6638   -6.8890   21.4253 O   0  0  0  0  0  0
  -22.3507  -14.5546   20.6654 O   0  0  0  0  0  0
  -24.6318  -31.8552   23.1987 C   0  0  0  0  0  0
  -25.9146  -32.4762   23.8322 C   0  0  1  0  0  0
  -27.2192  -27.2636   20.1294 C   0  0  0  0  0  0
  -25.5936  -33.8558   24.2251 N   0  0  0  0  0  0
  -23.4274  -30.4808   21.5416 C   0  0  2  0  0  0
  -24.8739  -28.9308   20.1053 C   0  0  0  0  0  0
  -22.7508  -29.4613   22.4902 C   0  0  0  0  0  0
  -18.0300  -28.1393   22.8483 C   0  0  0  0  0  0
  -24.1480  -36.7290   23.2640 C   0  0  0  0  0  0
  -25.9733  -30.7689   21.3792 C   0  0  0  0  0  0
  -26.0446  -29.3926   20.7195 C   0  0  0  0  0  0
  -27.2177  -28.5712   20.7229 C   0  0  0  0  0  0
  -26.0320  -26.8819   19.4638 C   0  0  0  0  0  0
  -24.8741  -27.6831   19.4636 C   0  0  0  0  0  0
  -23.6438  -29.8168   20.1564 C   0  0  0  0  0  0
  -25.4106  -36.3080   24.0336 C   0  0  1  0  0  0
  -20.5902  -28.3698   23.1267 C   0  0  2  0  0  0
  -20.6780  -26.9413   22.5404 C   0  0  0  0  0  0
  -19.5758  -26.6382   21.5205 C   0  0  0  0  0  0
  -18.1939  -26.7938   22.1617 C   0  0  0  0  0  0
  -19.1550  -28.8860   23.2871 C   0  0  0  0  0  0
  -18.9468  -30.1462   23.8892 C   0  0  0  0  0  0
  -17.6467  -30.6594   24.0555 C   0  0  0  0  0  0
  -25.9051  -34.9454   23.5089 C   0  0  0  0  0  0
  -16.5361  -29.9093   23.6321 C   0  0  0  0  0  0
  -16.7283  -28.6503   23.0355 C   0  0  0  0  0  0
  -26.4484  -31.6596   25.0733 C   0  0  0  0  0  0
  -25.3697  -31.3757   26.1453 C   0  0  0  0  0  0
  -27.0331  -30.3013   24.6240 C   0  0  0  0  0  0
  -27.6033  -32.4348   25.7497 C   0  0  0  0  0  0
  -27.5585  -37.1805   24.8471 C   0  0  0  0  0  0
  -21.4212  -29.3054   22.3656 N   0  0  0  0  0  0
  -26.4291  -37.3779   23.9426 N   0  0  0  0  0  0
  -24.6962  -31.0537   22.0954 N   0  0  0  0  0  0
  -23.4204  -28.8158   23.3003 O   0  0  0  0  0  0
  -28.3071  -26.3609   20.2221 O   0  0  0  0  0  0
  -26.5633  -34.8929   22.4666 O   0  0  0  0  0  0
  -23.5465  -32.1364   23.7302 O   0  0  0  0  0  0
  -29.4804  -19.5640   18.5099 C   0  0  0  0  0  0
  -29.8412  -17.1660   18.6441 C   0  0  0  0  0  0
  -29.6805  -18.3289   17.8824 C   0  0  0  0  0  0
  -29.4222  -19.6655   19.9162 C   0  0  0  0  0  0
  -29.7941  -17.2151   20.0503 C   0  0  0  0  0  0
  -28.7582  -22.2159   19.9345 C   0  0  0  0  0  0
  -30.4915  -24.0500   20.2281 C   0  0  0  0  0  0
  -28.8038  -23.6878   22.0586 C   0  0  0  0  0  0
  -28.1003  -24.8970   19.9173 C   0  0  0  0  0  0
  -29.0227  -23.6994   20.5320 C   0  0  0  0  0  0
  -29.5770  -18.4716   20.6431 N   0  0  0  0  0  0
  -29.2880  -21.0425   20.4824 N   0  0  0  0  0  0
  -29.8381  -15.8903   20.7293 N   0  0  0  0  0  0
  -28.0222  -22.1584   18.9479 O   0  0  0  0  0  0
  -29.7175  -18.2569   16.5293 F   0  0  0  0  0  0
  -31.4795  -12.5631   19.2038 H   0  0  0  0  0  0
  -30.3620  -11.4744   19.9685 H   0  0  0  0  0  0
  -29.8081  -11.7445   17.5300 H   0  0  0  0  0  0
  -29.6551  -13.4719   17.7350 H   0  0  0  0  0  0
  -27.9015  -11.2901   18.9109 H   0  0  0  0  0  0
  -27.3939  -12.5341   17.7999 H   0  0  0  0  0  0
  -27.6467  -14.2587   19.4776 H   0  0  0  0  0  0
  -28.7121  -12.1722   21.4429 H   0  0  0  0  0  0
  -28.4163  -13.8529   21.8007 H   0  0  0  0  0  0
  -25.2781   -9.5700   22.4739 H   0  0  0  0  0  0
  -24.0015   -7.4653   22.7488 H   0  0  0  0  0  0
  -21.0837   -8.8775   19.8975 H   0  0  0  0  0  0
  -22.3698  -10.9666   19.6166 H   0  0  0  0  0  0
  -21.2023   -7.6160   23.9735 H   0  0  0  0  0  0
  -21.1474   -6.0512   25.9081 H   0  0  0  0  0  0
  -22.0600   -2.7616   23.2823 H   0  0  0  0  0  0
  -22.4047  -11.9975   22.4840 H   0  0  0  0  0  0
  -21.1052  -13.1330   22.2572 H   0  0  0  0  0  0
  -24.6527  -15.8458   20.5135 H   0  0  0  0  0  0
  -26.2665  -15.6269   20.0604 H   0  0  0  0  0  0
  -26.7230  -32.5398   23.1065 H   0  0  0  0  0  0
  -25.0054  -33.9652   25.0380 H   0  0  0  0  0  0
  -22.7244  -31.3040   21.3995 H   0  0  0  0  0  0
  -23.3751  -35.9608   23.3294 H   0  0  0  0  0  0
  -24.3568  -36.8918   22.2053 H   0  0  0  0  0  0
  -23.7207  -37.6484   23.6657 H   0  0  0  0  0  0
  -26.1197  -31.5324   20.6135 H   0  0  0  0  0  0
  -26.8481  -30.8110   22.0161 H   0  0  0  0  0  0
  -28.1088  -28.9203   21.2260 H   0  0  0  0  0  0
  -25.9645  -25.9397   18.9428 H   0  0  0  0  0  0
  -23.9851  -27.3274   18.9630 H   0  0  0  0  0  0
  -23.7691  -30.5945   19.4029 H   0  0  0  0  0  0
  -22.7603  -29.2534   19.8515 H   0  0  0  0  0  0
  -25.1276  -36.1923   25.0829 H   0  0  0  0  0  0
  -20.9995  -28.3286   24.1387 H   0  0  0  0  0  0
  -20.5663  -26.2313   23.3610 H   0  0  0  0  0  0
  -21.6652  -26.7433   22.1213 H   0  0  0  0  0  0
  -19.6910  -25.6282   21.1263 H   0  0  0  0  0  0
  -19.6704  -27.3170   20.6719 H   0  0  0  0  0  0
  -17.4204  -26.6693   21.4023 H   0  0  0  0  0  0
  -18.0339  -26.0075   22.9007 H   0  0  0  0  0  0
  -19.7936  -30.7280   24.2264 H   0  0  0  0  0  0
  -17.5016  -31.6272   24.5159 H   0  0  0  0  0  0
  -15.5358  -30.2990   23.7636 H   0  0  0  0  0  0
  -15.8689  -28.0815   22.7076 H   0  0  0  0  0  0
  -24.5860  -30.7118   25.7780 H   0  0  0  0  0  0
  -24.8891  -32.2927   26.4878 H   0  0  0  0  0  0
  -25.8009  -30.8926   27.0232 H   0  0  0  0  0  0
  -26.2920  -29.6770   24.1237 H   0  0  0  0  0  0
  -27.3966  -29.7282   25.4780 H   0  0  0  0  0  0
  -27.8817  -30.4286   23.9517 H   0  0  0  0  0  0
  -27.2636  -33.3648   26.2061 H   0  0  0  0  0  0
  -28.3834  -32.6917   25.0323 H   0  0  0  0  0  0
  -28.0708  -31.8490   26.5415 H   0  0  0  0  0  0
  -28.2611  -38.0095   24.7525 H   0  0  0  0  0  0
  -28.1082  -36.2640   24.6284 H   0  0  0  0  0  0
  -27.2330  -37.1446   25.8880 H   0  0  0  0  0  0
  -20.9394  -29.8774   21.6865 H   0  0  0  0  0  0
  -26.0182  -38.2868   24.1395 H   0  0  0  0  0  0
  -29.3831  -20.4302   17.8734 H   0  0  0  0  0  0
  -29.9688  -16.2309   18.1205 H   0  0  0  0  0  0
  -31.1841  -23.3747   20.7321 H   0  0  0  0  0  0
  -30.7276  -25.0636   20.5565 H   0  0  0  0  0  0
  -30.7019  -23.9969   19.1595 H   0  0  0  0  0  0
  -29.4255  -22.9508   22.5666 H   0  0  0  0  0  0
  -27.7642  -23.4787   22.3083 H   0  0  0  0  0  0
  -29.0426  -24.6589   22.4939 H   0  0  0  0  0  0
  -27.0838  -24.6263   20.2040 H   0  0  0  0  0  0
  -28.1321  -24.8248   18.8294 H   0  0  0  0  0  0
  -29.7131  -21.1598   21.3905 H   0  0  0  0  0  0
  -29.0240  -15.7014   21.2912 H   0  0  0  0  0  0
  1 25  1  0  0  0
  1 30  2  0  0  0
  1 83  1  0  0  0
  2  3  1  0  0  0
  2 25  1  0  0  0
  2 86  1  0  0  0
  2 87  1  0  0  0
  3  4  1  0  0  0
  3 88  1  0  0  0
  3 89  1  0  0  0
  4  5  1  0  0  0
  4 90  1  0  0  0
  4 91  1  0  0  0
  5  6  1  0  0  0
  5 26  1  0  0  0
  5 92  1  0  0  0
  6 25  1  0  0  0
  6 93  1  0  0  0
  6 94  1  0  0  0
  7  8  2  0  0  0
  7 26  1  0  0  0
  7 29  1  0  0  0
  8  9  1  0  0  0
  8 22  1  0  0  0
  9 10  1  0  0  0
  9 27  2  0  0  0
 10 11  2  0  0  0
 10 15  1  0  0  0
 11 12  1  0  0  0
 11 95  1  0  0  0
 12 13  2  0  0  0
 12 96  1  0  0  0
 13 14  1  0  0  0
 13 31  1  0  0  0
 14 15  2  0  0  0
 14 97  1  0  0  0
 15 98  1  0  0  0
 16 17  2  0  0  0
 16 21  1  0  0  0
 16 31  1  0  0  0
 17 18  1  0  0  0
 17 99  1  0  0  0
 18 19  2  0  0  0
 18100  1  0  0  0
 19 20  1  0  0  0
 19 24  1  0  0  0
 20 21  2  0  0  0
 20101  1  0  0  0
 21 23  1  0  0  0
 22 28  1  0  0  0
 22 32  2  0  0  0
 26 27  1  0  0  0
 28102  1  0  0  0
 28103  1  0  0  0
 29104  1  0  0  0
 29105  1  0  0  0
 33 34  1  0  0  0
 33 66  1  0  0  0
 33 70  2  0  0  0
 34 36  1  0  0  0
 34 59  1  0  0  0
 34106  1  0  0  0
 35 44  2  0  0  0
 35 45  1  0  0  0
 35 68  1  0  0  0
 36 56  1  0  0  0
 36107  1  0  0  0
 37 39  1  0  0  0
 37 47  1  0  0  0
 37 66  1  0  0  0
 37108  1  0  0  0
 38 43  2  0  0  0
 38 46  1  0  0  0
 38 47  1  0  0  0
 39 64  1  0  0  0
 39 67  2  0  0  0
 40 52  1  0  0  0
 40 53  2  0  0  0
 40 58  1  0  0  0
 41109  1  0  0  0
 41110  1  0  0  0
 41111  1  0  0  0
 41 48  1  0  0  0
 42 43  1  0  0  0
 42 66  1  0  0  0
 42112  1  0  0  0
 42113  1  0  0  0
 43 44  1  0  0  0
 44114  1  0  0  0
 45 46  2  0  0  0
 45115  1  0  0  0
 46116  1  0  0  0
 47117  1  0  0  0
 47118  1  0  0  0
 48 56  1  0  0  0
 48 65  1  0  0  0
 48119  1  0  0  0
 49 50  1  0  0  0
 49 53  1  0  0  0
 49 64  1  0  0  0
 49120  1  0  0  0
 50 51  1  0  0  0
 50121  1  0  0  0
 50122  1  0  0  0
 51 52  1  0  0  0
 51123  1  0  0  0
 51124  1  0  0  0
 52125  1  0  0  0
 52126  1  0  0  0
 53 54  1  0  0  0
 54 55  2  0  0  0
 54127  1  0  0  0
 55 57  1  0  0  0
 55128  1  0  0  0
 56 69  2  0  0  0
 57 58  2  0  0  0
 57129  1  0  0  0
 58130  1  0  0  0
 59 60  1  0  0  0
 59 61  1  0  0  0
 59 62  1  0  0  0
 60131  1  0  0  0
 60132  1  0  0  0
 60133  1  0  0  0
 61134  1  0  0  0
 61135  1  0  0  0
 61136  1  0  0  0
 62137  1  0  0  0
 62138  1  0  0  0
 62139  1  0  0  0
 63 65  1  0  0  0
 63140  1  0  0  0
 63141  1  0  0  0
 63142  1  0  0  0
 64143  1  0  0  0
 65144  1  0  0  0
 68 79  1  0  0  0
 71 73  2  0  0  0
 71 74  1  0  0  0
 71145  1  0  0  0
 72 73  1  0  0  0
 72 75  2  0  0  0
 72146  1  0  0  0
 73 85  1  0  0  0
 74 81  2  0  0  0
 74 82  1  0  0  0
 75 81  1  0  0  0
 75 83  1  0  0  0
 76 80  1  0  0  0
 76 82  1  0  0  0
 76 84  2  0  0  0
 77147  1  0  0  0
 77148  1  0  0  0
 77149  1  0  0  0
 77 80  1  0  0  0
 78 80  1  0  0  0
 78150  1  0  0  0
 78151  1  0  0  0
 78152  1  0  0  0
 79 80  1  0  0  0
 79153  1  0  0  0
 79154  1  0  0  0
 82155  1  0  0  0
 83156  1  0  0  0
M  ISO  4   1 100  68 101  79 101  83 100
M  END
> <chiral flag>
0

> <version>
0

> <s_m_source_file>
/data/baiqing/PycharmProjects/Reinvent-master-3.2/result/LINK_invent/BTK/process_docking_weight1_custom_product_contain_oxygen_bond_distance_aromatic_linkinvent_7_9_3/rearranged_h_0184.sdf

> <i_m_source_file_index>
59

> <r_mmod_Potential_Energy-OPLS-2005>
7.99801445007324

> <r_mmod_Stretch_Energy-OPLS-2005>
139.925476074219

> <r_mmod_Bend_Energy-OPLS-2005>
167.274353027344

> <r_mmod_Torsional_Energy-OPLS-2005>
277.669586181641

> <r_mmod_Improper_Torsional_Energy-OPLS-2005>
5.17763042449951

> <r_mmod_Van_der_Waal_Energy-OPLS-2005>
147.229156494141

> <r_mmod_Electrostatic_Energy-OPLS-2005>
-591.421081542969

> <r_mmod_Solvation_Energy-OPLS-2005>
-227.488327026367

> <b_mmod_Minimization_Converged-OPLS-2005>
0

> <r_mmod_RMS_Derivative-OPLS-2005>
2.97577548027039

$$$$
59
                    3D
 Structure written by MMmdl.
157165  0  0  1  0            999 V2000
  -30.6537  -14.6996   20.4576 C   0  0  0  0  0  0
  -30.4223  -12.4247   19.4797 C   0  0  0  0  0  0
  -29.5085  -12.5051   18.2383 C   0  0  0  0  0  0
  -28.0338  -12.3373   18.6485 C   0  0  0  0  0  0
  -27.6440  -13.2350   19.8535 C   0  0  2  0  0  0
  -28.6870  -13.1704   20.9920 C   0  0  0  0  0  0
  -25.2514  -13.8206   20.5693 C   0  0  0  0  0  0
  -24.1807  -13.0447   20.9205 C   0  0  0  0  0  0
  -24.6405  -11.6925   20.8746 C   0  0  0  0  0  0
  -23.9080  -10.4298   21.0404 C   0  0  0  0  0  0
  -24.3626   -9.4210   21.9182 C   0  0  0  0  0  0
  -23.6298   -8.2247   22.0756 C   0  0  0  0  0  0
  -22.4282   -8.0285   21.3544 C   0  0  0  0  0  0
  -21.9917   -9.0258   20.4646 C   0  0  0  0  0  0
  -22.7248  -10.2136   20.3053 C   0  0  0  0  0  0
  -21.6856   -6.0737   22.5279 C   0  0  0  0  0  0
  -21.4018   -6.5642   23.8211 C   0  0  0  0  0  0
  -21.3660   -5.6794   24.9173 C   0  0  0  0  0  0
  -21.6043   -4.3056   24.7224 C   0  0  0  0  0  0
  -21.8819   -3.8147   23.4346 C   0  0  0  0  0  0
  -21.9193   -4.6965   22.3402 C   0  0  0  0  0  0
  -22.7827  -13.5222   21.1860 C   0  0  0  0  0  0
  -22.1661   -4.2150   21.0978 F   0  0  0  0  0  0
  -21.5628   -3.4542   25.7737 F   0  0  0  0  0  0
  -29.9954  -13.4935   20.4124 N   0  0  0  0  0  0
  -26.2952  -12.9424   20.3291 N   0  0  0  0  0  0
  -25.9339  -11.6562   20.5757 N   0  0  0  0  0  0
  -22.0478  -12.8208   22.0417 N   0  0  0  0  0  0
  -25.4207  -15.1925   20.4107 N   0  0  0  0  0  0
  -31.8407  -14.7596   20.1319 O   0  0  0  0  0  0
  -21.6644   -6.8880   21.4240 O   0  0  0  0  0  0
  -22.3505  -14.5524   20.6706 O   0  0  0  0  0  0
  -24.6306  -31.8573   23.2020 C   0  0  0  0  0  0
  -25.9136  -32.4767   23.8356 C   0  0  1  0  0  0
  -27.2094  -27.2743   20.1234 C   0  0  0  0  0  0
  -25.5942  -33.8570   24.2277 N   0  0  0  0  0  0
  -23.4264  -30.4833   21.5449 C   0  0  2  0  0  0
  -24.8735  -28.9422   20.1056 C   0  0  0  0  0  0
  -22.7504  -29.4611   22.4912 C   0  0  0  0  0  0
  -18.0291  -28.1388   22.8480 C   0  0  0  0  0  0
  -24.1491  -36.7284   23.2640 C   0  0  0  0  0  0
  -25.9737  -30.7745   21.3824 C   0  0  0  0  0  0
  -26.0458  -29.4007   20.7201 C   0  0  0  0  0  0
  -27.2187  -28.5786   20.7219 C   0  0  0  0  0  0
  -26.0224  -26.9024   19.4498 C   0  0  0  0  0  0
  -24.8668  -27.7006   19.4584 C   0  0  0  0  0  0
  -23.6439  -29.8261   20.1580 C   0  0  0  0  0  0
  -25.4117  -36.3076   24.0331 C   0  0  1  0  0  0
  -20.5897  -28.3694   23.1269 C   0  0  2  0  0  0
  -20.6779  -26.9413   22.5406 C   0  0  0  0  0  0
  -19.5755  -26.6383   21.5210 C   0  0  0  0  0  0
  -18.1934  -26.7928   22.1621 C   0  0  0  0  0  0
  -19.1548  -28.8857   23.2867 C   0  0  0  0  0  0
  -18.9470  -30.1455   23.8888 C   0  0  0  0  0  0
  -17.6471  -30.6586   24.0561 C   0  0  0  0  0  0
  -25.9059  -34.9445   23.5101 C   0  0  0  0  0  0
  -16.5359  -29.9083   23.6336 C   0  0  0  0  0  0
  -16.7278  -28.6502   23.0352 C   0  0  0  0  0  0
  -26.4506  -31.6584   25.0739 C   0  0  0  0  0  0
  -25.3728  -31.3741   26.1460 C   0  0  0  0  0  0
  -27.0351  -30.2999   24.6221 C   0  0  0  0  0  0
  -27.6062  -32.4325   25.7508 C   0  0  0  0  0  0
  -27.5578  -37.1795   24.8467 C   0  0  0  0  0  0
  -21.4211  -29.3045   22.3660 N   0  0  0  0  0  0
  -26.4288  -37.3774   23.9412 N   0  0  0  0  0  0
  -24.6960  -31.0554   22.0992 N   0  0  0  0  0  0
  -23.4210  -28.8137   23.2993 O   0  0  0  0  0  0
  -28.2651  -26.3358   20.2185 O   0  0  0  0  0  0
  -26.5623  -34.8911   22.4666 O   0  0  0  0  0  0
  -23.5456  -32.1395   23.7314 O   0  0  0  0  0  0
  -30.6194  -19.4699   21.2295 C   0  0  0  0  0  0
  -29.8919  -18.6226   20.4023 C   0  0  0  0  0  0
  -29.1700  -21.1225   20.4584 C   0  0  0  0  0  0
  -28.9669  -23.7494   20.4959 C   0  0  0  0  0  0
  -31.8304  -19.0871   22.0244 C   0  0  0  0  0  0
  -27.1754  -24.8848   21.8871 C   0  0  0  0  0  0
  -30.0200  -16.9979   18.3946 C   0  0  0  0  0  0
  -30.3068  -17.1774   19.9021 C   0  0  2  0  0  0
  -27.8642  -24.9077   20.5052 C   0  0  1  0  0  0
  -30.2226  -20.8400   21.2415 N   0  0  0  0  0  0
  -28.5371  -22.4453   20.3252 N   0  0  0  0  0  0
  -29.9283  -15.8700   20.5893 N   0  0  0  0  0  0
  -30.1571  -24.0442   20.6405 O   0  0  0  0  0  0
  -28.6521  -16.6717   18.2041 O   0  0  0  0  0  0
  -28.5664  -19.6033   19.7089 S   0  0  0  0  0  0
  -31.4678  -12.5207   19.1818 H   0  0  0  0  0  0
  -30.3392  -11.4475   19.9580 H   0  0  0  0  0  0
  -29.7854  -11.7400   17.5118 H   0  0  0  0  0  0
  -29.6451  -13.4663   17.7399 H   0  0  0  0  0  0
  -27.8828  -11.2879   18.9043 H   0  0  0  0  0  0
  -27.3799  -12.5396   17.7995 H   0  0  0  0  0  0
  -27.6403  -14.2569   19.4740 H   0  0  0  0  0  0
  -28.7067  -12.1797   21.4482 H   0  0  0  0  0  0
  -28.4325  -13.8718   21.7881 H   0  0  0  0  0  0
  -25.2771   -9.5688   22.4758 H   0  0  0  0  0  0
  -24.0006   -7.4642   22.7480 H   0  0  0  0  0  0
  -21.0847   -8.8777   19.8954 H   0  0  0  0  0  0
  -22.3705  -10.9675   19.6164 H   0  0  0  0  0  0
  -21.2013   -7.6150   23.9713 H   0  0  0  0  0  0
  -21.1482   -6.0526   25.9075 H   0  0  0  0  0  0
  -22.0597   -2.7611   23.2846 H   0  0  0  0  0  0
  -22.4101  -11.9870   22.4804 H   0  0  0  0  0  0
  -21.1095  -13.1227   22.2626 H   0  0  0  0  0  0
  -24.6517  -15.8462   20.5091 H   0  0  0  0  0  0
  -26.2634  -15.6225   20.0515 H   0  0  0  0  0  0
  -26.7199  -32.5423   23.1096 H   0  0  0  0  0  0
  -25.0093  -33.9718   25.0426 H   0  0  0  0  0  0
  -22.7220  -31.3052   21.4028 H   0  0  0  0  0  0
  -23.3753  -35.9616   23.3303 H   0  0  0  0  0  0
  -24.3579  -36.8912   22.2055 H   0  0  0  0  0  0
  -23.7245  -37.6486   23.6662 H   0  0  0  0  0  0
  -26.1136  -31.5381   20.6157 H   0  0  0  0  0  0
  -26.8511  -30.8202   22.0160 H   0  0  0  0  0  0
  -28.1092  -28.9164   21.2332 H   0  0  0  0  0  0
  -25.9463  -25.9692   18.9151 H   0  0  0  0  0  0
  -23.9741  -27.3514   18.9579 H   0  0  0  0  0  0
  -23.7676  -30.6072   19.4066 H   0  0  0  0  0  0
  -22.7625  -29.2609   19.8503 H   0  0  0  0  0  0
  -25.1294  -36.1922   25.0823 H   0  0  0  0  0  0
  -20.9986  -28.3263   24.1391 H   0  0  0  0  0  0
  -20.5684  -26.2300   23.3605 H   0  0  0  0  0  0
  -21.6644  -26.7439   22.1196 H   0  0  0  0  0  0
  -19.6919  -25.6296   21.1238 H   0  0  0  0  0  0
  -19.6693  -27.3192   20.6739 H   0  0  0  0  0  0
  -17.4207  -26.6675   21.4023 H   0  0  0  0  0  0
  -18.0326  -26.0075   22.9021 H   0  0  0  0  0  0
  -19.7946  -30.7267   24.2252 H   0  0  0  0  0  0
  -17.5028  -31.6267   24.5158 H   0  0  0  0  0  0
  -15.5360  -30.2982   23.7668 H   0  0  0  0  0  0
  -15.8678  -28.0820   22.7073 H   0  0  0  0  0  0
  -24.5911  -30.7079   25.7795 H   0  0  0  0  0  0
  -24.8908  -32.2912   26.4852 H   0  0  0  0  0  0
  -25.8047  -30.8947   27.0254 H   0  0  0  0  0  0
  -26.2936  -29.6744   24.1236 H   0  0  0  0  0  0
  -27.4028  -29.7264   25.4739 H   0  0  0  0  0  0
  -27.8816  -30.4276   23.9472 H   0  0  0  0  0  0
  -27.2678  -33.3643   26.2044 H   0  0  0  0  0  0
  -28.3886  -32.6852   25.0342 H   0  0  0  0  0  0
  -28.0701  -31.8473   26.5456 H   0  0  0  0  0  0
  -28.2591  -38.0094   24.7508 H   0  0  0  0  0  0
  -28.1077  -36.2624   24.6292 H   0  0  0  0  0  0
  -27.2293  -37.1449   25.8869 H   0  0  0  0  0  0
  -20.9388  -29.8790   21.6891 H   0  0  0  0  0  0
  -26.0167  -38.2848   24.1417 H   0  0  0  0  0  0
  -32.7376  -19.1681   21.4253 H   0  0  0  0  0  0
  -31.7632  -18.0602   22.3847 H   0  0  0  0  0  0
  -31.9555  -19.7274   22.8979 H   0  0  0  0  0  0
  -26.9432  -23.8693   22.2105 H   0  0  0  0  0  0
  -26.2334  -25.4324   21.8817 H   0  0  0  0  0  0
  -27.8158  -25.3324   22.6476 H   0  0  0  0  0  0
  -30.6267  -16.1937   17.9748 H   0  0  0  0  0  0
  -30.2839  -17.8977   17.8359 H   0  0  0  0  0  0
  -31.3964  -17.2061   19.9587 H   0  0  0  0  0  0
  -27.1568  -24.5635   19.7554 H   0  0  0  0  0  0
  -27.5612  -22.3882   20.0713 H   0  0  0  0  0  0
  -28.9518  -15.7577   20.8115 H   0  0  0  0  0  0
  -28.1425  -17.3924   18.5587 H   0  0  0  0  0  0
  1 25  1  0  0  0
  1 30  2  0  0  0
  1 82  1  0  0  0
  2  3  1  0  0  0
  2 25  1  0  0  0
  2 86  1  0  0  0
  2 87  1  0  0  0
  3  4  1  0  0  0
  3 88  1  0  0  0
  3 89  1  0  0  0
  4  5  1  0  0  0
  4 90  1  0  0  0
  4 91  1  0  0  0
  5  6  1  0  0  0
  5 26  1  0  0  0
  5 92  1  0  0  0
  6 25  1  0  0  0
  6 93  1  0  0  0
  6 94  1  0  0  0
  7  8  2  0  0  0
  7 26  1  0  0  0
  7 29  1  0  0  0
  8  9  1  0  0  0
  8 22  1  0  0  0
  9 10  1  0  0  0
  9 27  2  0  0  0
 10 11  2  0  0  0
 10 15  1  0  0  0
 11 12  1  0  0  0
 11 95  1  0  0  0
 12 13  2  0  0  0
 12 96  1  0  0  0
 13 14  1  0  0  0
 13 31  1  0  0  0
 14 15  2  0  0  0
 14 97  1  0  0  0
 15 98  1  0  0  0
 16 17  2  0  0  0
 16 21  1  0  0  0
 16 31  1  0  0  0
 17 18  1  0  0  0
 17 99  1  0  0  0
 18 19  2  0  0  0
 18100  1  0  0  0
 19 20  1  0  0  0
 19 24  1  0  0  0
 20 21  2  0  0  0
 20101  1  0  0  0
 21 23  1  0  0  0
 22 28  1  0  0  0
 22 32  2  0  0  0
 26 27  1  0  0  0
 28102  1  0  0  0
 28103  1  0  0  0
 29104  1  0  0  0
 29105  1  0  0  0
 33 34  1  0  0  0
 33 66  1  0  0  0
 33 70  2  0  0  0
 34 36  1  0  0  0
 34 59  1  0  0  0
 34106  1  0  0  0
 35 44  2  0  0  0
 35 45  1  0  0  0
 35 68  1  0  0  0
 36 56  1  0  0  0
 36107  1  0  0  0
 37 39  1  0  0  0
 37 47  1  0  0  0
 37 66  1  0  0  0
 37108  1  0  0  0
 38 43  2  0  0  0
 38 46  1  0  0  0
 38 47  1  0  0  0
 39 64  1  0  0  0
 39 67  2  0  0  0
 40 52  1  0  0  0
 40 53  2  0  0  0
 40 58  1  0  0  0
 41109  1  0  0  0
 41110  1  0  0  0
 41111  1  0  0  0
 41 48  1  0  0  0
 42 43  1  0  0  0
 42 66  1  0  0  0
 42112  1  0  0  0
 42113  1  0  0  0
 43 44  1  0  0  0
 44114  1  0  0  0
 45 46  2  0  0  0
 45115  1  0  0  0
 46116  1  0  0  0
 47117  1  0  0  0
 47118  1  0  0  0
 48 56  1  0  0  0
 48 65  1  0  0  0
 48119  1  0  0  0
 49 50  1  0  0  0
 49 53  1  0  0  0
 49 64  1  0  0  0
 49120  1  0  0  0
 50 51  1  0  0  0
 50121  1  0  0  0
 50122  1  0  0  0
 51 52  1  0  0  0
 51123  1  0  0  0
 51124  1  0  0  0
 52125  1  0  0  0
 52126  1  0  0  0
 53 54  1  0  0  0
 54 55  2  0  0  0
 54127  1  0  0  0
 55 57  1  0  0  0
 55128  1  0  0  0
 56 69  2  0  0  0
 57 58  2  0  0  0
 57129  1  0  0  0
 58130  1  0  0  0
 59 60  1  0  0  0
 59 61  1  0  0  0
 59 62  1  0  0  0
 60131  1  0  0  0
 60132  1  0  0  0
 60133  1  0  0  0
 61134  1  0  0  0
 61135  1  0  0  0
 61136  1  0  0  0
 62137  1  0  0  0
 62138  1  0  0  0
 62139  1  0  0  0
 63 65  1  0  0  0
 63140  1  0  0  0
 63141  1  0  0  0
 63142  1  0  0  0
 64143  1  0  0  0
 65144  1  0  0  0
 68 79  1  0  0  0
 71 72  2  0  0  0
 71 75  1  0  0  0
 71 80  1  0  0  0
 72 78  1  0  0  0
 72 85  1  0  0  0
 73 80  2  0  0  0
 73 81  1  0  0  0
 73 85  1  0  0  0
 74 79  1  0  0  0
 74 81  1  0  0  0
 74 83  2  0  0  0
 75145  1  0  0  0
 75146  1  0  0  0
 75147  1  0  0  0
 76148  1  0  0  0
 76149  1  0  0  0
 76150  1  0  0  0
 76 79  1  0  0  0
 77 84  1  0  0  0
 77151  1  0  0  0
 77152  1  0  0  0
 77 78  1  0  0  0
 78 82  1  0  0  0
 78153  1  0  0  0
 79154  1  0  0  0
 81155  1  0  0  0
 82156  1  0  0  0
 84157  1  0  0  0
M  ISO  4   1 100  68 101  79 101  82 100
M  END
> <chiral flag>
0

> <version>
0

> <s_m_source_file>
/data/baiqing/PycharmProjects/Reinvent-master-3.2/result/LINK_invent/BTK/process_docking_weight1_custom_product_contain_oxygen_bond_distance_aromatic_linkinvent_7_9_3/rearranged_h_0184.sdf

> <i_m_source_file_index>
60

> <r_mmod_Potential_Energy-OPLS-2005>
-48.678394317627

> <r_mmod_Stretch_Energy-OPLS-2005>
106.325439453125

> <r_mmod_Bend_Energy-OPLS-2005>
173.819869995117

> <r_mmod_Torsional_Energy-OPLS-2005>
242.286285400391

> <r_mmod_Improper_Torsional_Energy-OPLS-2005>
10.2820320129395

> <r_mmod_Van_der_Waal_Energy-OPLS-2005>
122.309204101562

> <r_mmod_Electrostatic_Energy-OPLS-2005>
-522.069946289062

> <r_mmod_Solvation_Energy-OPLS-2005>
-261.469818115234

> <b_mmod_Minimization_Converged-OPLS-2005>
0

> <r_mmod_RMS_Derivative-OPLS-2005>
0.745114922523499

$$$$
60
                    3D
 Structure written by MMmdl.
156164  0  0  1  0            999 V2000
  -30.6571  -14.5521   20.4971 C   0  0  0  0  0  0
  -30.4389  -12.3351   19.4538 C   0  0  0  0  0  0
  -29.5228  -12.5186   18.2247 C   0  0  0  0  0  0
  -28.0341  -12.3896   18.6141 C   0  0  0  0  0  0
  -27.6673  -13.2181   19.8725 C   0  0  2  0  0  0
  -28.7056  -13.0234   20.9983 C   0  0  0  0  0  0
  -25.2632  -13.8162   20.5629 C   0  0  0  0  0  0
  -24.1864  -13.0431   20.9073 C   0  0  0  0  0  0
  -24.6426  -11.6898   20.8639 C   0  0  0  0  0  0
  -23.9074  -10.4273   21.0335 C   0  0  0  0  0  0
  -24.3598   -9.4204   21.9144 C   0  0  0  0  0  0
  -23.6271   -8.2235   22.0748 C   0  0  0  0  0  0
  -22.4254   -8.0248   21.3542 C   0  0  0  0  0  0
  -21.9891   -9.0234   20.4665 C   0  0  0  0  0  0
  -22.7217  -10.2098   20.3020 C   0  0  0  0  0  0
  -21.6872   -6.0705   22.5264 C   0  0  0  0  0  0
  -21.4026   -6.5618   23.8183 C   0  0  0  0  0  0
  -21.3682   -5.6767   24.9148 C   0  0  0  0  0  0
  -21.6053   -4.3037   24.7205 C   0  0  0  0  0  0
  -21.8831   -3.8120   23.4332 C   0  0  0  0  0  0
  -21.9209   -4.6934   22.3392 C   0  0  0  0  0  0
  -22.7877  -13.5243   21.1749 C   0  0  0  0  0  0
  -22.1669   -4.2119   21.0969 F   0  0  0  0  0  0
  -21.5662   -3.4527   25.7743 F   0  0  0  0  0  0
  -30.0334  -13.3411   20.4499 N   0  0  0  0  0  0
  -26.3070  -12.9359   20.3308 N   0  0  0  0  0  0
  -25.9365  -11.6504   20.5671 N   0  0  0  0  0  0
  -22.0516  -12.8251   22.0311 N   0  0  0  0  0  0
  -25.4447  -15.1873   20.4109 N   0  0  0  0  0  0
  -31.8088  -14.7110   20.0812 O   0  0  0  0  0  0
  -21.6616   -6.8842   21.4220 O   0  0  0  0  0  0
  -22.3595  -14.5579   20.6637 O   0  0  0  0  0  0
  -24.6220  -31.8652   23.2119 C   0  0  0  0  0  0
  -25.9088  -32.4812   23.8401 C   0  0  1  0  0  0
  -27.2216  -27.3932   20.0749 C   0  0  0  0  0  0
  -25.5947  -33.8617   24.2317 N   0  0  0  0  0  0
  -23.4081  -30.4910   21.5555 C   0  0  2  0  0  0
  -24.8466  -28.9588   20.1074 C   0  0  0  0  0  0
  -22.7449  -29.4607   22.5014 C   0  0  0  0  0  0
  -18.0279  -28.1400   22.8514 C   0  0  0  0  0  0
  -24.1479  -36.7300   23.2636 C   0  0  0  0  0  0
  -25.9430  -30.8169   21.3685 C   0  0  0  0  0  0
  -26.0128  -29.4522   20.7032 C   0  0  0  0  0  0
  -27.2005  -28.6796   20.6767 C   0  0  0  0  0  0
  -26.0231  -26.9163   19.4925 C   0  0  0  0  0  0
  -24.8491  -27.6930   19.4981 C   0  0  0  0  0  0
  -23.6157  -29.8354   20.1649 C   0  0  0  0  0  0
  -25.4101  -36.3097   24.0332 C   0  0  1  0  0  0
  -20.5872  -28.3645   23.1370 C   0  0  2  0  0  0
  -20.6771  -26.9394   22.5435 C   0  0  0  0  0  0
  -19.5731  -26.6397   21.5240 C   0  0  0  0  0  0
  -18.1910  -26.7955   22.1644 C   0  0  0  0  0  0
  -19.1530  -28.8843   23.2933 C   0  0  0  0  0  0
  -18.9449  -30.1471   23.8917 C   0  0  0  0  0  0
  -17.6430  -30.6595   24.0575 C   0  0  0  0  0  0
  -25.9032  -34.9474   23.5100 C   0  0  0  0  0  0
  -16.5328  -29.9070   23.6339 C   0  0  0  0  0  0
  -16.7273  -28.6505   23.0353 C   0  0  0  0  0  0
  -26.4479  -31.6648   25.0774 C   0  0  0  0  0  0
  -25.3726  -31.3809   26.1524 C   0  0  0  0  0  0
  -27.0257  -30.3066   24.6186 C   0  0  0  0  0  0
  -27.6040  -32.4381   25.7556 C   0  0  0  0  0  0
  -27.5577  -37.1794   24.8444 C   0  0  0  0  0  0
  -21.4170  -29.3015   22.3784 N   0  0  0  0  0  0
  -26.4274  -37.3790   23.9413 N   0  0  0  0  0  0
  -24.6764  -31.0699   22.1029 N   0  0  0  0  0  0
  -23.4236  -28.8127   23.3020 O   0  0  0  0  0  0
  -28.3996  -26.6555   20.0903 O   0  0  0  0  0  0
  -26.5556  -34.8924   22.4640 O   0  0  0  0  0  0
  -23.5396  -32.1430   23.7486 O   0  0  0  0  0  0
  -29.6113  -18.7351   18.5934 C   0  0  0  0  0  0
  -29.0629  -19.0267   19.8226 C   0  0  0  0  0  0
  -29.8232  -16.8761   20.2122 C   0  0  0  0  0  0
  -28.3393  -24.1549   20.4428 C   0  0  0  0  0  0
  -29.5802  -19.5605   17.3449 C   0  0  0  0  0  0
  -30.4211  -21.5940   20.4999 C   0  0  0  0  0  0
  -28.2014  -22.7268   19.8306 C   0  0  0  0  0  0
  -28.4758  -25.3485   19.4559 C   0  0  0  0  0  0
  -28.8794  -21.5153   20.5772 C   0  0  1  0  0  0
  -29.1771  -17.9455   20.7306 N   0  0  0  0  0  0
  -28.3328  -20.2134   20.1168 N   0  0  0  0  0  0
  -29.8949  -15.6067   20.8863 N   0  0  0  0  0  0
  -28.3132  -24.3334   21.6653 O   0  0  0  0  0  0
  -30.3972  -17.1709   18.5725 S   0  0  0  0  0  0
  -31.4881  -12.4278   19.1674 H   0  0  0  0  0  0
  -30.3393  -11.3296   19.8695 H   0  0  0  0  0  0
  -29.7803  -11.7930   17.4536 H   0  0  0  0  0  0
  -29.7028  -13.5000   17.7817 H   0  0  0  0  0  0
  -27.8209  -11.3332   18.7803 H   0  0  0  0  0  0
  -27.4085  -12.7024   17.7773 H   0  0  0  0  0  0
  -27.7032  -14.2652   19.5657 H   0  0  0  0  0  0
  -28.6949  -11.9917   21.3582 H   0  0  0  0  0  0
  -28.4624  -13.6407   21.8633 H   0  0  0  0  0  0
  -25.2746   -9.5741   22.4693 H   0  0  0  0  0  0
  -24.0018   -7.4672   22.7511 H   0  0  0  0  0  0
  -21.0804   -8.8782   19.8992 H   0  0  0  0  0  0
  -22.3700  -10.9617   19.6117 H   0  0  0  0  0  0
  -21.1995   -7.6136   23.9670 H   0  0  0  0  0  0
  -21.1510   -6.0496   25.9053 H   0  0  0  0  0  0
  -22.0599   -2.7576   23.2802 H   0  0  0  0  0  0
  -22.4058  -11.9894   22.4721 H   0  0  0  0  0  0
  -21.1156  -13.1375   22.2541 H   0  0  0  0  0  0
  -24.6938  -15.8555   20.5475 H   0  0  0  0  0  0
  -26.3222  -15.6238   20.1651 H   0  0  0  0  0  0
  -26.7167  -32.5457   23.1157 H   0  0  0  0  0  0
  -25.0183  -33.9789   25.0521 H   0  0  0  0  0  0
  -22.6958  -31.3094   21.4265 H   0  0  0  0  0  0
  -23.3751  -35.9618   23.3269 H   0  0  0  0  0  0
  -24.3589  -36.8948   22.2059 H   0  0  0  0  0  0
  -23.7232  -37.6496   23.6668 H   0  0  0  0  0  0
  -26.0640  -31.5924   20.6114 H   0  0  0  0  0  0
  -26.8306  -30.8608   21.9883 H   0  0  0  0  0  0
  -28.1037  -29.0644   21.1285 H   0  0  0  0  0  0
  -25.9490  -25.9396   19.0392 H   0  0  0  0  0  0
  -23.9485  -27.3057   19.0419 H   0  0  0  0  0  0
  -23.7399  -30.6225   19.4200 H   0  0  0  0  0  0
  -22.7335  -29.2721   19.8566 H   0  0  0  0  0  0
  -25.1285  -36.1931   25.0823 H   0  0  0  0  0  0
  -20.9965  -28.3187   24.1493 H   0  0  0  0  0  0
  -20.5727  -26.2225   23.3591 H   0  0  0  0  0  0
  -21.6628  -26.7452   22.1190 H   0  0  0  0  0  0
  -19.6846  -25.6305   21.1283 H   0  0  0  0  0  0
  -19.6690  -27.3217   20.6783 H   0  0  0  0  0  0
  -17.4189  -26.6772   21.4021 H   0  0  0  0  0  0
  -18.0242  -26.0120   22.9042 H   0  0  0  0  0  0
  -19.7900  -30.7319   24.2278 H   0  0  0  0  0  0
  -17.4958  -31.6271   24.5161 H   0  0  0  0  0  0
  -15.5319  -30.2949   23.7652 H   0  0  0  0  0  0
  -15.8692  -28.0821   22.7021 H   0  0  0  0  0  0
  -24.5891  -30.7149   25.7906 H   0  0  0  0  0  0
  -24.8906  -32.2972   26.4941 H   0  0  0  0  0  0
  -25.8072  -30.9033   27.0312 H   0  0  0  0  0  0
  -26.2784  -29.6921   24.1148 H   0  0  0  0  0  0
  -27.3883  -29.7254   25.4672 H   0  0  0  0  0  0
  -27.8706  -30.4356   23.9418 H   0  0  0  0  0  0
  -27.2650  -33.3694   26.2116 H   0  0  0  0  0  0
  -28.3872  -32.6944   25.0407 H   0  0  0  0  0  0
  -28.0687  -31.8530   26.5505 H   0  0  0  0  0  0
  -28.2552  -38.0132   24.7528 H   0  0  0  0  0  0
  -28.1120  -36.2660   24.6200 H   0  0  0  0  0  0
  -27.2306  -37.1368   25.8851 H   0  0  0  0  0  0
  -20.9335  -29.8741   21.7018 H   0  0  0  0  0  0
  -26.0149  -38.2855   24.1453 H   0  0  0  0  0  0
  -30.1891  -20.4565   17.4459 H   0  0  0  0  0  0
  -28.5618  -19.8654   17.1004 H   0  0  0  0  0  0
  -29.9573  -18.9998   16.4902 H   0  0  0  0  0  0
  -30.7768  -22.5541   20.8772 H   0  0  0  0  0  0
  -30.7894  -21.4857   19.4779 H   0  0  0  0  0  0
  -30.8985  -20.8289   21.1140 H   0  0  0  0  0  0
  -28.5486  -22.7704   18.7982 H   0  0  0  0  0  0
  -27.1275  -22.5460   19.7662 H   0  0  0  0  0  0
  -27.7829  -25.2337   18.6244 H   0  0  0  0  0  0
  -29.4652  -25.2705   19.0052 H   0  0  0  0  0  0
  -28.6134  -21.5945   21.6353 H   0  0  0  0  0  0
  -27.6199  -20.3637   19.4088 H   0  0  0  0  0  0
  -29.0921  -15.3798   21.4477 H   0  0  0  0  0  0
  1 25  1  0  0  0
  1 30  2  0  0  0
  1 82  1  0  0  0
  2  3  1  0  0  0
  2 25  1  0  0  0
  2 85  1  0  0  0
  2 86  1  0  0  0
  3  4  1  0  0  0
  3 87  1  0  0  0
  3 88  1  0  0  0
  4  5  1  0  0  0
  4 89  1  0  0  0
  4 90  1  0  0  0
  5  6  1  0  0  0
  5 26  1  0  0  0
  5 91  1  0  0  0
  6 25  1  0  0  0
  6 92  1  0  0  0
  6 93  1  0  0  0
  7  8  2  0  0  0
  7 26  1  0  0  0
  7 29  1  0  0  0
  8  9  1  0  0  0
  8 22  1  0  0  0
  9 10  1  0  0  0
  9 27  2  0  0  0
 10 11  2  0  0  0
 10 15  1  0  0  0
 11 12  1  0  0  0
 11 94  1  0  0  0
 12 13  2  0  0  0
 12 95  1  0  0  0
 13 14  1  0  0  0
 13 31  1  0  0  0
 14 15  2  0  0  0
 14 96  1  0  0  0
 15 97  1  0  0  0
 16 17  2  0  0  0
 16 21  1  0  0  0
 16 31  1  0  0  0
 17 18  1  0  0  0
 17 98  1  0  0  0
 18 19  2  0  0  0
 18 99  1  0  0  0
 19 20  1  0  0  0
 19 24  1  0  0  0
 20 21  2  0  0  0
 20100  1  0  0  0
 21 23  1  0  0  0
 22 28  1  0  0  0
 22 32  2  0  0  0
 26 27  1  0  0  0
 28101  1  0  0  0
 28102  1  0  0  0
 29103  1  0  0  0
 29104  1  0  0  0
 33 34  1  0  0  0
 33 66  1  0  0  0
 33 70  2  0  0  0
 34 36  1  0  0  0
 34 59  1  0  0  0
 34105  1  0  0  0
 35 44  2  0  0  0
 35 45  1  0  0  0
 35 68  1  0  0  0
 36 56  1  0  0  0
 36106  1  0  0  0
 37 39  1  0  0  0
 37 47  1  0  0  0
 37 66  1  0  0  0
 37107  1  0  0  0
 38 43  2  0  0  0
 38 46  1  0  0  0
 38 47  1  0  0  0
 39 64  1  0  0  0
 39 67  2  0  0  0
 40 52  1  0  0  0
 40 53  2  0  0  0
 40 58  1  0  0  0
 41108  1  0  0  0
 41109  1  0  0  0
 41110  1  0  0  0
 41 48  1  0  0  0
 42 43  1  0  0  0
 42 66  1  0  0  0
 42111  1  0  0  0
 42112  1  0  0  0
 43 44  1  0  0  0
 44113  1  0  0  0
 45 46  2  0  0  0
 45114  1  0  0  0
 46115  1  0  0  0
 47116  1  0  0  0
 47117  1  0  0  0
 48 56  1  0  0  0
 48 65  1  0  0  0
 48118  1  0  0  0
 49 50  1  0  0  0
 49 53  1  0  0  0
 49 64  1  0  0  0
 49119  1  0  0  0
 50 51  1  0  0  0
 50120  1  0  0  0
 50121  1  0  0  0
 51 52  1  0  0  0
 51122  1  0  0  0
 51123  1  0  0  0
 52124  1  0  0  0
 52125  1  0  0  0
 53 54  1  0  0  0
 54 55  2  0  0  0
 54126  1  0  0  0
 55 57  1  0  0  0
 55127  1  0  0  0
 56 69  2  0  0  0
 57 58  2  0  0  0
 57128  1  0  0  0
 58129  1  0  0  0
 59 60  1  0  0  0
 59 61  1  0  0  0
 59 62  1  0  0  0
 60130  1  0  0  0
 60131  1  0  0  0
 60132  1  0  0  0
 61133  1  0  0  0
 61134  1  0  0  0
 61135  1  0  0  0
 62136  1  0  0  0
 62137  1  0  0  0
 62138  1  0  0  0
 63 65  1  0  0  0
 63139  1  0  0  0
 63140  1  0  0  0
 63141  1  0  0  0
 64142  1  0  0  0
 65143  1  0  0  0
 68 78  1  0  0  0
 71 72  2  0  0  0
 71 75  1  0  0  0
 71 84  1  0  0  0
 72 80  1  0  0  0
 72 81  1  0  0  0
 73 80  2  0  0  0
 73 82  1  0  0  0
 73 84  1  0  0  0
 74 77  1  0  0  0
 74 78  1  0  0  0
 74 83  2  0  0  0
 75144  1  0  0  0
 75145  1  0  0  0
 75146  1  0  0  0
 76147  1  0  0  0
 76148  1  0  0  0
 76149  1  0  0  0
 76 79  1  0  0  0
 77 79  1  0  0  0
 77150  1  0  0  0
 77151  1  0  0  0
 78152  1  0  0  0
 78153  1  0  0  0
 79 81  1  0  0  0
 79154  1  0  0  0
 81155  1  0  0  0
 82156  1  0  0  0
M  ISO  4   1 100  68 101  78 101  82 100
M  END
> <chiral flag>
0

> <version>
0

> <s_m_source_file>
/data/baiqing/PycharmProjects/Reinvent-master-3.2/result/LINK_invent/BTK/process_docking_weight1_custom_product_contain_oxygen_bond_distance_aromatic_linkinvent_7_9_3/rearranged_h_0184.sdf

> <i_m_source_file_index>
61

> <r_mmod_Potential_Energy-OPLS-2005>
-85.84423828125

> <r_mmod_Stretch_Energy-OPLS-2005>
49.055046081543

> <r_mmod_Bend_Energy-OPLS-2005>
121.40998840332

> <r_mmod_Torsional_Energy-OPLS-2005>
239.699493408203

> <r_mmod_Improper_Torsional_Energy-OPLS-2005>
9.688401222229

> <r_mmod_Van_der_Waal_Energy-OPLS-2005>
119.083381652832

> <r_mmod_Electrostatic_Energy-OPLS-2005>
-399.644561767578

> <r_mmod_Solvation_Energy-OPLS-2005>
-248.924072265625

> <b_mmod_Minimization_Converged-OPLS-2005>
0

> <r_mmod_RMS_Derivative-OPLS-2005>
4.82530546188354

$$$$
61
                    3D
 Structure written by MMmdl.
155163  0  0  1  0            999 V2000
  -30.6660  -14.5514   20.5462 C   0  0  0  0  0  0
  -30.4205  -12.3454   19.4419 C   0  0  0  0  0  0
  -29.5001  -12.5278   18.2173 C   0  0  0  0  0  0
  -28.0198  -12.3815   18.6208 C   0  0  0  0  0  0
  -27.6580  -13.2200   19.8760 C   0  0  2  0  0  0
  -28.6992  -13.0350   21.0038 C   0  0  0  0  0  0
  -25.2553  -13.8195   20.5680 C   0  0  0  0  0  0
  -24.1816  -13.0427   20.9168 C   0  0  0  0  0  0
  -24.6411  -11.6916   20.8708 C   0  0  0  0  0  0
  -23.9090  -10.4283   21.0379 C   0  0  0  0  0  0
  -24.3626   -9.4206   21.9176 C   0  0  0  0  0  0
  -23.6288   -8.2247   22.0769 C   0  0  0  0  0  0
  -22.4276   -8.0283   21.3551 C   0  0  0  0  0  0
  -21.9909   -9.0261   20.4652 C   0  0  0  0  0  0
  -22.7253  -10.2130   20.3046 C   0  0  0  0  0  0
  -21.6851   -6.0734   22.5279 C   0  0  0  0  0  0
  -21.4028   -6.5639   23.8215 C   0  0  0  0  0  0
  -21.3654   -5.6786   24.9173 C   0  0  0  0  0  0
  -21.6054   -4.3053   24.7225 C   0  0  0  0  0  0
  -21.8813   -3.8147   23.4340 C   0  0  0  0  0  0
  -21.9199   -4.6964   22.3400 C   0  0  0  0  0  0
  -22.7846  -13.5224   21.1809 C   0  0  0  0  0  0
  -22.1656   -4.2147   21.0975 F   0  0  0  0  0  0
  -21.5624   -3.4540   25.7735 F   0  0  0  0  0  0
  -30.0208  -13.3525   20.4443 N   0  0  0  0  0  0
  -26.3008  -12.9380   20.3380 N   0  0  0  0  0  0
  -25.9344  -11.6528   20.5783 N   0  0  0  0  0  0
  -22.0490  -12.8208   22.0362 N   0  0  0  0  0  0
  -25.4214  -15.1904   20.4063 N   0  0  0  0  0  0
  -31.8115  -14.7112   20.1169 O   0  0  0  0  0  0
  -21.6644   -6.8874   21.4239 O   0  0  0  0  0  0
  -22.3512  -14.5516   20.6654 O   0  0  0  0  0  0
  -24.6204  -31.8623   23.2056 C   0  0  0  0  0  0
  -25.9067  -32.4786   23.8348 C   0  0  1  0  0  0
  -27.2274  -27.3564   20.1224 C   0  0  0  0  0  0
  -25.5924  -33.8579   24.2298 N   0  0  0  0  0  0
  -23.4134  -30.4844   21.5463 C   0  0  2  0  0  0
  -24.8602  -28.9473   20.1081 C   0  0  0  0  0  0
  -22.7412  -29.4637   22.4952 C   0  0  0  0  0  0
  -18.0268  -28.1392   22.8459 C   0  0  0  0  0  0
  -24.1496  -36.7290   23.2649 C   0  0  0  0  0  0
  -25.9483  -30.8059   21.3699 C   0  0  0  0  0  0
  -26.0222  -29.4357   20.7165 C   0  0  0  0  0  0
  -27.2048  -28.6477   20.7226 C   0  0  0  0  0  0
  -26.0528  -26.9223   19.4647 C   0  0  0  0  0  0
  -24.8762  -27.6951   19.4691 C   0  0  0  0  0  0
  -23.6230  -29.8193   20.1606 C   0  0  0  0  0  0
  -25.4109  -36.3079   24.0346 C   0  0  1  0  0  0
  -20.5863  -28.3686   23.1279 C   0  0  2  0  0  0
  -20.6766  -26.9413   22.5418 C   0  0  0  0  0  0
  -19.5760  -26.6397   21.5205 C   0  0  0  0  0  0
  -18.1909  -26.7942   22.1594 C   0  0  0  0  0  0
  -19.1520  -28.8847   23.2867 C   0  0  0  0  0  0
  -18.9472  -30.1443   23.8896 C   0  0  0  0  0  0
  -17.6486  -30.6581   24.0557 C   0  0  0  0  0  0
  -25.9051  -34.9445   23.5119 C   0  0  0  0  0  0
  -16.5358  -29.9083   23.6340 C   0  0  0  0  0  0
  -16.7265  -28.6517   23.0338 C   0  0  0  0  0  0
  -26.4509  -31.6559   25.0661 C   0  0  0  0  0  0
  -25.3787  -31.3619   26.1408 C   0  0  0  0  0  0
  -27.0401  -30.3022   24.6054 C   0  0  0  0  0  0
  -27.6085  -32.4278   25.7434 C   0  0  0  0  0  0
  -27.5598  -37.1763   24.8455 C   0  0  0  0  0  0
  -21.4147  -29.3035   22.3664 N   0  0  0  0  0  0
  -26.4296  -37.3765   23.9433 N   0  0  0  0  0  0
  -24.6791  -31.0634   22.1003 N   0  0  0  0  0  0
  -23.4122  -28.8149   23.3010 O   0  0  0  0  0  0
  -28.3713  -26.5599   20.2034 O   0  0  0  0  0  0
  -26.5614  -34.8909   22.4683 O   0  0  0  0  0  0
  -23.5379  -32.1427   23.7405 O   0  0  0  0  0  0
  -29.3902  -18.1336   21.3612 C   0  0  0  0  0  0
  -28.3500  -17.9864   22.2570 C   0  0  0  0  0  0
  -28.6880  -20.3550   21.5480 C   0  0  0  0  0  0
  -29.2290  -22.6978   20.6271 C   0  0  0  0  0  0
  -30.3497  -17.0414   20.8483 C   0  0  0  0  0  0
  -28.2925  -25.1085   19.9707 C   0  0  0  0  0  0
  -29.1588  -24.2326   20.9611 C   0  0  2  0  0  0
  -29.5645  -19.4965   20.9732 N   0  0  0  0  0  0
  -27.9220  -16.8437   22.9279 N   0  0  0  0  0  0
  -28.6854  -21.8042   21.4925 N   0  0  0  0  0  0
  -29.9315  -15.6141   20.9633 N   0  0  0  0  0  0
  -30.5419  -24.7615   21.0171 N   0  3  0  0  0  0
  -29.8132  -22.3492   19.5997 O   0  0  0  0  0  0
  -27.5522  -19.5094   22.5907 S   0  0  0  0  0  0
  -31.4683  -12.4394   19.1529 H   0  0  0  0  0  0
  -30.3146  -11.3392   19.8524 H   0  0  0  0  0  0
  -29.7490  -11.8051   17.4392 H   0  0  0  0  0  0
  -29.6660  -13.5154   17.7824 H   0  0  0  0  0  0
  -27.8260  -11.3260   18.8114 H   0  0  0  0  0  0
  -27.3764  -12.6655   17.7873 H   0  0  0  0  0  0
  -27.6871  -14.2655   19.5707 H   0  0  0  0  0  0
  -28.6888  -12.0063   21.3695 H   0  0  0  0  0  0
  -28.4631  -13.6592   21.8662 H   0  0  0  0  0  0
  -25.2772   -9.5682   22.4753 H   0  0  0  0  0  0
  -23.9994   -7.4647   22.7501 H   0  0  0  0  0  0
  -21.0841   -8.8787   19.8954 H   0  0  0  0  0  0
  -22.3719  -10.9670   19.6153 H   0  0  0  0  0  0
  -21.2023   -7.6151   23.9714 H   0  0  0  0  0  0
  -21.1479   -6.0522   25.9072 H   0  0  0  0  0  0
  -22.0597   -2.7614   23.2850 H   0  0  0  0  0  0
  -22.4107  -11.9858   22.4712 H   0  0  0  0  0  0
  -21.1124  -13.1252   22.2602 H   0  0  0  0  0  0
  -24.6646  -15.8490   20.5522 H   0  0  0  0  0  0
  -26.2958  -15.6423   20.1646 H   0  0  0  0  0  0
  -26.7112  -32.5481   23.1075 H   0  0  0  0  0  0
  -25.0060  -33.9744   25.0448 H   0  0  0  0  0  0
  -22.7112  -31.3073   21.4049 H   0  0  0  0  0  0
  -23.3766  -35.9615   23.3277 H   0  0  0  0  0  0
  -24.3604  -36.8946   22.2075 H   0  0  0  0  0  0
  -23.7237  -37.6474   23.6677 H   0  0  0  0  0  0
  -26.0600  -31.5698   20.5992 H   0  0  0  0  0  0
  -26.8365  -30.8620   21.9863 H   0  0  0  0  0  0
  -28.0900  -29.0119   21.2234 H   0  0  0  0  0  0
  -26.0095  -25.9832   18.9318 H   0  0  0  0  0  0
  -23.9933  -27.3178   18.9672 H   0  0  0  0  0  0
  -23.7329  -30.5955   19.4037 H   0  0  0  0  0  0
  -22.7444  -29.2417   19.8657 H   0  0  0  0  0  0
  -25.1272  -36.1944   25.0843 H   0  0  0  0  0  0
  -20.9942  -28.3302   24.1409 H   0  0  0  0  0  0
  -20.5667  -26.2309   23.3625 H   0  0  0  0  0  0
  -21.6631  -26.7472   22.1191 H   0  0  0  0  0  0
  -19.6972  -25.6317   21.1225 H   0  0  0  0  0  0
  -19.6734  -27.3224   20.6743 H   0  0  0  0  0  0
  -17.4202  -26.6698   21.3963 H   0  0  0  0  0  0
  -18.0266  -26.0105   22.9006 H   0  0  0  0  0  0
  -19.7979  -30.7181   24.2302 H   0  0  0  0  0  0
  -17.5082  -31.6282   24.5122 H   0  0  0  0  0  0
  -15.5370  -30.2974   23.7696 H   0  0  0  0  0  0
  -15.8673  -28.0817   22.7063 H   0  0  0  0  0  0
  -24.6009  -30.6930   25.7718 H   0  0  0  0  0  0
  -24.8932  -32.2744   26.4855 H   0  0  0  0  0  0
  -25.8170  -30.8787   27.0163 H   0  0  0  0  0  0
  -26.2966  -29.6662   24.1243 H   0  0  0  0  0  0
  -27.4356  -29.7344   25.4489 H   0  0  0  0  0  0
  -27.8685  -30.4345   23.9091 H   0  0  0  0  0  0
  -27.2730  -33.3607   26.1966 H   0  0  0  0  0  0
  -28.3915  -32.6789   25.0263 H   0  0  0  0  0  0
  -28.0721  -31.8420   26.5386 H   0  0  0  0  0  0
  -28.2521  -38.0140   24.7578 H   0  0  0  0  0  0
  -28.1173  -36.2666   24.6165 H   0  0  0  0  0  0
  -27.2307  -37.1257   25.8848 H   0  0  0  0  0  0
  -20.9294  -29.8762   21.6900 H   0  0  0  0  0  0
  -26.0180  -38.2831   24.1514 H   0  0  0  0  0  0
  -31.3015  -17.1468   21.3706 H   0  0  0  0  0  0
  -30.5667  -17.2273   19.7969 H   0  0  0  0  0  0
  -27.2731  -24.7326   20.0525 H   0  0  0  0  0  0
  -28.6034  -24.9277   18.9395 H   0  0  0  0  0  0
  -28.7299  -24.3410   21.9580 H   0  0  0  0  0  0
  -28.6303  -16.1590   23.1748 H   0  0  0  0  0  0
  -27.2869  -16.9755   23.7095 H   0  0  0  0  0  0
  -28.1732  -22.2233   22.2559 H   0  0  0  0  0  0
  -28.9869  -15.4463   21.2762 H   0  0  0  0  0  0
  -30.9826  -24.6768   20.1170 H   0  0  0  0  0  0
  -31.0933  -24.2429   21.6788 H   0  0  0  0  0  0
  -30.5484  -25.7281   21.2904 H   0  0  0  0  0  0
  1 25  1  0  0  0
  1 30  2  0  0  0
  1 81  1  0  0  0
  2  3  1  0  0  0
  2 25  1  0  0  0
  2 85  1  0  0  0
  2 86  1  0  0  0
  3  4  1  0  0  0
  3 87  1  0  0  0
  3 88  1  0  0  0
  4  5  1  0  0  0
  4 89  1  0  0  0
  4 90  1  0  0  0
  5  6  1  0  0  0
  5 26  1  0  0  0
  5 91  1  0  0  0
  6 25  1  0  0  0
  6 92  1  0  0  0
  6 93  1  0  0  0
  7  8  2  0  0  0
  7 26  1  0  0  0
  7 29  1  0  0  0
  8  9  1  0  0  0
  8 22  1  0  0  0
  9 10  1  0  0  0
  9 27  2  0  0  0
 10 11  2  0  0  0
 10 15  1  0  0  0
 11 12  1  0  0  0
 11 94  1  0  0  0
 12 13  2  0  0  0
 12 95  1  0  0  0
 13 14  1  0  0  0
 13 31  1  0  0  0
 14 15  2  0  0  0
 14 96  1  0  0  0
 15 97  1  0  0  0
 16 17  2  0  0  0
 16 21  1  0  0  0
 16 31  1  0  0  0
 17 18  1  0  0  0
 17 98  1  0  0  0
 18 19  2  0  0  0
 18 99  1  0  0  0
 19 20  1  0  0  0
 19 24  1  0  0  0
 20 21  2  0  0  0
 20100  1  0  0  0
 21 23  1  0  0  0
 22 28  1  0  0  0
 22 32  2  0  0  0
 26 27  1  0  0  0
 28101  1  0  0  0
 28102  1  0  0  0
 29103  1  0  0  0
 29104  1  0  0  0
 33 34  1  0  0  0
 33 66  1  0  0  0
 33 70  2  0  0  0
 34 36  1  0  0  0
 34 59  1  0  0  0
 34105  1  0  0  0
 35 44  2  0  0  0
 35 45  1  0  0  0
 35 68  1  0  0  0
 36 56  1  0  0  0
 36106  1  0  0  0
 37 39  1  0  0  0
 37 47  1  0  0  0
 37 66  1  0  0  0
 37107  1  0  0  0
 38 43  2  0  0  0
 38 46  1  0  0  0
 38 47  1  0  0  0
 39 64  1  0  0  0
 39 67  2  0  0  0
 40 52  1  0  0  0
 40 53  2  0  0  0
 40 58  1  0  0  0
 41108  1  0  0  0
 41109  1  0  0  0
 41110  1  0  0  0
 41 48  1  0  0  0
 42 43  1  0  0  0
 42 66  1  0  0  0
 42111  1  0  0  0
 42112  1  0  0  0
 43 44  1  0  0  0
 44113  1  0  0  0
 45 46  2  0  0  0
 45114  1  0  0  0
 46115  1  0  0  0
 47116  1  0  0  0
 47117  1  0  0  0
 48 56  1  0  0  0
 48 65  1  0  0  0
 48118  1  0  0  0
 49 50  1  0  0  0
 49 53  1  0  0  0
 49 64  1  0  0  0
 49119  1  0  0  0
 50 51  1  0  0  0
 50120  1  0  0  0
 50121  1  0  0  0
 51 52  1  0  0  0
 51122  1  0  0  0
 51123  1  0  0  0
 52124  1  0  0  0
 52125  1  0  0  0
 53 54  1  0  0  0
 54 55  2  0  0  0
 54126  1  0  0  0
 55 57  1  0  0  0
 55127  1  0  0  0
 56 69  2  0  0  0
 57 58  2  0  0  0
 57128  1  0  0  0
 58129  1  0  0  0
 59 60  1  0  0  0
 59 61  1  0  0  0
 59 62  1  0  0  0
 60130  1  0  0  0
 60131  1  0  0  0
 60132  1  0  0  0
 61133  1  0  0  0
 61134  1  0  0  0
 61135  1  0  0  0
 62136  1  0  0  0
 62137  1  0  0  0
 62138  1  0  0  0
 63 65  1  0  0  0
 63139  1  0  0  0
 63140  1  0  0  0
 63141  1  0  0  0
 64142  1  0  0  0
 65143  1  0  0  0
 68 76  1  0  0  0
 71 72  2  0  0  0
 71 75  1  0  0  0
 71 78  1  0  0  0
 72 79  1  0  0  0
 72 84  1  0  0  0
 73 78  2  0  0  0
 73 80  1  0  0  0
 73 84  1  0  0  0
 74 77  1  0  0  0
 74 80  1  0  0  0
 74 83  2  0  0  0
 75 81  1  0  0  0
 75144  1  0  0  0
 75145  1  0  0  0
 76 77  1  0  0  0
 76146  1  0  0  0
 76147  1  0  0  0
 77 82  1  0  0  0
 77148  1  0  0  0
 79149  1  0  0  0
 79150  1  0  0  0
 80151  1  0  0  0
 81152  1  0  0  0
 82153  1  0  0  0
 82154  1  0  0  0
 82155  1  0  0  0
M  CHG  1  82   1
M  ISO  4   1 100  68 101  76 101  81 100
M  END
> <chiral flag>
0

> <version>
0

> <s_m_source_file>
/data/baiqing/PycharmProjects/Reinvent-master-3.2/result/LINK_invent/BTK/process_docking_weight1_custom_product_contain_oxygen_bond_distance_aromatic_linkinvent_7_9_3/rearranged_h_0184.sdf

> <i_m_source_file_index>
62

> <r_mmod_Potential_Energy-OPLS-2005>
-429.650451660156

> <r_mmod_Stretch_Energy-OPLS-2005>
59.3297882080078

> <r_mmod_Bend_Energy-OPLS-2005>
128.357864379883

> <r_mmod_Torsional_Energy-OPLS-2005>
221.68359375

> <r_mmod_Improper_Torsional_Energy-OPLS-2005>
9.2395076751709

> <r_mmod_Van_der_Waal_Energy-OPLS-2005>
124.158866882324

> <r_mmod_Electrostatic_Energy-OPLS-2005>
-486.665832519531

> <r_mmod_Solvation_Energy-OPLS-2005>
-514.86669921875

> <b_mmod_Minimization_Converged-OPLS-2005>
0

> <r_mmod_RMS_Derivative-OPLS-2005>
4.7513108253479

$$$$
62
                    3D
 Structure written by MMmdl.
147155  0  0  1  0            999 V2000
  -30.5898  -14.7731   20.4501 C   0  0  0  0  0  0
  -30.4378  -12.4730   19.4681 C   0  0  0  0  0  0
  -29.5109  -12.5069   18.2327 C   0  0  0  0  0  0
  -28.0381  -12.3235   18.6498 C   0  0  0  0  0  0
  -27.6386  -13.2288   19.8452 C   0  0  2  0  0  0
  -28.6856  -13.1743   20.9786 C   0  0  0  0  0  0
  -25.2499  -13.8185   20.5690 C   0  0  0  0  0  0
  -24.1797  -13.0431   20.9214 C   0  0  0  0  0  0
  -24.6387  -11.6909   20.8750 C   0  0  0  0  0  0
  -23.9066  -10.4288   21.0411 C   0  0  0  0  0  0
  -24.3618   -9.4203   21.9188 C   0  0  0  0  0  0
  -23.6293   -8.2239   22.0757 C   0  0  0  0  0  0
  -22.4276   -8.0278   21.3545 C   0  0  0  0  0  0
  -21.9911   -9.0252   20.4647 C   0  0  0  0  0  0
  -22.7240  -10.2130   20.3058 C   0  0  0  0  0  0
  -21.6853   -6.0732   22.5280 C   0  0  0  0  0  0
  -21.4013   -6.5638   23.8213 C   0  0  0  0  0  0
  -21.3660   -5.6793   24.9177 C   0  0  0  0  0  0
  -21.6046   -4.3055   24.7227 C   0  0  0  0  0  0
  -21.8820   -3.8144   23.4348 C   0  0  0  0  0  0
  -21.9191   -4.6960   22.3403 C   0  0  0  0  0  0
  -22.7818  -13.5212   21.1872 C   0  0  0  0  0  0
  -22.1662   -4.2144   21.0982 F   0  0  0  0  0  0
  -21.5628   -3.4539   25.7740 F   0  0  0  0  0  0
  -29.9803  -13.5377   20.3898 N   0  0  0  0  0  0
  -26.2920  -12.9386   20.3258 N   0  0  0  0  0  0
  -25.9314  -11.6534   20.5747 N   0  0  0  0  0  0
  -22.0465  -12.8201   22.0429 N   0  0  0  0  0  0
  -25.4157  -15.1917   20.4098 N   0  0  0  0  0  0
  -31.7928  -14.8663   20.1858 O   0  0  0  0  0  0
  -21.6638   -6.8876   21.4243 O   0  0  0  0  0  0
  -22.3502  -14.5517   20.6720 O   0  0  0  0  0  0
  -24.6322  -31.8537   23.1959 C   0  0  0  0  0  0
  -25.9142  -32.4747   23.8315 C   0  0  1  0  0  0
  -27.2251  -27.2521   20.1413 C   0  0  0  0  0  0
  -25.5936  -33.8549   24.2243 N   0  0  0  0  0  0
  -23.4303  -30.4732   21.5396 C   0  0  2  0  0  0
  -24.8796  -28.9103   20.1171 C   0  0  0  0  0  0
  -22.7507  -29.4592   22.4915 C   0  0  0  0  0  0
  -18.0295  -28.1386   22.8486 C   0  0  0  0  0  0
  -24.1491  -36.7274   23.2640 C   0  0  0  0  0  0
  -25.9759  -30.7642   21.3760 C   0  0  0  0  0  0
  -26.0515  -29.3834   20.7223 C   0  0  0  0  0  0
  -27.2307  -28.5692   20.7159 C   0  0  0  0  0  0
  -26.0309  -26.8394   19.5176 C   0  0  0  0  0  0
  -24.8743  -27.6468   19.5028 C   0  0  0  0  0  0
  -23.6507  -29.8000   20.1588 C   0  0  0  0  0  0
  -25.4119  -36.3065   24.0326 C   0  0  1  0  0  0
  -20.5899  -28.3699   23.1270 C   0  0  2  0  0  0
  -20.6783  -26.9416   22.5410 C   0  0  0  0  0  0
  -19.5759  -26.6384   21.5212 C   0  0  0  0  0  0
  -18.1939  -26.7930   22.1622 C   0  0  0  0  0  0
  -19.1548  -28.8860   23.2872 C   0  0  0  0  0  0
  -18.9468  -30.1461   23.8892 C   0  0  0  0  0  0
  -17.6467  -30.6589   24.0561 C   0  0  0  0  0  0
  -25.9063  -34.9437   23.5090 C   0  0  0  0  0  0
  -16.5358  -29.9083   23.6333 C   0  0  0  0  0  0
  -16.7281  -28.6499   23.0358 C   0  0  0  0  0  0
  -26.4507  -31.6577   25.0709 C   0  0  0  0  0  0
  -25.3725  -31.3727   26.1424 C   0  0  0  0  0  0
  -27.0361  -30.2995   24.6202 C   0  0  0  0  0  0
  -27.6060  -32.4317   25.7487 C   0  0  0  0  0  0
  -27.5585  -37.1789   24.8462 C   0  0  0  0  0  0
  -21.4213  -29.3040   22.3654 N   0  0  0  0  0  0
  -26.4291  -37.3769   23.9415 N   0  0  0  0  0  0
  -24.6985  -31.0488   22.0939 N   0  0  0  0  0  0
  -23.4198  -28.8143   23.3029 O   0  0  0  0  0  0
  -28.3242  -26.3652   20.1267 O   0  0  0  0  0  0
  -26.5636  -34.8917   22.4660 O   0  0  0  0  0  0
  -23.5469  -32.1362   23.7249 O   0  0  0  0  0  0
  -29.7357  -19.7286   20.4770 C   0  0  0  0  0  0
  -31.0218  -19.6354   20.9627 C   0  0  0  0  0  0
  -30.0857  -17.3497   20.6039 C   0  0  0  0  0  0
  -29.0513  -21.0570   20.0235 C   0  0  0  0  0  0
  -29.0927  -22.3522   20.5673 C   0  0  0  0  0  0
  -28.5411  -23.6729   19.9202 C   0  0  0  0  0  0
  -28.1852  -25.0017   20.7617 C   0  0  0  0  0  0
  -29.2218  -18.3822   20.2720 N   0  0  0  0  0  0
  -29.7722  -15.8977   20.5357 N   0  0  0  0  0  0
  -28.3530  -23.7529   18.7007 O   0  0  0  0  0  0
  -28.3898  -20.8303   18.8787 O   0  0  0  0  0  0
  -31.8432  -20.6945   21.1632 F   0  0  0  0  0  0
  -31.6222  -17.9986   21.1932 S   0  0  0  0  0  0
  -29.8316  -22.5605   22.1177 Cl  0  0  0  0  0  0
  -31.4762  -12.6120   19.1619 H   0  0  0  0  0  0
  -30.3963  -11.4993   19.9589 H   0  0  0  0  0  0
  -29.7980  -11.7307   17.5220 H   0  0  0  0  0  0
  -29.6277  -13.4582   17.7110 H   0  0  0  0  0  0
  -27.9026  -11.2756   18.9209 H   0  0  0  0  0  0
  -27.3785  -12.5044   17.8004 H   0  0  0  0  0  0
  -27.6260  -14.2461   19.4544 H   0  0  0  0  0  0
  -28.7304  -12.1784   21.4218 H   0  0  0  0  0  0
  -28.4184  -13.8572   21.7868 H   0  0  0  0  0  0
  -25.2767   -9.5677   22.4758 H   0  0  0  0  0  0
  -24.0000   -7.4631   22.7480 H   0  0  0  0  0  0
  -21.0841   -8.8774   19.8952 H   0  0  0  0  0  0
  -22.3703  -10.9670   19.6165 H   0  0  0  0  0  0
  -21.2009   -7.6148   23.9712 H   0  0  0  0  0  0
  -21.1481   -6.0526   25.9079 H   0  0  0  0  0  0
  -22.0598   -2.7604   23.2853 H   0  0  0  0  0  0
  -22.4087  -11.9860   22.4808 H   0  0  0  0  0  0
  -21.1083  -13.1224   22.2640 H   0  0  0  0  0  0
  -24.6401  -15.8367   20.5179 H   0  0  0  0  0  0
  -26.2485  -15.6386   20.0494 H   0  0  0  0  0  0
  -26.7205  -32.5399   23.1053 H   0  0  0  0  0  0
  -25.0085  -33.9682   25.0391 H   0  0  0  0  0  0
  -22.7275  -31.2954   21.3894 H   0  0  0  0  0  0
  -23.3766  -35.9594   23.3290 H   0  0  0  0  0  0
  -24.3581  -36.8910   22.2056 H   0  0  0  0  0  0
  -23.7230  -37.6464   23.6673 H   0  0  0  0  0  0
  -26.1140  -31.5234   20.6052 H   0  0  0  0  0  0
  -26.8530  -30.8158   22.0095 H   0  0  0  0  0  0
  -28.1339  -28.9317   21.1865 H   0  0  0  0  0  0
  -25.9892  -25.8690   19.0428 H   0  0  0  0  0  0
  -23.9769  -27.2792   19.0241 H   0  0  0  0  0  0
  -23.7772  -30.5726   19.3996 H   0  0  0  0  0  0
  -22.7690  -29.2329   19.8549 H   0  0  0  0  0  0
  -25.1302  -36.1906   25.0818 H   0  0  0  0  0  0
  -20.9990  -28.3277   24.1391 H   0  0  0  0  0  0
  -20.5686  -26.2307   23.3613 H   0  0  0  0  0  0
  -21.6650  -26.7441   22.1204 H   0  0  0  0  0  0
  -19.6922  -25.6293   21.1245 H   0  0  0  0  0  0
  -19.6699  -27.3191   20.6740 H   0  0  0  0  0  0
  -17.4210  -26.6682   21.4022 H   0  0  0  0  0  0
  -18.0338  -26.0070   22.9017 H   0  0  0  0  0  0
  -19.7944  -30.7278   24.2259 H   0  0  0  0  0  0
  -17.5021  -31.6271   24.5160 H   0  0  0  0  0  0
  -15.5358  -30.2983   23.7661 H   0  0  0  0  0  0
  -15.8681  -28.0813   22.7082 H   0  0  0  0  0  0
  -24.5907  -30.7071   25.7744 H   0  0  0  0  0  0
  -24.8908  -32.2897   26.4831 H   0  0  0  0  0  0
  -25.8036  -30.8913   27.0211 H   0  0  0  0  0  0
  -26.2947  -29.6730   24.1228 H   0  0  0  0  0  0
  -27.4046  -29.7269   25.4724 H   0  0  0  0  0  0
  -27.8822  -30.4270   23.9446 H   0  0  0  0  0  0
  -27.2672  -33.3625   26.2049 H   0  0  0  0  0  0
  -28.3883  -32.6863   25.0323 H   0  0  0  0  0  0
  -28.0716  -31.8449   26.5416 H   0  0  0  0  0  0
  -28.2581  -38.0108   24.7545 H   0  0  0  0  0  0
  -28.1105  -36.2641   24.6246 H   0  0  0  0  0  0
  -27.2308  -37.1384   25.8864 H   0  0  0  0  0  0
  -20.9405  -29.8742   21.6836 H   0  0  0  0  0  0
  -26.0168  -38.2837   24.1437 H   0  0  0  0  0  0
  -28.8096  -25.0103   21.6540 H   0  0  0  0  0  0
  -27.1639  -24.8844   21.1241 H   0  0  0  0  0  0
  -28.7893  -15.6841   20.5482 H   0  0  0  0  0  0
  -28.4514  -19.8950   18.7164 H   0  0  0  0  0  0
  1 25  1  0  0  0
  1 30  2  0  0  0
  1 79  1  0  0  0
  2  3  1  0  0  0
  2 25  1  0  0  0
  2 85  1  0  0  0
  2 86  1  0  0  0
  3  4  1  0  0  0
  3 87  1  0  0  0
  3 88  1  0  0  0
  4  5  1  0  0  0
  4 89  1  0  0  0
  4 90  1  0  0  0
  5  6  1  0  0  0
  5 26  1  0  0  0
  5 91  1  0  0  0
  6 25  1  0  0  0
  6 92  1  0  0  0
  6 93  1  0  0  0
  7  8  2  0  0  0
  7 26  1  0  0  0
  7 29  1  0  0  0
  8  9  1  0  0  0
  8 22  1  0  0  0
  9 10  1  0  0  0
  9 27  2  0  0  0
 10 11  2  0  0  0
 10 15  1  0  0  0
 11 12  1  0  0  0
 11 94  1  0  0  0
 12 13  2  0  0  0
 12 95  1  0  0  0
 13 14  1  0  0  0
 13 31  1  0  0  0
 14 15  2  0  0  0
 14 96  1  0  0  0
 15 97  1  0  0  0
 16 17  2  0  0  0
 16 21  1  0  0  0
 16 31  1  0  0  0
 17 18  1  0  0  0
 17 98  1  0  0  0
 18 19  2  0  0  0
 18 99  1  0  0  0
 19 20  1  0  0  0
 19 24  1  0  0  0
 20 21  2  0  0  0
 20100  1  0  0  0
 21 23  1  0  0  0
 22 28  1  0  0  0
 22 32  2  0  0  0
 26 27  1  0  0  0
 28101  1  0  0  0
 28102  1  0  0  0
 29103  1  0  0  0
 29104  1  0  0  0
 33 34  1  0  0  0
 33 66  1  0  0  0
 33 70  2  0  0  0
 34 36  1  0  0  0
 34 59  1  0  0  0
 34105  1  0  0  0
 35 44  2  0  0  0
 35 45  1  0  0  0
 35 68  1  0  0  0
 36 56  1  0  0  0
 36106  1  0  0  0
 37 39  1  0  0  0
 37 47  1  0  0  0
 37 66  1  0  0  0
 37107  1  0  0  0
 38 43  2  0  0  0
 38 46  1  0  0  0
 38 47  1  0  0  0
 39 64  1  0  0  0
 39 67  2  0  0  0
 40 52  1  0  0  0
 40 53  2  0  0  0
 40 58  1  0  0  0
 41108  1  0  0  0
 41109  1  0  0  0
 41110  1  0  0  0
 41 48  1  0  0  0
 42 43  1  0  0  0
 42 66  1  0  0  0
 42111  1  0  0  0
 42112  1  0  0  0
 43 44  1  0  0  0
 44113  1  0  0  0
 45 46  2  0  0  0
 45114  1  0  0  0
 46115  1  0  0  0
 47116  1  0  0  0
 47117  1  0  0  0
 48 56  1  0  0  0
 48 65  1  0  0  0
 48118  1  0  0  0
 49 50  1  0  0  0
 49 53  1  0  0  0
 49 64  1  0  0  0
 49119  1  0  0  0
 50 51  1  0  0  0
 50120  1  0  0  0
 50121  1  0  0  0
 51 52  1  0  0  0
 51122  1  0  0  0
 51123  1  0  0  0
 52124  1  0  0  0
 52125  1  0  0  0
 53 54  1  0  0  0
 54 55  2  0  0  0
 54126  1  0  0  0
 55 57  1  0  0  0
 55127  1  0  0  0
 56 69  2  0  0  0
 57 58  2  0  0  0
 57128  1  0  0  0
 58129  1  0  0  0
 59 60  1  0  0  0
 59 61  1  0  0  0
 59 62  1  0  0  0
 60130  1  0  0  0
 60131  1  0  0  0
 60132  1  0  0  0
 61133  1  0  0  0
 61134  1  0  0  0
 61135  1  0  0  0
 62136  1  0  0  0
 62137  1  0  0  0
 62138  1  0  0  0
 63 65  1  0  0  0
 63139  1  0  0  0
 63140  1  0  0  0
 63141  1  0  0  0
 64142  1  0  0  0
 65143  1  0  0  0
 68 77  1  0  0  0
 71 72  2  0  0  0
 71 74  1  0  0  0
 71 78  1  0  0  0
 72 82  1  0  0  0
 72 83  1  0  0  0
 73 78  2  0  0  0
 73 79  1  0  0  0
 73 83  1  0  0  0
 74 75  2  0  0  0
 74 81  1  0  0  0
 75 76  1  0  0  0
 75 84  1  0  0  0
 76 77  1  0  0  0
 76 80  2  0  0  0
 77144  1  0  0  0
 77145  1  0  0  0
 79146  1  0  0  0
 81147  1  0  0  0
M  ISO  4   1 100  68 101  77 101  79 100
M  END
> <chiral flag>
0

> <version>
0

> <s_m_source_file>
/data/baiqing/PycharmProjects/Reinvent-master-3.2/result/LINK_invent/BTK/process_docking_weight1_custom_product_contain_oxygen_bond_distance_aromatic_linkinvent_7_9_3/rearranged_h_0184.sdf

> <i_m_source_file_index>
63

> <r_mmod_Potential_Energy-OPLS-2005>
190.506484985352

> <r_mmod_Stretch_Energy-OPLS-2005>
136.654342651367

> <r_mmod_Bend_Energy-OPLS-2005>
163.801498413086

> <r_mmod_Torsional_Energy-OPLS-2005>
243.374786376953

> <r_mmod_Improper_Torsional_Energy-OPLS-2005>
7.91346883773804

> <r_mmod_Van_der_Waal_Energy-OPLS-2005>
115.710357666016

> <r_mmod_Electrostatic_Energy-OPLS-2005>
-336.643341064453

> <r_mmod_Solvation_Energy-OPLS-2005>
-233.77473449707

> <b_mmod_Minimization_Converged-OPLS-2005>
0

> <r_mmod_RMS_Derivative-OPLS-2005>
0.412731140851974

$$$$
63
                    3D
 Structure written by MMmdl.
154162  0  0  1  0            999 V2000
  -30.5042  -15.0494   20.3961 C   0  0  0  0  0  0
  -30.4430  -12.6549   19.5048 C   0  0  0  0  0  0
  -29.5266  -12.5396   18.2635 C   0  0  0  0  0  0
  -28.0633  -12.3071   18.6851 C   0  0  0  0  0  0
  -27.6236  -13.2551   19.8309 C   0  0  2  0  0  0
  -28.6655  -13.3295   20.9670 C   0  0  0  0  0  0
  -25.2436  -13.8219   20.5716 C   0  0  0  0  0  0
  -24.1766  -13.0434   20.9243 C   0  0  0  0  0  0
  -24.6393  -11.6923   20.8758 C   0  0  0  0  0  0
  -23.9079  -10.4290   21.0406 C   0  0  0  0  0  0
  -24.3627   -9.4204   21.9184 C   0  0  0  0  0  0
  -23.6300   -8.2240   22.0753 C   0  0  0  0  0  0
  -22.4281   -8.0279   21.3545 C   0  0  0  0  0  0
  -21.9918   -9.0254   20.4647 C   0  0  0  0  0  0
  -22.7248  -10.2132   20.3056 C   0  0  0  0  0  0
  -21.6853   -6.0735   22.5279 C   0  0  0  0  0  0
  -21.4015   -6.5640   23.8213 C   0  0  0  0  0  0
  -21.3660   -5.6794   24.9176 C   0  0  0  0  0  0
  -21.6044   -4.3056   24.7225 C   0  0  0  0  0  0
  -21.8818   -3.8146   23.4347 C   0  0  0  0  0  0
  -21.9192   -4.6962   22.3402 C   0  0  0  0  0  0
  -22.7785  -13.5202   21.1892 C   0  0  0  0  0  0
  -22.1661   -4.2150   21.0979 F   0  0  0  0  0  0
  -21.5629   -3.4539   25.7736 F   0  0  0  0  0  0
  -29.9272  -13.7705   20.3572 N   0  0  0  0  0  0
  -26.2860  -12.9463   20.3221 N   0  0  0  0  0  0
  -25.9327  -11.6588   20.5727 N   0  0  0  0  0  0
  -22.0435  -12.8191   22.0449 N   0  0  0  0  0  0
  -25.4070  -15.1951   20.4130 N   0  0  0  0  0  0
  -31.7188  -15.0918   20.1633 O   0  0  0  0  0  0
  -21.6643   -6.8878   21.4242 O   0  0  0  0  0  0
  -22.3468  -14.5504   20.6730 O   0  0  0  0  0  0
  -24.6507  -31.8372   23.1819 C   0  0  0  0  0  0
  -25.9249  -32.4657   23.8234 C   0  0  1  0  0  0
  -27.2186  -27.0644   20.1541 C   0  0  0  0  0  0
  -25.5969  -33.8466   24.2149 N   0  0  0  0  0  0
  -23.4575  -30.4547   21.5294 C   0  0  2  0  0  0
  -24.9068  -28.8688   20.1104 C   0  0  0  0  0  0
  -22.7605  -29.4513   22.4834 C   0  0  0  0  0  0
  -18.0312  -28.1399   22.8472 C   0  0  0  0  0  0
  -24.1494  -36.7234   23.2643 C   0  0  0  0  0  0
  -26.0190  -30.6883   21.3903 C   0  0  0  0  0  0
  -26.0884  -29.2933   20.7299 C   0  0  0  0  0  0
  -27.2425  -28.4100   20.7293 C   0  0  0  0  0  0
  -26.0005  -26.7543   19.5080 C   0  0  0  0  0  0
  -24.8798  -27.6150   19.4832 C   0  0  0  0  0  0
  -23.6877  -29.7808   20.1508 C   0  0  0  0  0  0
  -25.4130  -36.3007   24.0308 C   0  0  1  0  0  0
  -20.5930  -28.3734   23.1217 C   0  0  2  0  0  0
  -20.6795  -26.9431   22.5400 C   0  0  0  0  0  0
  -19.5769  -26.6379   21.5211 C   0  0  0  0  0  0
  -18.1949  -26.7935   22.1621 C   0  0  0  0  0  0
  -19.1569  -28.8885   23.2833 C   0  0  0  0  0  0
  -18.9485  -30.1479   23.8863 C   0  0  0  0  0  0
  -17.6480  -30.6593   24.0557 C   0  0  0  0  0  0
  -25.9087  -34.9385   23.5040 C   0  0  0  0  0  0
  -16.5371  -29.9085   23.6338 C   0  0  0  0  0  0
  -16.7295  -28.6503   23.0358 C   0  0  0  0  0  0
  -26.4543  -31.6553   25.0708 C   0  0  0  0  0  0
  -25.3707  -31.3766   26.1390 C   0  0  0  0  0  0
  -27.0424  -30.2939   24.6347 C   0  0  0  0  0  0
  -27.6057  -32.4337   25.7502 C   0  0  0  0  0  0
  -27.5574  -37.1776   24.8466 C   0  0  0  0  0  0
  -21.4289  -29.3047   22.3581 N   0  0  0  0  0  0
  -26.4284  -37.3730   23.9409 N   0  0  0  0  0  0
  -24.7296  -31.0165   22.0883 N   0  0  0  0  0  0
  -23.4216  -28.8072   23.3016 O   0  0  0  0  0  0
  -28.2645  -26.0464   20.2373 O   0  0  0  0  0  0
  -26.5680  -34.8896   22.4625 O   0  0  0  0  0  0
  -23.5609  -32.1277   23.6998 O   0  0  0  0  0  0
  -29.5769  -20.3001   20.3206 C   0  0  0  0  0  0
  -30.9533  -20.1236   20.3590 C   0  0  0  0  0  0
  -29.9671  -17.7800   20.4144 C   0  0  0  0  0  0
  -28.2147  -24.3944   18.3852 C   0  0  0  0  0  0
  -30.4930  -23.5809   20.3173 C   0  0  0  0  0  0
  -28.7843  -23.2615   22.0838 C   0  0  0  0  0  0
  -28.1053  -24.4932   19.9173 C   0  0  1  0  0  0
  -29.0298  -23.1806   20.5689 C   0  0  0  0  0  0
  -29.0651  -18.8849   20.3501 N   0  0  0  0  0  0
  -28.8118  -21.6410   20.1823 N   0  0  0  0  0  0
  -29.6997  -16.2453   20.4734 N   0  0  0  0  0  0
  -31.8547  -21.1284   20.2738 F   0  0  0  0  0  0
  -31.5888  -18.4650   20.4349 S   0  0  0  0  0  0
  -31.4720  -12.8292   19.1866 H   0  0  0  0  0  0
  -30.4608  -11.7178   20.0639 H   0  0  0  0  0  0
  -29.8651  -11.7297   17.6161 H   0  0  0  0  0  0
  -29.5959  -13.4541   17.6723 H   0  0  0  0  0  0
  -27.9780  -11.2709   19.0143 H   0  0  0  0  0  0
  -27.3976  -12.4089   17.8272 H   0  0  0  0  0  0
  -27.5705  -14.2458   19.3788 H   0  0  0  0  0  0
  -28.7781  -12.3658   21.4658 H   0  0  0  0  0  0
  -28.3470  -14.0394   21.7323 H   0  0  0  0  0  0
  -25.2769   -9.5686   22.4762 H   0  0  0  0  0  0
  -24.0009   -7.4632   22.7475 H   0  0  0  0  0  0
  -21.0847   -8.8772   19.8955 H   0  0  0  0  0  0
  -22.3700  -10.9672   19.6168 H   0  0  0  0  0  0
  -21.2009   -7.6149   23.9718 H   0  0  0  0  0  0
  -21.1483   -6.0523   25.9080 H   0  0  0  0  0  0
  -22.0597   -2.7608   23.2844 H   0  0  0  0  0  0
  -22.4059  -11.9861   22.4849 H   0  0  0  0  0  0
  -21.1047  -13.1208   22.2647 H   0  0  0  0  0  0
  -24.6300  -15.8381   20.5204 H   0  0  0  0  0  0
  -26.2366  -15.6395   20.0428 H   0  0  0  0  0  0
  -26.7315  -32.5237   23.0955 H   0  0  0  0  0  0
  -25.0089  -33.9570   25.0279 H   0  0  0  0  0  0
  -22.7631  -31.2824   21.3704 H   0  0  0  0  0  0
  -23.3764  -35.9557   23.3287 H   0  0  0  0  0  0
  -24.3572  -36.8892   22.2061 H   0  0  0  0  0  0
  -23.7241  -37.6418   23.6700 H   0  0  0  0  0  0
  -26.1850  -31.4401   20.6176 H   0  0  0  0  0  0
  -26.8848  -30.7380   22.0389 H   0  0  0  0  0  0
  -28.1417  -28.7329   21.2348 H   0  0  0  0  0  0
  -25.8667  -25.7903   19.0440 H   0  0  0  0  0  0
  -23.9754  -27.2802   18.9937 H   0  0  0  0  0  0
  -23.8322  -30.5538   19.3950 H   0  0  0  0  0  0
  -22.7998  -29.2291   19.8373 H   0  0  0  0  0  0
  -25.1323  -36.1820   25.0800 H   0  0  0  0  0  0
  -21.0017  -28.3329   24.1340 H   0  0  0  0  0  0
  -20.5685  -26.2352   23.3628 H   0  0  0  0  0  0
  -21.6661  -26.7428   22.1202 H   0  0  0  0  0  0
  -19.6932  -25.6282   21.1263 H   0  0  0  0  0  0
  -19.6703  -27.3170   20.6725 H   0  0  0  0  0  0
  -17.4219  -26.6674   21.4025 H   0  0  0  0  0  0
  -18.0349  -26.0085   22.9026 H   0  0  0  0  0  0
  -19.7961  -30.7303   24.2217 H   0  0  0  0  0  0
  -17.5034  -31.6270   24.5165 H   0  0  0  0  0  0
  -15.5370  -30.2976   23.7682 H   0  0  0  0  0  0
  -15.8696  -28.0810   22.7095 H   0  0  0  0  0  0
  -24.5890  -30.7113   25.7705 H   0  0  0  0  0  0
  -24.8894  -32.2957   26.4742 H   0  0  0  0  0  0
  -25.7969  -30.8981   27.0218 H   0  0  0  0  0  0
  -26.3065  -29.6640   24.1338 H   0  0  0  0  0  0
  -27.3993  -29.7265   25.4952 H   0  0  0  0  0  0
  -27.8987  -30.4154   23.9710 H   0  0  0  0  0  0
  -27.2637  -33.3663   26.2004 H   0  0  0  0  0  0
  -28.3908  -32.6863   25.0362 H   0  0  0  0  0  0
  -28.0684  -31.8518   26.5483 H   0  0  0  0  0  0
  -28.2582  -38.0081   24.7514 H   0  0  0  0  0  0
  -28.1081  -36.2611   24.6293 H   0  0  0  0  0  0
  -27.2292  -37.1419   25.8868 H   0  0  0  0  0  0
  -20.9518  -29.8747   21.6737 H   0  0  0  0  0  0
  -26.0143  -38.2794   24.1415 H   0  0  0  0  0  0
  -27.9948  -23.3832   18.0434 H   0  0  0  0  0  0
  -29.2205  -24.6421   18.0481 H   0  0  0  0  0  0
  -27.5340  -25.0656   17.8666 H   0  0  0  0  0  0
  -30.6247  -24.6601   20.4064 H   0  0  0  0  0  0
  -30.8269  -23.2975   19.3191 H   0  0  0  0  0  0
  -31.1681  -23.1461   21.0518 H   0  0  0  0  0  0
  -28.9789  -24.2658   22.4634 H   0  0  0  0  0  0
  -29.4231  -22.5734   22.6387 H   0  0  0  0  0  0
  -27.7496  -23.0193   22.3285 H   0  0  0  0  0  0
  -27.0752  -24.2577   20.1843 H   0  0  0  0  0  0
  -27.8368  -21.4708   19.9590 H   0  0  0  0  0  0
  -28.7219  -16.0260   20.5700 H   0  0  0  0  0  0
  1 25  1  0  0  0
  1 30  2  0  0  0
  1 81  1  0  0  0
  2  3  1  0  0  0
  2 25  1  0  0  0
  2 84  1  0  0  0
  2 85  1  0  0  0
  3  4  1  0  0  0
  3 86  1  0  0  0
  3 87  1  0  0  0
  4  5  1  0  0  0
  4 88  1  0  0  0
  4 89  1  0  0  0
  5  6  1  0  0  0
  5 26  1  0  0  0
  5 90  1  0  0  0
  6 25  1  0  0  0
  6 91  1  0  0  0
  6 92  1  0  0  0
  7  8  2  0  0  0
  7 26  1  0  0  0
  7 29  1  0  0  0
  8  9  1  0  0  0
  8 22  1  0  0  0
  9 10  1  0  0  0
  9 27  2  0  0  0
 10 11  2  0  0  0
 10 15  1  0  0  0
 11 12  1  0  0  0
 11 93  1  0  0  0
 12 13  2  0  0  0
 12 94  1  0  0  0
 13 14  1  0  0  0
 13 31  1  0  0  0
 14 15  2  0  0  0
 14 95  1  0  0  0
 15 96  1  0  0  0
 16 17  2  0  0  0
 16 21  1  0  0  0
 16 31  1  0  0  0
 17 18  1  0  0  0
 17 97  1  0  0  0
 18 19  2  0  0  0
 18 98  1  0  0  0
 19 20  1  0  0  0
 19 24  1  0  0  0
 20 21  2  0  0  0
 20 99  1  0  0  0
 21 23  1  0  0  0
 22 28  1  0  0  0
 22 32  2  0  0  0
 26 27  1  0  0  0
 28100  1  0  0  0
 28101  1  0  0  0
 29102  1  0  0  0
 29103  1  0  0  0
 33 34  1  0  0  0
 33 66  1  0  0  0
 33 70  2  0  0  0
 34 36  1  0  0  0
 34 59  1  0  0  0
 34104  1  0  0  0
 35 44  2  0  0  0
 35 45  1  0  0  0
 35 68  1  0  0  0
 36 56  1  0  0  0
 36105  1  0  0  0
 37 39  1  0  0  0
 37 47  1  0  0  0
 37 66  1  0  0  0
 37106  1  0  0  0
 38 43  2  0  0  0
 38 46  1  0  0  0
 38 47  1  0  0  0
 39 64  1  0  0  0
 39 67  2  0  0  0
 40 52  1  0  0  0
 40 53  2  0  0  0
 40 58  1  0  0  0
 41107  1  0  0  0
 41108  1  0  0  0
 41109  1  0  0  0
 41 48  1  0  0  0
 42 43  1  0  0  0
 42 66  1  0  0  0
 42110  1  0  0  0
 42111  1  0  0  0
 43 44  1  0  0  0
 44112  1  0  0  0
 45 46  2  0  0  0
 45113  1  0  0  0
 46114  1  0  0  0
 47115  1  0  0  0
 47116  1  0  0  0
 48 56  1  0  0  0
 48 65  1  0  0  0
 48117  1  0  0  0
 49 50  1  0  0  0
 49 53  1  0  0  0
 49 64  1  0  0  0
 49118  1  0  0  0
 50 51  1  0  0  0
 50119  1  0  0  0
 50120  1  0  0  0
 51 52  1  0  0  0
 51121  1  0  0  0
 51122  1  0  0  0
 52123  1  0  0  0
 52124  1  0  0  0
 53 54  1  0  0  0
 54 55  2  0  0  0
 54125  1  0  0  0
 55 57  1  0  0  0
 55126  1  0  0  0
 56 69  2  0  0  0
 57 58  2  0  0  0
 57127  1  0  0  0
 58128  1  0  0  0
 59 60  1  0  0  0
 59 61  1  0  0  0
 59 62  1  0  0  0
 60129  1  0  0  0
 60130  1  0  0  0
 60131  1  0  0  0
 61132  1  0  0  0
 61133  1  0  0  0
 61134  1  0  0  0
 62135  1  0  0  0
 62136  1  0  0  0
 62137  1  0  0  0
 63 65  1  0  0  0
 63138  1  0  0  0
 63139  1  0  0  0
 63140  1  0  0  0
 64141  1  0  0  0
 65142  1  0  0  0
 68 77  1  0  0  0
 71 72  2  0  0  0
 71 79  1  0  0  0
 71 80  1  0  0  0
 72 82  1  0  0  0
 72 83  1  0  0  0
 73 79  2  0  0  0
 73 81  1  0  0  0
 73 83  1  0  0  0
 74143  1  0  0  0
 74144  1  0  0  0
 74145  1  0  0  0
 74 77  1  0  0  0
 75146  1  0  0  0
 75147  1  0  0  0
 75148  1  0  0  0
 75 78  1  0  0  0
 76 78  1  0  0  0
 76149  1  0  0  0
 76150  1  0  0  0
 76151  1  0  0  0
 77 78  1  0  0  0
 77152  1  0  0  0
 78 80  1  0  0  0
 80153  1  0  0  0
 81154  1  0  0  0
M  ISO  4   1 100  68 101  77 101  81 100
M  END
> <chiral flag>
0

> <version>
0

> <s_m_source_file>
/data/baiqing/PycharmProjects/Reinvent-master-3.2/result/LINK_invent/BTK/process_docking_weight1_custom_product_contain_oxygen_bond_distance_aromatic_linkinvent_7_9_3/rearranged_h_0184.sdf

> <i_m_source_file_index>
64

> <r_mmod_Potential_Energy-OPLS-2005>
593.8935546875

> <r_mmod_Stretch_Energy-OPLS-2005>
345.734954833984

> <r_mmod_Bend_Energy-OPLS-2005>
301.406585693359

> <r_mmod_Torsional_Energy-OPLS-2005>
216.418365478516

> <r_mmod_Improper_Torsional_Energy-OPLS-2005>
5.80823087692261

> <r_mmod_Van_der_Waal_Energy-OPLS-2005>
113.961067199707

> <r_mmod_Electrostatic_Energy-OPLS-2005>
-443.499298095703

> <r_mmod_Solvation_Energy-OPLS-2005>
-211.344055175781

> <b_mmod_Minimization_Converged-OPLS-2005>
0

> <r_mmod_RMS_Derivative-OPLS-2005>
0.517979443073273

$$$$
64
                    3D
 Structure written by MMmdl.
150158  0  0  1  0            999 V2000
  -30.6068  -14.7314   20.4690 C   0  0  0  0  0  0
  -30.4355  -12.4463   19.4663 C   0  0  0  0  0  0
  -29.5112  -12.5122   18.2306 C   0  0  0  0  0  0
  -28.0371  -12.3277   18.6430 C   0  0  0  0  0  0
  -27.6433  -13.2236   19.8488 C   0  0  2  0  0  0
  -28.6889  -13.1452   20.9836 C   0  0  0  0  0  0
  -25.2510  -13.8181   20.5654 C   0  0  0  0  0  0
  -24.1805  -13.0433   20.9184 C   0  0  0  0  0  0
  -24.6384  -11.6904   20.8730 C   0  0  0  0  0  0
  -23.9048  -10.4293   21.0396 C   0  0  0  0  0  0
  -24.3609   -9.4216   21.9179 C   0  0  0  0  0  0
  -23.6296   -8.2234   22.0743 C   0  0  0  0  0  0
  -22.4274   -8.0263   21.3530 C   0  0  0  0  0  0
  -21.9896   -9.0232   20.4628 C   0  0  0  0  0  0
  -22.7211  -10.2128   20.3047 C   0  0  0  0  0  0
  -21.6854   -6.0729   22.5268 C   0  0  0  0  0  0
  -21.4015   -6.5631   23.8205 C   0  0  0  0  0  0
  -21.3662   -5.6783   24.9164 C   0  0  0  0  0  0
  -21.6049   -4.3045   24.7215 C   0  0  0  0  0  0
  -21.8824   -3.8139   23.4333 C   0  0  0  0  0  0
  -21.9185   -4.6954   22.3388 C   0  0  0  0  0  0
  -22.7831  -13.5218   21.1844 C   0  0  0  0  0  0
  -22.1664   -4.2134   21.0971 F   0  0  0  0  0  0
  -21.5627   -3.4533   25.7735 F   0  0  0  0  0  0
  -29.9917  -13.5009   20.4046 N   0  0  0  0  0  0
  -26.2940  -12.9359   20.3252 N   0  0  0  0  0  0
  -25.9313  -11.6515   20.5731 N   0  0  0  0  0  0
  -22.0469  -12.8229   22.0417 N   0  0  0  0  0  0
  -25.4194  -15.1909   20.4058 N   0  0  0  0  0  0
  -31.7992  -14.8346   20.1632 O   0  0  0  0  0  0
  -21.6640   -6.8866   21.4225 O   0  0  0  0  0  0
  -22.3497  -14.5508   20.6669 O   0  0  0  0  0  0
  -24.6310  -31.8544   23.1986 C   0  0  0  0  0  0
  -25.9141  -32.4750   23.8323 C   0  0  1  0  0  0
  -27.2174  -27.2630   20.1173 C   0  0  0  0  0  0
  -25.5937  -33.8552   24.2236 N   0  0  0  0  0  0
  -23.4265  -30.4788   21.5442 C   0  0  2  0  0  0
  -24.8713  -28.9256   20.1084 C   0  0  0  0  0  0
  -22.7506  -29.4591   22.4919 C   0  0  0  0  0  0
  -18.0295  -28.1384   22.8478 C   0  0  0  0  0  0
  -24.1495  -36.7283   23.2637 C   0  0  0  0  0  0
  -25.9740  -30.7638   21.3825 C   0  0  0  0  0  0
  -26.0431  -29.3884   20.7193 C   0  0  0  0  0  0
  -27.2174  -28.5682   20.7145 C   0  0  0  0  0  0
  -26.0206  -26.8709   19.4716 C   0  0  0  0  0  0
  -24.8649  -27.6740   19.4758 C   0  0  0  0  0  0
  -23.6435  -29.8140   20.1583 C   0  0  0  0  0  0
  -25.4121  -36.3067   24.0323 C   0  0  1  0  0  0
  -20.5895  -28.3695   23.1264 C   0  0  2  0  0  0
  -20.6788  -26.9415   22.5402 C   0  0  0  0  0  0
  -19.5758  -26.6377   21.5206 C   0  0  0  0  0  0
  -18.1936  -26.7922   22.1617 C   0  0  0  0  0  0
  -19.1547  -28.8855   23.2859 C   0  0  0  0  0  0
  -18.9467  -30.1458   23.8869 C   0  0  0  0  0  0
  -17.6469  -30.6589   24.0552 C   0  0  0  0  0  0
  -25.9065  -34.9440   23.5083 C   0  0  0  0  0  0
  -16.5358  -29.9080   23.6335 C   0  0  0  0  0  0
  -16.7279  -28.6497   23.0348 C   0  0  0  0  0  0
  -26.4508  -31.6584   25.0722 C   0  0  0  0  0  0
  -25.3736  -31.3743   26.1452 C   0  0  0  0  0  0
  -27.0364  -30.2990   24.6244 C   0  0  0  0  0  0
  -27.6045  -32.4351   25.7504 C   0  0  0  0  0  0
  -27.5587  -37.1793   24.8460 C   0  0  0  0  0  0
  -21.4214  -29.3040   22.3668 N   0  0  0  0  0  0
  -26.4285  -37.3775   23.9412 N   0  0  0  0  0  0
  -24.6959  -31.0513   22.0971 N   0  0  0  0  0  0
  -23.4212  -28.8145   23.3017 O   0  0  0  0  0  0
  -28.3149  -26.3728   20.1856 O   0  0  0  0  0  0
  -26.5641  -34.8924   22.4659 O   0  0  0  0  0  0
  -23.5469  -32.1377   23.7282 O   0  0  0  0  0  0
  -31.2163  -19.2849   20.9413 C   0  0  0  0  0  0
  -30.0066  -19.9187   20.6399 C   0  0  0  0  0  0
  -30.0306  -17.2956   20.6435 C   0  0  0  0  0  0
  -28.8102  -22.2079   20.3559 C   0  0  0  0  0  0
  -28.1163  -24.9024   19.9135 C   0  0  0  0  0  0
  -29.1126  -23.7804   20.5150 C   0  0  2  0  0  0
  -32.5340  -19.9525   21.2945 C   0  0  0  0  0  0
  -31.2110  -17.8581   20.9206 N   0  0  0  0  0  0
  -29.8353  -21.3173   20.5928 N   0  0  0  0  0  0
  -29.7876  -15.8365   20.6445 N   0  0  0  0  0  0
  -27.6801  -21.8222   20.0492 O   0  0  0  0  0  0
  -30.3442  -24.0081   20.0480 F   0  0  0  0  0  0
  -32.4237  -21.2788   21.4096 F   0  0  0  0  0  0
  -33.0081  -19.5016   22.4579 F   0  0  0  0  0  0
  -33.4590  -19.7143   20.3638 F   0  0  0  0  0  0
  -28.8080  -18.6061   20.3789 S   0  0  0  0  0  0
  -31.4772  -12.5748   19.1663 H   0  0  0  0  0  0
  -30.3782  -11.4652   19.9408 H   0  0  0  0  0  0
  -29.7992  -11.7542   17.5022 H   0  0  0  0  0  0
  -29.6316  -13.4760   17.7333 H   0  0  0  0  0  0
  -27.8966  -11.2783   18.9040 H   0  0  0  0  0  0
  -27.3778  -12.5166   17.7948 H   0  0  0  0  0  0
  -27.6395  -14.2463   19.4716 H   0  0  0  0  0  0
  -28.7218  -12.1431   21.4134 H   0  0  0  0  0  0
  -28.4236  -13.8174   21.8007 H   0  0  0  0  0  0
  -25.2770   -9.5698   22.4736 H   0  0  0  0  0  0
  -24.0005   -7.4632   22.7479 H   0  0  0  0  0  0
  -21.0815   -8.8749   19.8952 H   0  0  0  0  0  0
  -22.3666  -10.9654   19.6146 H   0  0  0  0  0  0
  -21.2030   -7.6145   23.9701 H   0  0  0  0  0  0
  -21.1479   -6.0520   25.9068 H   0  0  0  0  0  0
  -22.0606   -2.7594   23.2837 H   0  0  0  0  0  0
  -22.4099  -11.9923   22.4851 H   0  0  0  0  0  0
  -21.1072  -13.1236   22.2569 H   0  0  0  0  0  0
  -24.6441  -15.8377   20.5054 H   0  0  0  0  0  0
  -26.2527  -15.6304   20.0377 H   0  0  0  0  0  0
  -26.7203  -32.5374   23.1060 H   0  0  0  0  0  0
  -25.0089  -33.9682   25.0384 H   0  0  0  0  0  0
  -22.7225  -31.2998   21.3999 H   0  0  0  0  0  0
  -23.3764  -35.9607   23.3287 H   0  0  0  0  0  0
  -24.3579  -36.8923   22.2051 H   0  0  0  0  0  0
  -23.7245  -37.6478   23.6677 H   0  0  0  0  0  0
  -26.1220  -31.5260   20.6159 H   0  0  0  0  0  0
  -26.8486  -30.8019   22.0208 H   0  0  0  0  0  0
  -28.1124  -28.9169   21.2107 H   0  0  0  0  0  0
  -25.9452  -25.9198   18.9668 H   0  0  0  0  0  0
  -23.9685  -27.3158   18.9873 H   0  0  0  0  0  0
  -23.7687  -30.5914   19.4039 H   0  0  0  0  0  0
  -22.7609  -29.2504   19.8522 H   0  0  0  0  0  0
  -25.1309  -36.1903   25.0813 H   0  0  0  0  0  0
  -20.9974  -28.3264   24.1386 H   0  0  0  0  0  0
  -20.5677  -26.2307   23.3603 H   0  0  0  0  0  0
  -21.6654  -26.7445   22.1191 H   0  0  0  0  0  0
  -19.6925  -25.6280   21.1236 H   0  0  0  0  0  0
  -19.6695  -27.3180   20.6723 H   0  0  0  0  0  0
  -17.4215  -26.6664   21.4014 H   0  0  0  0  0  0
  -18.0344  -26.0060   22.9008 H   0  0  0  0  0  0
  -19.7946  -30.7274   24.2219 H   0  0  0  0  0  0
  -17.5029  -31.6260   24.5172 H   0  0  0  0  0  0
  -15.5353  -30.2974   23.7680 H   0  0  0  0  0  0
  -15.8679  -28.0811   22.7077 H   0  0  0  0  0  0
  -24.5869  -30.7151   25.7774 H   0  0  0  0  0  0
  -24.8988  -32.2925   26.4918 H   0  0  0  0  0  0
  -25.8045  -30.8866   27.0206 H   0  0  0  0  0  0
  -26.2952  -29.6729   24.1267 H   0  0  0  0  0  0
  -27.4023  -29.7273   25.4784 H   0  0  0  0  0  0
  -27.8851  -30.4247   23.9515 H   0  0  0  0  0  0
  -27.2612  -33.3630   26.2097 H   0  0  0  0  0  0
  -28.3849  -32.6957   25.0340 H   0  0  0  0  0  0
  -28.0743  -31.8486   26.5416 H   0  0  0  0  0  0
  -28.2593  -38.0105   24.7534 H   0  0  0  0  0  0
  -28.1098  -36.2638   24.6254 H   0  0  0  0  0  0
  -27.2306  -37.1406   25.8861 H   0  0  0  0  0  0
  -20.9412  -29.8754   21.6856 H   0  0  0  0  0  0
  -26.0166  -38.2847   24.1418 H   0  0  0  0  0  0
  -27.1253  -24.6154   20.2640 H   0  0  0  0  0  0
  -28.0999  -24.7838   18.8290 H   0  0  0  0  0  0
  -29.1757  -23.9524   21.5895 H   0  0  0  0  0  0
  -30.6858  -21.8335   20.7882 H   0  0  0  0  0  0
  -28.8164  -15.5929   20.7337 H   0  0  0  0  0  0
  1 25  1  0  0  0
  1 30  2  0  0  0
  1 80  1  0  0  0
  2  3  1  0  0  0
  2 25  1  0  0  0
  2 87  1  0  0  0
  2 88  1  0  0  0
  3  4  1  0  0  0
  3 89  1  0  0  0
  3 90  1  0  0  0
  4  5  1  0  0  0
  4 91  1  0  0  0
  4 92  1  0  0  0
  5  6  1  0  0  0
  5 26  1  0  0  0
  5 93  1  0  0  0
  6 25  1  0  0  0
  6 94  1  0  0  0
  6 95  1  0  0  0
  7  8  2  0  0  0
  7 26  1  0  0  0
  7 29  1  0  0  0
  8  9  1  0  0  0
  8 22  1  0  0  0
  9 10  1  0  0  0
  9 27  2  0  0  0
 10 11  2  0  0  0
 10 15  1  0  0  0
 11 12  1  0  0  0
 11 96  1  0  0  0
 12 13  2  0  0  0
 12 97  1  0  0  0
 13 14  1  0  0  0
 13 31  1  0  0  0
 14 15  2  0  0  0
 14 98  1  0  0  0
 15 99  1  0  0  0
 16 17  2  0  0  0
 16 21  1  0  0  0
 16 31  1  0  0  0
 17 18  1  0  0  0
 17100  1  0  0  0
 18 19  2  0  0  0
 18101  1  0  0  0
 19 20  1  0  0  0
 19 24  1  0  0  0
 20 21  2  0  0  0
 20102  1  0  0  0
 21 23  1  0  0  0
 22 28  1  0  0  0
 22 32  2  0  0  0
 26 27  1  0  0  0
 28103  1  0  0  0
 28104  1  0  0  0
 29105  1  0  0  0
 29106  1  0  0  0
 33 34  1  0  0  0
 33 66  1  0  0  0
 33 70  2  0  0  0
 34 36  1  0  0  0
 34 59  1  0  0  0
 34107  1  0  0  0
 35 44  2  0  0  0
 35 45  1  0  0  0
 35 68  1  0  0  0
 36 56  1  0  0  0
 36108  1  0  0  0
 37 39  1  0  0  0
 37 47  1  0  0  0
 37 66  1  0  0  0
 37109  1  0  0  0
 38 43  2  0  0  0
 38 46  1  0  0  0
 38 47  1  0  0  0
 39 64  1  0  0  0
 39 67  2  0  0  0
 40 52  1  0  0  0
 40 53  2  0  0  0
 40 58  1  0  0  0
 41110  1  0  0  0
 41111  1  0  0  0
 41112  1  0  0  0
 41 48  1  0  0  0
 42 43  1  0  0  0
 42 66  1  0  0  0
 42113  1  0  0  0
 42114  1  0  0  0
 43 44  1  0  0  0
 44115  1  0  0  0
 45 46  2  0  0  0
 45116  1  0  0  0
 46117  1  0  0  0
 47118  1  0  0  0
 47119  1  0  0  0
 48 56  1  0  0  0
 48 65  1  0  0  0
 48120  1  0  0  0
 49 50  1  0  0  0
 49 53  1  0  0  0
 49 64  1  0  0  0
 49121  1  0  0  0
 50 51  1  0  0  0
 50122  1  0  0  0
 50123  1  0  0  0
 51 52  1  0  0  0
 51124  1  0  0  0
 51125  1  0  0  0
 52126  1  0  0  0
 52127  1  0  0  0
 53 54  1  0  0  0
 54 55  2  0  0  0
 54128  1  0  0  0
 55 57  1  0  0  0
 55129  1  0  0  0
 56 69  2  0  0  0
 57 58  2  0  0  0
 57130  1  0  0  0
 58131  1  0  0  0
 59 60  1  0  0  0
 59 61  1  0  0  0
 59 62  1  0  0  0
 60132  1  0  0  0
 60133  1  0  0  0
 60134  1  0  0  0
 61135  1  0  0  0
 61136  1  0  0  0
 61137  1  0  0  0
 62138  1  0  0  0
 62139  1  0  0  0
 62140  1  0  0  0
 63 65  1  0  0  0
 63141  1  0  0  0
 63142  1  0  0  0
 63143  1  0  0  0
 64144  1  0  0  0
 65145  1  0  0  0
 68 75  1  0  0  0
 71 72  2  0  0  0
 71 77  1  0  0  0
 71 78  1  0  0  0
 72 79  1  0  0  0
 72 86  1  0  0  0
 73 78  2  0  0  0
 73 80  1  0  0  0
 73 86  1  0  0  0
 74 76  1  0  0  0
 74 79  1  0  0  0
 74 81  2  0  0  0
 75 76  1  0  0  0
 75146  1  0  0  0
 75147  1  0  0  0
 76 82  1  0  0  0
 76148  1  0  0  0
 77 83  1  0  0  0
 77 84  1  0  0  0
 77 85  1  0  0  0
 79149  1  0  0  0
 80150  1  0  0  0
M  ISO  4   1 100  68 101  75 101  80 100
M  END
> <chiral flag>
0

> <version>
0

> <s_m_source_file>
/data/baiqing/PycharmProjects/Reinvent-master-3.2/result/LINK_invent/BTK/process_docking_weight1_custom_product_contain_oxygen_bond_distance_aromatic_linkinvent_7_9_3/rearranged_h_0184.sdf

> <i_m_source_file_index>
65

> <r_mmod_Potential_Energy-OPLS-2005>
163.498153686523

> <r_mmod_Stretch_Energy-OPLS-2005>
110.345001220703

> <r_mmod_Bend_Energy-OPLS-2005>
181.393737792969

> <r_mmod_Torsional_Energy-OPLS-2005>
200.765502929688

> <r_mmod_Improper_Torsional_Energy-OPLS-2005>
5.76701593399048

> <r_mmod_Van_der_Waal_Energy-OPLS-2005>
121.1904296875

> <r_mmod_Electrostatic_Energy-OPLS-2005>
-300.889495849609

> <r_mmod_Solvation_Energy-OPLS-2005>
-236.964416503906

> <b_mmod_Minimization_Converged-OPLS-2005>
0

> <r_mmod_RMS_Derivative-OPLS-2005>
2.63116312026978

$$$$
65
                    3D
 Structure written by MMmdl.
159167  0  0  1  0            999 V2000
  -30.6197  -14.7695   20.4621 C   0  0  0  0  0  0
  -30.4356  -12.4759   19.4669 C   0  0  0  0  0  0
  -29.5095  -12.5092   18.2326 C   0  0  0  0  0  0
  -28.0370  -12.3299   18.6506 C   0  0  0  0  0  0
  -27.6405  -13.2340   19.8486 C   0  0  2  0  0  0
  -28.6905  -13.1902   20.9809 C   0  0  0  0  0  0
  -25.2508  -13.8195   20.5707 C   0  0  0  0  0  0
  -24.1809  -13.0432   20.9225 C   0  0  0  0  0  0
  -24.6405  -11.6918   20.8760 C   0  0  0  0  0  0
  -23.9079  -10.4287   21.0408 C   0  0  0  0  0  0
  -24.3629   -9.4208   21.9185 C   0  0  0  0  0  0
  -23.6304   -8.2248   22.0758 C   0  0  0  0  0  0
  -22.4285   -8.0279   21.3546 C   0  0  0  0  0  0
  -21.9910   -9.0254   20.4653 C   0  0  0  0  0  0
  -22.7242  -10.2133   20.3065 C   0  0  0  0  0  0
  -21.6862   -6.0735   22.5280 C   0  0  0  0  0  0
  -21.4018   -6.5638   23.8206 C   0  0  0  0  0  0
  -21.3662   -5.6795   24.9169 C   0  0  0  0  0  0
  -21.6053   -4.3059   24.7229 C   0  0  0  0  0  0
  -21.8816   -3.8153   23.4348 C   0  0  0  0  0  0
  -21.9197   -4.6964   22.3405 C   0  0  0  0  0  0
  -22.7827  -13.5207   21.1867 C   0  0  0  0  0  0
  -22.1659   -4.2148   21.0978 F   0  0  0  0  0  0
  -21.5631   -3.4544   25.7740 F   0  0  0  0  0  0
  -29.9854  -13.5466   20.3860 N   0  0  0  0  0  0
  -26.2940  -12.9407   20.3297 N   0  0  0  0  0  0
  -25.9338  -11.6550   20.5774 N   0  0  0  0  0  0
  -22.0476  -12.8201   22.0416 N   0  0  0  0  0  0
  -25.4186  -15.1918   20.4093 N   0  0  0  0  0  0
  -31.8205  -14.8393   20.1829 O   0  0  0  0  0  0
  -21.6655   -6.8877   21.4238 O   0  0  0  0  0  0
  -22.3517  -14.5516   20.6707 O   0  0  0  0  0  0
  -24.6334  -31.8545   23.1963 C   0  0  0  0  0  0
  -25.9149  -32.4744   23.8327 C   0  0  1  0  0  0
  -27.2211  -27.2446   20.1353 C   0  0  0  0  0  0
  -25.5936  -33.8551   24.2251 N   0  0  0  0  0  0
  -23.4306  -30.4768   21.5400 C   0  0  2  0  0  0
  -24.8799  -28.9239   20.1083 C   0  0  0  0  0  0
  -22.7512  -29.4602   22.4903 C   0  0  0  0  0  0
  -18.0293  -28.1390   22.8478 C   0  0  0  0  0  0
  -24.1488  -36.7287   23.2639 C   0  0  0  0  0  0
  -25.9783  -30.7620   21.3804 C   0  0  0  0  0  0
  -26.0512  -29.3832   20.7237 C   0  0  0  0  0  0
  -27.2229  -28.5562   20.7275 C   0  0  0  0  0  0
  -26.0278  -26.8675   19.4753 C   0  0  0  0  0  0
  -24.8756  -27.6755   19.4713 C   0  0  0  0  0  0
  -23.6494  -29.8097   20.1566 C   0  0  0  0  0  0
  -25.4112  -36.3063   24.0323 C   0  0  1  0  0  0
  -20.5900  -28.3711   23.1252 C   0  0  2  0  0  0
  -20.6782  -26.9428   22.5403 C   0  0  0  0  0  0
  -19.5757  -26.6389   21.5206 C   0  0  0  0  0  0
  -18.1936  -26.7928   22.1619 C   0  0  0  0  0  0
  -19.1550  -28.8863   23.2859 C   0  0  0  0  0  0
  -18.9469  -30.1464   23.8881 C   0  0  0  0  0  0
  -17.6470  -30.6588   24.0560 C   0  0  0  0  0  0
  -25.9052  -34.9435   23.5092 C   0  0  0  0  0  0
  -16.5361  -29.9086   23.6334 C   0  0  0  0  0  0
  -16.7282  -28.6506   23.0345 C   0  0  0  0  0  0
  -26.4509  -31.6567   25.0724 C   0  0  0  0  0  0
  -25.3719  -31.3727   26.1433 C   0  0  0  0  0  0
  -27.0360  -30.2973   24.6233 C   0  0  0  0  0  0
  -27.6063  -32.4306   25.7504 C   0  0  0  0  0  0
  -27.5580  -37.1795   24.8458 C   0  0  0  0  0  0
  -21.4217  -29.3055   22.3640 N   0  0  0  0  0  0
  -26.4288  -37.3761   23.9408 N   0  0  0  0  0  0
  -24.6995  -31.0500   22.0946 N   0  0  0  0  0  0
  -23.4207  -28.8148   23.3009 O   0  0  0  0  0  0
  -28.2989  -26.3230   20.2182 O   0  0  0  0  0  0
  -26.5643  -34.8914   22.4670 O   0  0  0  0  0  0
  -23.5483  -32.1377   23.7250 O   0  0  0  0  0  0
  -30.0182  -19.7478   20.8620 C   0  0  0  0  0  0
  -31.2977  -19.5085   21.3087 C   0  0  0  0  0  0
  -30.2331  -17.3490   20.7302 C   0  0  0  0  0  0
  -29.0133  -23.7127   20.4839 C   0  0  0  0  0  0
  -29.4363  -23.1413   17.5193 C   0  0  0  0  0  0
  -31.3761  -22.2549   18.7908 C   0  0  0  0  0  0
  -29.6233  -20.7095   17.8515 C   0  0  0  0  0  0
  -28.0186  -24.8604   19.9402 C   0  0  0  0  0  0
  -29.0315  -22.1678   19.8924 C   0  0  1  0  0  0
  -29.8620  -22.0692   18.5495 C   0  0  0  0  0  0
  -29.4168  -18.4612   20.5401 N   0  0  0  0  0  0
  -29.4482  -21.1071   20.9070 N   0  0  0  0  0  0
  -29.8420  -15.9188   20.5827 N   0  0  0  0  0  0
  -29.7784  -24.0059   21.4082 O   0  0  0  0  0  0
  -32.1183  -20.4896   21.7614 F   0  0  0  0  0  0
  -31.8299  -17.8425   21.2998 S   0  0  0  0  0  0
  -31.4737  -12.6045   19.1537 H   0  0  0  0  0  0
  -30.3895  -11.5050   19.9613 H   0  0  0  0  0  0
  -29.7932  -11.7299   17.5244 H   0  0  0  0  0  0
  -29.6297  -13.4587   17.7096 H   0  0  0  0  0  0
  -27.8994  -11.2816   18.9192 H   0  0  0  0  0  0
  -27.3771  -12.5174   17.8030 H   0  0  0  0  0  0
  -27.6235  -14.2517   19.4596 H   0  0  0  0  0  0
  -28.7377  -12.2011   21.4385 H   0  0  0  0  0  0
  -28.4255  -13.8869   21.7788 H   0  0  0  0  0  0
  -25.2774   -9.5696   22.4769 H   0  0  0  0  0  0
  -24.0022   -7.4646   22.7477 H   0  0  0  0  0  0
  -21.0852   -8.8767   19.8945 H   0  0  0  0  0  0
  -22.3703  -10.9675   19.6181 H   0  0  0  0  0  0
  -21.2001   -7.6147   23.9705 H   0  0  0  0  0  0
  -21.1484   -6.0527   25.9066 H   0  0  0  0  0  0
  -22.0595   -2.7617   23.2852 H   0  0  0  0  0  0
  -22.4094  -11.9874   22.4840 H   0  0  0  0  0  0
  -21.1088  -13.1215   22.2592 H   0  0  0  0  0  0
  -24.6487  -15.8425   20.5218 H   0  0  0  0  0  0
  -26.2536  -15.6356   20.0503 H   0  0  0  0  0  0
  -26.7224  -32.5380   23.1079 H   0  0  0  0  0  0
  -25.0047  -33.9689   25.0371 H   0  0  0  0  0  0
  -22.7277  -31.2994   21.3921 H   0  0  0  0  0  0
  -23.3755  -35.9613   23.3264 H   0  0  0  0  0  0
  -24.3587  -36.8948   22.2061 H   0  0  0  0  0  0
  -23.7239  -37.6475   23.6693 H   0  0  0  0  0  0
  -26.1190  -31.5191   20.6075 H   0  0  0  0  0  0
  -26.8560  -30.8136   22.0135 H   0  0  0  0  0  0
  -28.1151  -28.8996   21.2313 H   0  0  0  0  0  0
  -25.9449  -25.9190   18.9664 H   0  0  0  0  0  0
  -23.9823  -27.3202   18.9776 H   0  0  0  0  0  0
  -23.7731  -30.5849   19.3993 H   0  0  0  0  0  0
  -22.7671  -29.2420   19.8537 H   0  0  0  0  0  0
  -25.1293  -36.1904   25.0816 H   0  0  0  0  0  0
  -20.9994  -28.3296   24.1369 H   0  0  0  0  0  0
  -20.5672  -26.2331   23.3614 H   0  0  0  0  0  0
  -21.6646  -26.7442   22.1199 H   0  0  0  0  0  0
  -19.6918  -25.6295   21.1245 H   0  0  0  0  0  0
  -19.6684  -27.3190   20.6724 H   0  0  0  0  0  0
  -17.4203  -26.6676   21.4022 H   0  0  0  0  0  0
  -18.0334  -26.0074   22.9019 H   0  0  0  0  0  0
  -19.7947  -30.7285   24.2240 H   0  0  0  0  0  0
  -17.5022  -31.6262   24.5173 H   0  0  0  0  0  0
  -15.5362  -30.2980   23.7657 H   0  0  0  0  0  0
  -15.8683  -28.0817   22.7068 H   0  0  0  0  0  0
  -24.5879  -30.7105   25.7740 H   0  0  0  0  0  0
  -24.8941  -32.2906   26.4866 H   0  0  0  0  0  0
  -25.8016  -30.8878   27.0207 H   0  0  0  0  0  0
  -26.2956  -29.6705   24.1252 H   0  0  0  0  0  0
  -27.4012  -29.7248   25.4769 H   0  0  0  0  0  0
  -27.8840  -30.4219   23.9498 H   0  0  0  0  0  0
  -27.2672  -33.3607   26.2075 H   0  0  0  0  0  0
  -28.3886  -32.6859   25.0344 H   0  0  0  0  0  0
  -28.0719  -31.8433   26.5428 H   0  0  0  0  0  0
  -28.2573  -38.0114   24.7522 H   0  0  0  0  0  0
  -28.1101  -36.2649   24.6253 H   0  0  0  0  0  0
  -27.2305  -37.1394   25.8862 H   0  0  0  0  0  0
  -20.9409  -29.8785   21.6845 H   0  0  0  0  0  0
  -26.0159  -38.2830   24.1413 H   0  0  0  0  0  0
  -29.9358  -22.9901   16.5617 H   0  0  0  0  0  0
  -29.7064  -24.1507   17.8280 H   0  0  0  0  0  0
  -28.3636  -23.1145   17.3268 H   0  0  0  0  0  0
  -31.9394  -22.1725   17.8612 H   0  0  0  0  0  0
  -31.7821  -21.5078   19.4683 H   0  0  0  0  0  0
  -31.6043  -23.2311   19.2175 H   0  0  0  0  0  0
  -29.9195  -20.7318   16.8023 H   0  0  0  0  0  0
  -28.5717  -20.4222   17.8803 H   0  0  0  0  0  0
  -30.2020  -19.9021   18.2944 H   0  0  0  0  0  0
  -27.0507  -24.6161   20.3779 H   0  0  0  0  0  0
  -27.8918  -24.7402   18.8671 H   0  0  0  0  0  0
  -27.9954  -21.9324   19.6433 H   0  0  0  0  0  0
  -29.9894  -21.6205   21.5987 H   0  0  0  0  0  0
  -28.8507  -15.7494   20.5928 H   0  0  0  0  0  0
  1 25  1  0  0  0
  1 30  2  0  0  0
  1 83  1  0  0  0
  2  3  1  0  0  0
  2 25  1  0  0  0
  2 87  1  0  0  0
  2 88  1  0  0  0
  3  4  1  0  0  0
  3 89  1  0  0  0
  3 90  1  0  0  0
  4  5  1  0  0  0
  4 91  1  0  0  0
  4 92  1  0  0  0
  5  6  1  0  0  0
  5 26  1  0  0  0
  5 93  1  0  0  0
  6 25  1  0  0  0
  6 94  1  0  0  0
  6 95  1  0  0  0
  7  8  2  0  0  0
  7 26  1  0  0  0
  7 29  1  0  0  0
  8  9  1  0  0  0
  8 22  1  0  0  0
  9 10  1  0  0  0
  9 27  2  0  0  0
 10 11  2  0  0  0
 10 15  1  0  0  0
 11 12  1  0  0  0
 11 96  1  0  0  0
 12 13  2  0  0  0
 12 97  1  0  0  0
 13 14  1  0  0  0
 13 31  1  0  0  0
 14 15  2  0  0  0
 14 98  1  0  0  0
 15 99  1  0  0  0
 16 17  2  0  0  0
 16 21  1  0  0  0
 16 31  1  0  0  0
 17 18  1  0  0  0
 17100  1  0  0  0
 18 19  2  0  0  0
 18101  1  0  0  0
 19 20  1  0  0  0
 19 24  1  0  0  0
 20 21  2  0  0  0
 20102  1  0  0  0
 21 23  1  0  0  0
 22 28  1  0  0  0
 22 32  2  0  0  0
 26 27  1  0  0  0
 28103  1  0  0  0
 28104  1  0  0  0
 29105  1  0  0  0
 29106  1  0  0  0
 33 34  1  0  0  0
 33 66  1  0  0  0
 33 70  2  0  0  0
 34 36  1  0  0  0
 34 59  1  0  0  0
 34107  1  0  0  0
 35 44  2  0  0  0
 35 45  1  0  0  0
 35 68  1  0  0  0
 36 56  1  0  0  0
 36108  1  0  0  0
 37 39  1  0  0  0
 37 47  1  0  0  0
 37 66  1  0  0  0
 37109  1  0  0  0
 38 43  2  0  0  0
 38 46  1  0  0  0
 38 47  1  0  0  0
 39 64  1  0  0  0
 39 67  2  0  0  0
 40 52  1  0  0  0
 40 53  2  0  0  0
 40 58  1  0  0  0
 41110  1  0  0  0
 41111  1  0  0  0
 41112  1  0  0  0
 41 48  1  0  0  0
 42 43  1  0  0  0
 42 66  1  0  0  0
 42113  1  0  0  0
 42114  1  0  0  0
 43 44  1  0  0  0
 44115  1  0  0  0
 45 46  2  0  0  0
 45116  1  0  0  0
 46117  1  0  0  0
 47118  1  0  0  0
 47119  1  0  0  0
 48 56  1  0  0  0
 48 65  1  0  0  0
 48120  1  0  0  0
 49 50  1  0  0  0
 49 53  1  0  0  0
 49 64  1  0  0  0
 49121  1  0  0  0
 50 51  1  0  0  0
 50122  1  0  0  0
 50123  1  0  0  0
 51 52  1  0  0  0
 51124  1  0  0  0
 51125  1  0  0  0
 52126  1  0  0  0
 52127  1  0  0  0
 53 54  1  0  0  0
 54 55  2  0  0  0
 54128  1  0  0  0
 55 57  1  0  0  0
 55129  1  0  0  0
 56 69  2  0  0  0
 57 58  2  0  0  0
 57130  1  0  0  0
 58131  1  0  0  0
 59 60  1  0  0  0
 59 61  1  0  0  0
 59 62  1  0  0  0
 60132  1  0  0  0
 60133  1  0  0  0
 60134  1  0  0  0
 61135  1  0  0  0
 61136  1  0  0  0
 61137  1  0  0  0
 62138  1  0  0  0
 62139  1  0  0  0
 62140  1  0  0  0
 63 65  1  0  0  0
 63141  1  0  0  0
 63142  1  0  0  0
 63143  1  0  0  0
 64144  1  0  0  0
 65145  1  0  0  0
 68 78  1  0  0  0
 71 72  2  0  0  0
 71 81  1  0  0  0
 71 82  1  0  0  0
 72 85  1  0  0  0
 72 86  1  0  0  0
 73 81  2  0  0  0
 73 83  1  0  0  0
 73 86  1  0  0  0
 74 78  1  0  0  0
 74 79  1  0  0  0
 74 84  2  0  0  0
 75146  1  0  0  0
 75147  1  0  0  0
 75148  1  0  0  0
 75 80  1  0  0  0
 76 80  1  0  0  0
 76149  1  0  0  0
 76150  1  0  0  0
 76151  1  0  0  0
 77 80  1  0  0  0
 77152  1  0  0  0
 77153  1  0  0  0
 77154  1  0  0  0
 78155  1  0  0  0
 78156  1  0  0  0
 79 80  1  0  0  0
 79 82  1  0  0  0
 79157  1  0  0  0
 82158  1  0  0  0
 83159  1  0  0  0
M  ISO  4   1 100  68 101  78 101  83 100
M  END
> <chiral flag>
0

> <version>
0

> <s_m_source_file>
/data/baiqing/PycharmProjects/Reinvent-master-3.2/result/LINK_invent/BTK/process_docking_weight1_custom_product_contain_oxygen_bond_distance_aromatic_linkinvent_7_9_3/rearranged_h_0184.sdf

> <i_m_source_file_index>
66

> <r_mmod_Potential_Energy-OPLS-2005>
189.508117675781

> <r_mmod_Stretch_Energy-OPLS-2005>
144.684310913086

> <r_mmod_Bend_Energy-OPLS-2005>
199.221237182617

> <r_mmod_Torsional_Energy-OPLS-2005>
231.130065917969

> <r_mmod_Improper_Torsional_Energy-OPLS-2005>
11.6198587417603

> <r_mmod_Van_der_Waal_Energy-OPLS-2005>
128.407928466797

> <r_mmod_Electrostatic_Energy-OPLS-2005>
-399.954437255859

> <r_mmod_Solvation_Energy-OPLS-2005>
-224.709045410156

> <b_mmod_Minimization_Converged-OPLS-2005>
0

> <r_mmod_RMS_Derivative-OPLS-2005>
1.87800705432892

$$$$
66
                    3D
 Structure written by MMmdl.
157165  0  0  1  0            999 V2000
  -30.5781  -14.6939   20.5287 C   0  0  0  0  0  0
  -30.4567  -12.4285   19.4659 C   0  0  0  0  0  0
  -29.5208  -12.5186   18.2374 C   0  0  0  0  0  0
  -28.0446  -12.3356   18.6469 C   0  0  0  0  0  0
  -27.6577  -13.2102   19.8666 C   0  0  2  0  0  0
  -28.6999  -13.0668   21.0005 C   0  0  0  0  0  0
  -25.2553  -13.8131   20.5568 C   0  0  0  0  0  0
  -24.1837  -13.0421   20.9171 C   0  0  0  0  0  0
  -24.6397  -11.6895   20.8759 C   0  0  0  0  0  0
  -23.9056  -10.4290   21.0421 C   0  0  0  0  0  0
  -24.3609   -9.4210   21.9199 C   0  0  0  0  0  0
  -23.6285   -8.2243   22.0764 C   0  0  0  0  0  0
  -22.4276   -8.0274   21.3545 C   0  0  0  0  0  0
  -21.9909   -9.0251   20.4658 C   0  0  0  0  0  0
  -22.7229  -10.2131   20.3067 C   0  0  0  0  0  0
  -21.6857   -6.0731   22.5281 C   0  0  0  0  0  0
  -21.3999   -6.5643   23.8211 C   0  0  0  0  0  0
  -21.3663   -5.6794   24.9177 C   0  0  0  0  0  0
  -21.6043   -4.3054   24.7230 C   0  0  0  0  0  0
  -21.8821   -3.8141   23.4357 C   0  0  0  0  0  0
  -21.9186   -4.6954   22.3408 C   0  0  0  0  0  0
  -22.7869  -13.5227   21.1822 C   0  0  0  0  0  0
  -22.1657   -4.2136   21.0991 F   0  0  0  0  0  0
  -21.5645   -3.4534   25.7753 F   0  0  0  0  0  0
  -30.0112  -13.4435   20.4461 N   0  0  0  0  0  0
  -26.3004  -12.9311   20.3307 N   0  0  0  0  0  0
  -25.9332  -11.6478   20.5798 N   0  0  0  0  0  0
  -22.0505  -12.8245   22.0399 N   0  0  0  0  0  0
  -25.4201  -15.1835   20.3813 N   0  0  0  0  0  0
  -31.7189  -14.9053   20.1057 O   0  0  0  0  0  0
  -21.6641   -6.8870   21.4249 O   0  0  0  0  0  0
  -22.3567  -14.5538   20.6671 O   0  0  0  0  0  0
  -24.6279  -31.8603   23.1997 C   0  0  0  0  0  0
  -25.9126  -32.4800   23.8314 C   0  0  1  0  0  0
  -27.2239  -27.3061   20.1045 C   0  0  0  0  0  0
  -25.5965  -33.8596   24.2235 N   0  0  0  0  0  0
  -23.4197  -30.4825   21.5476 C   0  0  2  0  0  0
  -24.8603  -28.9320   20.1160 C   0  0  0  0  0  0
  -22.7479  -29.4633   22.4974 C   0  0  0  0  0  0
  -18.0286  -28.1411   22.8513 C   0  0  0  0  0  0
  -24.1468  -36.7265   23.2642 C   0  0  0  0  0  0
  -25.9608  -30.7857   21.3685 C   0  0  0  0  0  0
  -26.0305  -29.4071   20.7183 C   0  0  0  0  0  0
  -27.2090  -28.6029   20.7106 C   0  0  0  0  0  0
  -26.0232  -26.8850   19.4847 C   0  0  0  0  0  0
  -24.8587  -27.6744   19.4958 C   0  0  0  0  0  0
  -23.6310  -29.8174   20.1623 C   0  0  0  0  0  0
  -25.4110  -36.3099   24.0332 C   0  0  1  0  0  0
  -20.5886  -28.3700   23.1332 C   0  0  2  0  0  0
  -20.6799  -26.9439   22.5453 C   0  0  0  0  0  0
  -19.5759  -26.6402   21.5278 C   0  0  0  0  0  0
  -18.1920  -26.7963   22.1653 C   0  0  0  0  0  0
  -19.1537  -28.8877   23.2908 C   0  0  0  0  0  0
  -18.9467  -30.1491   23.8894 C   0  0  0  0  0  0
  -17.6469  -30.6611   24.0595 C   0  0  0  0  0  0
  -25.9060  -34.9482   23.5062 C   0  0  0  0  0  0
  -16.5354  -29.9122   23.6359 C   0  0  0  0  0  0
  -16.7283  -28.6551   23.0340 C   0  0  0  0  0  0
  -26.4499  -31.6618   25.0681 C   0  0  0  0  0  0
  -25.3707  -31.3827   26.1401 C   0  0  0  0  0  0
  -27.0315  -30.3044   24.6115 C   0  0  0  0  0  0
  -27.6060  -32.4346   25.7453 C   0  0  0  0  0  0
  -27.5566  -37.1790   24.8470 C   0  0  0  0  0  0
  -21.4192  -29.3038   22.3719 N   0  0  0  0  0  0
  -26.4264  -37.3812   23.9444 N   0  0  0  0  0  0
  -24.6903  -31.0579   22.0965 N   0  0  0  0  0  0
  -23.4224  -28.8182   23.3046 O   0  0  0  0  0  0
  -28.3761  -26.4966   20.1466 O   0  0  0  0  0  0
  -26.5615  -34.8965   22.4621 O   0  0  0  0  0  0
  -23.5445  -32.1420   23.7319 O   0  0  0  0  0  0
  -28.7198  -19.2253   21.4573 C   0  0  0  0  0  0
  -28.7009  -17.7974   21.6693 C   0  0  0  0  0  0
  -29.6672  -17.0700   20.9851 C   0  0  0  0  0  0
  -29.7262  -19.6694   20.6440 C   0  0  0  0  0  0
  -27.5997  -23.9794   21.8941 C   0  0  0  0  0  0
  -27.6881  -17.1734   22.5859 C   0  0  0  0  0  0
  -28.4050  -25.0678   19.7240 C   0  0  0  0  0  0
  -28.6709  -23.9118   20.7961 C   0  0  2  0  0  0
  -27.6643  -25.1366   22.8966 C   0  0  0  0  0  0
  -29.7452  -15.6755   21.0185 N   0  0  0  0  0  0
  -28.7345  -22.4962   20.2196 N   0  0  0  0  0  0
  -26.7170  -23.1139   21.9740 O   0  0  0  0  0  0
  -31.0027  -21.9011   21.3193 O   0  0  0  0  0  0
  -30.6640  -21.4233   18.8475 O   0  0  0  0  0  0
  -28.6401  -24.9239   23.7805 F   0  0  0  0  0  0
  -26.5075  -25.2612   23.5500 F   0  0  0  0  0  0
  -30.6570  -18.2498   20.0859 S   0  0  0  0  0  0
  -30.1410  -21.4267   20.2222 S   0  0  0  0  0  0
  -31.4939  -12.5831   19.1655 H   0  0  0  0  0  0
  -30.4208  -11.4312   19.9077 H   0  0  0  0  0  0
  -29.8016  -11.7706   17.4946 H   0  0  0  0  0  0
  -29.6493  -13.4887   17.7554 H   0  0  0  0  0  0
  -27.8997  -11.2824   18.8893 H   0  0  0  0  0  0
  -27.3888  -12.5453   17.8017 H   0  0  0  0  0  0
  -27.6775  -14.2437   19.5204 H   0  0  0  0  0  0
  -28.7314  -12.0411   21.3687 H   0  0  0  0  0  0
  -28.4260  -13.6778   21.8617 H   0  0  0  0  0  0
  -25.2759   -9.5686   22.4773 H   0  0  0  0  0  0
  -24.0001   -7.4633   22.7489 H   0  0  0  0  0  0
  -21.0843   -8.8749   19.8978 H   0  0  0  0  0  0
  -22.3681  -10.9655   19.6176 H   0  0  0  0  0  0
  -21.1976   -7.6147   23.9706 H   0  0  0  0  0  0
  -21.1494   -6.0531   25.9079 H   0  0  0  0  0  0
  -22.0596   -2.7599   23.2856 H   0  0  0  0  0  0
  -22.4076  -11.9878   22.4746 H   0  0  0  0  0  0
  -21.1135  -13.1319   22.2627 H   0  0  0  0  0  0
  -24.6365  -15.8242   20.4487 H   0  0  0  0  0  0
  -26.2475  -15.6137   19.9883 H   0  0  0  0  0  0
  -26.7184  -32.5438   23.1056 H   0  0  0  0  0  0
  -25.0228  -33.9762   25.0476 H   0  0  0  0  0  0
  -22.7181  -31.3071   21.4080 H   0  0  0  0  0  0
  -23.3771  -35.9546   23.3289 H   0  0  0  0  0  0
  -24.3588  -36.8895   22.2054 H   0  0  0  0  0  0
  -23.7151  -37.6445   23.6658 H   0  0  0  0  0  0
  -26.0773  -31.5437   20.5922 H   0  0  0  0  0  0
  -26.8515  -30.8471   21.9821 H   0  0  0  0  0  0
  -28.1036  -28.9676   21.1959 H   0  0  0  0  0  0
  -25.9281  -25.9395   18.9781 H   0  0  0  0  0  0
  -23.9601  -27.3028   19.0207 H   0  0  0  0  0  0
  -23.7549  -30.5986   19.4106 H   0  0  0  0  0  0
  -22.7474  -29.2541   19.8549 H   0  0  0  0  0  0
  -25.1286  -36.1921   25.0824 H   0  0  0  0  0  0
  -20.9976  -28.3248   24.1456 H   0  0  0  0  0  0
  -20.5777  -26.2307   23.3646 H   0  0  0  0  0  0
  -21.6651  -26.7532   22.1177 H   0  0  0  0  0  0
  -19.6931  -25.6323   21.1282 H   0  0  0  0  0  0
  -19.6672  -27.3251   20.6835 H   0  0  0  0  0  0
  -17.4222  -26.6760   21.4005 H   0  0  0  0  0  0
  -18.0231  -26.0106   22.9030 H   0  0  0  0  0  0
  -19.7938  -30.7324   24.2198 H   0  0  0  0  0  0
  -17.5033  -31.6284   24.5210 H   0  0  0  0  0  0
  -15.5355  -30.3029   23.7707 H   0  0  0  0  0  0
  -15.8677  -28.0927   22.6985 H   0  0  0  0  0  0
  -24.5838  -30.7230   25.7754 H   0  0  0  0  0  0
  -24.8947  -32.3028   26.4786 H   0  0  0  0  0  0
  -25.7979  -30.9021   27.0207 H   0  0  0  0  0  0
  -26.2865  -29.6822   24.1133 H   0  0  0  0  0  0
  -27.4049  -29.7281   25.4598 H   0  0  0  0  0  0
  -27.8734  -30.4386   23.9316 H   0  0  0  0  0  0
  -27.2690  -33.3691   26.1962 H   0  0  0  0  0  0
  -28.3901  -32.6829   25.0284 H   0  0  0  0  0  0
  -28.0676  -31.8490   26.5414 H   0  0  0  0  0  0
  -28.2583  -38.0090   24.7577 H   0  0  0  0  0  0
  -28.1036  -36.2633   24.6190 H   0  0  0  0  0  0
  -27.2306  -37.1331   25.8877 H   0  0  0  0  0  0
  -20.9363  -29.8783   21.6963 H   0  0  0  0  0  0
  -26.0117  -38.2865   24.1527 H   0  0  0  0  0  0
  -28.0077  -19.8885   21.9323 H   0  0  0  0  0  0
  -27.1992  -17.9185   23.2147 H   0  0  0  0  0  0
  -28.1477  -16.4501   23.2580 H   0  0  0  0  0  0
  -26.9036  -16.6661   22.0299 H   0  0  0  0  0  0
  -27.5523  -24.7753   19.1215 H   0  0  0  0  0  0
  -29.2300  -25.0187   19.0128 H   0  0  0  0  0  0
  -29.6224  -24.1212   21.2842 H   0  0  0  0  0  0
  -27.8754  -26.0854   22.4072 H   0  0  0  0  0  0
  -28.9212  -15.2580   21.4210 H   0  0  0  0  0  0
  -28.0072  -22.2432   19.5506 H   0  0  0  0  0  0
  1 25  1  0  0  0
  1 30  2  0  0  0
  1 80  1  0  0  0
  2  3  1  0  0  0
  2 25  1  0  0  0
  2 89  1  0  0  0
  2 90  1  0  0  0
  3  4  1  0  0  0
  3 91  1  0  0  0
  3 92  1  0  0  0
  4  5  1  0  0  0
  4 93  1  0  0  0
  4 94  1  0  0  0
  5  6  1  0  0  0
  5 26  1  0  0  0
  5 95  1  0  0  0
  6 25  1  0  0  0
  6 96  1  0  0  0
  6 97  1  0  0  0
  7  8  2  0  0  0
  7 26  1  0  0  0
  7 29  1  0  0  0
  8  9  1  0  0  0
  8 22  1  0  0  0
  9 10  1  0  0  0
  9 27  2  0  0  0
 10 11  2  0  0  0
 10 15  1  0  0  0
 11 12  1  0  0  0
 11 98  1  0  0  0
 12 13  2  0  0  0
 12 99  1  0  0  0
 13 14  1  0  0  0
 13 31  1  0  0  0
 14 15  2  0  0  0
 14100  1  0  0  0
 15101  1  0  0  0
 16 17  2  0  0  0
 16 21  1  0  0  0
 16 31  1  0  0  0
 17 18  1  0  0  0
 17102  1  0  0  0
 18 19  2  0  0  0
 18103  1  0  0  0
 19 20  1  0  0  0
 19 24  1  0  0  0
 20 21  2  0  0  0
 20104  1  0  0  0
 21 23  1  0  0  0
 22 28  1  0  0  0
 22 32  2  0  0  0
 26 27  1  0  0  0
 28105  1  0  0  0
 28106  1  0  0  0
 29107  1  0  0  0
 29108  1  0  0  0
 33 34  1  0  0  0
 33 66  1  0  0  0
 33 70  2  0  0  0
 34 36  1  0  0  0
 34 59  1  0  0  0
 34109  1  0  0  0
 35 44  2  0  0  0
 35 45  1  0  0  0
 35 68  1  0  0  0
 36 56  1  0  0  0
 36110  1  0  0  0
 37 39  1  0  0  0
 37 47  1  0  0  0
 37 66  1  0  0  0
 37111  1  0  0  0
 38 43  2  0  0  0
 38 46  1  0  0  0
 38 47  1  0  0  0
 39 64  1  0  0  0
 39 67  2  0  0  0
 40 52  1  0  0  0
 40 53  2  0  0  0
 40 58  1  0  0  0
 41112  1  0  0  0
 41113  1  0  0  0
 41114  1  0  0  0
 41 48  1  0  0  0
 42 43  1  0  0  0
 42 66  1  0  0  0
 42115  1  0  0  0
 42116  1  0  0  0
 43 44  1  0  0  0
 44117  1  0  0  0
 45 46  2  0  0  0
 45118  1  0  0  0
 46119  1  0  0  0
 47120  1  0  0  0
 47121  1  0  0  0
 48 56  1  0  0  0
 48 65  1  0  0  0
 48122  1  0  0  0
 49 50  1  0  0  0
 49 53  1  0  0  0
 49 64  1  0  0  0
 49123  1  0  0  0
 50 51  1  0  0  0
 50124  1  0  0  0
 50125  1  0  0  0
 51 52  1  0  0  0
 51126  1  0  0  0
 51127  1  0  0  0
 52128  1  0  0  0
 52129  1  0  0  0
 53 54  1  0  0  0
 54 55  2  0  0  0
 54130  1  0  0  0
 55 57  1  0  0  0
 55131  1  0  0  0
 56 69  2  0  0  0
 57 58  2  0  0  0
 57132  1  0  0  0
 58133  1  0  0  0
 59 60  1  0  0  0
 59 61  1  0  0  0
 59 62  1  0  0  0
 60134  1  0  0  0
 60135  1  0  0  0
 60136  1  0  0  0
 61137  1  0  0  0
 61138  1  0  0  0
 61139  1  0  0  0
 62140  1  0  0  0
 62141  1  0  0  0
 62142  1  0  0  0
 63 65  1  0  0  0
 63143  1  0  0  0
 63144  1  0  0  0
 63145  1  0  0  0
 64146  1  0  0  0
 65147  1  0  0  0
 68 77  1  0  0  0
 71 72  1  0  0  0
 71 74  2  0  0  0
 71148  1  0  0  0
 72 73  2  0  0  0
 72 76  1  0  0  0
 73 80  1  0  0  0
 73 87  1  0  0  0
 74 87  1  0  0  0
 74 88  1  0  0  0
 75 78  1  0  0  0
 75 79  1  0  0  0
 75 82  2  0  0  0
 76149  1  0  0  0
 76150  1  0  0  0
 76151  1  0  0  0
 77152  1  0  0  0
 77153  1  0  0  0
 77 78  1  0  0  0
 78 81  1  0  0  0
 78154  1  0  0  0
 79 85  1  0  0  0
 79 86  1  0  0  0
 79155  1  0  0  0
 80156  1  0  0  0
 81157  1  0  0  0
 81 88  1  0  0  0
 83 88  2  0  0  0
 84 88  2  0  0  0
M  ISO  4   1 100  68 101  77 101  80 100
M  END
> <chiral flag>
0

> <version>
0

> <s_m_source_file>
/data/baiqing/PycharmProjects/Reinvent-master-3.2/result/LINK_invent/BTK/process_docking_weight1_custom_product_contain_oxygen_bond_distance_aromatic_linkinvent_7_9_3/rearranged_h_0184.sdf

> <i_m_source_file_index>
67

> <r_mmod_Potential_Energy-OPLS-2005>
-155.87956237793

> <r_mmod_Stretch_Energy-OPLS-2005>
83.4215469360352

> <r_mmod_Bend_Energy-OPLS-2005>
186.068664550781

> <r_mmod_Torsional_Energy-OPLS-2005>
216.872360229492

> <r_mmod_Improper_Torsional_Energy-OPLS-2005>
4.16928386688232

> <r_mmod_Van_der_Waal_Energy-OPLS-2005>
110.210876464844

> <r_mmod_Electrostatic_Energy-OPLS-2005>
-562.958190917969

> <r_mmod_Solvation_Energy-OPLS-2005>
-253.149337768555

> <b_mmod_Minimization_Converged-OPLS-2005>
0

> <r_mmod_RMS_Derivative-OPLS-2005>
3.951815366745

$$$$
67
                    3D
 Structure written by MMmdl.
157165  0  0  1  0            999 V2000
  -30.5304  -15.0647   20.3667 C   0  0  0  0  0  0
  -30.4648  -12.6553   19.5051 C   0  0  0  0  0  0
  -29.5440  -12.4293   18.2793 C   0  0  0  0  0  0
  -28.0664  -12.2713   18.6941 C   0  0  0  0  0  0
  -27.6264  -13.2394   19.8242 C   0  0  2  0  0  0
  -28.6766  -13.3585   20.9477 C   0  0  0  0  0  0
  -25.2516  -13.8194   20.5741 C   0  0  0  0  0  0
  -24.1804  -13.0440   20.9238 C   0  0  0  0  0  0
  -24.6407  -11.6921   20.8794 C   0  0  0  0  0  0
  -23.9093  -10.4291   21.0429 C   0  0  0  0  0  0
  -24.3648   -9.4201   21.9207 C   0  0  0  0  0  0
  -23.6307   -8.2244   22.0766 C   0  0  0  0  0  0
  -22.4289   -8.0295   21.3552 C   0  0  0  0  0  0
  -21.9933   -9.0275   20.4655 C   0  0  0  0  0  0
  -22.7277  -10.2146   20.3063 C   0  0  0  0  0  0
  -21.6850   -6.0756   22.5292 C   0  0  0  0  0  0
  -21.4018   -6.5655   23.8226 C   0  0  0  0  0  0
  -21.3654   -5.6802   24.9188 C   0  0  0  0  0  0
  -21.6040   -4.3069   24.7231 C   0  0  0  0  0  0
  -21.8811   -3.8160   23.4347 C   0  0  0  0  0  0
  -21.9185   -4.6977   22.3407 C   0  0  0  0  0  0
  -22.7825  -13.5229   21.1879 C   0  0  0  0  0  0
  -22.1658   -4.2171   21.0984 F   0  0  0  0  0  0
  -21.5619   -3.4540   25.7734 F   0  0  0  0  0  0
  -29.9302  -13.7928   20.3133 N   0  0  0  0  0  0
  -26.2916  -12.9391   20.3269 N   0  0  0  0  0  0
  -25.9340  -11.6539   20.5792 N   0  0  0  0  0  0
  -22.0467  -12.8216   22.0428 N   0  0  0  0  0  0
  -25.4241  -15.1920   20.4219 N   0  0  0  0  0  0
  -31.7633  -15.0743   20.2818 O   0  0  0  0  0  0
  -21.6636   -6.8910   21.4261 O   0  0  0  0  0  0
  -22.3524  -14.5550   20.6744 O   0  0  0  0  0  0
  -24.6487  -31.8432   23.1888 C   0  0  0  0  0  0
  -25.9250  -32.4698   23.8286 C   0  0  1  0  0  0
  -27.2185  -27.0733   20.1610 C   0  0  0  0  0  0
  -25.5981  -33.8510   24.2206 N   0  0  0  0  0  0
  -23.4575  -30.4626   21.5355 C   0  0  2  0  0  0
  -24.9120  -28.8913   20.1111 C   0  0  0  0  0  0
  -22.7605  -29.4555   22.4860 C   0  0  0  0  0  0
  -18.0341  -28.1367   22.8447 C   0  0  0  0  0  0
  -24.1496  -36.7252   23.2644 C   0  0  0  0  0  0
  -26.0207  -30.6927   21.4067 C   0  0  0  0  0  0
  -26.0894  -29.2999   20.7482 C   0  0  0  0  0  0
  -27.2364  -28.4063   20.7651 C   0  0  0  0  0  0
  -26.0245  -26.8231   19.4400 C   0  0  0  0  0  0
  -24.8966  -27.6665   19.4384 C   0  0  0  0  0  0
  -23.6905  -29.7962   20.1555 C   0  0  0  0  0  0
  -25.4136  -36.3051   24.0315 C   0  0  1  0  0  0
  -20.5936  -28.3719   23.1209 C   0  0  2  0  0  0
  -20.6847  -26.9429   22.5344 C   0  0  0  0  0  0
  -19.5814  -26.6364   21.5175 C   0  0  0  0  0  0
  -18.1992  -26.7929   22.1557 C   0  0  0  0  0  0
  -19.1582  -28.8852   23.2837 C   0  0  0  0  0  0
  -18.9468  -30.1441   23.8876 C   0  0  0  0  0  0
  -17.6453  -30.6562   24.0512 C   0  0  0  0  0  0
  -25.9073  -34.9413   23.5068 C   0  0  0  0  0  0
  -16.5359  -29.9026   23.6298 C   0  0  0  0  0  0
  -16.7313  -28.6438   23.0341 C   0  0  0  0  0  0
  -26.4566  -31.6567   25.0735 C   0  0  0  0  0  0
  -25.3732  -31.3725   26.1409 C   0  0  0  0  0  0
  -27.0422  -30.2946   24.6372 C   0  0  0  0  0  0
  -27.6122  -32.4317   25.7508 C   0  0  0  0  0  0
  -27.5591  -37.1801   24.8474 C   0  0  0  0  0  0
  -21.4287  -29.3085   22.3618 N   0  0  0  0  0  0
  -26.4312  -37.3762   23.9403 N   0  0  0  0  0  0
  -24.7292  -31.0220   22.0977 N   0  0  0  0  0  0
  -23.4221  -28.8107   23.3030 O   0  0  0  0  0  0
  -28.2336  -26.0176   20.2867 O   0  0  0  0  0  0
  -26.5653  -34.8911   22.4641 O   0  0  0  0  0  0
  -23.5592  -32.1332   23.7060 O   0  0  0  0  0  0
  -29.9901  -19.9173   21.5211 C   0  0  0  0  0  0
  -30.2292  -18.4383   21.5369 C   0  0  0  0  0  0
  -29.2965  -20.4999   20.4599 C   0  0  0  0  0  0
  -29.7860  -17.6919   20.4301 C   0  0  0  0  0  0
  -28.9708  -23.2032   20.5791 C   0  0  0  0  0  0
  -28.0318  -24.3023   18.4852 C   0  0  0  0  0  0
  -26.6063  -24.0964   20.6460 C   0  0  0  0  0  0
  -29.2134  -16.1528   18.6836 C   0  0  0  0  0  0
  -30.9019  -17.8156   22.7355 C   0  0  0  0  0  0
  -27.9832  -24.4580   20.0223 C   0  0  0  0  0  0
  -28.8007  -21.8379   20.1590 N   0  0  0  0  0  0
  -29.7843  -16.2704   20.0369 N   0  0  0  0  0  0
  -29.8533  -23.4842   21.3924 O   0  0  0  0  0  0
  -30.3919  -16.6166   23.0191 F   0  0  0  0  0  0
  -32.2089  -17.6651   22.5316 F   0  0  0  0  0  0
  -30.7522  -18.5633   23.8302 F   0  0  0  0  0  0
  -28.9950  -19.0312   19.4336 S   0  0  0  0  0  0
  -31.4832  -12.8492   19.1628 H   0  0  0  0  0  0
  -30.5259  -11.7566   20.1179 H   0  0  0  0  0  0
  -29.8668  -11.5294   17.7523 H   0  0  0  0  0  0
  -29.6590  -13.2299   17.5517 H   0  0  0  0  0  0
  -27.9462  -11.2433   19.0351 H   0  0  0  0  0  0
  -27.4166  -12.3772   17.8255 H   0  0  0  0  0  0
  -27.5498  -14.2142   19.3534 H   0  0  0  0  0  0
  -28.8015  -12.4153   21.4787 H   0  0  0  0  0  0
  -28.3586  -14.0968   21.6865 H   0  0  0  0  0  0
  -25.2807   -9.5655   22.4788 H   0  0  0  0  0  0
  -24.0004   -7.4626   22.7475 H   0  0  0  0  0  0
  -21.0865   -8.8831   19.8951 H   0  0  0  0  0  0
  -22.3783  -10.9701   19.6167 H   0  0  0  0  0  0
  -21.2038   -7.6169   23.9746 H   0  0  0  0  0  0
  -21.1472   -6.0531   25.9095 H   0  0  0  0  0  0
  -22.0590   -2.7620   23.2844 H   0  0  0  0  0  0
  -22.4073  -11.9869   22.4802 H   0  0  0  0  0  0
  -21.1086  -13.1250   22.2611 H   0  0  0  0  0  0
  -24.6677  -15.8540   20.5553 H   0  0  0  0  0  0
  -26.2910  -15.6314   20.1397 H   0  0  0  0  0  0
  -26.7322  -32.5314   23.1012 H   0  0  0  0  0  0
  -25.0128  -33.9598   25.0352 H   0  0  0  0  0  0
  -22.7664  -31.2933   21.3792 H   0  0  0  0  0  0
  -23.3770  -35.9572   23.3295 H   0  0  0  0  0  0
  -24.3591  -36.8890   22.2067 H   0  0  0  0  0  0
  -23.7221  -37.6442   23.6663 H   0  0  0  0  0  0
  -26.1884  -31.4446   20.6339 H   0  0  0  0  0  0
  -26.8874  -30.7416   22.0533 H   0  0  0  0  0  0
  -28.1182  -28.7085   21.3125 H   0  0  0  0  0  0
  -25.8930  -25.9205   18.8753 H   0  0  0  0  0  0
  -24.0092  -27.3562   18.9049 H   0  0  0  0  0  0
  -22.8035  -29.2456   19.8389 H   0  0  0  0  0  0
  -23.8348  -30.5720   19.4034 H   0  0  0  0  0  0
  -25.1319  -36.1898   25.0808 H   0  0  0  0  0  0
  -21.0022  -28.3293   24.1328 H   0  0  0  0  0  0
  -20.5812  -26.2301   23.3533 H   0  0  0  0  0  0
  -21.6708  -26.7522   22.1087 H   0  0  0  0  0  0
  -19.6977  -25.6258   21.1256 H   0  0  0  0  0  0
  -19.6755  -27.3130   20.6672 H   0  0  0  0  0  0
  -17.4297  -26.6746   21.3915 H   0  0  0  0  0  0
  -18.0346  -26.0028   22.8895 H   0  0  0  0  0  0
  -19.7927  -30.7270   24.2249 H   0  0  0  0  0  0
  -17.4980  -31.6255   24.5076 H   0  0  0  0  0  0
  -15.5339  -30.2897   23.7599 H   0  0  0  0  0  0
  -15.8736  -28.0723   22.7053 H   0  0  0  0  0  0
  -24.5949  -30.7047   25.7706 H   0  0  0  0  0  0
  -24.8860  -32.2872   26.4798 H   0  0  0  0  0  0
  -25.8006  -30.8937   27.0218 H   0  0  0  0  0  0
  -26.3036  -29.6675   24.1368 H   0  0  0  0  0  0
  -27.3976  -29.7287   25.4991 H   0  0  0  0  0  0
  -27.8997  -30.4154   23.9742 H   0  0  0  0  0  0
  -27.2757  -33.3653   26.2020 H   0  0  0  0  0  0
  -28.3960  -32.6807   25.0338 H   0  0  0  0  0  0
  -28.0751  -31.8476   26.5466 H   0  0  0  0  0  0
  -28.2621  -38.0088   24.7521 H   0  0  0  0  0  0
  -28.1071  -36.2618   24.6298 H   0  0  0  0  0  0
  -27.2300  -37.1459   25.8876 H   0  0  0  0  0  0
  -20.9513  -29.8804   21.6797 H   0  0  0  0  0  0
  -26.0181  -38.2850   24.1364 H   0  0  0  0  0  0
  -30.3233  -20.5074   22.3636 H   0  0  0  0  0  0
  -29.0653  -24.3352   18.1357 H   0  0  0  0  0  0
  -27.5227  -25.0904   17.9395 H   0  0  0  0  0  0
  -27.6069  -23.3520   18.1593 H   0  0  0  0  0  0
  -26.5425  -23.0663   21.0000 H   0  0  0  0  0  0
  -25.7761  -24.1848   19.9502 H   0  0  0  0  0  0
  -26.4006  -24.7249   21.5120 H   0  0  0  0  0  0
  -28.1630  -16.4451   18.6731 H   0  0  0  0  0  0
  -29.2663  -15.1692   18.2305 H   0  0  0  0  0  0
  -29.7579  -16.7937   17.9883 H   0  0  0  0  0  0
  -28.1034  -21.8098   19.4272 H   0  0  0  0  0  0
  1 25  1  0  0  0
  1 30  2  0  0  0
  1 82  1  0  0  0
  2  3  1  0  0  0
  2 25  1  0  0  0
  2 88  1  0  0  0
  2 89  1  0  0  0
  3  4  1  0  0  0
  3 90  1  0  0  0
  3 91  1  0  0  0
  4  5  1  0  0  0
  4 92  1  0  0  0
  4 93  1  0  0  0
  5  6  1  0  0  0
  5 26  1  0  0  0
  5 94  1  0  0  0
  6 25  1  0  0  0
  6 95  1  0  0  0
  6 96  1  0  0  0
  7  8  2  0  0  0
  7 26  1  0  0  0
  7 29  1  0  0  0
  8  9  1  0  0  0
  8 22  1  0  0  0
  9 10  1  0  0  0
  9 27  2  0  0  0
 10 11  2  0  0  0
 10 15  1  0  0  0
 11 12  1  0  0  0
 11 97  1  0  0  0
 12 13  2  0  0  0
 12 98  1  0  0  0
 13 14  1  0  0  0
 13 31  1  0  0  0
 14 15  2  0  0  0
 14 99  1  0  0  0
 15100  1  0  0  0
 16 17  2  0  0  0
 16 21  1  0  0  0
 16 31  1  0  0  0
 17 18  1  0  0  0
 17101  1  0  0  0
 18 19  2  0  0  0
 18102  1  0  0  0
 19 20  1  0  0  0
 19 24  1  0  0  0
 20 21  2  0  0  0
 20103  1  0  0  0
 21 23  1  0  0  0
 22 28  1  0  0  0
 22 32  2  0  0  0
 26 27  1  0  0  0
 28104  1  0  0  0
 28105  1  0  0  0
 29106  1  0  0  0
 29107  1  0  0  0
 33 34  1  0  0  0
 33 66  1  0  0  0
 33 70  2  0  0  0
 34 36  1  0  0  0
 34 59  1  0  0  0
 34108  1  0  0  0
 35 44  2  0  0  0
 35 45  1  0  0  0
 35 68  1  0  0  0
 36 56  1  0  0  0
 36109  1  0  0  0
 37 39  1  0  0  0
 37 47  1  0  0  0
 37 66  1  0  0  0
 37110  1  0  0  0
 38 43  2  0  0  0
 38 46  1  0  0  0
 38 47  1  0  0  0
 39 64  1  0  0  0
 39 67  2  0  0  0
 40 52  1  0  0  0
 40 53  2  0  0  0
 40 58  1  0  0  0
 41111  1  0  0  0
 41112  1  0  0  0
 41113  1  0  0  0
 41 48  1  0  0  0
 42 43  1  0  0  0
 42 66  1  0  0  0
 42114  1  0  0  0
 42115  1  0  0  0
 43 44  1  0  0  0
 44116  1  0  0  0
 45 46  2  0  0  0
 45117  1  0  0  0
 46118  1  0  0  0
 47119  1  0  0  0
 47120  1  0  0  0
 48 56  1  0  0  0
 48 65  1  0  0  0
 48121  1  0  0  0
 49 50  1  0  0  0
 49 53  1  0  0  0
 49 64  1  0  0  0
 49122  1  0  0  0
 50 51  1  0  0  0
 50123  1  0  0  0
 50124  1  0  0  0
 51 52  1  0  0  0
 51125  1  0  0  0
 51126  1  0  0  0
 52127  1  0  0  0
 52128  1  0  0  0
 53 54  1  0  0  0
 54 55  2  0  0  0
 54129  1  0  0  0
 55 57  1  0  0  0
 55130  1  0  0  0
 56 69  2  0  0  0
 57 58  2  0  0  0
 57131  1  0  0  0
 58132  1  0  0  0
 59 60  1  0  0  0
 59 61  1  0  0  0
 59 62  1  0  0  0
 60133  1  0  0  0
 60134  1  0  0  0
 60135  1  0  0  0
 61136  1  0  0  0
 61137  1  0  0  0
 61138  1  0  0  0
 62139  1  0  0  0
 62140  1  0  0  0
 62141  1  0  0  0
 63 65  1  0  0  0
 63142  1  0  0  0
 63143  1  0  0  0
 63144  1  0  0  0
 64145  1  0  0  0
 65146  1  0  0  0
 68 80  1  0  0  0
 71 72  1  0  0  0
 71 73  2  0  0  0
 71147  1  0  0  0
 72 74  2  0  0  0
 72 79  1  0  0  0
 73 81  1  0  0  0
 73 87  1  0  0  0
 74 82  1  0  0  0
 74 87  1  0  0  0
 75 80  1  0  0  0
 75 81  1  0  0  0
 75 83  2  0  0  0
 76148  1  0  0  0
 76149  1  0  0  0
 76150  1  0  0  0
 76 80  1  0  0  0
 77 80  1  0  0  0
 77151  1  0  0  0
 77152  1  0  0  0
 77153  1  0  0  0
 78 82  1  0  0  0
 78154  1  0  0  0
 78155  1  0  0  0
 78156  1  0  0  0
 79 84  1  0  0  0
 79 85  1  0  0  0
 79 86  1  0  0  0
 81157  1  0  0  0
M  ISO  4   1 100  68 101  80 101  82 100
M  END
> <chiral flag>
0

> <version>
0

> <s_m_source_file>
/data/baiqing/PycharmProjects/Reinvent-master-3.2/result/LINK_invent/BTK/process_docking_weight1_custom_product_contain_oxygen_bond_distance_aromatic_linkinvent_7_9_3/rearranged_h_0184.sdf

> <i_m_source_file_index>
68

> <r_mmod_Potential_Energy-OPLS-2005>
880.163635253906

> <r_mmod_Stretch_Energy-OPLS-2005>
312.094573974609

> <r_mmod_Bend_Energy-OPLS-2005>
339.514190673828

> <r_mmod_Torsional_Energy-OPLS-2005>
311.815979003906

> <r_mmod_Improper_Torsional_Energy-OPLS-2005>
16.6157531738281

> <r_mmod_Van_der_Waal_Energy-OPLS-2005>
138.115310668945

> <r_mmod_Electrostatic_Energy-OPLS-2005>
-305.855804443359

> <r_mmod_Solvation_Energy-OPLS-2005>
-214.206649780273

> <b_mmod_Minimization_Converged-OPLS-2005>
0

> <r_mmod_RMS_Derivative-OPLS-2005>
2.78320336341858

$$$$
68
                    3D
 Structure written by MMmdl.
154162  0  0  1  0            999 V2000
  -30.6278  -14.7253   20.4771 C   0  0  0  0  0  0
  -30.4248  -12.4350   19.4944 C   0  0  0  0  0  0
  -29.5181  -12.4875   18.2472 C   0  0  0  0  0  0
  -28.0389  -12.3300   18.6480 C   0  0  0  0  0  0
  -27.6362  -13.2352   19.8447 C   0  0  2  0  0  0
  -28.6766  -13.1741   20.9839 C   0  0  0  0  0  0
  -25.2454  -13.8152   20.5773 C   0  0  0  0  0  0
  -24.1734  -13.0418   20.9241 C   0  0  0  0  0  0
  -24.6332  -11.6904   20.8704 C   0  0  0  0  0  0
  -23.8984  -10.4286   21.0363 C   0  0  0  0  0  0
  -24.3555   -9.4231   21.9148 C   0  0  0  0  0  0
  -23.6296   -8.2239   22.0703 C   0  0  0  0  0  0
  -22.4279   -8.0244   21.3513 C   0  0  0  0  0  0
  -21.9901   -9.0190   20.4603 C   0  0  0  0  0  0
  -22.7160  -10.2106   20.3015 C   0  0  0  0  0  0
  -21.6855   -6.0730   22.5313 C   0  0  0  0  0  0
  -21.4001   -6.5629   23.8249 C   0  0  0  0  0  0
  -21.3677   -5.6772   24.9212 C   0  0  0  0  0  0
  -21.6081   -4.3034   24.7242 C   0  0  0  0  0  0
  -21.8818   -3.8135   23.4343 C   0  0  0  0  0  0
  -21.9203   -4.6963   22.3415 C   0  0  0  0  0  0
  -22.7766  -13.5247   21.1897 C   0  0  0  0  0  0
  -22.1651   -4.2153   21.0977 F   0  0  0  0  0  0
  -21.5659   -3.4518   25.7738 F   0  0  0  0  0  0
  -29.9814  -13.5129   20.4072 N   0  0  0  0  0  0
  -26.2887  -12.9394   20.3237 N   0  0  0  0  0  0
  -25.9268  -11.6532   20.5674 N   0  0  0  0  0  0
  -22.0369  -12.8240   22.0423 N   0  0  0  0  0  0
  -25.4075  -15.1871   20.4354 N   0  0  0  0  0  0
  -31.8130  -14.8023   20.1471 O   0  0  0  0  0  0
  -21.6638   -6.8846   21.4255 O   0  0  0  0  0  0
  -22.3499  -14.5581   20.6746 O   0  0  0  0  0  0
  -24.6321  -31.8565   23.1986 C   0  0  0  0  0  0
  -25.9156  -32.4758   23.8329 C   0  0  1  0  0  0
  -27.2109  -27.2747   20.1346 C   0  0  0  0  0  0
  -25.5962  -33.8538   24.2265 N   0  0  0  0  0  0
  -23.4279  -30.4783   21.5443 C   0  0  2  0  0  0
  -24.8712  -28.9253   20.1124 C   0  0  0  0  0  0
  -22.7521  -29.4601   22.4927 C   0  0  0  0  0  0
  -18.0303  -28.1416   22.8480 C   0  0  0  0  0  0
  -24.1492  -36.7259   23.2630 C   0  0  0  0  0  0
  -25.9700  -30.7773   21.3704 C   0  0  0  0  0  0
  -26.0449  -29.3980   20.7159 C   0  0  0  0  0  0
  -27.2223  -28.5860   20.7121 C   0  0  0  0  0  0
  -26.0212  -26.8636   19.5001 C   0  0  0  0  0  0
  -24.8636  -27.6661   19.4903 C   0  0  0  0  0  0
  -23.6411  -29.8118   20.1602 C   0  0  0  0  0  0
  -25.4113  -36.3043   24.0326 C   0  0  1  0  0  0
  -20.5907  -28.3706   23.1296 C   0  0  2  0  0  0
  -20.6780  -26.9423   22.5424 C   0  0  0  0  0  0
  -19.5765  -26.6407   21.5217 C   0  0  0  0  0  0
  -18.1947  -26.7963   22.1624 C   0  0  0  0  0  0
  -19.1553  -28.8882   23.2878 C   0  0  0  0  0  0
  -18.9460  -30.1490   23.8879 C   0  0  0  0  0  0
  -17.6445  -30.6596   24.0577 C   0  0  0  0  0  0
  -25.9057  -34.9419   23.5093 C   0  0  0  0  0  0
  -16.5352  -29.9085   23.6343 C   0  0  0  0  0  0
  -16.7274  -28.6530   23.0323 C   0  0  0  0  0  0
  -26.4512  -31.6561   25.0698 C   0  0  0  0  0  0
  -25.3741  -31.3692   26.1422 C   0  0  0  0  0  0
  -27.0341  -30.2980   24.6145 C   0  0  0  0  0  0
  -27.6101  -32.4284   25.7466 C   0  0  0  0  0  0
  -27.5589  -37.1782   24.8459 C   0  0  0  0  0  0
  -21.4224  -29.3038   22.3667 N   0  0  0  0  0  0
  -26.4274  -37.3758   23.9421 N   0  0  0  0  0  0
  -24.6965  -31.0549   22.0965 N   0  0  0  0  0  0
  -23.4215  -28.8141   23.3047 O   0  0  0  0  0  0
  -28.2885  -26.3683   20.1512 O   0  0  0  0  0  0
  -26.5607  -34.8910   22.4651 O   0  0  0  0  0  0
  -23.5486  -32.1376   23.7312 O   0  0  0  0  0  0
  -28.0885  -20.3731   20.0700 C   0  0  0  0  0  0
  -28.3948  -18.9461   20.1386 C   0  0  0  0  0  0
  -29.6481  -18.6474   20.6435 C   0  0  0  0  0  0
  -29.0280  -21.2405   20.5985 C   0  0  0  0  0  0
  -28.3994  -23.6837   20.1575 C   0  0  0  0  0  0
  -27.4215  -17.8864   19.7157 C   0  0  0  0  0  0
  -28.8392  -25.2261   22.2361 C   0  0  0  0  0  0
  -30.4739  -17.3024   20.7954 C   0  0  0  0  0  0
  -28.0955  -25.0824   20.8990 C   0  0  1  0  0  0
  -28.9567  -22.6207   20.8494 N   0  0  0  0  0  0
  -29.9044  -15.8836   20.7368 N   0  0  0  0  0  0
  -28.0942  -23.5728   18.9668 O   0  0  0  0  0  0
  -30.3763  -20.2057   21.1366 S   0  0  0  0  0  0
  -31.4736  -12.5377   19.2095 H   0  0  0  0  0  0
  -30.3435  -11.4657   19.9888 H   0  0  0  0  0  0
  -29.8065  -11.7037   17.5448 H   0  0  0  0  0  0
  -29.6621  -13.4368   17.7269 H   0  0  0  0  0  0
  -27.8845  -11.2848   18.9173 H   0  0  0  0  0  0
  -27.3935  -12.5204   17.7906 H   0  0  0  0  0  0
  -27.6320  -14.2549   19.4627 H   0  0  0  0  0  0
  -28.6968  -12.1819   21.4352 H   0  0  0  0  0  0
  -28.4157  -13.8636   21.7903 H   0  0  0  0  0  0
  -25.2668   -9.5816   22.4740 H   0  0  0  0  0  0
  -24.0080   -7.4636   22.7398 H   0  0  0  0  0  0
  -21.0850   -8.8680   19.8876 H   0  0  0  0  0  0
  -22.3581  -10.9639   19.6125 H   0  0  0  0  0  0
  -21.1936   -7.6135   23.9779 H   0  0  0  0  0  0
  -21.1493   -6.0452   25.9132 H   0  0  0  0  0  0
  -22.0565   -2.7599   23.2812 H   0  0  0  0  0  0
  -22.4000  -11.9896   22.4798 H   0  0  0  0  0  0
  -21.0951  -13.1210   22.2544 H   0  0  0  0  0  0
  -24.6362  -15.8319   20.5727 H   0  0  0  0  0  0
  -26.2500  -15.6329   20.1010 H   0  0  0  0  0  0
  -26.7201  -32.5414   23.1053 H   0  0  0  0  0  0
  -25.0156  -33.9660   25.0446 H   0  0  0  0  0  0
  -22.7257  -31.3018   21.4013 H   0  0  0  0  0  0
  -23.3771  -35.9575   23.3256 H   0  0  0  0  0  0
  -24.3606  -36.8926   22.2058 H   0  0  0  0  0  0
  -23.7223  -37.6437   23.6679 H   0  0  0  0  0  0
  -26.0985  -31.5381   20.5984 H   0  0  0  0  0  0
  -26.8523  -30.8325   21.9960 H   0  0  0  0  0  0
  -28.1248  -28.9429   21.1856 H   0  0  0  0  0  0
  -25.9808  -25.8931   19.0265 H   0  0  0  0  0  0
  -23.9654  -27.3000   19.0095 H   0  0  0  0  0  0
  -23.7639  -30.5868   19.4022 H   0  0  0  0  0  0
  -22.7587  -29.2444   19.8602 H   0  0  0  0  0  0
  -25.1289  -36.1886   25.0814 H   0  0  0  0  0  0
  -21.0014  -28.3286   24.1420 H   0  0  0  0  0  0
  -20.5731  -26.2300   23.3614 H   0  0  0  0  0  0
  -21.6642  -26.7471   22.1213 H   0  0  0  0  0  0
  -19.6928  -25.6324   21.1241 H   0  0  0  0  0  0
  -19.6730  -27.3226   20.6754 H   0  0  0  0  0  0
  -17.4233  -26.6740   21.4001 H   0  0  0  0  0  0
  -18.0310  -26.0116   22.9024 H   0  0  0  0  0  0
  -19.7917  -30.7330   24.2253 H   0  0  0  0  0  0
  -17.4981  -31.6273   24.5184 H   0  0  0  0  0  0
  -15.5344  -30.2961   23.7680 H   0  0  0  0  0  0
  -15.8692  -28.0849   22.6998 H   0  0  0  0  0  0
  -24.5948  -30.7001   25.7747 H   0  0  0  0  0  0
  -24.8866  -32.2835   26.4808 H   0  0  0  0  0  0
  -25.8052  -30.8905   27.0221 H   0  0  0  0  0  0
  -26.2889  -29.6737   24.1184 H   0  0  0  0  0  0
  -27.4060  -29.7225   25.4635 H   0  0  0  0  0  0
  -27.8765  -30.4256   23.9337 H   0  0  0  0  0  0
  -27.2754  -33.3627   26.1981 H   0  0  0  0  0  0
  -28.3931  -32.6766   25.0287 H   0  0  0  0  0  0
  -28.0734  -31.8427   26.5419 H   0  0  0  0  0  0
  -28.2555  -38.0120   24.7536 H   0  0  0  0  0  0
  -28.1125  -36.2653   24.6226 H   0  0  0  0  0  0
  -27.2325  -37.1377   25.8862 H   0  0  0  0  0  0
  -20.9425  -29.8715   21.6810 H   0  0  0  0  0  0
  -26.0153  -38.2825   24.1445 H   0  0  0  0  0  0
  -27.1347  -20.7090   19.6789 H   0  0  0  0  0  0
  -27.8350  -17.2322   18.9483 H   0  0  0  0  0  0
  -26.4918  -18.3029   19.3254 H   0  0  0  0  0  0
  -27.1615  -17.2681   20.5748 H   0  0  0  0  0  0
  -28.6350  -24.3898   22.9095 H   0  0  0  0  0  0
  -28.5303  -26.1345   22.7517 H   0  0  0  0  0  0
  -29.9146  -25.2863   22.0837 H   0  0  0  0  0  0
  -31.0237  -17.3636   21.7362 H   0  0  0  0  0  0
  -31.2583  -17.3494   20.0402 H   0  0  0  0  0  0
  -27.0387  -25.0060   21.1582 H   0  0  0  0  0  0
  -29.3513  -22.8983   21.7395 H   0  0  0  0  0  0
  -28.9317  -15.7650   20.9654 H   0  0  0  0  0  0
  1 25  1  0  0  0
  1 30  2  0  0  0
  1 81  1  0  0  0
  2  3  1  0  0  0
  2 25  1  0  0  0
  2 84  1  0  0  0
  2 85  1  0  0  0
  3  4  1  0  0  0
  3 86  1  0  0  0
  3 87  1  0  0  0
  4  5  1  0  0  0
  4 88  1  0  0  0
  4 89  1  0  0  0
  5  6  1  0  0  0
  5 26  1  0  0  0
  5 90  1  0  0  0
  6 25  1  0  0  0
  6 91  1  0  0  0
  6 92  1  0  0  0
  7  8  2  0  0  0
  7 26  1  0  0  0
  7 29  1  0  0  0
  8  9  1  0  0  0
  8 22  1  0  0  0
  9 10  1  0  0  0
  9 27  2  0  0  0
 10 11  2  0  0  0
 10 15  1  0  0  0
 11 12  1  0  0  0
 11 93  1  0  0  0
 12 13  2  0  0  0
 12 94  1  0  0  0
 13 14  1  0  0  0
 13 31  1  0  0  0
 14 15  2  0  0  0
 14 95  1  0  0  0
 15 96  1  0  0  0
 16 17  2  0  0  0
 16 21  1  0  0  0
 16 31  1  0  0  0
 17 18  1  0  0  0
 17 97  1  0  0  0
 18 19  2  0  0  0
 18 98  1  0  0  0
 19 20  1  0  0  0
 19 24  1  0  0  0
 20 21  2  0  0  0
 20 99  1  0  0  0
 21 23  1  0  0  0
 22 28  1  0  0  0
 22 32  2  0  0  0
 26 27  1  0  0  0
 28100  1  0  0  0
 28101  1  0  0  0
 29102  1  0  0  0
 29103  1  0  0  0
 33 34  1  0  0  0
 33 66  1  0  0  0
 33 70  2  0  0  0
 34 36  1  0  0  0
 34 59  1  0  0  0
 34104  1  0  0  0
 35 44  2  0  0  0
 35 45  1  0  0  0
 35 68  1  0  0  0
 36 56  1  0  0  0
 36105  1  0  0  0
 37 39  1  0  0  0
 37 47  1  0  0  0
 37 66  1  0  0  0
 37106  1  0  0  0
 38 43  2  0  0  0
 38 46  1  0  0  0
 38 47  1  0  0  0
 39 64  1  0  0  0
 39 67  2  0  0  0
 40 52  1  0  0  0
 40 53  2  0  0  0
 40 58  1  0  0  0
 41107  1  0  0  0
 41108  1  0  0  0
 41109  1  0  0  0
 41 48  1  0  0  0
 42 43  1  0  0  0
 42 66  1  0  0  0
 42110  1  0  0  0
 42111  1  0  0  0
 43 44  1  0  0  0
 44112  1  0  0  0
 45 46  2  0  0  0
 45113  1  0  0  0
 46114  1  0  0  0
 47115  1  0  0  0
 47116  1  0  0  0
 48 56  1  0  0  0
 48 65  1  0  0  0
 48117  1  0  0  0
 49 50  1  0  0  0
 49 53  1  0  0  0
 49 64  1  0  0  0
 49118  1  0  0  0
 50 51  1  0  0  0
 50119  1  0  0  0
 50120  1  0  0  0
 51 52  1  0  0  0
 51121  1  0  0  0
 51122  1  0  0  0
 52123  1  0  0  0
 52124  1  0  0  0
 53 54  1  0  0  0
 54 55  2  0  0  0
 54125  1  0  0  0
 55 57  1  0  0  0
 55126  1  0  0  0
 56 69  2  0  0  0
 57 58  2  0  0  0
 57127  1  0  0  0
 58128  1  0  0  0
 59 60  1  0  0  0
 59 61  1  0  0  0
 59 62  1  0  0  0
 60129  1  0  0  0
 60130  1  0  0  0
 60131  1  0  0  0
 61132  1  0  0  0
 61133  1  0  0  0
 61134  1  0  0  0
 62135  1  0  0  0
 62136  1  0  0  0
 62137  1  0  0  0
 63 65  1  0  0  0
 63138  1  0  0  0
 63139  1  0  0  0
 63140  1  0  0  0
 64141  1  0  0  0
 65142  1  0  0  0
 68 79  1  0  0  0
 71 72  1  0  0  0
 71 74  2  0  0  0
 71143  1  0  0  0
 72 73  2  0  0  0
 72 76  1  0  0  0
 73 78  1  0  0  0
 73 83  1  0  0  0
 74 80  1  0  0  0
 74 83  1  0  0  0
 75 79  1  0  0  0
 75 80  1  0  0  0
 75 82  2  0  0  0
 76144  1  0  0  0
 76145  1  0  0  0
 76146  1  0  0  0
 77147  1  0  0  0
 77148  1  0  0  0
 77149  1  0  0  0
 77 79  1  0  0  0
 78 81  1  0  0  0
 78150  1  0  0  0
 78151  1  0  0  0
 79152  1  0  0  0
 80153  1  0  0  0
 81154  1  0  0  0
M  ISO  4   1 100  68 101  79 101  81 100
M  END
> <chiral flag>
0

> <version>
0

> <s_m_source_file>
/data/baiqing/PycharmProjects/Reinvent-master-3.2/result/LINK_invent/BTK/process_docking_weight1_custom_product_contain_oxygen_bond_distance_aromatic_linkinvent_7_9_3/rearranged_h_0184.sdf

> <i_m_source_file_index>
69

> <r_mmod_Potential_Energy-OPLS-2005>
81.6610260009766

> <r_mmod_Stretch_Energy-OPLS-2005>
107.812164306641

> <r_mmod_Bend_Energy-OPLS-2005>
176.314788818359

> <r_mmod_Torsional_Energy-OPLS-2005>
253.897338867188

> <r_mmod_Improper_Torsional_Energy-OPLS-2005>
4.40116310119629

> <r_mmod_Van_der_Waal_Energy-OPLS-2005>
108.958633422852

> <r_mmod_Electrostatic_Energy-OPLS-2005>
-415.506530761719

> <r_mmod_Solvation_Energy-OPLS-2005>
-234.188537597656

> <b_mmod_Minimization_Converged-OPLS-2005>
0

> <r_mmod_RMS_Derivative-OPLS-2005>
5.01176881790161

$$$$
69
                    3D
 Structure written by MMmdl.
152160  0  0  1  0            999 V2000
  -30.5250  -14.9796   20.4214 C   0  0  0  0  0  0
  -30.4433  -12.6060   19.5122 C   0  0  0  0  0  0
  -29.5271  -12.5403   18.2668 C   0  0  0  0  0  0
  -28.0603  -12.3200   18.6807 C   0  0  0  0  0  0
  -27.6321  -13.2512   19.8445 C   0  0  2  0  0  0
  -28.6724  -13.2814   20.9858 C   0  0  0  0  0  0
  -25.2466  -13.8222   20.5721 C   0  0  0  0  0  0
  -24.1781  -13.0441   20.9227 C   0  0  0  0  0  0
  -24.6401  -11.6927   20.8753 C   0  0  0  0  0  0
  -23.9083  -10.4294   21.0406 C   0  0  0  0  0  0
  -24.3629   -9.4209   21.9185 C   0  0  0  0  0  0
  -23.6301   -8.2245   22.0752 C   0  0  0  0  0  0
  -22.4282   -8.0284   21.3544 C   0  0  0  0  0  0
  -21.9923   -9.0259   20.4645 C   0  0  0  0  0  0
  -22.7254  -10.2136   20.3055 C   0  0  0  0  0  0
  -21.6856   -6.0739   22.5279 C   0  0  0  0  0  0
  -21.4016   -6.5642   23.8213 C   0  0  0  0  0  0
  -21.3660   -5.6794   24.9176 C   0  0  0  0  0  0
  -21.6044   -4.3056   24.7225 C   0  0  0  0  0  0
  -21.8819   -3.8148   23.4347 C   0  0  0  0  0  0
  -21.9194   -4.6966   22.3403 C   0  0  0  0  0  0
  -22.7799  -13.5210   21.1881 C   0  0  0  0  0  0
  -22.1661   -4.2151   21.0981 F   0  0  0  0  0  0
  -21.5628   -3.4539   25.7738 F   0  0  0  0  0  0
  -29.9495  -13.7050   20.3959 N   0  0  0  0  0  0
  -26.2897  -12.9459   20.3268 N   0  0  0  0  0  0
  -25.9337  -11.6583   20.5749 N   0  0  0  0  0  0
  -22.0449  -12.8193   22.0434 N   0  0  0  0  0  0
  -25.4130  -15.1952   20.4148 N   0  0  0  0  0  0
  -31.7182  -15.0521   20.1026 O   0  0  0  0  0  0
  -21.6643   -6.8883   21.4241 O   0  0  0  0  0  0
  -22.3478  -14.5513   20.6728 O   0  0  0  0  0  0
  -24.6466  -31.8416   23.1885 C   0  0  0  0  0  0
  -25.9229  -32.4678   23.8277 C   0  0  1  0  0  0
  -27.2041  -27.0898   20.1717 C   0  0  0  0  0  0
  -25.5969  -33.8487   24.2188 N   0  0  0  0  0  0
  -23.4527  -30.4616   21.5339 C   0  0  2  0  0  0
  -24.9047  -28.8873   20.1102 C   0  0  0  0  0  0
  -22.7589  -29.4534   22.4845 C   0  0  0  0  0  0
  -18.0314  -28.1401   22.8477 C   0  0  0  0  0  0
  -24.1495  -36.7247   23.2642 C   0  0  0  0  0  0
  -26.0126  -30.6975   21.4014 C   0  0  0  0  0  0
  -26.0803  -29.3037   20.7488 C   0  0  0  0  0  0
  -27.2302  -28.4193   20.7699 C   0  0  0  0  0  0
  -26.0293  -26.8239   19.4347 C   0  0  0  0  0  0
  -24.8941  -27.6601   19.4348 C   0  0  0  0  0  0
  -23.6833  -29.7935   20.1529 C   0  0  0  0  0  0
  -25.4127  -36.3022   24.0315 C   0  0  1  0  0  0
  -20.5928  -28.3730   23.1224 C   0  0  2  0  0  0
  -20.6798  -26.9430   22.5400 C   0  0  0  0  0  0
  -19.5770  -26.6385   21.5210 C   0  0  0  0  0  0
  -18.1951  -26.7939   22.1623 C   0  0  0  0  0  0
  -19.1571  -28.8885   23.2843 C   0  0  0  0  0  0
  -18.9482  -30.1479   23.8870 C   0  0  0  0  0  0
  -17.6476  -30.6592   24.0560 C   0  0  0  0  0  0
  -25.9080  -34.9398   23.5058 C   0  0  0  0  0  0
  -16.5369  -29.9083   23.6336 C   0  0  0  0  0  0
  -16.7296  -28.6505   23.0353 C   0  0  0  0  0  0
  -26.4540  -31.6552   25.0729 C   0  0  0  0  0  0
  -25.3710  -31.3751   26.1412 C   0  0  0  0  0  0
  -27.0411  -30.2938   24.6346 C   0  0  0  0  0  0
  -27.6066  -32.4324   25.7511 C   0  0  0  0  0  0
  -27.5574  -37.1782   24.8468 C   0  0  0  0  0  0
  -21.4278  -29.3049   22.3590 N   0  0  0  0  0  0
  -26.4286  -37.3738   23.9408 N   0  0  0  0  0  0
  -24.7236  -31.0231   22.0952 N   0  0  0  0  0  0
  -23.4213  -28.8075   23.3008 O   0  0  0  0  0  0
  -28.2263  -26.0517   20.1980 O   0  0  0  0  0  0
  -26.5661  -34.8898   22.4633 O   0  0  0  0  0  0
  -23.5575  -32.1320   23.7075 O   0  0  0  0  0  0
  -30.8918  -18.2481   19.6641 C   0  0  0  0  0  0
  -29.8876  -17.6696   20.4104 C   0  0  0  0  0  0
  -28.9942  -18.7943   20.8656 C   0  0  0  0  0  0
  -29.2825  -20.1548   20.4915 C   0  0  0  0  0  0
  -28.6351  -21.5764   20.8538 C   0  0  0  0  0  0
  -28.5343  -24.8082   22.1986 C   0  0  0  0  0  0
  -26.5329  -24.2347   20.8419 C   0  0  0  0  0  0
  -28.8234  -23.1259   20.2163 C   0  0  0  0  0  0
  -28.0421  -24.5709   20.7604 C   0  0  0  0  0  0
  -29.7349  -16.1487   20.6523 N   0  0  0  0  0  0
  -27.8466  -21.5229   21.7991 O   0  0  0  0  0  0
  -27.9539  -18.4983   21.6110 F   0  0  0  0  0  0
  -30.7370  -20.0315   19.5125 S   0  0  0  0  0  0
  -31.4771  -12.7657   19.2021 H   0  0  0  0  0  0
  -30.4396  -11.6538   20.0456 H   0  0  0  0  0  0
  -29.8518  -11.7422   17.5980 H   0  0  0  0  0  0
  -29.6126  -13.4695   17.7012 H   0  0  0  0  0  0
  -27.9600  -11.2785   18.9884 H   0  0  0  0  0  0
  -27.3982  -12.4500   17.8239 H   0  0  0  0  0  0
  -27.5953  -14.2536   19.4163 H   0  0  0  0  0  0
  -28.7634  -12.3034   21.4612 H   0  0  0  0  0  0
  -28.3640  -13.9761   21.7685 H   0  0  0  0  0  0
  -25.2772   -9.5686   22.4765 H   0  0  0  0  0  0
  -24.0009   -7.4637   22.7473 H   0  0  0  0  0  0
  -21.0853   -8.8781   19.8951 H   0  0  0  0  0  0
  -22.3712  -10.9677   19.6167 H   0  0  0  0  0  0
  -21.2007   -7.6149   23.9719 H   0  0  0  0  0  0
  -21.1482   -6.0523   25.9079 H   0  0  0  0  0  0
  -22.0597   -2.7610   23.2847 H   0  0  0  0  0  0
  -22.4070  -11.9857   22.4821 H   0  0  0  0  0  0
  -21.1064  -13.1209   22.2636 H   0  0  0  0  0  0
  -24.6438  -15.8462   20.5304 H   0  0  0  0  0  0
  -26.2557  -15.6385   20.0731 H   0  0  0  0  0  0
  -26.7291  -32.5275   23.0998 H   0  0  0  0  0  0
  -25.0107  -33.9600   25.0331 H   0  0  0  0  0  0
  -22.7575  -31.2894   21.3785 H   0  0  0  0  0  0
  -23.3762  -35.9574   23.3294 H   0  0  0  0  0  0
  -24.3579  -36.8889   22.2058 H   0  0  0  0  0  0
  -23.7245  -37.6440   23.6684 H   0  0  0  0  0  0
  -26.1770  -31.4457   20.6251 H   0  0  0  0  0  0
  -26.8805  -30.7494   22.0466 H   0  0  0  0  0  0
  -28.1205  -28.7286   21.2988 H   0  0  0  0  0  0
  -25.9621  -25.9093   18.8667 H   0  0  0  0  0  0
  -24.0103  -27.3480   18.8957 H   0  0  0  0  0  0
  -23.8248  -30.5693   19.3996 H   0  0  0  0  0  0
  -22.7973  -29.2393   19.8383 H   0  0  0  0  0  0
  -25.1316  -36.1846   25.0806 H   0  0  0  0  0  0
  -21.0026  -28.3320   24.1344 H   0  0  0  0  0  0
  -20.5696  -26.2339   23.3620 H   0  0  0  0  0  0
  -21.6662  -26.7433   22.1193 H   0  0  0  0  0  0
  -19.6928  -25.6292   21.1252 H   0  0  0  0  0  0
  -19.6704  -27.3186   20.6734 H   0  0  0  0  0  0
  -17.4219  -26.6688   21.4024 H   0  0  0  0  0  0
  -18.0347  -26.0088   22.9027 H   0  0  0  0  0  0
  -19.7955  -30.7307   24.2225 H   0  0  0  0  0  0
  -17.5025  -31.6268   24.5169 H   0  0  0  0  0  0
  -15.5366  -30.2972   23.7677 H   0  0  0  0  0  0
  -15.8699  -28.0813   22.7077 H   0  0  0  0  0  0
  -24.5917  -30.7065   25.7733 H   0  0  0  0  0  0
  -24.8865  -32.2930   26.4749 H   0  0  0  0  0  0
  -25.7988  -30.8990   27.0243 H   0  0  0  0  0  0
  -26.3044  -29.6654   24.1330 H   0  0  0  0  0  0
  -27.3979  -29.7247   25.4941 H   0  0  0  0  0  0
  -27.8976  -30.4161   23.9713 H   0  0  0  0  0  0
  -27.2666  -33.3661   26.2005 H   0  0  0  0  0  0
  -28.3921  -32.6822   25.0365 H   0  0  0  0  0  0
  -28.0683  -31.8497   26.5493 H   0  0  0  0  0  0
  -28.2586  -38.0084   24.7511 H   0  0  0  0  0  0
  -28.1079  -36.2613   24.6304 H   0  0  0  0  0  0
  -27.2290  -37.1438   25.8870 H   0  0  0  0  0  0
  -20.9496  -29.8760   21.6760 H   0  0  0  0  0  0
  -26.0153  -38.2806   24.1405 H   0  0  0  0  0  0
  -31.7180  -17.7495   19.1720 H   0  0  0  0  0  0
  -28.3945  -23.9309   22.8299 H   0  0  0  0  0  0
  -28.0033  -25.6341   22.6734 H   0  0  0  0  0  0
  -29.5968  -25.0524   22.2096 H   0  0  0  0  0  0
  -26.3332  -23.3659   21.4620 H   0  0  0  0  0  0
  -26.1188  -24.0076   19.8606 H   0  0  0  0  0  0
  -25.9471  -25.0286   21.3034 H   0  0  0  0  0  0
  -28.5873  -23.0190   19.1583 H   0  0  0  0  0  0
  -29.8966  -23.3134   20.2383 H   0  0  0  0  0  0
  -28.8227  -15.9085   21.0101 H   0  0  0  0  0  0
  1 25  1  0  0  0
  1 30  2  0  0  0
  1 80  1  0  0  0
  2  3  1  0  0  0
  2 25  1  0  0  0
  2 84  1  0  0  0
  2 85  1  0  0  0
  3  4  1  0  0  0
  3 86  1  0  0  0
  3 87  1  0  0  0
  4  5  1  0  0  0
  4 88  1  0  0  0
  4 89  1  0  0  0
  5  6  1  0  0  0
  5 26  1  0  0  0
  5 90  1  0  0  0
  6 25  1  0  0  0
  6 91  1  0  0  0
  6 92  1  0  0  0
  7  8  2  0  0  0
  7 26  1  0  0  0
  7 29  1  0  0  0
  8  9  1  0  0  0
  8 22  1  0  0  0
  9 10  1  0  0  0
  9 27  2  0  0  0
 10 11  2  0  0  0
 10 15  1  0  0  0
 11 12  1  0  0  0
 11 93  1  0  0  0
 12 13  2  0  0  0
 12 94  1  0  0  0
 13 14  1  0  0  0
 13 31  1  0  0  0
 14 15  2  0  0  0
 14 95  1  0  0  0
 15 96  1  0  0  0
 16 17  2  0  0  0
 16 21  1  0  0  0
 16 31  1  0  0  0
 17 18  1  0  0  0
 17 97  1  0  0  0
 18 19  2  0  0  0
 18 98  1  0  0  0
 19 20  1  0  0  0
 19 24  1  0  0  0
 20 21  2  0  0  0
 20 99  1  0  0  0
 21 23  1  0  0  0
 22 28  1  0  0  0
 22 32  2  0  0  0
 26 27  1  0  0  0
 28100  1  0  0  0
 28101  1  0  0  0
 29102  1  0  0  0
 29103  1  0  0  0
 33 34  1  0  0  0
 33 66  1  0  0  0
 33 70  2  0  0  0
 34 36  1  0  0  0
 34 59  1  0  0  0
 34104  1  0  0  0
 35 44  2  0  0  0
 35 45  1  0  0  0
 35 68  1  0  0  0
 36 56  1  0  0  0
 36105  1  0  0  0
 37 39  1  0  0  0
 37 47  1  0  0  0
 37 66  1  0  0  0
 37106  1  0  0  0
 38 43  2  0  0  0
 38 46  1  0  0  0
 38 47  1  0  0  0
 39 64  1  0  0  0
 39 67  2  0  0  0
 40 52  1  0  0  0
 40 53  2  0  0  0
 40 58  1  0  0  0
 41107  1  0  0  0
 41108  1  0  0  0
 41109  1  0  0  0
 41 48  1  0  0  0
 42 43  1  0  0  0
 42 66  1  0  0  0
 42110  1  0  0  0
 42111  1  0  0  0
 43 44  1  0  0  0
 44112  1  0  0  0
 45 46  2  0  0  0
 45113  1  0  0  0
 46114  1  0  0  0
 47115  1  0  0  0
 47116  1  0  0  0
 48 56  1  0  0  0
 48 65  1  0  0  0
 48117  1  0  0  0
 49 50  1  0  0  0
 49 53  1  0  0  0
 49 64  1  0  0  0
 49118  1  0  0  0
 50 51  1  0  0  0
 50119  1  0  0  0
 50120  1  0  0  0
 51 52  1  0  0  0
 51121  1  0  0  0
 51122  1  0  0  0
 52123  1  0  0  0
 52124  1  0  0  0
 53 54  1  0  0  0
 54 55  2  0  0  0
 54125  1  0  0  0
 55 57  1  0  0  0
 55126  1  0  0  0
 56 69  2  0  0  0
 57 58  2  0  0  0
 57127  1  0  0  0
 58128  1  0  0  0
 59 60  1  0  0  0
 59 61  1  0  0  0
 59 62  1  0  0  0
 60129  1  0  0  0
 60130  1  0  0  0
 60131  1  0  0  0
 61132  1  0  0  0
 61133  1  0  0  0
 61134  1  0  0  0
 62135  1  0  0  0
 62136  1  0  0  0
 62137  1  0  0  0
 63 65  1  0  0  0
 63138  1  0  0  0
 63139  1  0  0  0
 63140  1  0  0  0
 64141  1  0  0  0
 65142  1  0  0  0
 68 79  1  0  0  0
 71 72  2  0  0  0
 71 83  1  0  0  0
 71143  1  0  0  0
 72 73  1  0  0  0
 72 80  1  0  0  0
 73 74  2  0  0  0
 73 82  1  0  0  0
 74 75  1  0  0  0
 74 83  1  0  0  0
 75 78  1  0  0  0
 75 81  2  0  0  0
 76144  1  0  0  0
 76145  1  0  0  0
 76146  1  0  0  0
 76 79  1  0  0  0
 77 79  1  0  0  0
 77147  1  0  0  0
 77148  1  0  0  0
 77149  1  0  0  0
 78 79  1  0  0  0
 78150  1  0  0  0
 78151  1  0  0  0
 80152  1  0  0  0
M  ISO  4   1 100  68 101  79 101  80 100
M  END
> <chiral flag>
0

> <version>
0

> <s_m_source_file>
/data/baiqing/PycharmProjects/Reinvent-master-3.2/result/LINK_invent/BTK/process_docking_weight1_custom_product_contain_oxygen_bond_distance_aromatic_linkinvent_7_9_3/rearranged_h_0184.sdf

> <i_m_source_file_index>
70

> <r_mmod_Potential_Energy-OPLS-2005>
572.349853515625

> <r_mmod_Stretch_Energy-OPLS-2005>
305.172454833984

> <r_mmod_Bend_Energy-OPLS-2005>
283.781219482422

> <r_mmod_Torsional_Energy-OPLS-2005>
217.924697875977

> <r_mmod_Improper_Torsional_Energy-OPLS-2005>
3.45325374603271

> <r_mmod_Van_der_Waal_Energy-OPLS-2005>
118.576019287109

> <r_mmod_Electrostatic_Energy-OPLS-2005>
-374.713226318359

> <r_mmod_Solvation_Energy-OPLS-2005>
-207.841430664062

> <b_mmod_Minimization_Converged-OPLS-2005>
0

> <r_mmod_RMS_Derivative-OPLS-2005>
0.4985331594944

$$$$
70
                    3D
 Structure written by MMmdl.
152160  0  0  1  0            999 V2000
  -30.6601  -14.5465   20.4884 C   0  0  0  0  0  0
  -30.4216  -12.3265   19.4435 C   0  0  0  0  0  0
  -29.5013  -12.4938   18.2156 C   0  0  0  0  0  0
  -28.0208  -12.3536   18.6226 C   0  0  0  0  0  0
  -27.6543  -13.2100   19.8652 C   0  0  2  0  0  0
  -28.6971  -13.0407   20.9945 C   0  0  0  0  0  0
  -25.2572  -13.8161   20.5659 C   0  0  0  0  0  0
  -24.1831  -13.0436   20.9175 C   0  0  0  0  0  0
  -24.6380  -11.6909   20.8725 C   0  0  0  0  0  0
  -23.9046  -10.4295   21.0406 C   0  0  0  0  0  0
  -24.3602   -9.4222   21.9185 C   0  0  0  0  0  0
  -23.6292   -8.2255   22.0753 C   0  0  0  0  0  0
  -22.4276   -8.0275   21.3547 C   0  0  0  0  0  0
  -21.9911   -9.0242   20.4643 C   0  0  0  0  0  0
  -22.7224  -10.2133   20.3056 C   0  0  0  0  0  0
  -21.6854   -6.0739   22.5277 C   0  0  0  0  0  0
  -21.4011   -6.5643   23.8206 C   0  0  0  0  0  0
  -21.3660   -5.6799   24.9170 C   0  0  0  0  0  0
  -21.6042   -4.3061   24.7229 C   0  0  0  0  0  0
  -21.8824   -3.8150   23.4348 C   0  0  0  0  0  0
  -21.9197   -4.6965   22.3400 C   0  0  0  0  0  0
  -22.7867  -13.5245   21.1845 C   0  0  0  0  0  0
  -22.1667   -4.2153   21.0981 F   0  0  0  0  0  0
  -21.5622   -3.4543   25.7746 F   0  0  0  0  0  0
  -30.0218  -13.3423   20.4327 N   0  0  0  0  0  0
  -26.2989  -12.9327   20.3311 N   0  0  0  0  0  0
  -25.9310  -11.6493   20.5746 N   0  0  0  0  0  0
  -22.0510  -12.8222   22.0394 N   0  0  0  0  0  0
  -25.4307  -15.1884   20.4061 N   0  0  0  0  0  0
  -31.8340  -14.6704   20.1231 O   0  0  0  0  0  0
  -21.6641   -6.8875   21.4242 O   0  0  0  0  0  0
  -22.3568  -14.5564   20.6711 O   0  0  0  0  0  0
  -24.6194  -31.8650   23.2063 C   0  0  0  0  0  0
  -25.9074  -32.4798   23.8378 C   0  0  1  0  0  0
  -27.2314  -27.3929   20.1001 C   0  0  0  0  0  0
  -25.5909  -33.8598   24.2301 N   0  0  0  0  0  0
  -23.4070  -30.4886   21.5482 C   0  0  2  0  0  0
  -24.8516  -28.9469   20.1170 C   0  0  0  0  0  0
  -22.7400  -29.4675   22.4986 C   0  0  0  0  0  0
  -18.0260  -28.1391   22.8518 C   0  0  0  0  0  0
  -24.1474  -36.7295   23.2625 C   0  0  0  0  0  0
  -25.9396  -30.8179   21.3629 C   0  0  0  0  0  0
  -26.0140  -29.4479   20.7142 C   0  0  0  0  0  0
  -27.2034  -28.6780   20.7020 C   0  0  0  0  0  0
  -26.0430  -26.9140   19.5011 C   0  0  0  0  0  0
  -24.8629  -27.6807   19.5099 C   0  0  0  0  0  0
  -23.6157  -29.8178   20.1648 C   0  0  0  0  0  0
  -25.4090  -36.3083   24.0329 C   0  0  1  0  0  0
  -20.5856  -28.3703   23.1328 C   0  0  2  0  0  0
  -20.6766  -26.9437   22.5438 C   0  0  0  0  0  0
  -19.5736  -26.6407   21.5243 C   0  0  0  0  0  0
  -18.1905  -26.7945   22.1637 C   0  0  0  0  0  0
  -19.1510  -28.8861   23.2922 C   0  0  0  0  0  0
  -18.9438  -30.1464   23.8939 C   0  0  0  0  0  0
  -17.6444  -30.6604   24.0583 C   0  0  0  0  0  0
  -25.9047  -34.9459   23.5116 C   0  0  0  0  0  0
  -16.5342  -29.9110   23.6341 C   0  0  0  0  0  0
  -16.7253  -28.6522   23.0375 C   0  0  0  0  0  0
  -26.4483  -31.6581   25.0721 C   0  0  0  0  0  0
  -25.3732  -31.3681   26.1456 C   0  0  0  0  0  0
  -27.0331  -30.3024   24.6124 C   0  0  0  0  0  0
  -27.6056  -32.4311   25.7490 C   0  0  0  0  0  0
  -27.5600  -37.1732   24.8414 C   0  0  0  0  0  0
  -21.4129  -29.3058   22.3714 N   0  0  0  0  0  0
  -26.4231  -37.3816   23.9485 N   0  0  0  0  0  0
  -24.6745  -31.0716   22.0981 N   0  0  0  0  0  0
  -23.4155  -28.8221   23.3047 O   0  0  0  0  0  0
  -28.4095  -26.6598   20.1275 O   0  0  0  0  0  0
  -26.5613  -34.8926   22.4680 O   0  0  0  0  0  0
  -23.5376  -32.1436   23.7436 O   0  0  0  0  0  0
  -29.8375  -19.4458   19.8909 C   0  0  0  0  0  0
  -30.8614  -18.7788   19.2389 C   0  0  0  0  0  0
  -30.0188  -16.9916   20.4102 C   0  0  0  0  0  0
  -29.4398  -20.8836   19.7956 C   0  0  0  0  0  0
  -28.2491  -24.1873   20.6023 C   0  0  0  0  0  0
  -28.3548  -21.5244   20.6915 C   0  0  0  0  0  0
  -27.7120  -22.8278   20.0927 C   0  0  0  0  0  0
  -28.4717  -25.3226   19.5646 C   0  0  0  0  0  0
  -30.9460  -17.4153   19.5421 N   0  0  0  0  0  0
  -31.7939  -19.2991   18.3366 N   0  0  0  0  0  0
  -29.8800  -15.6123   20.8101 N   0  0  0  0  0  0
  -29.9974  -21.6301   18.9848 O   0  0  0  0  0  0
  -28.4978  -24.3555   21.8007 O   0  0  0  0  0  0
  -28.9455  -18.3168   20.9193 S   0  0  0  0  0  0
  -31.4685  -12.4198   19.1478 H   0  0  0  0  0  0
  -30.3193  -11.3263   19.8660 H   0  0  0  0  0  0
  -29.7520  -11.7551   17.4527 H   0  0  0  0  0  0
  -29.6651  -13.4711   17.7594 H   0  0  0  0  0  0
  -27.8358  -11.2998   18.8320 H   0  0  0  0  0  0
  -27.3765  -12.6154   17.7825 H   0  0  0  0  0  0
  -27.6804  -14.2498   19.5395 H   0  0  0  0  0  0
  -28.6834  -12.0199   21.3794 H   0  0  0  0  0  0
  -28.4634  -13.6798   21.8475 H   0  0  0  0  0  0
  -25.2745   -9.5705   22.4764 H   0  0  0  0  0  0
  -24.0009   -7.4657   22.7486 H   0  0  0  0  0  0
  -21.0839   -8.8749   19.8950 H   0  0  0  0  0  0
  -22.3671  -10.9667   19.6167 H   0  0  0  0  0  0
  -21.2001   -7.6147   23.9713 H   0  0  0  0  0  0
  -21.1470   -6.0528   25.9078 H   0  0  0  0  0  0
  -22.0599   -2.7615   23.2853 H   0  0  0  0  0  0
  -22.4129  -11.9866   22.4745 H   0  0  0  0  0  0
  -21.1133  -13.1241   22.2608 H   0  0  0  0  0  0
  -24.6564  -15.8382   20.4897 H   0  0  0  0  0  0
  -26.2736  -15.6224   20.0504 H   0  0  0  0  0  0
  -26.7143  -32.5500   23.1138 H   0  0  0  0  0  0
  -25.0047  -33.9756   25.0441 H   0  0  0  0  0  0
  -22.7013  -31.3091   21.4038 H   0  0  0  0  0  0
  -23.3785  -35.9560   23.3136 H   0  0  0  0  0  0
  -24.3618  -36.9087   22.2075 H   0  0  0  0  0  0
  -23.7135  -37.6411   23.6760 H   0  0  0  0  0  0
  -26.0481  -31.5773   20.5880 H   0  0  0  0  0  0
  -26.8295  -30.8811   21.9768 H   0  0  0  0  0  0
  -28.1022  -29.0617   21.1654 H   0  0  0  0  0  0
  -25.9880  -25.9452   19.0302 H   0  0  0  0  0  0
  -23.9658  -27.2878   19.0507 H   0  0  0  0  0  0
  -23.7255  -30.5911   19.4043 H   0  0  0  0  0  0
  -22.7387  -29.2396   19.8683 H   0  0  0  0  0  0
  -25.1233  -36.1908   25.0809 H   0  0  0  0  0  0
  -20.9942  -28.3282   24.1454 H   0  0  0  0  0  0
  -20.5731  -26.2298   23.3624 H   0  0  0  0  0  0
  -21.6630  -26.7513   22.1203 H   0  0  0  0  0  0
  -19.6913  -25.6324   21.1257 H   0  0  0  0  0  0
  -19.6666  -27.3238   20.6794 H   0  0  0  0  0  0
  -17.4185  -26.6728   21.4021 H   0  0  0  0  0  0
  -18.0279  -26.0072   22.9012 H   0  0  0  0  0  0
  -19.7910  -30.7277   24.2327 H   0  0  0  0  0  0
  -17.4996  -31.6284   24.5177 H   0  0  0  0  0  0
  -15.5346  -30.3028   23.7651 H   0  0  0  0  0  0
  -15.8645  -28.0855   22.7098 H   0  0  0  0  0  0
  -24.5958  -30.6963   25.7805 H   0  0  0  0  0  0
  -24.8850  -32.2813   26.4866 H   0  0  0  0  0  0
  -25.8091  -30.8906   27.0238 H   0  0  0  0  0  0
  -26.2881  -29.6754   24.1217 H   0  0  0  0  0  0
  -27.4136  -29.7304   25.4600 H   0  0  0  0  0  0
  -27.8688  -30.4353   23.9253 H   0  0  0  0  0  0
  -27.2713  -33.3654   26.2019 H   0  0  0  0  0  0
  -28.3893  -32.6802   25.0320 H   0  0  0  0  0  0
  -28.0676  -31.8445   26.5441 H   0  0  0  0  0  0
  -28.2411  -38.0231   24.7805 H   0  0  0  0  0  0
  -28.1305  -36.2805   24.5798 H   0  0  0  0  0  0
  -27.2387  -37.0836   25.8806 H   0  0  0  0  0  0
  -20.9292  -29.8752   21.6909 H   0  0  0  0  0  0
  -26.0091  -38.2828   24.1720 H   0  0  0  0  0  0
  -28.7750  -21.7110   21.6795 H   0  0  0  0  0  0
  -27.5657  -20.7874   20.8324 H   0  0  0  0  0  0
  -27.7387  -22.8138   19.0033 H   0  0  0  0  0  0
  -26.6528  -22.8190   20.3502 H   0  0  0  0  0  0
  -27.8350  -25.1918   18.6923 H   0  0  0  0  0  0
  -29.4871  -25.1924   19.1897 H   0  0  0  0  0  0
  -31.8077  -20.2886   18.1038 H   0  0  0  0  0  0
  -32.5334  -18.7346   17.9332 H   0  0  0  0  0  0
  -28.9907  -15.3782   21.2210 H   0  0  0  0  0  0
  1 25  1  0  0  0
  1 30  2  0  0  0
  1 81  1  0  0  0
  2  3  1  0  0  0
  2 25  1  0  0  0
  2 85  1  0  0  0
  2 86  1  0  0  0
  3  4  1  0  0  0
  3 87  1  0  0  0
  3 88  1  0  0  0
  4  5  1  0  0  0
  4 89  1  0  0  0
  4 90  1  0  0  0
  5  6  1  0  0  0
  5 26  1  0  0  0
  5 91  1  0  0  0
  6 25  1  0  0  0
  6 92  1  0  0  0
  6 93  1  0  0  0
  7  8  2  0  0  0
  7 26  1  0  0  0
  7 29  1  0  0  0
  8  9  1  0  0  0
  8 22  1  0  0  0
  9 10  1  0  0  0
  9 27  2  0  0  0
 10 11  2  0  0  0
 10 15  1  0  0  0
 11 12  1  0  0  0
 11 94  1  0  0  0
 12 13  2  0  0  0
 12 95  1  0  0  0
 13 14  1  0  0  0
 13 31  1  0  0  0
 14 15  2  0  0  0
 14 96  1  0  0  0
 15 97  1  0  0  0
 16 17  2  0  0  0
 16 21  1  0  0  0
 16 31  1  0  0  0
 17 18  1  0  0  0
 17 98  1  0  0  0
 18 19  2  0  0  0
 18 99  1  0  0  0
 19 20  1  0  0  0
 19 24  1  0  0  0
 20 21  2  0  0  0
 20100  1  0  0  0
 21 23  1  0  0  0
 22 28  1  0  0  0
 22 32  2  0  0  0
 26 27  1  0  0  0
 28101  1  0  0  0
 28102  1  0  0  0
 29103  1  0  0  0
 29104  1  0  0  0
 33 34  1  0  0  0
 33 66  1  0  0  0
 33 70  2  0  0  0
 34 36  1  0  0  0
 34 59  1  0  0  0
 34105  1  0  0  0
 35 44  2  0  0  0
 35 45  1  0  0  0
 35 68  1  0  0  0
 36 56  1  0  0  0
 36106  1  0  0  0
 37 39  1  0  0  0
 37 47  1  0  0  0
 37 66  1  0  0  0
 37107  1  0  0  0
 38 43  2  0  0  0
 38 46  1  0  0  0
 38 47  1  0  0  0
 39 64  1  0  0  0
 39 67  2  0  0  0
 40 52  1  0  0  0
 40 53  2  0  0  0
 40 58  1  0  0  0
 41108  1  0  0  0
 41109  1  0  0  0
 41110  1  0  0  0
 41 48  1  0  0  0
 42 43  1  0  0  0
 42 66  1  0  0  0
 42111  1  0  0  0
 42112  1  0  0  0
 43 44  1  0  0  0
 44113  1  0  0  0
 45 46  2  0  0  0
 45114  1  0  0  0
 46115  1  0  0  0
 47116  1  0  0  0
 47117  1  0  0  0
 48 56  1  0  0  0
 48 65  1  0  0  0
 48118  1  0  0  0
 49 50  1  0  0  0
 49 53  1  0  0  0
 49 64  1  0  0  0
 49119  1  0  0  0
 50 51  1  0  0  0
 50120  1  0  0  0
 50121  1  0  0  0
 51 52  1  0  0  0
 51122  1  0  0  0
 51123  1  0  0  0
 52124  1  0  0  0
 52125  1  0  0  0
 53 54  1  0  0  0
 54 55  2  0  0  0
 54126  1  0  0  0
 55 57  1  0  0  0
 55127  1  0  0  0
 56 69  2  0  0  0
 57 58  2  0  0  0
 57128  1  0  0  0
 58129  1  0  0  0
 59 60  1  0  0  0
 59 61  1  0  0  0
 59 62  1  0  0  0
 60130  1  0  0  0
 60131  1  0  0  0
 60132  1  0  0  0
 61133  1  0  0  0
 61134  1  0  0  0
 61135  1  0  0  0
 62136  1  0  0  0
 62137  1  0  0  0
 62138  1  0  0  0
 63 65  1  0  0  0
 63139  1  0  0  0
 63140  1  0  0  0
 63141  1  0  0  0
 64142  1  0  0  0
 65143  1  0  0  0
 68 78  1  0  0  0
 71 72  2  0  0  0
 71 74  1  0  0  0
 71 84  1  0  0  0
 72 79  1  0  0  0
 72 80  1  0  0  0
 73 79  2  0  0  0
 73 81  1  0  0  0
 73 84  1  0  0  0
 74 76  1  0  0  0
 74 82  2  0  0  0
 75 77  1  0  0  0
 75 78  1  0  0  0
 75 83  2  0  0  0
 76 77  1  0  0  0
 76144  1  0  0  0
 76145  1  0  0  0
 77146  1  0  0  0
 77147  1  0  0  0
 78148  1  0  0  0
 78149  1  0  0  0
 80150  1  0  0  0
 80151  1  0  0  0
 81152  1  0  0  0
M  ISO  4   1 100  68 101  78 101  81 100
M  END
> <chiral flag>
0

> <version>
0

> <s_m_source_file>
/data/baiqing/PycharmProjects/Reinvent-master-3.2/result/LINK_invent/BTK/process_docking_weight1_custom_product_contain_oxygen_bond_distance_aromatic_linkinvent_7_9_3/rearranged_h_0184.sdf

> <i_m_source_file_index>
71

> <r_mmod_Potential_Energy-OPLS-2005>
-172.238067626953

> <r_mmod_Stretch_Energy-OPLS-2005>
47.105655670166

> <r_mmod_Bend_Energy-OPLS-2005>
127.137084960938

> <r_mmod_Torsional_Energy-OPLS-2005>
200.840667724609

> <r_mmod_Improper_Torsional_Energy-OPLS-2005>
4.59500551223755

> <r_mmod_Van_der_Waal_Energy-OPLS-2005>
131.034408569336

> <r_mmod_Electrostatic_Energy-OPLS-2005>
-443.142639160156

> <r_mmod_Solvation_Energy-OPLS-2005>
-263.587982177734

> <b_mmod_Minimization_Converged-OPLS-2005>
0

> <r_mmod_RMS_Derivative-OPLS-2005>
2.30391216278076

$$$$
71
                    3D
 Structure written by MMmdl.
157165  0  0  1  0            999 V2000
  -30.5951  -14.7457   20.4733 C   0  0  0  0  0  0
  -30.4364  -12.4538   19.4838 C   0  0  0  0  0  0
  -29.5150  -12.5216   18.2442 C   0  0  0  0  0  0
  -28.0398  -12.3442   18.6514 C   0  0  0  0  0  0
  -27.6481  -13.2319   19.8623 C   0  0  2  0  0  0
  -28.6891  -13.1420   21.0012 C   0  0  0  0  0  0
  -25.2529  -13.8198   20.5699 C   0  0  0  0  0  0
  -24.1813  -13.0446   20.9195 C   0  0  0  0  0  0
  -24.6397  -11.6919   20.8732 C   0  0  0  0  0  0
  -23.9069  -10.4297   21.0397 C   0  0  0  0  0  0
  -24.3619   -9.4212   21.9178 C   0  0  0  0  0  0
  -23.6296   -8.2246   22.0751 C   0  0  0  0  0  0
  -22.4278   -8.0283   21.3542 C   0  0  0  0  0  0
  -21.9910   -9.0255   20.4644 C   0  0  0  0  0  0
  -22.7237  -10.2137   20.3051 C   0  0  0  0  0  0
  -21.6854   -6.0737   22.5278 C   0  0  0  0  0  0
  -21.4018   -6.5641   23.8212 C   0  0  0  0  0  0
  -21.3660   -5.6792   24.9173 C   0  0  0  0  0  0
  -21.6045   -4.3055   24.7222 C   0  0  0  0  0  0
  -21.8820   -3.8148   23.4343 C   0  0  0  0  0  0
  -21.9195   -4.6964   22.3401 C   0  0  0  0  0  0
  -22.7833  -13.5226   21.1862 C   0  0  0  0  0  0
  -22.1663   -4.2150   21.0978 F   0  0  0  0  0  0
  -21.5625   -3.4539   25.7735 F   0  0  0  0  0  0
  -29.9982  -13.5023   20.4376 N   0  0  0  0  0  0
  -26.2966  -12.9406   20.3317 N   0  0  0  0  0  0
  -25.9333  -11.6544   20.5753 N   0  0  0  0  0  0
  -22.0483  -12.8214   22.0419 N   0  0  0  0  0  0
  -25.4239  -15.1924   20.4135 N   0  0  0  0  0  0
  -31.7432  -14.8874   20.0407 O   0  0  0  0  0  0
  -21.6641   -6.8881   21.4240 O   0  0  0  0  0  0
  -22.3513  -14.5534   20.6715 O   0  0  0  0  0  0
  -24.6319  -31.8542   23.1977 C   0  0  0  0  0  0
  -25.9141  -32.4751   23.8330 C   0  0  1  0  0  0
  -27.2158  -27.2514   20.1428 C   0  0  0  0  0  0
  -25.5936  -33.8554   24.2253 N   0  0  0  0  0  0
  -23.4311  -30.4748   21.5402 C   0  0  2  0  0  0
  -24.8823  -28.9239   20.1040 C   0  0  0  0  0  0
  -22.7518  -29.4580   22.4897 C   0  0  0  0  0  0
  -18.0294  -28.1392   22.8483 C   0  0  0  0  0  0
  -24.1491  -36.7278   23.2640 C   0  0  0  0  0  0
  -25.9771  -30.7632   21.3821 C   0  0  0  0  0  0
  -26.0511  -29.3850   20.7245 C   0  0  0  0  0  0
  -27.2234  -28.5600   20.7352 C   0  0  0  0  0  0
  -26.0408  -26.8757   19.4585 C   0  0  0  0  0  0
  -24.8827  -27.6780   19.4572 C   0  0  0  0  0  0
  -23.6514  -29.8098   20.1553 C   0  0  0  0  0  0
  -25.4119  -36.3069   24.0327 C   0  0  1  0  0  0
  -20.5899  -28.3697   23.1261 C   0  0  2  0  0  0
  -20.6774  -26.9408   22.5406 C   0  0  0  0  0  0
  -19.5749  -26.6379   21.5209 C   0  0  0  0  0  0
  -18.1931  -26.7930   22.1626 C   0  0  0  0  0  0
  -19.1550  -28.8864   23.2863 C   0  0  0  0  0  0
  -18.9471  -30.1466   23.8883 C   0  0  0  0  0  0
  -17.6469  -30.6589   24.0564 C   0  0  0  0  0  0
  -25.9058  -34.9439   23.5093 C   0  0  0  0  0  0
  -16.5357  -29.9087   23.6337 C   0  0  0  0  0  0
  -16.7281  -28.6505   23.0358 C   0  0  0  0  0  0
  -26.4505  -31.6577   25.0723 C   0  0  0  0  0  0
  -25.3721  -31.3728   26.1437 C   0  0  0  0  0  0
  -27.0356  -30.2992   24.6222 C   0  0  0  0  0  0
  -27.6062  -32.4318   25.7492 C   0  0  0  0  0  0
  -27.5581  -37.1798   24.8467 C   0  0  0  0  0  0
  -21.4222  -29.3032   22.3644 N   0  0  0  0  0  0
  -26.4293  -37.3769   23.9406 N   0  0  0  0  0  0
  -24.6987  -31.0496   22.0958 N   0  0  0  0  0  0
  -23.4212  -28.8127   23.3007 O   0  0  0  0  0  0
  -28.2684  -26.3052   20.2216 O   0  0  0  0  0  0
  -26.5632  -34.8912   22.4664 O   0  0  0  0  0  0
  -23.5465  -32.1366   23.7263 O   0  0  0  0  0  0
  -29.8776  -18.4158   20.9543 C   0  0  0  0  0  0
  -29.3776  -19.5676   20.1680 C   0  0  0  0  0  0
  -28.8006  -19.1003   19.0118 C   0  0  0  0  0  0
  -29.6908  -17.1234   20.4113 C   0  0  0  0  0  0
  -28.6915  -23.6220   20.2585 C   0  0  0  0  0  0
  -28.1805  -19.9012   17.9128 C   0  0  0  0  0  0
  -26.6654  -24.8132   21.5662 C   0  0  0  0  0  0
  -28.4132  -22.0322   20.6865 C   0  0  2  0  0  0
  -28.0770  -24.9722   20.9475 C   0  0  2  0  0  0
  -27.8064  -21.8432   22.1079 C   0  0  0  0  0  0
  -29.5232  -20.9958   20.4970 N   0  0  0  0  0  0
  -29.8635  -15.8288   20.9382 N   0  0  0  0  0  0
  -29.4562  -23.8214   19.3082 O   0  0  0  0  0  0
  -27.9695  -20.5932   22.5492 F   0  0  0  0  0  0
  -28.3922  -22.6520   22.9909 F   0  0  0  0  0  0
  -26.4923  -22.0530   22.0862 F   0  0  0  0  0  0
  -28.8888  -17.3435   18.8711 S   0  0  0  0  0  0
  -31.4784  -12.5776   19.1840 H   0  0  0  0  0  0
  -30.3792  -11.4697   19.9518 H   0  0  0  0  0  0
  -29.7976  -11.7558   17.5207 H   0  0  0  0  0  0
  -29.6454  -13.4812   17.7412 H   0  0  0  0  0  0
  -27.8925  -11.2929   18.9021 H   0  0  0  0  0  0
  -27.3843  -12.5486   17.8039 H   0  0  0  0  0  0
  -27.6511  -14.2595   19.4977 H   0  0  0  0  0  0
  -28.7191  -12.1344   21.4185 H   0  0  0  0  0  0
  -28.4144  -13.8000   21.8266 H   0  0  0  0  0  0
  -25.2761   -9.5693   22.4753 H   0  0  0  0  0  0
  -24.0008   -7.4637   22.7468 H   0  0  0  0  0  0
  -21.0840   -8.8769   19.8948 H   0  0  0  0  0  0
  -22.3689  -10.9674   19.6161 H   0  0  0  0  0  0
  -21.2014   -7.6150   23.9717 H   0  0  0  0  0  0
  -21.1482   -6.0522   25.9078 H   0  0  0  0  0  0
  -22.0598   -2.7609   23.2841 H   0  0  0  0  0  0
  -22.4104  -11.9877   22.4804 H   0  0  0  0  0  0
  -21.1099  -13.1235   22.2630 H   0  0  0  0  0  0
  -24.6573  -15.8465   20.5261 H   0  0  0  0  0  0
  -26.2756  -15.6325   20.0897 H   0  0  0  0  0  0
  -26.7212  -32.5405   23.1075 H   0  0  0  0  0  0
  -25.0088  -33.9689   25.0403 H   0  0  0  0  0  0
  -22.7279  -31.2971   21.3936 H   0  0  0  0  0  0
  -23.3758  -35.9606   23.3300 H   0  0  0  0  0  0
  -24.3576  -36.8901   22.2054 H   0  0  0  0  0  0
  -23.7238  -37.6476   23.6664 H   0  0  0  0  0  0
  -26.1194  -31.5238   20.6133 H   0  0  0  0  0  0
  -26.8534  -30.8122   22.0168 H   0  0  0  0  0  0
  -28.1138  -28.8995   21.2456 H   0  0  0  0  0  0
  -26.0003  -25.9149   18.9651 H   0  0  0  0  0  0
  -23.9920  -27.3234   18.9571 H   0  0  0  0  0  0
  -23.7757  -30.5877   19.4008 H   0  0  0  0  0  0
  -22.7702  -29.2428   19.8498 H   0  0  0  0  0  0
  -25.1302  -36.1919   25.0822 H   0  0  0  0  0  0
  -20.9989  -28.3277   24.1381 H   0  0  0  0  0  0
  -20.5668  -26.2305   23.3612 H   0  0  0  0  0  0
  -21.6644  -26.7431   22.1206 H   0  0  0  0  0  0
  -19.6907  -25.6291   21.1232 H   0  0  0  0  0  0
  -19.6682  -27.3187   20.6739 H   0  0  0  0  0  0
  -17.4198  -26.6686   21.4030 H   0  0  0  0  0  0
  -18.0327  -26.0077   22.9026 H   0  0  0  0  0  0
  -19.7948  -30.7288   24.2244 H   0  0  0  0  0  0
  -17.5022  -31.6271   24.5164 H   0  0  0  0  0  0
  -15.5357  -30.2988   23.7668 H   0  0  0  0  0  0
  -15.8679  -28.0826   22.7079 H   0  0  0  0  0  0
  -24.5912  -30.7061   25.7761 H   0  0  0  0  0  0
  -24.8891  -32.2891   26.4839 H   0  0  0  0  0  0
  -25.8031  -30.8924   27.0230 H   0  0  0  0  0  0
  -26.2947  -29.6734   24.1234 H   0  0  0  0  0  0
  -27.4019  -29.7264   25.4750 H   0  0  0  0  0  0
  -27.8830  -30.4260   23.9482 H   0  0  0  0  0  0
  -27.2683  -33.3631   26.2048 H   0  0  0  0  0  0
  -28.3880  -32.6857   25.0322 H   0  0  0  0  0  0
  -28.0721  -31.8455   26.5421 H   0  0  0  0  0  0
  -28.2604  -38.0092   24.7515 H   0  0  0  0  0  0
  -28.1074  -36.2623   24.6297 H   0  0  0  0  0  0
  -27.2295  -37.1450   25.8871 H   0  0  0  0  0  0
  -20.9410  -29.8759   21.6852 H   0  0  0  0  0  0
  -26.0172  -38.2845   24.1403 H   0  0  0  0  0  0
  -30.3434  -18.5785   21.9155 H   0  0  0  0  0  0
  -27.1263  -20.0880   18.1172 H   0  0  0  0  0  0
  -28.2502  -19.3792   16.9584 H   0  0  0  0  0  0
  -28.6781  -20.8643   17.7965 H   0  0  0  0  0  0
  -25.9679  -24.3226   20.8876 H   0  0  0  0  0  0
  -26.7014  -24.2688   22.5031 H   0  0  0  0  0  0
  -26.2240  -25.7567   21.8807 H   0  0  0  0  0  0
  -27.6350  -21.6887   20.0053 H   0  0  0  0  0  0
  -28.7278  -25.1059   21.8119 H   0  0  0  0  0  0
  -30.2518  -21.1548   21.1845 H   0  0  0  0  0  0
  -29.0687  -15.5192   21.4784 H   0  0  0  0  0  0
  1 25  1  0  0  0
  1 30  2  0  0  0
  1 82  1  0  0  0
  2  3  1  0  0  0
  2 25  1  0  0  0
  2 88  1  0  0  0
  2 89  1  0  0  0
  3  4  1  0  0  0
  3 90  1  0  0  0
  3 91  1  0  0  0
  4  5  1  0  0  0
  4 92  1  0  0  0
  4 93  1  0  0  0
  5  6  1  0  0  0
  5 26  1  0  0  0
  5 94  1  0  0  0
  6 25  1  0  0  0
  6 95  1  0  0  0
  6 96  1  0  0  0
  7  8  2  0  0  0
  7 26  1  0  0  0
  7 29  1  0  0  0
  8  9  1  0  0  0
  8 22  1  0  0  0
  9 10  1  0  0  0
  9 27  2  0  0  0
 10 11  2  0  0  0
 10 15  1  0  0  0
 11 12  1  0  0  0
 11 97  1  0  0  0
 12 13  2  0  0  0
 12 98  1  0  0  0
 13 14  1  0  0  0
 13 31  1  0  0  0
 14 15  2  0  0  0
 14 99  1  0  0  0
 15100  1  0  0  0
 16 17  2  0  0  0
 16 21  1  0  0  0
 16 31  1  0  0  0
 17 18  1  0  0  0
 17101  1  0  0  0
 18 19  2  0  0  0
 18102  1  0  0  0
 19 20  1  0  0  0
 19 24  1  0  0  0
 20 21  2  0  0  0
 20103  1  0  0  0
 21 23  1  0  0  0
 22 28  1  0  0  0
 22 32  2  0  0  0
 26 27  1  0  0  0
 28104  1  0  0  0
 28105  1  0  0  0
 29106  1  0  0  0
 29107  1  0  0  0
 33 34  1  0  0  0
 33 66  1  0  0  0
 33 70  2  0  0  0
 34 36  1  0  0  0
 34 59  1  0  0  0
 34108  1  0  0  0
 35 44  2  0  0  0
 35 45  1  0  0  0
 35 68  1  0  0  0
 36 56  1  0  0  0
 36109  1  0  0  0
 37 39  1  0  0  0
 37 47  1  0  0  0
 37 66  1  0  0  0
 37110  1  0  0  0
 38 43  2  0  0  0
 38 46  1  0  0  0
 38 47  1  0  0  0
 39 64  1  0  0  0
 39 67  2  0  0  0
 40 52  1  0  0  0
 40 53  2  0  0  0
 40 58  1  0  0  0
 41111  1  0  0  0
 41112  1  0  0  0
 41113  1  0  0  0
 41 48  1  0  0  0
 42 43  1  0  0  0
 42 66  1  0  0  0
 42114  1  0  0  0
 42115  1  0  0  0
 43 44  1  0  0  0
 44116  1  0  0  0
 45 46  2  0  0  0
 45117  1  0  0  0
 46118  1  0  0  0
 47119  1  0  0  0
 47120  1  0  0  0
 48 56  1  0  0  0
 48 65  1  0  0  0
 48121  1  0  0  0
 49 50  1  0  0  0
 49 53  1  0  0  0
 49 64  1  0  0  0
 49122  1  0  0  0
 50 51  1  0  0  0
 50123  1  0  0  0
 50124  1  0  0  0
 51 52  1  0  0  0
 51125  1  0  0  0
 51126  1  0  0  0
 52127  1  0  0  0
 52128  1  0  0  0
 53 54  1  0  0  0
 54 55  2  0  0  0
 54129  1  0  0  0
 55 57  1  0  0  0
 55130  1  0  0  0
 56 69  2  0  0  0
 57 58  2  0  0  0
 57131  1  0  0  0
 58132  1  0  0  0
 59 60  1  0  0  0
 59 61  1  0  0  0
 59 62  1  0  0  0
 60133  1  0  0  0
 60134  1  0  0  0
 60135  1  0  0  0
 61136  1  0  0  0
 61137  1  0  0  0
 61138  1  0  0  0
 62139  1  0  0  0
 62140  1  0  0  0
 62141  1  0  0  0
 63 65  1  0  0  0
 63142  1  0  0  0
 63143  1  0  0  0
 63144  1  0  0  0
 64145  1  0  0  0
 65146  1  0  0  0
 68 79  1  0  0  0
 71 72  1  0  0  0
 71 74  2  0  0  0
 71147  1  0  0  0
 72 73  2  0  0  0
 72 81  1  0  0  0
 73 76  1  0  0  0
 73 87  1  0  0  0
 74 82  1  0  0  0
 74 87  1  0  0  0
 75 78  1  0  0  0
 75 79  1  0  0  0
 75 83  2  0  0  0
 76148  1  0  0  0
 76149  1  0  0  0
 76150  1  0  0  0
 77151  1  0  0  0
 77152  1  0  0  0
 77153  1  0  0  0
 77 79  1  0  0  0
 78 80  1  0  0  0
 78 81  1  0  0  0
 78154  1  0  0  0
 79155  1  0  0  0
 80 84  1  0  0  0
 80 85  1  0  0  0
 80 86  1  0  0  0
 81156  1  0  0  0
 82157  1  0  0  0
M  ISO  4   1 100  68 101  79 101  82 100
M  END
> <chiral flag>
0

> <version>
0

> <s_m_source_file>
/data/baiqing/PycharmProjects/Reinvent-master-3.2/result/LINK_invent/BTK/process_docking_weight1_custom_product_contain_oxygen_bond_distance_aromatic_linkinvent_7_9_3/rearranged_h_0184.sdf

> <i_m_source_file_index>
72

> <r_mmod_Potential_Energy-OPLS-2005>
287.010131835938

> <r_mmod_Stretch_Energy-OPLS-2005>
149.194046020508

> <r_mmod_Bend_Energy-OPLS-2005>
194.565048217773

> <r_mmod_Torsional_Energy-OPLS-2005>
286.853698730469

> <r_mmod_Improper_Torsional_Energy-OPLS-2005>
8.51396751403809

> <r_mmod_Van_der_Waal_Energy-OPLS-2005>
125.35376739502

> <r_mmod_Electrostatic_Energy-OPLS-2005>
-338.873443603516

> <r_mmod_Solvation_Energy-OPLS-2005>
-231.904571533203

> <b_mmod_Minimization_Converged-OPLS-2005>
0

> <r_mmod_RMS_Derivative-OPLS-2005>
0.6001957654953

$$$$
72
                    3D
 Structure written by MMmdl.
153161  0  0  1  0            999 V2000
  -30.5892  -14.7760   20.4334 C   0  0  0  0  0  0
  -30.4306  -12.4660   19.4863 C   0  0  0  0  0  0
  -29.5139  -12.5147   18.2433 C   0  0  0  0  0  0
  -28.0407  -12.3302   18.6535 C   0  0  0  0  0  0
  -27.6405  -13.2337   19.8507 C   0  0  2  0  0  0
  -28.6821  -13.1793   20.9905 C   0  0  0  0  0  0
  -25.2502  -13.8198   20.5681 C   0  0  0  0  0  0
  -24.1797  -13.0445   20.9200 C   0  0  0  0  0  0
  -24.6392  -11.6923   20.8743 C   0  0  0  0  0  0
  -23.9073  -10.4298   21.0406 C   0  0  0  0  0  0
  -24.3623   -9.4211   21.9184 C   0  0  0  0  0  0
  -23.6298   -8.2248   22.0756 C   0  0  0  0  0  0
  -22.4278   -8.0284   21.3545 C   0  0  0  0  0  0
  -21.9916   -9.0255   20.4647 C   0  0  0  0  0  0
  -22.7243  -10.2136   20.3057 C   0  0  0  0  0  0
  -21.6858   -6.0738   22.5281 C   0  0  0  0  0  0
  -21.4017   -6.5639   23.8215 C   0  0  0  0  0  0
  -21.3666   -5.6793   24.9178 C   0  0  0  0  0  0
  -21.6048   -4.3055   24.7229 C   0  0  0  0  0  0
  -21.8821   -3.8147   23.4352 C   0  0  0  0  0  0
  -21.9191   -4.6963   22.3406 C   0  0  0  0  0  0
  -22.7816  -13.5222   21.1865 C   0  0  0  0  0  0
  -22.1660   -4.2148   21.0983 F   0  0  0  0  0  0
  -21.5632   -3.4540   25.7742 F   0  0  0  0  0  0
  -29.9846  -13.5353   20.4132 N   0  0  0  0  0  0
  -26.2929  -12.9406   20.3274 N   0  0  0  0  0  0
  -25.9321  -11.6550   20.5745 N   0  0  0  0  0  0
  -22.0470  -12.8209   22.0423 N   0  0  0  0  0  0
  -25.4188  -15.1929   20.4089 N   0  0  0  0  0  0
  -31.7734  -14.8677   20.0936 O   0  0  0  0  0  0
  -21.6648   -6.8876   21.4238 O   0  0  0  0  0  0
  -22.3494  -14.5526   20.6710 O   0  0  0  0  0  0
  -24.6318  -31.8536   23.1936 C   0  0  0  0  0  0
  -25.9139  -32.4742   23.8292 C   0  0  1  0  0  0
  -27.2244  -27.2486   20.1202 C   0  0  0  0  0  0
  -25.5936  -33.8547   24.2230 N   0  0  0  0  0  0
  -23.4273  -30.4730   21.5388 C   0  0  2  0  0  0
  -24.8720  -28.9107   20.1071 C   0  0  0  0  0  0
  -22.7498  -29.4595   22.4921 C   0  0  0  0  0  0
  -18.0293  -28.1379   22.8485 C   0  0  0  0  0  0
  -24.1492  -36.7271   23.2642 C   0  0  0  0  0  0
  -25.9718  -30.7622   21.3704 C   0  0  0  0  0  0
  -26.0427  -29.3826   20.7116 C   0  0  0  0  0  0
  -27.2164  -28.5639   20.7030 C   0  0  0  0  0  0
  -26.0211  -26.8306   19.5151 C   0  0  0  0  0  0
  -24.8672  -27.6435   19.4993 C   0  0  0  0  0  0
  -23.6425  -29.7999   20.1559 C   0  0  0  0  0  0
  -25.4121  -36.3065   24.0325 C   0  0  1  0  0  0
  -20.5894  -28.3693   23.1277 C   0  0  2  0  0  0
  -20.6779  -26.9412   22.5412 C   0  0  0  0  0  0
  -19.5754  -26.6382   21.5217 C   0  0  0  0  0  0
  -18.1934  -26.7921   22.1627 C   0  0  0  0  0  0
  -19.1544  -28.8853   23.2874 C   0  0  0  0  0  0
  -18.9469  -30.1455   23.8891 C   0  0  0  0  0  0
  -17.6465  -30.6581   24.0558 C   0  0  0  0  0  0
  -25.9065  -34.9439   23.5086 C   0  0  0  0  0  0
  -16.5358  -29.9074   23.6326 C   0  0  0  0  0  0
  -16.7278  -28.6492   23.0349 C   0  0  0  0  0  0
  -26.4502  -31.6564   25.0683 C   0  0  0  0  0  0
  -25.3721  -31.3718   26.1400 C   0  0  0  0  0  0
  -27.0352  -30.2981   24.6167 C   0  0  0  0  0  0
  -27.6053  -32.4307   25.7465 C   0  0  0  0  0  0
  -27.5581  -37.1793   24.8468 C   0  0  0  0  0  0
  -21.4208  -29.3039   22.3665 N   0  0  0  0  0  0
  -26.4293  -37.3766   23.9412 N   0  0  0  0  0  0
  -24.6963  -31.0491   22.0908 N   0  0  0  0  0  0
  -23.4201  -28.8150   23.3030 O   0  0  0  0  0  0
  -28.3632  -26.4106   20.2007 O   0  0  0  0  0  0
  -26.5645  -34.8925   22.4659 O   0  0  0  0  0  0
  -23.5469  -32.1373   23.7232 O   0  0  0  0  0  0
  -30.4635  -19.4728   19.0145 C   0  0  0  0  0  0
  -29.5345  -19.6786   20.0262 C   0  0  0  0  0  0
  -29.9806  -17.3173   20.2526 C   0  0  0  0  0  0
  -29.2390  -22.3189   20.1226 C   0  0  0  0  0  0
  -30.9570  -20.4069   17.9532 C   0  0  0  0  0  0
  -28.3073  -24.9662   18.1167 C   0  0  0  0  0  0
  -28.2764  -23.5968   20.3709 C   0  0  0  0  0  0
  -28.5866  -25.0242   19.6301 C   0  0  2  0  0  0
  -29.2449  -18.4082   20.6761 N   0  0  0  0  0  0
  -28.8427  -20.9861   20.2839 N   0  0  0  0  0  0
  -29.8123  -15.9044   20.6922 N   0  0  0  0  0  0
  -30.4080  -22.5826   19.8397 O   0  0  0  0  0  0
  -31.0880  -17.8190   18.9805 S   0  0  0  0  0  0
  -31.4741  -12.5822   19.1890 H   0  0  0  0  0  0
  -30.3679  -11.4914   19.9731 H   0  0  0  0  0  0
  -29.8024  -11.7453   17.5258 H   0  0  0  0  0  0
  -29.6363  -13.4716   17.7330 H   0  0  0  0  0  0
  -27.9035  -11.2812   18.9196 H   0  0  0  0  0  0
  -27.3843  -12.5143   17.8021 H   0  0  0  0  0  0
  -27.6312  -14.2527   19.4630 H   0  0  0  0  0  0
  -28.7201  -12.1852   21.4389 H   0  0  0  0  0  0
  -28.4090  -13.8643   21.7951 H   0  0  0  0  0  0
  -25.2770   -9.5692   22.4754 H   0  0  0  0  0  0
  -24.0011   -7.4645   22.7477 H   0  0  0  0  0  0
  -21.0851   -8.8773   19.8947 H   0  0  0  0  0  0
  -22.3702  -10.9673   19.6166 H   0  0  0  0  0  0
  -21.2007   -7.6148   23.9716 H   0  0  0  0  0  0
  -21.1486   -6.0525   25.9079 H   0  0  0  0  0  0
  -22.0590   -2.7608   23.2856 H   0  0  0  0  0  0
  -22.4095  -11.9873   22.4807 H   0  0  0  0  0  0
  -21.1084  -13.1220   22.2631 H   0  0  0  0  0  0
  -24.6464  -15.8426   20.5096 H   0  0  0  0  0  0
  -26.2627  -15.6356   20.0694 H   0  0  0  0  0  0
  -26.7193  -32.5381   23.1018 H   0  0  0  0  0  0
  -25.0066  -33.9679   25.0365 H   0  0  0  0  0  0
  -22.7230  -31.2941   21.3907 H   0  0  0  0  0  0
  -23.3767  -35.9589   23.3294 H   0  0  0  0  0  0
  -24.3577  -36.8908   22.2058 H   0  0  0  0  0  0
  -23.7229  -37.6464   23.6670 H   0  0  0  0  0  0
  -26.1091  -31.5220   20.5997 H   0  0  0  0  0  0
  -26.8501  -30.8125   22.0028 H   0  0  0  0  0  0
  -28.1158  -28.9241   21.1824 H   0  0  0  0  0  0
  -25.9358  -25.8457   19.0879 H   0  0  0  0  0  0
  -23.9646  -27.2692   19.0365 H   0  0  0  0  0  0
  -23.7608  -30.5735   19.3959 H   0  0  0  0  0  0
  -22.7599  -29.2308   19.8577 H   0  0  0  0  0  0
  -25.1304  -36.1907   25.0816 H   0  0  0  0  0  0
  -20.9990  -28.3269   24.1398 H   0  0  0  0  0  0
  -20.5685  -26.2307   23.3618 H   0  0  0  0  0  0
  -21.6645  -26.7432   22.1208 H   0  0  0  0  0  0
  -19.6918  -25.6296   21.1242 H   0  0  0  0  0  0
  -19.6685  -27.3198   20.6752 H   0  0  0  0  0  0
  -17.4209  -26.6680   21.4024 H   0  0  0  0  0  0
  -18.0320  -26.0059   22.9018 H   0  0  0  0  0  0
  -19.7945  -30.7272   24.2262 H   0  0  0  0  0  0
  -17.5017  -31.6263   24.5155 H   0  0  0  0  0  0
  -15.5356  -30.2971   23.7651 H   0  0  0  0  0  0
  -15.8684  -28.0806   22.7063 H   0  0  0  0  0  0
  -24.5902  -30.7061   25.7722 H   0  0  0  0  0  0
  -24.8905  -32.2890   26.4798 H   0  0  0  0  0  0
  -25.8034  -30.8910   27.0187 H   0  0  0  0  0  0
  -26.2930  -29.6718   24.1201 H   0  0  0  0  0  0
  -27.4050  -29.7250   25.4678 H   0  0  0  0  0  0
  -27.8793  -30.4255   23.9388 H   0  0  0  0  0  0
  -27.2653  -33.3614   26.2014 H   0  0  0  0  0  0
  -28.3873  -32.6854   25.0301 H   0  0  0  0  0  0
  -28.0695  -31.8445   26.5404 H   0  0  0  0  0  0
  -28.2599  -38.0092   24.7524 H   0  0  0  0  0  0
  -28.1082  -36.2627   24.6284 H   0  0  0  0  0  0
  -27.2301  -37.1422   25.8872 H   0  0  0  0  0  0
  -20.9399  -29.8749   21.6856 H   0  0  0  0  0  0
  -26.0174  -38.2842   24.1411 H   0  0  0  0  0  0
  -31.7751  -21.0261   18.3200 H   0  0  0  0  0  0
  -30.1601  -21.0575   17.5917 H   0  0  0  0  0  0
  -31.3341  -19.8555   17.0914 H   0  0  0  0  0  0
  -28.8949  -24.1751   17.6500 H   0  0  0  0  0  0
  -28.5803  -25.9010   17.6270 H   0  0  0  0  0  0
  -27.2664  -24.7502   17.8844 H   0  0  0  0  0  0
  -28.3040  -23.7789   21.4447 H   0  0  0  0  0  0
  -27.2491  -23.3026   20.1571 H   0  0  0  0  0  0
  -29.6762  -25.0496   19.6635 H   0  0  0  0  0  0
  -27.9160  -20.8873   20.6726 H   0  0  0  0  0  0
  -28.9205  -15.7042   21.1139 H   0  0  0  0  0  0
  1 25  1  0  0  0
  1 30  2  0  0  0
  1 81  1  0  0  0
  2  3  1  0  0  0
  2 25  1  0  0  0
  2 84  1  0  0  0
  2 85  1  0  0  0
  3  4  1  0  0  0
  3 86  1  0  0  0
  3 87  1  0  0  0
  4  5  1  0  0  0
  4 88  1  0  0  0
  4 89  1  0  0  0
  5  6  1  0  0  0
  5 26  1  0  0  0
  5 90  1  0  0  0
  6 25  1  0  0  0
  6 91  1  0  0  0
  6 92  1  0  0  0
  7  8  2  0  0  0
  7 26  1  0  0  0
  7 29  1  0  0  0
  8  9  1  0  0  0
  8 22  1  0  0  0
  9 10  1  0  0  0
  9 27  2  0  0  0
 10 11  2  0  0  0
 10 15  1  0  0  0
 11 12  1  0  0  0
 11 93  1  0  0  0
 12 13  2  0  0  0
 12 94  1  0  0  0
 13 14  1  0  0  0
 13 31  1  0  0  0
 14 15  2  0  0  0
 14 95  1  0  0  0
 15 96  1  0  0  0
 16 17  2  0  0  0
 16 21  1  0  0  0
 16 31  1  0  0  0
 17 18  1  0  0  0
 17 97  1  0  0  0
 18 19  2  0  0  0
 18 98  1  0  0  0
 19 20  1  0  0  0
 19 24  1  0  0  0
 20 21  2  0  0  0
 20 99  1  0  0  0
 21 23  1  0  0  0
 22 28  1  0  0  0
 22 32  2  0  0  0
 26 27  1  0  0  0
 28100  1  0  0  0
 28101  1  0  0  0
 29102  1  0  0  0
 29103  1  0  0  0
 33 34  1  0  0  0
 33 66  1  0  0  0
 33 70  2  0  0  0
 34 36  1  0  0  0
 34 59  1  0  0  0
 34104  1  0  0  0
 35 44  2  0  0  0
 35 45  1  0  0  0
 35 68  1  0  0  0
 36 56  1  0  0  0
 36105  1  0  0  0
 37 39  1  0  0  0
 37 47  1  0  0  0
 37 66  1  0  0  0
 37106  1  0  0  0
 38 43  2  0  0  0
 38 46  1  0  0  0
 38 47  1  0  0  0
 39 64  1  0  0  0
 39 67  2  0  0  0
 40 52  1  0  0  0
 40 53  2  0  0  0
 40 58  1  0  0  0
 41107  1  0  0  0
 41108  1  0  0  0
 41109  1  0  0  0
 41 48  1  0  0  0
 42 43  1  0  0  0
 42 66  1  0  0  0
 42110  1  0  0  0
 42111  1  0  0  0
 43 44  1  0  0  0
 44112  1  0  0  0
 45 46  2  0  0  0
 45113  1  0  0  0
 46114  1  0  0  0
 47115  1  0  0  0
 47116  1  0  0  0
 48 56  1  0  0  0
 48 65  1  0  0  0
 48117  1  0  0  0
 49 50  1  0  0  0
 49 53  1  0  0  0
 49 64  1  0  0  0
 49118  1  0  0  0
 50 51  1  0  0  0
 50119  1  0  0  0
 50120  1  0  0  0
 51 52  1  0  0  0
 51121  1  0  0  0
 51122  1  0  0  0
 52123  1  0  0  0
 52124  1  0  0  0
 53 54  1  0  0  0
 54 55  2  0  0  0
 54125  1  0  0  0
 55 57  1  0  0  0
 55126  1  0  0  0
 56 69  2  0  0  0
 57 58  2  0  0  0
 57127  1  0  0  0
 58128  1  0  0  0
 59 60  1  0  0  0
 59 61  1  0  0  0
 59 62  1  0  0  0
 60129  1  0  0  0
 60130  1  0  0  0
 60131  1  0  0  0
 61132  1  0  0  0
 61133  1  0  0  0
 61134  1  0  0  0
 62135  1  0  0  0
 62136  1  0  0  0
 62137  1  0  0  0
 63 65  1  0  0  0
 63138  1  0  0  0
 63139  1  0  0  0
 63140  1  0  0  0
 64141  1  0  0  0
 65142  1  0  0  0
 68 78  1  0  0  0
 71 72  2  0  0  0
 71 75  1  0  0  0
 71 83  1  0  0  0
 72 79  1  0  0  0
 72 80  1  0  0  0
 73 79  2  0  0  0
 73 81  1  0  0  0
 73 83  1  0  0  0
 74 77  1  0  0  0
 74 80  1  0  0  0
 74 82  2  0  0  0
 75143  1  0  0  0
 75144  1  0  0  0
 75145  1  0  0  0
 76146  1  0  0  0
 76147  1  0  0  0
 76148  1  0  0  0
 76 78  1  0  0  0
 77 78  1  0  0  0
 77149  1  0  0  0
 77150  1  0  0  0
 78151  1  0  0  0
 80152  1  0  0  0
 81153  1  0  0  0
M  ISO  4   1 100  68 101  78 101  81 100
M  END
> <chiral flag>
0

> <version>
0

> <s_m_source_file>
/data/baiqing/PycharmProjects/Reinvent-master-3.2/result/LINK_invent/BTK/process_docking_weight1_custom_product_contain_oxygen_bond_distance_aromatic_linkinvent_7_9_3/rearranged_h_0184.sdf

> <i_m_source_file_index>
73

> <r_mmod_Potential_Energy-OPLS-2005>
103.35334777832

> <r_mmod_Stretch_Energy-OPLS-2005>
139.194564819336

> <r_mmod_Bend_Energy-OPLS-2005>
216.643676757812

> <r_mmod_Torsional_Energy-OPLS-2005>
210.15478515625

> <r_mmod_Improper_Torsional_Energy-OPLS-2005>
4.99257898330688

> <r_mmod_Van_der_Waal_Energy-OPLS-2005>
116.99877166748

> <r_mmod_Electrostatic_Energy-OPLS-2005>
-444.76513671875

> <r_mmod_Solvation_Energy-OPLS-2005>
-231.826385498047

> <b_mmod_Minimization_Converged-OPLS-2005>
0

> <r_mmod_RMS_Derivative-OPLS-2005>
1.0420708656311

$$$$
73
                    3D
 Structure written by MMmdl.
152160  0  0  1  0            999 V2000
  -30.6304  -14.5241   20.5643 C   0  0  0  0  0  0
  -30.4429  -12.3387   19.4162 C   0  0  0  0  0  0
  -29.4968  -12.5081   18.2062 C   0  0  0  0  0  0
  -28.0196  -12.3551   18.6248 C   0  0  0  0  0  0
  -27.6632  -13.1945   19.8796 C   0  0  2  0  0  0
  -28.7077  -12.9536   20.9942 C   0  0  0  0  0  0
  -25.2606  -13.8131   20.5674 C   0  0  0  0  0  0
  -24.1844  -13.0428   20.9191 C   0  0  0  0  0  0
  -24.6383  -11.6892   20.8733 C   0  0  0  0  0  0
  -23.9049  -10.4290   21.0416 C   0  0  0  0  0  0
  -24.3603   -9.4198   21.9183 C   0  0  0  0  0  0
  -23.6279   -8.2229   22.0751 C   0  0  0  0  0  0
  -22.4260   -8.0275   21.3549 C   0  0  0  0  0  0
  -21.9899   -9.0251   20.4647 C   0  0  0  0  0  0
  -22.7229  -10.2130   20.3059 C   0  0  0  0  0  0
  -21.6837   -6.0719   22.5284 C   0  0  0  0  0  0
  -21.4007   -6.5632   23.8214 C   0  0  0  0  0  0
  -21.3657   -5.6790   24.9183 C   0  0  0  0  0  0
  -21.6047   -4.3053   24.7234 C   0  0  0  0  0  0
  -21.8823   -3.8138   23.4357 C   0  0  0  0  0  0
  -21.9191   -4.6947   22.3409 C   0  0  0  0  0  0
  -22.7874  -13.5245   21.1855 C   0  0  0  0  0  0
  -22.1661   -4.2132   21.0979 F   0  0  0  0  0  0
  -21.5627   -3.4542   25.7744 F   0  0  0  0  0  0
  -30.0324  -13.3048   20.4482 N   0  0  0  0  0  0
  -26.3018  -12.9265   20.3382 N   0  0  0  0  0  0
  -25.9303  -11.6446   20.5781 N   0  0  0  0  0  0
  -22.0507  -12.8234   22.0407 N   0  0  0  0  0  0
  -25.4373  -15.1839   20.4060 N   0  0  0  0  0  0
  -31.7557  -14.7649   20.1151 O   0  0  0  0  0  0
  -21.6632   -6.8867   21.4249 O   0  0  0  0  0  0
  -22.3575  -14.5557   20.6708 O   0  0  0  0  0  0
  -24.6191  -31.8616   23.2083 C   0  0  0  0  0  0
  -25.9072  -32.4791   23.8377 C   0  0  1  0  0  0
  -27.2407  -27.3919   20.0955 C   0  0  0  0  0  0
  -25.5916  -33.8585   24.2301 N   0  0  0  0  0  0
  -23.4083  -30.4886   21.5478 C   0  0  2  0  0  0
  -24.8541  -28.9458   20.1152 C   0  0  0  0  0  0
  -22.7414  -29.4652   22.4961 C   0  0  0  0  0  0
  -18.0323  -28.1341   22.8517 C   0  0  0  0  0  0
  -24.1498  -36.7302   23.2633 C   0  0  0  0  0  0
  -25.9444  -30.8126   21.3702 C   0  0  0  0  0  0
  -26.0173  -29.4474   20.7102 C   0  0  0  0  0  0
  -27.2095  -28.6801   20.6915 C   0  0  0  0  0  0
  -26.0470  -26.9059   19.5086 C   0  0  0  0  0  0
  -24.8668  -27.6764   19.5139 C   0  0  0  0  0  0
  -23.6150  -29.8140   20.1647 C   0  0  0  0  0  0
  -25.4122  -36.3097   24.0324 C   0  0  1  0  0  0
  -20.5901  -28.3670   23.1269 C   0  0  2  0  0  0
  -20.6843  -26.9432   22.5306 C   0  0  0  0  0  0
  -19.5748  -26.6425   21.5160 C   0  0  0  0  0  0
  -18.1977  -26.7872   22.1687 C   0  0  0  0  0  0
  -19.1564  -28.8830   23.2861 C   0  0  0  0  0  0
  -18.9488  -30.1452   23.8836 C   0  0  0  0  0  0
  -17.6485  -30.6572   24.0510 C   0  0  0  0  0  0
  -25.9044  -34.9448   23.5109 C   0  0  0  0  0  0
  -16.5371  -29.9040   23.6340 C   0  0  0  0  0  0
  -16.7305  -28.6443   23.0399 C   0  0  0  0  0  0
  -26.4476  -31.6600   25.0735 C   0  0  0  0  0  0
  -25.3728  -31.3711   26.1477 C   0  0  0  0  0  0
  -27.0325  -30.3035   24.6175 C   0  0  0  0  0  0
  -27.6054  -32.4336   25.7498 C   0  0  0  0  0  0
  -27.5590  -37.1801   24.8465 C   0  0  0  0  0  0
  -21.4153  -29.3042   22.3660 N   0  0  0  0  0  0
  -26.4316  -37.3785   23.9392 N   0  0  0  0  0  0
  -24.6757  -31.0684   22.0997 N   0  0  0  0  0  0
  -23.4145  -28.8194   23.3040 O   0  0  0  0  0  0
  -28.4295  -26.6677   20.1351 O   0  0  0  0  0  0
  -26.5600  -34.8896   22.4666 O   0  0  0  0  0  0
  -23.5387  -32.1373   23.7474 O   0  0  0  0  0  0
  -30.7469  -17.7951   21.0520 C   0  0  0  0  0  0
  -29.7981  -16.8185   20.8319 C   0  0  0  0  0  0
  -29.0878  -19.1900   20.3283 C   0  0  0  0  0  0
  -28.2774  -20.3891   19.8722 C   0  0  0  0  0  0
  -28.0478  -22.8134   20.0444 C   0  0  0  0  0  0
  -28.5575  -25.3393   19.5546 C   0  0  0  0  0  0
  -28.6309  -24.1478   20.5818 C   0  0  1  0  0  0
  -30.3509  -19.1212   20.7748 N   0  0  0  0  0  0
  -29.8245  -15.4739   21.0914 N   0  0  0  0  0  0
  -28.6990  -21.6289   20.2448 N   0  0  0  0  0  0
  -27.8426  -24.4859   21.7800 N   0  3  0  0  0  0
  -27.2618  -20.1757   19.1975 O   0  0  0  0  0  0
  -26.9410  -22.8951   19.4989 O   0  0  0  0  0  0
  -31.9312  -17.5317   21.5523 F   0  0  0  0  0  0
  -28.3411  -17.5791   20.2250 S   0  0  0  0  0  0
  -31.4806  -12.4794   19.1067 H   0  0  0  0  0  0
  -30.3877  -11.3213   19.8049 H   0  0  0  0  0  0
  -29.7415  -11.7772   17.4344 H   0  0  0  0  0  0
  -29.6501  -13.4901   17.7538 H   0  0  0  0  0  0
  -27.8472  -11.2989   18.8328 H   0  0  0  0  0  0
  -27.3608  -12.6132   17.7940 H   0  0  0  0  0  0
  -27.7120  -14.2423   19.5848 H   0  0  0  0  0  0
  -28.7017  -11.9025   21.2906 H   0  0  0  0  0  0
  -28.4588  -13.5073   21.9001 H   0  0  0  0  0  0
  -25.2745   -9.5663   22.4768 H   0  0  0  0  0  0
  -23.9980   -7.4617   22.7466 H   0  0  0  0  0  0
  -21.0825   -8.8775   19.8955 H   0  0  0  0  0  0
  -22.3686  -10.9672   19.6167 H   0  0  0  0  0  0
  -21.1998   -7.6136   23.9718 H   0  0  0  0  0  0
  -21.1479   -6.0514   25.9082 H   0  0  0  0  0  0
  -22.0601   -2.7596   23.2865 H   0  0  0  0  0  0
  -22.4100  -11.9876   22.4777 H   0  0  0  0  0  0
  -21.1136  -13.1289   22.2639 H   0  0  0  0  0  0
  -24.6738  -15.8451   20.5048 H   0  0  0  0  0  0
  -26.2848  -15.6101   20.0532 H   0  0  0  0  0  0
  -26.7110  -32.5490   23.1108 H   0  0  0  0  0  0
  -25.0079  -33.9704   25.0454 H   0  0  0  0  0  0
  -22.7050  -31.3121   21.4083 H   0  0  0  0  0  0
  -23.3767  -35.9634   23.3319 H   0  0  0  0  0  0
  -24.3590  -36.8900   22.2048 H   0  0  0  0  0  0
  -23.7256  -37.6507   23.6643 H   0  0  0  0  0  0
  -26.0755  -31.5866   20.6134 H   0  0  0  0  0  0
  -26.8248  -30.8490   22.0017 H   0  0  0  0  0  0
  -28.1113  -29.0717   21.1401 H   0  0  0  0  0  0
  -25.9803  -25.9329   19.0481 H   0  0  0  0  0  0
  -23.9671  -27.2805   19.0631 H   0  0  0  0  0  0
  -23.7131  -30.5869   19.4022 H   0  0  0  0  0  0
  -22.7441  -29.2233   19.8773 H   0  0  0  0  0  0
  -25.1310  -36.1963   25.0827 H   0  0  0  0  0  0
  -21.0044  -28.3260   24.1378 H   0  0  0  0  0  0
  -20.5862  -26.2193   23.3389 H   0  0  0  0  0  0
  -21.6685  -26.7620   22.0992 H   0  0  0  0  0  0
  -19.6850  -25.6391   21.1063 H   0  0  0  0  0  0
  -19.6622  -27.3304   20.6735 H   0  0  0  0  0  0
  -17.4169  -26.6458   21.4194 H   0  0  0  0  0  0
  -18.0607  -26.0044   22.9163 H   0  0  0  0  0  0
  -19.7967  -30.7282   24.2137 H   0  0  0  0  0  0
  -17.5080  -31.6291   24.5047 H   0  0  0  0  0  0
  -15.5395  -30.2966   23.7645 H   0  0  0  0  0  0
  -15.8717  -28.0741   22.7142 H   0  0  0  0  0  0
  -24.5876  -30.7103   25.7790 H   0  0  0  0  0  0
  -24.8947  -32.2866   26.4976 H   0  0  0  0  0  0
  -25.8048  -30.8818   27.0219 H   0  0  0  0  0  0
  -26.2873  -29.6794   24.1232 H   0  0  0  0  0  0
  -27.4061  -29.7293   25.4670 H   0  0  0  0  0  0
  -27.8741  -30.4339   23.9365 H   0  0  0  0  0  0
  -27.2656  -33.3613   26.2124 H   0  0  0  0  0  0
  -28.3832  -32.6939   25.0303 H   0  0  0  0  0  0
  -28.0768  -31.8443   26.5377 H   0  0  0  0  0  0
  -28.2619  -38.0088   24.7522 H   0  0  0  0  0  0
  -28.1069  -36.2619   24.6308 H   0  0  0  0  0  0
  -27.2279  -37.1474   25.8857 H   0  0  0  0  0  0
  -20.9370  -29.8674   21.6763 H   0  0  0  0  0  0
  -26.0209  -38.2865   24.1407 H   0  0  0  0  0  0
  -29.5129  -25.3531   19.0291 H   0  0  0  0  0  0
  -27.8508  -25.1575   18.7500 H   0  0  0  0  0  0
  -29.6689  -24.0042   20.8888 H   0  0  0  0  0  0
  -28.9480  -15.0852   21.4078 H   0  0  0  0  0  0
  -29.5754  -21.6334   20.7451 H   0  0  0  0  0  0
  -26.8640  -24.3988   21.5685 H   0  0  0  0  0  0
  -28.0386  -25.4292   22.0604 H   0  0  0  0  0  0
  -28.0531  -23.8703   22.5442 H   0  0  0  0  0  0
  1 25  1  0  0  0
  1 30  2  0  0  0
  1 79  1  0  0  0
  2  3  1  0  0  0
  2 25  1  0  0  0
  2 86  1  0  0  0
  2 87  1  0  0  0
  3  4  1  0  0  0
  3 88  1  0  0  0
  3 89  1  0  0  0
  4  5  1  0  0  0
  4 90  1  0  0  0
  4 91  1  0  0  0
  5  6  1  0  0  0
  5 26  1  0  0  0
  5 92  1  0  0  0
  6 25  1  0  0  0
  6 93  1  0  0  0
  6 94  1  0  0  0
  7  8  2  0  0  0
  7 26  1  0  0  0
  7 29  1  0  0  0
  8  9  1  0  0  0
  8 22  1  0  0  0
  9 10  1  0  0  0
  9 27  2  0  0  0
 10 11  2  0  0  0
 10 15  1  0  0  0
 11 12  1  0  0  0
 11 95  1  0  0  0
 12 13  2  0  0  0
 12 96  1  0  0  0
 13 14  1  0  0  0
 13 31  1  0  0  0
 14 15  2  0  0  0
 14 97  1  0  0  0
 15 98  1  0  0  0
 16 17  2  0  0  0
 16 21  1  0  0  0
 16 31  1  0  0  0
 17 18  1  0  0  0
 17 99  1  0  0  0
 18 19  2  0  0  0
 18100  1  0  0  0
 19 20  1  0  0  0
 19 24  1  0  0  0
 20 21  2  0  0  0
 20101  1  0  0  0
 21 23  1  0  0  0
 22 28  1  0  0  0
 22 32  2  0  0  0
 26 27  1  0  0  0
 28102  1  0  0  0
 28103  1  0  0  0
 29104  1  0  0  0
 29105  1  0  0  0
 33 34  1  0  0  0
 33 66  1  0  0  0
 33 70  2  0  0  0
 34 36  1  0  0  0
 34 59  1  0  0  0
 34106  1  0  0  0
 35 44  2  0  0  0
 35 45  1  0  0  0
 35 68  1  0  0  0
 36 56  1  0  0  0
 36107  1  0  0  0
 37 39  1  0  0  0
 37 47  1  0  0  0
 37 66  1  0  0  0
 37108  1  0  0  0
 38 43  2  0  0  0
 38 46  1  0  0  0
 38 47  1  0  0  0
 39 64  1  0  0  0
 39 67  2  0  0  0
 40 52  1  0  0  0
 40 53  2  0  0  0
 40 58  1  0  0  0
 41109  1  0  0  0
 41110  1  0  0  0
 41111  1  0  0  0
 41 48  1  0  0  0
 42 43  1  0  0  0
 42 66  1  0  0  0
 42112  1  0  0  0
 42113  1  0  0  0
 43 44  1  0  0  0
 44114  1  0  0  0
 45 46  2  0  0  0
 45115  1  0  0  0
 46116  1  0  0  0
 47117  1  0  0  0
 47118  1  0  0  0
 48 56  1  0  0  0
 48 65  1  0  0  0
 48119  1  0  0  0
 49 50  1  0  0  0
 49 53  1  0  0  0
 49 64  1  0  0  0
 49120  1  0  0  0
 50 51  1  0  0  0
 50121  1  0  0  0
 50122  1  0  0  0
 51 52  1  0  0  0
 51123  1  0  0  0
 51124  1  0  0  0
 52125  1  0  0  0
 52126  1  0  0  0
 53 54  1  0  0  0
 54 55  2  0  0  0
 54127  1  0  0  0
 55 57  1  0  0  0
 55128  1  0  0  0
 56 69  2  0  0  0
 57 58  2  0  0  0
 57129  1  0  0  0
 58130  1  0  0  0
 59 60  1  0  0  0
 59 61  1  0  0  0
 59 62  1  0  0  0
 60131  1  0  0  0
 60132  1  0  0  0
 60133  1  0  0  0
 61134  1  0  0  0
 61135  1  0  0  0
 61136  1  0  0  0
 62137  1  0  0  0
 62138  1  0  0  0
 62139  1  0  0  0
 63 65  1  0  0  0
 63140  1  0  0  0
 63141  1  0  0  0
 63142  1  0  0  0
 64143  1  0  0  0
 65144  1  0  0  0
 68 76  1  0  0  0
 71 72  2  0  0  0
 71 78  1  0  0  0
 71 84  1  0  0  0
 72 79  1  0  0  0
 72 85  1  0  0  0
 73 74  1  0  0  0
 73 78  2  0  0  0
 73 85  1  0  0  0
 74 80  1  0  0  0
 74 82  2  0  0  0
 75 77  1  0  0  0
 75 80  1  0  0  0
 75 83  2  0  0  0
 76 77  1  0  0  0
 76145  1  0  0  0
 76146  1  0  0  0
 77 81  1  0  0  0
 77147  1  0  0  0
 79148  1  0  0  0
 80149  1  0  0  0
 81150  1  0  0  0
 81151  1  0  0  0
 81152  1  0  0  0
M  CHG  1  81   1
M  ISO  4   1 100  68 101  76 101  79 100
M  END
> <chiral flag>
0

> <version>
0

> <s_m_source_file>
/data/baiqing/PycharmProjects/Reinvent-master-3.2/result/LINK_invent/BTK/process_docking_weight1_custom_product_contain_oxygen_bond_distance_aromatic_linkinvent_7_9_3/rearranged_h_0184.sdf

> <i_m_source_file_index>
74

> <r_mmod_Potential_Energy-OPLS-2005>
-650.677856445312

> <r_mmod_Stretch_Energy-OPLS-2005>
47.7993812561035

> <r_mmod_Bend_Energy-OPLS-2005>
125.64998626709

> <r_mmod_Torsional_Energy-OPLS-2005>
251.741073608398

> <r_mmod_Improper_Torsional_Energy-OPLS-2005>
5.74124479293823

> <r_mmod_Van_der_Waal_Energy-OPLS-2005>
136.517166137695

> <r_mmod_Electrostatic_Energy-OPLS-2005>
-672.746520996094

> <r_mmod_Solvation_Energy-OPLS-2005>
-566.06005859375

> <b_mmod_Minimization_Converged-OPLS-2005>
0

> <r_mmod_RMS_Derivative-OPLS-2005>
3.5366792678833

$$$$
74
                    3D
 Structure written by MMmdl.
162170  0  0  1  0            999 V2000
  -30.6141  -14.7213   20.4608 C   0  0  0  0  0  0
  -30.4281  -12.4360   19.4677 C   0  0  0  0  0  0
  -29.5118  -12.5218   18.2285 C   0  0  0  0  0  0
  -28.0321  -12.3573   18.6318 C   0  0  0  0  0  0
  -27.6445  -13.2337   19.8543 C   0  0  2  0  0  0
  -28.6882  -13.1384   20.9875 C   0  0  0  0  0  0
  -25.2512  -13.8194   20.5679 C   0  0  0  0  0  0
  -24.1805  -13.0435   20.9190 C   0  0  0  0  0  0
  -24.6408  -11.6917   20.8726 C   0  0  0  0  0  0
  -23.9077  -10.4297   21.0405 C   0  0  0  0  0  0
  -24.3635   -9.4212   21.9190 C   0  0  0  0  0  0
  -23.6307   -8.2244   22.0751 C   0  0  0  0  0  0
  -22.4295   -8.0280   21.3530 C   0  0  0  0  0  0
  -21.9928   -9.0261   20.4636 C   0  0  0  0  0  0
  -22.7254  -10.2136   20.3048 C   0  0  0  0  0  0
  -21.6856   -6.0743   22.5284 C   0  0  0  0  0  0
  -21.4020   -6.5646   23.8219 C   0  0  0  0  0  0
  -21.3656   -5.6794   24.9176 C   0  0  0  0  0  0
  -21.6036   -4.3054   24.7222 C   0  0  0  0  0  0
  -21.8816   -3.8148   23.4341 C   0  0  0  0  0  0
  -21.9190   -4.6969   22.3404 C   0  0  0  0  0  0
  -22.7825  -13.5216   21.1854 C   0  0  0  0  0  0
  -22.1657   -4.2159   21.0971 F   0  0  0  0  0  0
  -21.5631   -3.4536   25.7730 F   0  0  0  0  0  0
  -29.9910  -13.4917   20.4107 N   0  0  0  0  0  0
  -26.2948  -12.9414   20.3279 N   0  0  0  0  0  0
  -25.9341  -11.6547   20.5732 N   0  0  0  0  0  0
  -22.0461  -12.8222   22.0413 N   0  0  0  0  0  0
  -25.4172  -15.1925   20.4094 N   0  0  0  0  0  0
  -31.8043  -14.8025   20.1464 O   0  0  0  0  0  0
  -21.6637   -6.8892   21.4242 O   0  0  0  0  0  0
  -22.3516  -14.5526   20.6698 O   0  0  0  0  0  0
  -24.6332  -31.8544   23.1961 C   0  0  0  0  0  0
  -25.9148  -32.4742   23.8319 C   0  0  1  0  0  0
  -27.2093  -27.2378   20.1329 C   0  0  0  0  0  0
  -25.5925  -33.8547   24.2233 N   0  0  0  0  0  0
  -23.4304  -30.4774   21.5430 C   0  0  2  0  0  0
  -24.8760  -28.9271   20.1119 C   0  0  0  0  0  0
  -22.7522  -29.4588   22.4922 C   0  0  0  0  0  0
  -18.0285  -28.1372   22.8479 C   0  0  0  0  0  0
  -24.1489  -36.7274   23.2644 C   0  0  0  0  0  0
  -25.9810  -30.7613   21.3822 C   0  0  0  0  0  0
  -26.0525  -29.3842   20.7194 C   0  0  0  0  0  0
  -27.2239  -28.5540   20.7171 C   0  0  0  0  0  0
  -26.0066  -26.8622   19.4887 C   0  0  0  0  0  0
  -24.8601  -27.6750   19.4849 C   0  0  0  0  0  0
  -23.6476  -29.8137   20.1593 C   0  0  0  0  0  0
  -25.4123  -36.3063   24.0320 C   0  0  1  0  0  0
  -20.5895  -28.3676   23.1270 C   0  0  2  0  0  0
  -20.6769  -26.9393   22.5413 C   0  0  0  0  0  0
  -19.5742  -26.6369   21.5215 C   0  0  0  0  0  0
  -18.1921  -26.7907   22.1628 C   0  0  0  0  0  0
  -19.1540  -28.8844   23.2857 C   0  0  0  0  0  0
  -18.9464  -30.1450   23.8866 C   0  0  0  0  0  0
  -17.6463  -30.6568   24.0559 C   0  0  0  0  0  0
  -25.9067  -34.9436   23.5078 C   0  0  0  0  0  0
  -16.5353  -29.9064   23.6337 C   0  0  0  0  0  0
  -16.7272  -28.6488   23.0341 C   0  0  0  0  0  0
  -26.4480  -31.6573   25.0731 C   0  0  0  0  0  0
  -25.3659  -31.3769   26.1422 C   0  0  0  0  0  0
  -27.0343  -30.2972   24.6280 C   0  0  0  0  0  0
  -27.5999  -32.4342   25.7524 C   0  0  0  0  0  0
  -27.5578  -37.1800   24.8460 C   0  0  0  0  0  0
  -21.4229  -29.3022   22.3669 N   0  0  0  0  0  0
  -26.4289  -37.3774   23.9403 N   0  0  0  0  0  0
  -24.7006  -31.0496   22.0953 N   0  0  0  0  0  0
  -23.4217  -28.8136   23.3028 O   0  0  0  0  0  0
  -28.2751  -26.3010   20.2036 O   0  0  0  0  0  0
  -26.5666  -34.8920   22.4670 O   0  0  0  0  0  0
  -23.5473  -32.1386   23.7237 O   0  0  0  0  0  0
  -29.7775  -19.6784   20.4327 C   0  0  0  0  0  0
  -31.1146  -19.5490   20.1205 C   0  0  0  0  0  0
  -30.1462  -17.2936   20.4972 C   0  0  0  0  0  0
  -28.9949  -23.6809   20.3860 C   0  0  0  0  0  0
  -30.2992  -22.1858   15.9975 C   0  0  0  0  0  0
  -27.9787  -22.6548   16.7562 C   0  0  0  0  0  0
  -29.8516  -24.3118   17.1754 C   0  0  0  0  0  0
  -27.9163  -24.8330   20.0681 C   0  0  0  0  0  0
  -29.8198  -22.0726   18.4541 C   0  0  0  0  0  0
  -28.9042  -22.1837   19.7154 C   0  0  1  0  0  0
  -29.4652  -22.8200   17.1321 C   0  0  0  0  0  0
  -29.2565  -18.3420   20.6651 N   0  0  0  0  0  0
  -29.0430  -20.9443   20.6104 N   0  0  0  0  0  0
  -29.8289  -15.8510   20.6627 N   0  0  0  0  0  0
  -29.9120  -23.9449   21.1686 O   0  0  0  0  0  0
  -31.9524  -20.5959   19.9281 F   0  0  0  0  0  0
  -31.7375  -17.9123   20.0481 S   0  0  0  0  0  0
  -31.4721  -12.5468   19.1703 H   0  0  0  0  0  0
  -30.3527  -11.4505   19.9293 H   0  0  0  0  0  0
  -29.7908  -11.7626   17.4964 H   0  0  0  0  0  0
  -29.6540  -13.4845   17.7366 H   0  0  0  0  0  0
  -27.8672  -11.3045   18.8624 H   0  0  0  0  0  0
  -27.3818  -12.5858   17.7860 H   0  0  0  0  0  0
  -27.6470  -14.2641   19.4992 H   0  0  0  0  0  0
  -28.7154  -12.1293   21.4037 H   0  0  0  0  0  0
  -28.4300  -13.8016   21.8143 H   0  0  0  0  0  0
  -25.2781   -9.5698   22.4763 H   0  0  0  0  0  0
  -24.0010   -7.4648   22.7487 H   0  0  0  0  0  0
  -21.0851   -8.8781   19.8974 H   0  0  0  0  0  0
  -22.3708  -10.9673   19.6154 H   0  0  0  0  0  0
  -21.2025   -7.6157   23.9727 H   0  0  0  0  0  0
  -21.1480   -6.0519   25.9078 H   0  0  0  0  0  0
  -22.0603   -2.7610   23.2828 H   0  0  0  0  0  0
  -22.4047  -11.9885   22.4817 H   0  0  0  0  0  0
  -21.1080  -13.1253   22.2592 H   0  0  0  0  0  0
  -24.6442  -15.8392   20.5265 H   0  0  0  0  0  0
  -26.2567  -15.6409   20.0655 H   0  0  0  0  0  0
  -26.7225  -32.5386   23.1067 H   0  0  0  0  0  0
  -25.0000  -33.9676   25.0326 H   0  0  0  0  0  0
  -22.7270  -31.2997   21.3980 H   0  0  0  0  0  0
  -23.3752  -35.9604   23.3302 H   0  0  0  0  0  0
  -24.3571  -36.8907   22.2058 H   0  0  0  0  0  0
  -23.7236  -37.6470   23.6678 H   0  0  0  0  0  0
  -26.1332  -31.5250   20.6184 H   0  0  0  0  0  0
  -26.8523  -30.8000   22.0243 H   0  0  0  0  0  0
  -28.1227  -28.8976   21.2110 H   0  0  0  0  0  0
  -25.9035  -25.9097   18.9932 H   0  0  0  0  0  0
  -23.9589  -27.3192   19.0054 H   0  0  0  0  0  0
  -23.7726  -30.5890   19.4031 H   0  0  0  0  0  0
  -22.7657  -29.2470   19.8546 H   0  0  0  0  0  0
  -25.1310  -36.1903   25.0811 H   0  0  0  0  0  0
  -20.9971  -28.3238   24.1396 H   0  0  0  0  0  0
  -20.5657  -26.2283   23.3615 H   0  0  0  0  0  0
  -21.6635  -26.7404   22.1211 H   0  0  0  0  0  0
  -19.6902  -25.6281   21.1231 H   0  0  0  0  0  0
  -19.6666  -27.3189   20.6748 H   0  0  0  0  0  0
  -17.4194  -26.6639   21.4029 H   0  0  0  0  0  0
  -18.0322  -26.0048   22.9025 H   0  0  0  0  0  0
  -19.7946  -30.7270   24.2206 H   0  0  0  0  0  0
  -17.5019  -31.6239   24.5175 H   0  0  0  0  0  0
  -15.5350  -30.2951   23.7682 H   0  0  0  0  0  0
  -15.8672  -28.0811   22.7048 H   0  0  0  0  0  0
  -24.5795  -30.7176   25.7729 H   0  0  0  0  0  0
  -24.8897  -32.2967   26.4828 H   0  0  0  0  0  0
  -25.7911  -30.8926   27.0215 H   0  0  0  0  0  0
  -26.2964  -29.6707   24.1253 H   0  0  0  0  0  0
  -27.3923  -29.7256   25.4852 H   0  0  0  0  0  0
  -27.8880  -30.4213   23.9615 H   0  0  0  0  0  0
  -27.2546  -33.3621   26.2100 H   0  0  0  0  0  0
  -28.3804  -32.6941   25.0362 H   0  0  0  0  0  0
  -28.0667  -31.8478   26.5447 H   0  0  0  0  0  0
  -28.2591  -38.0106   24.7518 H   0  0  0  0  0  0
  -28.1075  -36.2629   24.6268 H   0  0  0  0  0  0
  -27.2291  -37.1431   25.8864 H   0  0  0  0  0  0
  -20.9422  -29.8742   21.6873 H   0  0  0  0  0  0
  -26.0154  -38.2846   24.1391 H   0  0  0  0  0  0
  -30.0515  -22.6161   15.0259 H   0  0  0  0  0  0
  -30.1266  -21.1120   15.9163 H   0  0  0  0  0  0
  -31.3693  -22.3283   16.1558 H   0  0  0  0  0  0
  -27.7550  -23.1407   15.8050 H   0  0  0  0  0  0
  -27.3052  -23.0878   17.4936 H   0  0  0  0  0  0
  -27.7116  -21.6020   16.6505 H   0  0  0  0  0  0
  -29.7762  -24.7644   16.1860 H   0  0  0  0  0  0
  -30.8787  -24.4524   17.5153 H   0  0  0  0  0  0
  -29.2131  -24.9026   17.8203 H   0  0  0  0  0  0
  -27.0791  -24.6460   20.7413 H   0  0  0  0  0  0
  -27.5370  -24.6444   19.0674 H   0  0  0  0  0  0
  -29.8621  -21.0192   18.1804 H   0  0  0  0  0  0
  -30.8377  -22.3419   18.7383 H   0  0  0  0  0  0
  -27.8796  -22.0908   19.3583 H   0  0  0  0  0  0
  -28.1983  -20.7973   21.1500 H   0  0  0  0  0  0
  -28.8699  -15.6514   20.8923 H   0  0  0  0  0  0
  1 25  1  0  0  0
  1 30  2  0  0  0
  1 84  1  0  0  0
  2  3  1  0  0  0
  2 25  1  0  0  0
  2 88  1  0  0  0
  2 89  1  0  0  0
  3  4  1  0  0  0
  3 90  1  0  0  0
  3 91  1  0  0  0
  4  5  1  0  0  0
  4 92  1  0  0  0
  4 93  1  0  0  0
  5  6  1  0  0  0
  5 26  1  0  0  0
  5 94  1  0  0  0
  6 25  1  0  0  0
  6 95  1  0  0  0
  6 96  1  0  0  0
  7  8  2  0  0  0
  7 26  1  0  0  0
  7 29  1  0  0  0
  8  9  1  0  0  0
  8 22  1  0  0  0
  9 10  1  0  0  0
  9 27  2  0  0  0
 10 11  2  0  0  0
 10 15  1  0  0  0
 11 12  1  0  0  0
 11 97  1  0  0  0
 12 13  2  0  0  0
 12 98  1  0  0  0
 13 14  1  0  0  0
 13 31  1  0  0  0
 14 15  2  0  0  0
 14 99  1  0  0  0
 15100  1  0  0  0
 16 17  2  0  0  0
 16 21  1  0  0  0
 16 31  1  0  0  0
 17 18  1  0  0  0
 17101  1  0  0  0
 18 19  2  0  0  0
 18102  1  0  0  0
 19 20  1  0  0  0
 19 24  1  0  0  0
 20 21  2  0  0  0
 20103  1  0  0  0
 21 23  1  0  0  0
 22 28  1  0  0  0
 22 32  2  0  0  0
 26 27  1  0  0  0
 28104  1  0  0  0
 28105  1  0  0  0
 29106  1  0  0  0
 29107  1  0  0  0
 33 34  1  0  0  0
 33 66  1  0  0  0
 33 70  2  0  0  0
 34 36  1  0  0  0
 34 59  1  0  0  0
 34108  1  0  0  0
 35 44  2  0  0  0
 35 45  1  0  0  0
 35 68  1  0  0  0
 36 56  1  0  0  0
 36109  1  0  0  0
 37 39  1  0  0  0
 37 47  1  0  0  0
 37 66  1  0  0  0
 37110  1  0  0  0
 38 43  2  0  0  0
 38 46  1  0  0  0
 38 47  1  0  0  0
 39 64  1  0  0  0
 39 67  2  0  0  0
 40 52  1  0  0  0
 40 53  2  0  0  0
 40 58  1  0  0  0
 41111  1  0  0  0
 41112  1  0  0  0
 41113  1  0  0  0
 41 48  1  0  0  0
 42 43  1  0  0  0
 42 66  1  0  0  0
 42114  1  0  0  0
 42115  1  0  0  0
 43 44  1  0  0  0
 44116  1  0  0  0
 45 46  2  0  0  0
 45117  1  0  0  0
 46118  1  0  0  0
 47119  1  0  0  0
 47120  1  0  0  0
 48 56  1  0  0  0
 48 65  1  0  0  0
 48121  1  0  0  0
 49 50  1  0  0  0
 49 53  1  0  0  0
 49 64  1  0  0  0
 49122  1  0  0  0
 50 51  1  0  0  0
 50123  1  0  0  0
 50124  1  0  0  0
 51 52  1  0  0  0
 51125  1  0  0  0
 51126  1  0  0  0
 52127  1  0  0  0
 52128  1  0  0  0
 53 54  1  0  0  0
 54 55  2  0  0  0
 54129  1  0  0  0
 55 57  1  0  0  0
 55130  1  0  0  0
 56 69  2  0  0  0
 57 58  2  0  0  0
 57131  1  0  0  0
 58132  1  0  0  0
 59 60  1  0  0  0
 59 61  1  0  0  0
 59 62  1  0  0  0
 60133  1  0  0  0
 60134  1  0  0  0
 60135  1  0  0  0
 61136  1  0  0  0
 61137  1  0  0  0
 61138  1  0  0  0
 62139  1  0  0  0
 62140  1  0  0  0
 62141  1  0  0  0
 63 65  1  0  0  0
 63142  1  0  0  0
 63143  1  0  0  0
 63144  1  0  0  0
 64145  1  0  0  0
 65146  1  0  0  0
 68 78  1  0  0  0
 71 72  2  0  0  0
 71 82  1  0  0  0
 71 83  1  0  0  0
 72 86  1  0  0  0
 72 87  1  0  0  0
 73 82  2  0  0  0
 73 84  1  0  0  0
 73 87  1  0  0  0
 74 78  1  0  0  0
 74 80  1  0  0  0
 74 85  2  0  0  0
 75147  1  0  0  0
 75148  1  0  0  0
 75149  1  0  0  0
 75 81  1  0  0  0
 76 81  1  0  0  0
 76150  1  0  0  0
 76151  1  0  0  0
 76152  1  0  0  0
 77 81  1  0  0  0
 77153  1  0  0  0
 77154  1  0  0  0
 77155  1  0  0  0
 78156  1  0  0  0
 78157  1  0  0  0
 79 81  1  0  0  0
 79158  1  0  0  0
 79159  1  0  0  0
 79 80  1  0  0  0
 80 83  1  0  0  0
 80160  1  0  0  0
 83161  1  0  0  0
 84162  1  0  0  0
M  ISO  4   1 100  68 101  78 101  84 100
M  END
> <chiral flag>
0

> <version>
0

> <s_m_source_file>
/data/baiqing/PycharmProjects/Reinvent-master-3.2/result/LINK_invent/BTK/process_docking_weight1_custom_product_contain_oxygen_bond_distance_aromatic_linkinvent_7_9_3/rearranged_h_0184.sdf

> <i_m_source_file_index>
75

> <r_mmod_Potential_Energy-OPLS-2005>
196.714080810547

> <r_mmod_Stretch_Energy-OPLS-2005>
139.580978393555

> <r_mmod_Bend_Energy-OPLS-2005>
186.827941894531

> <r_mmod_Torsional_Energy-OPLS-2005>
228.234664916992

> <r_mmod_Improper_Torsional_Energy-OPLS-2005>
7.44489765167236

> <r_mmod_Van_der_Waal_Energy-OPLS-2005>
127.91960144043

> <r_mmod_Electrostatic_Energy-OPLS-2005>
-341.713104248047

> <r_mmod_Solvation_Energy-OPLS-2005>
-239.818420410156

> <b_mmod_Minimization_Converged-OPLS-2005>
0

> <r_mmod_RMS_Derivative-OPLS-2005>
2.33271622657776

$$$$
75
                    3D
 Structure written by MMmdl.
158166  0  0  1  0            999 V2000
  -30.5419  -14.9602   20.4029 C   0  0  0  0  0  0
  -30.4461  -12.5836   19.5054 C   0  0  0  0  0  0
  -29.5313  -12.5383   18.2579 C   0  0  0  0  0  0
  -28.0617  -12.3276   18.6720 C   0  0  0  0  0  0
  -27.6390  -13.2536   19.8434 C   0  0  2  0  0  0
  -28.6831  -13.2729   20.9817 C   0  0  0  0  0  0
  -25.2522  -13.8235   20.5709 C   0  0  0  0  0  0
  -24.1834  -13.0454   20.9189 C   0  0  0  0  0  0
  -24.6449  -11.6937   20.8709 C   0  0  0  0  0  0
  -23.9123  -10.4305   21.0374 C   0  0  0  0  0  0
  -24.3661   -9.4227   21.9161 C   0  0  0  0  0  0
  -23.6316   -8.2269   22.0765 C   0  0  0  0  0  0
  -22.4290   -8.0299   21.3562 C   0  0  0  0  0  0
  -21.9929   -9.0277   20.4663 C   0  0  0  0  0  0
  -22.7274  -10.2147   20.3045 C   0  0  0  0  0  0
  -21.6881   -6.0732   22.5269 C   0  0  0  0  0  0
  -21.4025   -6.5634   23.8202 C   0  0  0  0  0  0
  -21.3654   -5.6787   24.9161 C   0  0  0  0  0  0
  -21.6051   -4.3049   24.7216 C   0  0  0  0  0  0
  -21.8826   -3.8138   23.4338 C   0  0  0  0  0  0
  -21.9206   -4.6958   22.3396 C   0  0  0  0  0  0
  -22.7846  -13.5204   21.1836 C   0  0  0  0  0  0
  -22.1679   -4.2139   21.0974 F   0  0  0  0  0  0
  -21.5627   -3.4536   25.7733 F   0  0  0  0  0  0
  -29.9642  -13.6865   20.3920 N   0  0  0  0  0  0
  -26.2962  -12.9480   20.3258 N   0  0  0  0  0  0
  -25.9390  -11.6600   20.5717 N   0  0  0  0  0  0
  -22.0514  -12.8204   22.0402 N   0  0  0  0  0  0
  -25.4168  -15.1973   20.4155 N   0  0  0  0  0  0
  -31.7253  -15.0330   20.0508 O   0  0  0  0  0  0
  -21.6670   -6.8882   21.4238 O   0  0  0  0  0  0
  -22.3505  -14.5501   20.6660 O   0  0  0  0  0  0
  -24.6515  -31.8394   23.1892 C   0  0  0  0  0  0
  -25.9279  -32.4652   23.8266 C   0  0  1  0  0  0
  -27.1911  -27.0771   20.1316 C   0  0  0  0  0  0
  -25.6014  -33.8467   24.2152 N   0  0  0  0  0  0
  -23.4544  -30.4678   21.5360 C   0  0  2  0  0  0
  -24.8997  -28.9054   20.0987 C   0  0  0  0  0  0
  -22.7593  -29.4552   22.4822 C   0  0  0  0  0  0
  -18.0331  -28.1387   22.8488 C   0  0  0  0  0  0
  -24.1506  -36.7243   23.2637 C   0  0  0  0  0  0
  -26.0203  -30.6910   21.4053 C   0  0  0  0  0  0
  -26.0823  -29.3055   20.7319 C   0  0  0  0  0  0
  -27.2269  -28.4077   20.7357 C   0  0  0  0  0  0
  -25.9990  -26.8437   19.4048 C   0  0  0  0  0  0
  -24.8738  -27.6864   19.4197 C   0  0  0  0  0  0
  -23.6821  -29.8130   20.1513 C   0  0  0  0  0  0
  -25.4141  -36.3000   24.0291 C   0  0  1  0  0  0
  -20.5947  -28.3732   23.1211 C   0  0  2  0  0  0
  -20.6805  -26.9427   22.5392 C   0  0  0  0  0  0
  -19.5769  -26.6374   21.5214 C   0  0  0  0  0  0
  -18.1958  -26.7928   22.1633 C   0  0  0  0  0  0
  -19.1583  -28.8875   23.2847 C   0  0  0  0  0  0
  -18.9496  -30.1472   23.8870 C   0  0  0  0  0  0
  -17.6486  -30.6579   24.0563 C   0  0  0  0  0  0
  -25.9098  -34.9380   23.5023 C   0  0  0  0  0  0
  -16.5380  -29.9064   23.6345 C   0  0  0  0  0  0
  -16.7313  -28.6487   23.0365 C   0  0  0  0  0  0
  -26.4565  -31.6555   25.0745 C   0  0  0  0  0  0
  -25.3730  -31.3788   26.1430 C   0  0  0  0  0  0
  -27.0418  -30.2919   24.6408 C   0  0  0  0  0  0
  -27.6059  -32.4353   25.7556 C   0  0  0  0  0  0
  -27.5577  -37.1778   24.8460 C   0  0  0  0  0  0
  -21.4277  -29.3058   22.3562 N   0  0  0  0  0  0
  -26.4287  -37.3729   23.9402 N   0  0  0  0  0  0
  -24.7286  -31.0206   22.0968 N   0  0  0  0  0  0
  -23.4209  -28.8105   23.2988 O   0  0  0  0  0  0
  -28.1943  -26.0124   20.2515 O   0  0  0  0  0  0
  -26.5674  -34.8887   22.4592 O   0  0  0  0  0  0
  -23.5625  -32.1310   23.7079 O   0  0  0  0  0  0
  -29.3552  -20.0785   20.3776 C   0  0  0  0  0  0
  -30.0302  -19.9196   19.1793 C   0  0  0  0  0  0
  -29.8692  -17.6118   20.3254 C   0  0  0  0  0  0
  -30.3315  -20.9969   18.1925 C   0  0  0  0  0  0
  -27.8670  -24.1657   18.5817 C   0  0  0  0  0  0
  -26.6009  -24.1592   20.8251 C   0  0  0  0  0  0
  -28.9994  -23.1659   20.6091 C   0  0  0  0  0  0
  -28.8055  -21.4924   21.0769 C   0  0  1  0  0  0
  -27.9381  -24.4345   20.1057 C   0  0  0  0  0  0
  -27.5039  -21.1945   21.8749 C   0  0  0  0  0  0
  -29.3059  -18.7150   20.9788 N   0  0  0  0  0  0
  -29.7802  -16.1252   20.7047 N   0  0  0  0  0  0
  -27.2209  -22.1808   22.7205 F   0  0  0  0  0  0
  -27.6447  -20.1192   22.6490 F   0  0  0  0  0  0
  -26.4674  -20.9719   21.0678 F   0  0  0  0  0  0
  -30.5774  -18.2439   18.8382 S   0  0  0  0  0  0
  -31.4858  -12.7202   19.2001 H   0  0  0  0  0  0
  -30.4190  -11.6271   20.0307 H   0  0  0  0  0  0
  -29.8476  -11.7404   17.5842 H   0  0  0  0  0  0
  -29.6283  -13.4692   17.6981 H   0  0  0  0  0  0
  -27.9516  -11.2831   18.9685 H   0  0  0  0  0  0
  -27.4020  -12.4728   17.8161 H   0  0  0  0  0  0
  -27.6076  -14.2599   19.4246 H   0  0  0  0  0  0
  -28.7690  -12.2919   21.4510 H   0  0  0  0  0  0
  -28.3873  -13.9662   21.7702 H   0  0  0  0  0  0
  -25.2818   -9.5708   22.4713 H   0  0  0  0  0  0
  -24.0040   -7.4668   22.7488 H   0  0  0  0  0  0
  -21.0855   -8.8787   19.8972 H   0  0  0  0  0  0
  -22.3726  -10.9675   19.6143 H   0  0  0  0  0  0
  -21.2031   -7.6144   23.9698 H   0  0  0  0  0  0
  -21.1464   -6.0518   25.9064 H   0  0  0  0  0  0
  -22.0612   -2.7597   23.2845 H   0  0  0  0  0  0
  -22.4168  -11.9878   22.4792 H   0  0  0  0  0  0
  -21.1124  -13.1199   22.2597 H   0  0  0  0  0  0
  -24.6438  -15.8421   20.5355 H   0  0  0  0  0  0
  -26.2554  -15.6462   20.0697 H   0  0  0  0  0  0
  -26.7343  -32.5201   23.0983 H   0  0  0  0  0  0
  -25.0152  -33.9575   25.0295 H   0  0  0  0  0  0
  -22.7592  -31.2962   21.3860 H   0  0  0  0  0  0
  -23.3757  -35.9583   23.3274 H   0  0  0  0  0  0
  -24.3608  -36.8905   22.2058 H   0  0  0  0  0  0
  -23.7260  -37.6429   23.6702 H   0  0  0  0  0  0
  -26.1974  -31.4509   20.6434 H   0  0  0  0  0  0
  -26.8835  -30.7268   22.0578 H   0  0  0  0  0  0
  -28.1209  -28.7054   21.2652 H   0  0  0  0  0  0
  -25.8412  -25.9361   18.8538 H   0  0  0  0  0  0
  -23.9794  -27.3759   18.8964 H   0  0  0  0  0  0
  -23.8249  -30.5950   19.4040 H   0  0  0  0  0  0
  -22.7924  -29.2657   19.8355 H   0  0  0  0  0  0
  -25.1332  -36.1810   25.0779 H   0  0  0  0  0  0
  -21.0063  -28.3330   24.1323 H   0  0  0  0  0  0
  -20.5711  -26.2345   23.3621 H   0  0  0  0  0  0
  -21.6665  -26.7423   22.1177 H   0  0  0  0  0  0
  -19.6921  -25.6277   21.1258 H   0  0  0  0  0  0
  -19.6686  -27.3167   20.6729 H   0  0  0  0  0  0
  -17.4223  -26.6701   21.4036 H   0  0  0  0  0  0
  -18.0347  -26.0065   22.9021 H   0  0  0  0  0  0
  -19.7970  -30.7309   24.2202 H   0  0  0  0  0  0
  -17.5040  -31.6263   24.5151 H   0  0  0  0  0  0
  -15.5377  -30.2950   23.7671 H   0  0  0  0  0  0
  -15.8732  -28.0788   22.7079 H   0  0  0  0  0  0
  -24.5909  -30.7130   25.7770 H   0  0  0  0  0  0
  -24.8933  -32.2987   26.4780 H   0  0  0  0  0  0
  -25.8016  -30.9016   27.0251 H   0  0  0  0  0  0
  -26.3046  -29.6636   24.1391 H   0  0  0  0  0  0
  -27.3935  -29.7252   25.5040 H   0  0  0  0  0  0
  -27.9017  -30.4097   23.9811 H   0  0  0  0  0  0
  -27.2602  -33.3663   26.2072 H   0  0  0  0  0  0
  -28.3929  -32.6902   25.0444 H   0  0  0  0  0  0
  -28.0672  -31.8523   26.5541 H   0  0  0  0  0  0
  -28.2566  -38.0101   24.7517 H   0  0  0  0  0  0
  -28.1098  -36.2620   24.6273 H   0  0  0  0  0  0
  -27.2301  -37.1411   25.8867 H   0  0  0  0  0  0
  -20.9470  -29.8773   21.6759 H   0  0  0  0  0  0
  -26.0131  -38.2784   24.1418 H   0  0  0  0  0  0
  -29.4324  -21.5698   17.9640 H   0  0  0  0  0  0
  -30.7060  -20.5836   17.2552 H   0  0  0  0  0  0
  -31.0836  -21.6832   18.5826 H   0  0  0  0  0  0
  -27.2279  -24.8197   18.0017 H   0  0  0  0  0  0
  -27.5355  -23.1476   18.3751 H   0  0  0  0  0  0
  -28.8574  -24.2757   18.1390 H   0  0  0  0  0  0
  -25.7474  -24.7646   20.5629 H   0  0  0  0  0  0
  -26.7182  -24.2839   21.8998 H   0  0  0  0  0  0
  -26.2476  -23.1634   20.6020 H   0  0  0  0  0  0
  -29.8764  -23.1952   19.9667 H   0  0  0  0  0  0
  -29.3941  -23.5984   21.5287 H   0  0  0  0  0  0
  -29.5184  -21.5270   21.9006 H   0  0  0  0  0  0
  -28.9213  -15.8955   21.1789 H   0  0  0  0  0  0
  1 25  1  0  0  0
  1 30  2  0  0  0
  1 82  1  0  0  0
  2  3  1  0  0  0
  2 25  1  0  0  0
  2 87  1  0  0  0
  2 88  1  0  0  0
  3  4  1  0  0  0
  3 89  1  0  0  0
  3 90  1  0  0  0
  4  5  1  0  0  0
  4 91  1  0  0  0
  4 92  1  0  0  0
  5  6  1  0  0  0
  5 26  1  0  0  0
  5 93  1  0  0  0
  6 25  1  0  0  0
  6 94  1  0  0  0
  6 95  1  0  0  0
  7  8  2  0  0  0
  7 26  1  0  0  0
  7 29  1  0  0  0
  8  9  1  0  0  0
  8 22  1  0  0  0
  9 10  1  0  0  0
  9 27  2  0  0  0
 10 11  2  0  0  0
 10 15  1  0  0  0
 11 12  1  0  0  0
 11 96  1  0  0  0
 12 13  2  0  0  0
 12 97  1  0  0  0
 13 14  1  0  0  0
 13 31  1  0  0  0
 14 15  2  0  0  0
 14 98  1  0  0  0
 15 99  1  0  0  0
 16 17  2  0  0  0
 16 21  1  0  0  0
 16 31  1  0  0  0
 17 18  1  0  0  0
 17100  1  0  0  0
 18 19  2  0  0  0
 18101  1  0  0  0
 19 20  1  0  0  0
 19 24  1  0  0  0
 20 21  2  0  0  0
 20102  1  0  0  0
 21 23  1  0  0  0
 22 28  1  0  0  0
 22 32  2  0  0  0
 26 27  1  0  0  0
 28103  1  0  0  0
 28104  1  0  0  0
 29105  1  0  0  0
 29106  1  0  0  0
 33 34  1  0  0  0
 33 66  1  0  0  0
 33 70  2  0  0  0
 34 36  1  0  0  0
 34 59  1  0  0  0
 34107  1  0  0  0
 35 44  2  0  0  0
 35 45  1  0  0  0
 35 68  1  0  0  0
 36 56  1  0  0  0
 36108  1  0  0  0
 37 39  1  0  0  0
 37 47  1  0  0  0
 37 66  1  0  0  0
 37109  1  0  0  0
 38 43  2  0  0  0
 38 46  1  0  0  0
 38 47  1  0  0  0
 39 64  1  0  0  0
 39 67  2  0  0  0
 40 52  1  0  0  0
 40 53  2  0  0  0
 40 58  1  0  0  0
 41110  1  0  0  0
 41111  1  0  0  0
 41112  1  0  0  0
 41 48  1  0  0  0
 42 43  1  0  0  0
 42 66  1  0  0  0
 42113  1  0  0  0
 42114  1  0  0  0
 43 44  1  0  0  0
 44115  1  0  0  0
 45 46  2  0  0  0
 45116  1  0  0  0
 46117  1  0  0  0
 47118  1  0  0  0
 47119  1  0  0  0
 48 56  1  0  0  0
 48 65  1  0  0  0
 48120  1  0  0  0
 49 50  1  0  0  0
 49 53  1  0  0  0
 49 64  1  0  0  0
 49121  1  0  0  0
 50 51  1  0  0  0
 50122  1  0  0  0
 50123  1  0  0  0
 51 52  1  0  0  0
 51124  1  0  0  0
 51125  1  0  0  0
 52126  1  0  0  0
 52127  1  0  0  0
 53 54  1  0  0  0
 54 55  2  0  0  0
 54128  1  0  0  0
 55 57  1  0  0  0
 55129  1  0  0  0
 56 69  2  0  0  0
 57 58  2  0  0  0
 57130  1  0  0  0
 58131  1  0  0  0
 59 60  1  0  0  0
 59 61  1  0  0  0
 59 62  1  0  0  0
 60132  1  0  0  0
 60133  1  0  0  0
 60134  1  0  0  0
 61135  1  0  0  0
 61136  1  0  0  0
 61137  1  0  0  0
 62138  1  0  0  0
 62139  1  0  0  0
 62140  1  0  0  0
 63 65  1  0  0  0
 63141  1  0  0  0
 63142  1  0  0  0
 63143  1  0  0  0
 64144  1  0  0  0
 65145  1  0  0  0
 68 79  1  0  0  0
 71 72  2  0  0  0
 71 78  1  0  0  0
 71 81  1  0  0  0
 72 74  1  0  0  0
 72 86  1  0  0  0
 73 81  2  0  0  0
 73 82  1  0  0  0
 73 86  1  0  0  0
 74146  1  0  0  0
 74147  1  0  0  0
 74148  1  0  0  0
 75149  1  0  0  0
 75150  1  0  0  0
 75151  1  0  0  0
 75 79  1  0  0  0
 76 79  1  0  0  0
 76152  1  0  0  0
 76153  1  0  0  0
 76154  1  0  0  0
 77 79  1  0  0  0
 77155  1  0  0  0
 77156  1  0  0  0
 77 78  1  0  0  0
 78 80  1  0  0  0
 78157  1  0  0  0
 80 83  1  0  0  0
 80 84  1  0  0  0
 80 85  1  0  0  0
 82158  1  0  0  0
M  ISO  4   1 100  68 101  79 101  82 100
M  END
> <chiral flag>
0

> <version>
0

> <s_m_source_file>
/data/baiqing/PycharmProjects/Reinvent-master-3.2/result/LINK_invent/BTK/process_docking_weight1_custom_product_contain_oxygen_bond_distance_aromatic_linkinvent_7_9_3/rearranged_h_0184.sdf

> <i_m_source_file_index>
76

> <r_mmod_Potential_Energy-OPLS-2005>
701.131286621094

> <r_mmod_Stretch_Energy-OPLS-2005>
337.459136962891

> <r_mmod_Bend_Energy-OPLS-2005>
350.216613769531

> <r_mmod_Torsional_Energy-OPLS-2005>
245.908874511719

> <r_mmod_Improper_Torsional_Energy-OPLS-2005>
3.30881357192993

> <r_mmod_Van_der_Waal_Energy-OPLS-2005>
137.103790283203

> <r_mmod_Electrostatic_Energy-OPLS-2005>
-396.482116699219

> <r_mmod_Solvation_Energy-OPLS-2005>
-205.717803955078

> <b_mmod_Minimization_Converged-OPLS-2005>
0

> <r_mmod_RMS_Derivative-OPLS-2005>
2.50574350357056

$$$$
76
                    3D
 Structure written by MMmdl.
166174  0  0  1  0            999 V2000
  -30.6031  -14.7770   20.5026 C   0  0  0  0  0  0
  -30.4345  -12.4799   19.5115 C   0  0  0  0  0  0
  -29.5250  -12.5204   18.2610 C   0  0  0  0  0  0
  -28.0444  -12.3513   18.6529 C   0  0  0  0  0  0
  -27.6425  -13.2390   19.8621 C   0  0  2  0  0  0
  -28.6782  -13.1756   21.0101 C   0  0  0  0  0  0
  -25.2484  -13.8199   20.5672 C   0  0  0  0  0  0
  -24.1796  -13.0442   20.9201 C   0  0  0  0  0  0
  -24.6382  -11.6910   20.8691 C   0  0  0  0  0  0
  -23.9061  -10.4289   21.0369 C   0  0  0  0  0  0
  -24.3624   -9.4216   21.9148 C   0  0  0  0  0  0
  -23.6287   -8.2263   22.0736 C   0  0  0  0  0  0
  -22.4265   -8.0278   21.3539 C   0  0  0  0  0  0
  -21.9899   -9.0260   20.4617 C   0  0  0  0  0  0
  -22.7239  -10.2133   20.3021 C   0  0  0  0  0  0
  -21.6867   -6.0696   22.5252 C   0  0  0  0  0  0
  -21.4030   -6.5598   23.8186 C   0  0  0  0  0  0
  -21.3670   -5.6766   24.9151 C   0  0  0  0  0  0
  -21.6082   -4.3041   24.7229 C   0  0  0  0  0  0
  -21.8825   -3.8105   23.4338 C   0  0  0  0  0  0
  -21.9220   -4.6912   22.3378 C   0  0  0  0  0  0
  -22.7803  -13.5197   21.1863 C   0  0  0  0  0  0
  -22.1670   -4.2105   21.0960 F   0  0  0  0  0  0
  -21.5656   -3.4513   25.7732 F   0  0  0  0  0  0
  -29.9831  -13.5414   20.4494 N   0  0  0  0  0  0
  -26.2925  -12.9427   20.3297 N   0  0  0  0  0  0
  -25.9326  -11.6560   20.5726 N   0  0  0  0  0  0
  -22.0469  -12.8168   22.0416 N   0  0  0  0  0  0
  -25.4205  -15.1927   20.4082 N   0  0  0  0  0  0
  -31.7597  -14.8894   20.0677 O   0  0  0  0  0  0
  -21.6664   -6.8851   21.4216 O   0  0  0  0  0  0
  -22.3466  -14.5493   20.6706 O   0  0  0  0  0  0
  -24.6296  -31.8509   23.1999 C   0  0  0  0  0  0
  -25.9096  -32.4741   23.8331 C   0  0  1  0  0  0
  -27.2175  -27.2515   20.1591 C   0  0  0  0  0  0
  -25.5914  -33.8541   24.2255 N   0  0  0  0  0  0
  -23.4250  -30.4692   21.5440 C   0  0  2  0  0  0
  -24.8787  -28.9144   20.1104 C   0  0  0  0  0  0
  -22.7499  -29.4526   22.4945 C   0  0  0  0  0  0
  -18.0279  -28.1359   22.8460 C   0  0  0  0  0  0
  -24.1477  -36.7294   23.2633 C   0  0  0  0  0  0
  -25.9686  -30.7611   21.3768 C   0  0  0  0  0  0
  -26.0473  -29.3813   20.7284 C   0  0  0  0  0  0
  -27.2229  -28.5654   20.7368 C   0  0  0  0  0  0
  -26.0341  -26.8505   19.5055 C   0  0  0  0  0  0
  -24.8823  -27.6593   19.4822 C   0  0  0  0  0  0
  -23.6455  -29.7965   20.1621 C   0  0  0  0  0  0
  -25.4116  -36.3068   24.0318 C   0  0  1  0  0  0
  -20.5880  -28.3639   23.1286 C   0  0  2  0  0  0
  -20.6768  -26.9348   22.5406 C   0  0  0  0  0  0
  -19.5749  -26.6340   21.5195 C   0  0  0  0  0  0
  -18.1927  -26.7910   22.1602 C   0  0  0  0  0  0
  -19.1534  -28.8823   23.2852 C   0  0  0  0  0  0
  -18.9461  -30.1451   23.8836 C   0  0  0  0  0  0
  -17.6459  -30.6551   24.0560 C   0  0  0  0  0  0
  -25.9046  -34.9431   23.5079 C   0  0  0  0  0  0
  -16.5344  -29.9045   23.6354 C   0  0  0  0  0  0
  -16.7272  -28.6473   23.0348 C   0  0  0  0  0  0
  -26.4503  -31.6569   25.0699 C   0  0  0  0  0  0
  -25.3753  -31.3717   26.1451 C   0  0  0  0  0  0
  -27.0349  -30.2988   24.6147 C   0  0  0  0  0  0
  -27.6022  -32.4377   25.7486 C   0  0  0  0  0  0
  -27.5585  -37.1802   24.8474 C   0  0  0  0  0  0
  -21.4201  -29.2993   22.3700 N   0  0  0  0  0  0
  -26.4298  -37.3763   23.9406 N   0  0  0  0  0  0
  -24.6935  -31.0452   22.0974 N   0  0  0  0  0  0
  -23.4185  -28.8054   23.3028 O   0  0  0  0  0  0
  -28.2905  -26.3310   20.1971 O   0  0  0  0  0  0
  -26.5608  -34.8885   22.4646 O   0  0  0  0  0  0
  -23.5438  -32.1332   23.7295 O   0  0  0  0  0  0
  -29.3919  -18.6172   21.0639 C   0  0  0  0  0  0
  -28.8287  -18.6084   22.3240 C   0  0  0  0  0  0
  -28.7271  -20.9127   21.2404 C   0  0  0  0  0  0
  -30.1288  -17.3769   20.4774 C   0  0  0  0  0  0
  -27.9255  -23.3374   18.8930 C   0  0  0  0  0  0
  -31.9832  -19.8379   18.8684 C   0  0  0  0  0  0
  -30.0663  -18.6501   17.5503 C   0  0  0  0  0  0
  -28.6254  -25.1742   22.2868 C   0  0  0  0  0  0
  -28.6270  -23.5880   20.2290 C   0  0  1  0  0  0
  -31.2954  -18.5175   18.4668 C   0  0  0  0  0  0
  -28.0725  -24.9944   20.8636 C   0  0  1  0  0  0
  -29.3298  -19.9461   20.4629 N   0  0  0  0  0  0
  -28.7844  -17.5741   23.2578 N   0  0  0  0  0  0
  -28.4886  -22.3460   21.0900 N   0  0  0  0  0  0
  -29.8551  -16.0449   20.8626 N   0  0  0  0  0  0
  -31.0997  -17.5189   19.5343 N   0  3  0  0  0  0
  -28.1666  -20.1825   22.7557 S   0  0  0  0  0  0
  -31.4796  -12.6034   19.2261 H   0  0  0  0  0  0
  -30.3906  -11.5004   19.9892 H   0  0  0  0  0  0
  -29.8111  -11.7352   17.5601 H   0  0  0  0  0  0
  -29.6694  -13.4684   17.7389 H   0  0  0  0  0  0
  -27.8813  -11.2958   18.8822 H   0  0  0  0  0  0
  -27.4023  -12.5726   17.7988 H   0  0  0  0  0  0
  -27.6347  -14.2638   19.4885 H   0  0  0  0  0  0
  -28.7166  -12.1725   21.4385 H   0  0  0  0  0  0
  -28.3989  -13.8422   21.8276 H   0  0  0  0  0  0
  -25.2781   -9.5691   22.4706 H   0  0  0  0  0  0
  -24.0017   -7.4643   22.7434 H   0  0  0  0  0  0
  -21.0857   -8.8771   19.8873 H   0  0  0  0  0  0
  -22.3717  -10.9674   19.6111 H   0  0  0  0  0  0
  -21.2009   -7.6100   23.9663 H   0  0  0  0  0  0
  -21.1489   -6.0490   25.9061 H   0  0  0  0  0  0
  -22.0600   -2.7563   23.2847 H   0  0  0  0  0  0
  -22.4140  -11.9861   22.4835 H   0  0  0  0  0  0
  -21.1054  -13.1109   22.2570 H   0  0  0  0  0  0
  -24.6541  -15.8481   20.5229 H   0  0  0  0  0  0
  -26.2564  -15.6297   20.0421 H   0  0  0  0  0  0
  -26.7152  -32.5381   23.1056 H   0  0  0  0  0  0
  -25.0150  -33.9721   25.0462 H   0  0  0  0  0  0
  -22.7191  -31.2893   21.3956 H   0  0  0  0  0  0
  -23.3722  -35.9633   23.3300 H   0  0  0  0  0  0
  -24.3568  -36.8922   22.2047 H   0  0  0  0  0  0
  -23.7241  -37.6493   23.6678 H   0  0  0  0  0  0
  -26.0957  -31.5185   20.6011 H   0  0  0  0  0  0
  -26.8526  -30.8201   22.0041 H   0  0  0  0  0  0
  -28.1150  -28.9170   21.2388 H   0  0  0  0  0  0
  -25.9874  -25.8782   19.0348 H   0  0  0  0  0  0
  -23.9925  -27.2964   18.9868 H   0  0  0  0  0  0
  -23.7619  -30.5669   19.4003 H   0  0  0  0  0  0
  -22.7669  -29.2213   19.8661 H   0  0  0  0  0  0
  -25.1290  -36.1916   25.0814 H   0  0  0  0  0  0
  -20.9940  -28.3175   24.1425 H   0  0  0  0  0  0
  -20.5671  -26.2212   23.3589 H   0  0  0  0  0  0
  -21.6640  -26.7405   22.1183 H   0  0  0  0  0  0
  -19.6918  -25.6251   21.1224 H   0  0  0  0  0  0
  -19.6718  -27.3158   20.6737 H   0  0  0  0  0  0
  -17.4213  -26.6652   21.3992 H   0  0  0  0  0  0
  -18.0319  -26.0056   22.9004 H   0  0  0  0  0  0
  -19.7941  -30.7295   24.2118 H   0  0  0  0  0  0
  -17.5016  -31.6229   24.5170 H   0  0  0  0  0  0
  -15.5346  -30.2923   23.7716 H   0  0  0  0  0  0
  -15.8681  -28.0795   22.7076 H   0  0  0  0  0  0
  -24.5911  -30.7071   25.7826 H   0  0  0  0  0  0
  -24.8941  -32.2867   26.4902 H   0  0  0  0  0  0
  -25.8069  -30.8904   27.0224 H   0  0  0  0  0  0
  -26.2909  -29.6731   24.1195 H   0  0  0  0  0  0
  -27.4090  -29.7256   25.4637 H   0  0  0  0  0  0
  -27.8748  -30.4293   23.9322 H   0  0  0  0  0  0
  -27.2578  -33.3701   26.1978 H   0  0  0  0  0  0
  -28.3836  -32.6927   25.0323 H   0  0  0  0  0  0
  -28.0654  -31.8570   26.5471 H   0  0  0  0  0  0
  -28.2598  -38.0105   24.7537 H   0  0  0  0  0  0
  -28.1085  -36.2642   24.6286 H   0  0  0  0  0  0
  -27.2308  -37.1434   25.8875 H   0  0  0  0  0  0
  -20.9378  -29.8769   21.6959 H   0  0  0  0  0  0
  -26.0164  -38.2819   24.1414 H   0  0  0  0  0  0
  -28.0157  -24.2020   18.2346 H   0  0  0  0  0  0
  -26.8630  -23.1342   19.0386 H   0  0  0  0  0  0
  -28.3581  -22.4793   18.3770 H   0  0  0  0  0  0
  -32.6831  -20.1406   18.0874 H   0  0  0  0  0  0
  -32.5395  -19.7491   19.8023 H   0  0  0  0  0  0
  -31.2794  -20.6621   18.9759 H   0  0  0  0  0  0
  -30.3726  -18.7236   16.5063 H   0  0  0  0  0  0
  -29.4615  -19.5308   17.7670 H   0  0  0  0  0  0
  -29.4163  -17.7768   17.6257 H   0  0  0  0  0  0
  -28.3099  -24.3664   22.9469 H   0  0  0  0  0  0
  -28.2660  -26.1001   22.7342 H   0  0  0  0  0  0
  -29.7164  -25.1989   22.2944 H   0  0  0  0  0  0
  -29.6919  -23.7140   20.0363 H   0  0  0  0  0  0
  -32.0372  -18.0026   17.8540 H   0  0  0  0  0  0
  -26.9956  -24.8646   20.9777 H   0  0  0  0  0  0
  -29.7059  -17.3348   23.6169 H   0  0  0  0  0  0
  -28.2186  -17.8000   24.0706 H   0  0  0  0  0  0
  -28.0234  -22.6417   21.9421 H   0  0  0  0  0  0
  -28.9967  -16.0090   21.3915 H   0  0  0  0  0  0
  -31.6801  -16.6911   19.4147 H   0  0  0  0  0  0
  1 25  1  0  0  0
  1 30  2  0  0  0
  1 85  1  0  0  0
  2  3  1  0  0  0
  2 25  1  0  0  0
  2 88  1  0  0  0
  2 89  1  0  0  0
  3  4  1  0  0  0
  3 90  1  0  0  0
  3 91  1  0  0  0
  4  5  1  0  0  0
  4 92  1  0  0  0
  4 93  1  0  0  0
  5  6  1  0  0  0
  5 26  1  0  0  0
  5 94  1  0  0  0
  6 25  1  0  0  0
  6 95  1  0  0  0
  6 96  1  0  0  0
  7  8  2  0  0  0
  7 26  1  0  0  0
  7 29  1  0  0  0
  8  9  1  0  0  0
  8 22  1  0  0  0
  9 10  1  0  0  0
  9 27  2  0  0  0
 10 11  2  0  0  0
 10 15  1  0  0  0
 11 12  1  0  0  0
 11 97  1  0  0  0
 12 13  2  0  0  0
 12 98  1  0  0  0
 13 14  1  0  0  0
 13 31  1  0  0  0
 14 15  2  0  0  0
 14 99  1  0  0  0
 15100  1  0  0  0
 16 17  2  0  0  0
 16 21  1  0  0  0
 16 31  1  0  0  0
 17 18  1  0  0  0
 17101  1  0  0  0
 18 19  2  0  0  0
 18102  1  0  0  0
 19 20  1  0  0  0
 19 24  1  0  0  0
 20 21  2  0  0  0
 20103  1  0  0  0
 21 23  1  0  0  0
 22 28  1  0  0  0
 22 32  2  0  0  0
 26 27  1  0  0  0
 28104  1  0  0  0
 28105  1  0  0  0
 29106  1  0  0  0
 29107  1  0  0  0
 33 34  1  0  0  0
 33 66  1  0  0  0
 33 70  2  0  0  0
 34 36  1  0  0  0
 34 59  1  0  0  0
 34108  1  0  0  0
 35 44  2  0  0  0
 35 45  1  0  0  0
 35 68  1  0  0  0
 36 56  1  0  0  0
 36109  1  0  0  0
 37 39  1  0  0  0
 37 47  1  0  0  0
 37 66  1  0  0  0
 37110  1  0  0  0
 38 43  2  0  0  0
 38 46  1  0  0  0
 38 47  1  0  0  0
 39 64  1  0  0  0
 39 67  2  0  0  0
 40 52  1  0  0  0
 40 53  2  0  0  0
 40 58  1  0  0  0
 41111  1  0  0  0
 41112  1  0  0  0
 41113  1  0  0  0
 41 48  1  0  0  0
 42 43  1  0  0  0
 42 66  1  0  0  0
 42114  1  0  0  0
 42115  1  0  0  0
 43 44  1  0  0  0
 44116  1  0  0  0
 45 46  2  0  0  0
 45117  1  0  0  0
 46118  1  0  0  0
 47119  1  0  0  0
 47120  1  0  0  0
 48 56  1  0  0  0
 48 65  1  0  0  0
 48121  1  0  0  0
 49 50  1  0  0  0
 49 53  1  0  0  0
 49 64  1  0  0  0
 49122  1  0  0  0
 50 51  1  0  0  0
 50123  1  0  0  0
 50124  1  0  0  0
 51 52  1  0  0  0
 51125  1  0  0  0
 51126  1  0  0  0
 52127  1  0  0  0
 52128  1  0  0  0
 53 54  1  0  0  0
 54 55  2  0  0  0
 54129  1  0  0  0
 55 57  1  0  0  0
 55130  1  0  0  0
 56 69  2  0  0  0
 57 58  2  0  0  0
 57131  1  0  0  0
 58132  1  0  0  0
 59 60  1  0  0  0
 59 61  1  0  0  0
 59 62  1  0  0  0
 60133  1  0  0  0
 60134  1  0  0  0
 60135  1  0  0  0
 61136  1  0  0  0
 61137  1  0  0  0
 61138  1  0  0  0
 62139  1  0  0  0
 62140  1  0  0  0
 62141  1  0  0  0
 63 65  1  0  0  0
 63142  1  0  0  0
 63143  1  0  0  0
 63144  1  0  0  0
 64145  1  0  0  0
 65146  1  0  0  0
 68 81  1  0  0  0
 71 72  2  0  0  0
 71 74  1  0  0  0
 71 82  1  0  0  0
 72 83  1  0  0  0
 72 87  1  0  0  0
 73 82  2  0  0  0
 73 84  1  0  0  0
 73 87  1  0  0  0
 74 85  1  0  0  0
 74 86  2  0  0  0
 75147  1  0  0  0
 75148  1  0  0  0
 75149  1  0  0  0
 75 79  1  0  0  0
 76150  1  0  0  0
 76151  1  0  0  0
 76152  1  0  0  0
 76 80  1  0  0  0
 77 80  1  0  0  0
 77153  1  0  0  0
 77154  1  0  0  0
 77155  1  0  0  0
 78156  1  0  0  0
 78157  1  0  0  0
 78158  1  0  0  0
 78 81  1  0  0  0
 79 81  1  0  0  0
 79 84  1  0  0  0
 79159  1  0  0  0
 80 86  1  0  0  0
 80160  1  0  0  0
 81161  1  0  0  0
 83162  1  0  0  0
 83163  1  0  0  0
 84164  1  0  0  0
 85165  1  0  0  0
 86166  1  0  0  0
M  CHG  1  86   1
M  ISO  4   1 100  68 101  81 101  85 100
M  END
> <chiral flag>
0

> <version>
0

> <s_m_source_file>
/data/baiqing/PycharmProjects/Reinvent-master-3.2/result/LINK_invent/BTK/process_docking_weight1_custom_product_contain_oxygen_bond_distance_aromatic_linkinvent_7_9_3/rearranged_h_0184.sdf

> <i_m_source_file_index>
77

> <r_mmod_Potential_Energy-OPLS-2005>
88.1592559814453

> <r_mmod_Stretch_Energy-OPLS-2005>
142.132278442383

> <r_mmod_Bend_Energy-OPLS-2005>
222.63835144043

> <r_mmod_Torsional_Energy-OPLS-2005>
253.726989746094

> <r_mmod_Improper_Torsional_Energy-OPLS-2005>
11.8508987426758

> <r_mmod_Van_der_Waal_Energy-OPLS-2005>
116.106842041016

> <r_mmod_Electrostatic_Energy-OPLS-2005>
-343.918273925781

> <r_mmod_Solvation_Energy-OPLS-2005>
-411.084350585938

> <b_mmod_Minimization_Converged-OPLS-2005>
0

> <r_mmod_RMS_Derivative-OPLS-2005>
5.64930725097656

$$$$
77
                    3D
 Structure written by MMmdl.
150158  0  0  1  0            999 V2000
  -30.4951  -15.1157   20.3644 C   0  0  0  0  0  0
  -30.4295  -12.6894   19.5375 C   0  0  0  0  0  0
  -29.5352  -12.5944   18.2775 C   0  0  0  0  0  0
  -28.0693  -12.3489   18.6790 C   0  0  0  0  0  0
  -27.6253  -13.2731   19.8444 C   0  0  2  0  0  0
  -28.6665  -13.3730   20.9819 C   0  0  0  0  0  0
  -25.2460  -13.8228   20.5850 C   0  0  0  0  0  0
  -24.1791  -13.0455   20.9262 C   0  0  0  0  0  0
  -24.6386  -11.6928   20.8779 C   0  0  0  0  0  0
  -23.9096  -10.4297   21.0455 C   0  0  0  0  0  0
  -24.3643   -9.4200   21.9224 C   0  0  0  0  0  0
  -23.6303   -8.2245   22.0778 C   0  0  0  0  0  0
  -22.4292   -8.0297   21.3564 C   0  0  0  0  0  0
  -21.9924   -9.0271   20.4665 C   0  0  0  0  0  0
  -22.7255  -10.2168   20.3079 C   0  0  0  0  0  0
  -21.6864   -6.0765   22.5280 C   0  0  0  0  0  0
  -21.4007   -6.5641   23.8225 C   0  0  0  0  0  0
  -21.3676   -5.6798   24.9181 C   0  0  0  0  0  0
  -21.6077   -4.3063   24.7225 C   0  0  0  0  0  0
  -21.8801   -3.8146   23.4328 C   0  0  0  0  0  0
  -21.9185   -4.6979   22.3393 C   0  0  0  0  0  0
  -22.7783  -13.5248   21.1887 C   0  0  0  0  0  0
  -22.1684   -4.2161   21.0980 F   0  0  0  0  0  0
  -21.5637   -3.4545   25.7738 F   0  0  0  0  0  0
  -29.9272  -13.8241   20.3761 N   0  0  0  0  0  0
  -26.2887  -12.9510   20.3299 N   0  0  0  0  0  0
  -25.9337  -11.6630   20.5727 N   0  0  0  0  0  0
  -22.0450  -12.8266   22.0450 N   0  0  0  0  0  0
  -25.4128  -15.1977   20.4329 N   0  0  0  0  0  0
  -31.6910  -15.1489   20.0415 O   0  0  0  0  0  0
  -21.6640   -6.8919   21.4259 O   0  0  0  0  0  0
  -22.3493  -14.5590   20.6735 O   0  0  0  0  0  0
  -24.6556  -31.8373   23.1760 C   0  0  0  0  0  0
  -25.9329  -32.4611   23.8155 C   0  0  1  0  0  0
  -27.2184  -27.0500   20.1816 C   0  0  0  0  0  0
  -25.6092  -33.8403   24.2160 N   0  0  0  0  0  0
  -23.4560  -30.4553   21.5144 C   0  0  2  0  0  0
  -24.9142  -28.8619   20.1007 C   0  0  0  0  0  0
  -22.7602  -29.4543   22.4747 C   0  0  0  0  0  0
  -18.0371  -28.1425   22.8545 C   0  0  0  0  0  0
  -24.1520  -36.7299   23.2615 C   0  0  0  0  0  0
  -26.0139  -30.6886   21.3741 C   0  0  0  0  0  0
  -26.0864  -29.2810   20.7420 C   0  0  0  0  0  0
  -27.2370  -28.3919   20.7689 C   0  0  0  0  0  0
  -26.0300  -26.7589   19.4810 C   0  0  0  0  0  0
  -24.9071  -27.6206   19.4454 C   0  0  0  0  0  0
  -23.6915  -29.7722   20.1344 C   0  0  0  0  0  0
  -25.4111  -36.2933   24.0289 C   0  0  1  0  0  0
  -20.5954  -28.3854   23.1291 C   0  0  2  0  0  0
  -20.6867  -26.9460   22.5701 C   0  0  0  0  0  0
  -19.5864  -26.6177   21.5524 C   0  0  0  0  0  0
  -18.2046  -26.7869   22.1885 C   0  0  0  0  0  0
  -19.1593  -28.8963   23.2848 C   0  0  0  0  0  0
  -18.9475  -30.1616   23.8741 C   0  0  0  0  0  0
  -17.6452  -30.6663   24.0424 C   0  0  0  0  0  0
  -25.9080  -34.9341   23.5025 C   0  0  0  0  0  0
  -16.5377  -29.9087   23.6251 C   0  0  0  0  0  0
  -16.7341  -28.6489   23.0339 C   0  0  0  0  0  0
  -26.4599  -31.6413   25.0558 C   0  0  0  0  0  0
  -25.3822  -31.3649   26.1274 C   0  0  0  0  0  0
  -27.0450  -30.2810   24.6137 C   0  0  0  0  0  0
  -27.6134  -32.4128   25.7409 C   0  0  0  0  0  0
  -27.5536  -37.1809   24.8450 C   0  0  0  0  0  0
  -21.4275  -29.3121   22.3567 N   0  0  0  0  0  0
  -26.4245  -37.3671   23.9378 N   0  0  0  0  0  0
  -24.7275  -31.0206   22.0755 N   0  0  0  0  0  0
  -23.4246  -28.8070   23.2876 O   0  0  0  0  0  0
  -28.2515  -26.0131   20.2088 O   0  0  0  0  0  0
  -26.5643  -34.8866   22.4578 O   0  0  0  0  0  0
  -23.5663  -32.1307   23.6977 O   0  0  0  0  0  0
  -30.2592  -20.1484   19.0236 C   0  0  0  0  0  0
  -29.3885  -20.3630   20.0881 C   0  0  0  0  0  0
  -29.8406  -17.8489   20.2012 C   0  0  0  0  0  0
  -28.9874  -23.1729   20.1841 C   0  0  0  0  0  0
  -27.7636  -24.4899   22.0708 C   0  0  0  0  0  0
  -30.7904  -21.1253   18.0111 C   0  0  0  0  0  0
  -27.9537  -24.4755   20.5405 C   0  0  1  0  0  0
  -29.1585  -19.0010   20.6967 N   0  0  0  0  0  0
  -28.7309  -21.7574   20.4185 N   0  0  0  0  0  0
  -29.7332  -16.3304   20.5963 N   0  0  0  0  0  0
  -30.0817  -23.5185   19.7363 O   0  0  0  0  0  0
  -31.8227  -21.8316   18.4759 F   0  0  0  0  0  0
  -29.8619  -21.9353   17.4928 F   0  0  0  0  0  0
  -30.7858  -18.4382   18.8300 S   0  0  0  0  0  0
  -31.4733  -12.8124   19.2460 H   0  0  0  0  0  0
  -30.3884  -11.7585   20.1056 H   0  0  0  0  0  0
  -29.8847  -11.8050   17.6145 H   0  0  0  0  0  0
  -29.6112  -13.5199   17.7026 H   0  0  0  0  0  0
  -27.9761  -11.3026   18.9689 H   0  0  0  0  0  0
  -27.4125  -12.4906   17.8208 H   0  0  0  0  0  0
  -27.5657  -14.2645   19.3960 H   0  0  0  0  0  0
  -28.7945  -12.4183   21.4932 H   0  0  0  0  0  0
  -28.3398  -14.0886   21.7361 H   0  0  0  0  0  0
  -25.2809   -9.5660   22.4779 H   0  0  0  0  0  0
  -24.0027   -7.4617   22.7433 H   0  0  0  0  0  0
  -21.0883   -8.8774   19.8908 H   0  0  0  0  0  0
  -22.3724  -10.9723   19.6161 H   0  0  0  0  0  0
  -21.1999   -7.6146   23.9742 H   0  0  0  0  0  0
  -21.1546   -6.0525   25.9114 H   0  0  0  0  0  0
  -22.0555   -2.7595   23.2820 H   0  0  0  0  0  0
  -22.4146  -11.9924   22.4798 H   0  0  0  0  0  0
  -21.1055  -13.1225   22.2754 H   0  0  0  0  0  0
  -24.6306  -15.8371   20.5224 H   0  0  0  0  0  0
  -26.2587  -15.6408   20.0979 H   0  0  0  0  0  0
  -26.7364  -32.5196   23.0812 H   0  0  0  0  0  0
  -25.0137  -33.9474   25.0245 H   0  0  0  0  0  0
  -22.7585  -31.2813   21.3474 H   0  0  0  0  0  0
  -23.3645  -35.9768   23.3245 H   0  0  0  0  0  0
  -24.3618  -36.8987   22.2033 H   0  0  0  0  0  0
  -23.7437  -37.6553   23.6712 H   0  0  0  0  0  0
  -26.1434  -31.4165   20.5690 H   0  0  0  0  0  0
  -26.8925  -30.7791   22.0005 H   0  0  0  0  0  0
  -28.1234  -28.7113   21.2983 H   0  0  0  0  0  0
  -25.9582  -25.8217   18.9473 H   0  0  0  0  0  0
  -24.0307  -27.3049   18.8973 H   0  0  0  0  0  0
  -23.8309  -30.5414   19.3727 H   0  0  0  0  0  0
  -22.8070  -29.2163   19.8153 H   0  0  0  0  0  0
  -25.1271  -36.1676   25.0773 H   0  0  0  0  0  0
  -21.0047  -28.3642   24.1429 H   0  0  0  0  0  0
  -20.5707  -26.2565   23.4094 H   0  0  0  0  0  0
  -21.6774  -26.7369   22.1669 H   0  0  0  0  0  0
  -19.7024  -25.5909   21.2038 H   0  0  0  0  0  0
  -19.6847  -27.2600   20.6757 H   0  0  0  0  0  0
  -17.4285  -26.6399   21.4380 H   0  0  0  0  0  0
  -18.0505  -26.0193   22.9478 H   0  0  0  0  0  0
  -19.7912  -30.7520   24.2008 H   0  0  0  0  0  0
  -17.4933  -31.6370   24.4949 H   0  0  0  0  0  0
  -15.5337  -30.2932   23.7544 H   0  0  0  0  0  0
  -15.8781  -28.0731   22.7097 H   0  0  0  0  0  0
  -24.6020  -30.6957   25.7629 H   0  0  0  0  0  0
  -24.8974  -32.2859   26.4568 H   0  0  0  0  0  0
  -25.8147  -30.8906   27.0103 H   0  0  0  0  0  0
  -26.3047  -29.6467   24.1244 H   0  0  0  0  0  0
  -27.4181  -29.7129   25.4674 H   0  0  0  0  0  0
  -27.8902  -30.3978   23.9335 H   0  0  0  0  0  0
  -27.2725  -33.3437   26.1960 H   0  0  0  0  0  0
  -28.4018  -32.6677   25.0298 H   0  0  0  0  0  0
  -28.0710  -31.8213   26.5360 H   0  0  0  0  0  0
  -28.2501  -38.0123   24.7320 H   0  0  0  0  0  0
  -28.1052  -36.2638   24.6384 H   0  0  0  0  0  0
  -27.2287  -37.1558   25.8862 H   0  0  0  0  0  0
  -20.9478  -29.8933   21.6841 H   0  0  0  0  0  0
  -26.0062  -38.2751   24.1230 H   0  0  0  0  0  0
  -26.8976  -25.0773   22.3755 H   0  0  0  0  0  0
  -28.6317  -24.9561   22.5405 H   0  0  0  0  0  0
  -27.6552  -23.4921   22.4952 H   0  0  0  0  0  0
  -31.1891  -20.6017   17.1397 H   0  0  0  0  0  0
  -27.0080  -24.1913   20.0700 H   0  0  0  0  0  0
  -27.8667  -21.6317   20.9238 H   0  0  0  0  0  0
  -28.8754  -16.1378   21.0851 H   0  0  0  0  0  0
  1 25  1  0  0  0
  1 30  2  0  0  0
  1 80  1  0  0  0
  2  3  1  0  0  0
  2 25  1  0  0  0
  2 85  1  0  0  0
  2 86  1  0  0  0
  3  4  1  0  0  0
  3 87  1  0  0  0
  3 88  1  0  0  0
  4  5  1  0  0  0
  4 89  1  0  0  0
  4 90  1  0  0  0
  5  6  1  0  0  0
  5 26  1  0  0  0
  5 91  1  0  0  0
  6 25  1  0  0  0
  6 92  1  0  0  0
  6 93  1  0  0  0
  7  8  2  0  0  0
  7 26  1  0  0  0
  7 29  1  0  0  0
  8  9  1  0  0  0
  8 22  1  0  0  0
  9 10  1  0  0  0
  9 27  2  0  0  0
 10 11  2  0  0  0
 10 15  1  0  0  0
 11 12  1  0  0  0
 11 94  1  0  0  0
 12 13  2  0  0  0
 12 95  1  0  0  0
 13 14  1  0  0  0
 13 31  1  0  0  0
 14 15  2  0  0  0
 14 96  1  0  0  0
 15 97  1  0  0  0
 16 17  2  0  0  0
 16 21  1  0  0  0
 16 31  1  0  0  0
 17 18  1  0  0  0
 17 98  1  0  0  0
 18 19  2  0  0  0
 18 99  1  0  0  0
 19 20  1  0  0  0
 19 24  1  0  0  0
 20 21  2  0  0  0
 20100  1  0  0  0
 21 23  1  0  0  0
 22 28  1  0  0  0
 22 32  2  0  0  0
 26 27  1  0  0  0
 28101  1  0  0  0
 28102  1  0  0  0
 29103  1  0  0  0
 29104  1  0  0  0
 33 34  1  0  0  0
 33 66  1  0  0  0
 33 70  2  0  0  0
 34 36  1  0  0  0
 34 59  1  0  0  0
 34105  1  0  0  0
 35 44  2  0  0  0
 35 45  1  0  0  0
 35 68  1  0  0  0
 36 56  1  0  0  0
 36106  1  0  0  0
 37 39  1  0  0  0
 37 47  1  0  0  0
 37 66  1  0  0  0
 37107  1  0  0  0
 38 43  2  0  0  0
 38 46  1  0  0  0
 38 47  1  0  0  0
 39 64  1  0  0  0
 39 67  2  0  0  0
 40 52  1  0  0  0
 40 53  2  0  0  0
 40 58  1  0  0  0
 41108  1  0  0  0
 41109  1  0  0  0
 41110  1  0  0  0
 41 48  1  0  0  0
 42 43  1  0  0  0
 42 66  1  0  0  0
 42111  1  0  0  0
 42112  1  0  0  0
 43 44  1  0  0  0
 44113  1  0  0  0
 45 46  2  0  0  0
 45114  1  0  0  0
 46115  1  0  0  0
 47116  1  0  0  0
 47117  1  0  0  0
 48 56  1  0  0  0
 48 65  1  0  0  0
 48118  1  0  0  0
 49 50  1  0  0  0
 49 53  1  0  0  0
 49 64  1  0  0  0
 49119  1  0  0  0
 50 51  1  0  0  0
 50120  1  0  0  0
 50121  1  0  0  0
 51 52  1  0  0  0
 51122  1  0  0  0
 51123  1  0  0  0
 52124  1  0  0  0
 52125  1  0  0  0
 53 54  1  0  0  0
 54 55  2  0  0  0
 54126  1  0  0  0
 55 57  1  0  0  0
 55127  1  0  0  0
 56 69  2  0  0  0
 57 58  2  0  0  0
 57128  1  0  0  0
 58129  1  0  0  0
 59 60  1  0  0  0
 59 61  1  0  0  0
 59 62  1  0  0  0
 60130  1  0  0  0
 60131  1  0  0  0
 60132  1  0  0  0
 61133  1  0  0  0
 61134  1  0  0  0
 61135  1  0  0  0
 62136  1  0  0  0
 62137  1  0  0  0
 62138  1  0  0  0
 63 65  1  0  0  0
 63139  1  0  0  0
 63140  1  0  0  0
 63141  1  0  0  0
 64142  1  0  0  0
 65143  1  0  0  0
 68 77  1  0  0  0
 71 72  2  0  0  0
 71 76  1  0  0  0
 71 84  1  0  0  0
 72 78  1  0  0  0
 72 79  1  0  0  0
 73 78  2  0  0  0
 73 80  1  0  0  0
 73 84  1  0  0  0
 74 77  1  0  0  0
 74 79  1  0  0  0
 74 81  2  0  0  0
 75144  1  0  0  0
 75145  1  0  0  0
 75146  1  0  0  0
 75 77  1  0  0  0
 76 82  1  0  0  0
 76 83  1  0  0  0
 76147  1  0  0  0
 77148  1  0  0  0
 79149  1  0  0  0
 80150  1  0  0  0
M  ISO  4   1 100  68 101  77 101  80 100
M  END
> <chiral flag>
0

> <version>
0

> <s_m_source_file>
/data/baiqing/PycharmProjects/Reinvent-master-3.2/result/LINK_invent/BTK/process_docking_weight1_custom_product_contain_oxygen_bond_distance_aromatic_linkinvent_7_9_3/rearranged_h_0184.sdf

> <i_m_source_file_index>
78

> <r_mmod_Potential_Energy-OPLS-2005>
651.594482421875

> <r_mmod_Stretch_Energy-OPLS-2005>
364.944152832031

> <r_mmod_Bend_Energy-OPLS-2005>
308.525238037109

> <r_mmod_Torsional_Energy-OPLS-2005>
241.429061889648

> <r_mmod_Improper_Torsional_Energy-OPLS-2005>
3.77955865859985

> <r_mmod_Van_der_Waal_Energy-OPLS-2005>
107.552368164062

> <r_mmod_Electrostatic_Energy-OPLS-2005>
-434.227142333984

> <r_mmod_Solvation_Energy-OPLS-2005>
-243.695281982422

> <b_mmod_Minimization_Converged-OPLS-2005>
0

> <r_mmod_RMS_Derivative-OPLS-2005>
7.95568370819092

$$$$
78
                    3D
 Structure written by MMmdl.
150158  0  0  1  0            999 V2000
  -30.4913  -15.0708   20.4530 C   0  0  0  0  0  0
  -30.4479  -12.6746   19.5140 C   0  0  0  0  0  0
  -29.5309  -12.5499   18.2728 C   0  0  0  0  0  0
  -28.0733  -12.3026   18.6999 C   0  0  0  0  0  0
  -27.6301  -13.2478   19.8458 C   0  0  2  0  0  0
  -28.6706  -13.3136   20.9801 C   0  0  0  0  0  0
  -25.2482  -13.8162   20.5722 C   0  0  0  0  0  0
  -24.1755  -13.0430   20.9232 C   0  0  0  0  0  0
  -24.6372  -11.6886   20.8753 C   0  0  0  0  0  0
  -23.9072  -10.4284   21.0410 C   0  0  0  0  0  0
  -24.3616   -9.4187   21.9196 C   0  0  0  0  0  0
  -23.6281   -8.2223   22.0766 C   0  0  0  0  0  0
  -22.4270   -8.0278   21.3548 C   0  0  0  0  0  0
  -21.9906   -9.0240   20.4655 C   0  0  0  0  0  0
  -22.7230  -10.2118   20.3062 C   0  0  0  0  0  0
  -21.6861   -6.0724   22.5258 C   0  0  0  0  0  0
  -21.4015   -6.5639   23.8202 C   0  0  0  0  0  0
  -21.3650   -5.6791   24.9177 C   0  0  0  0  0  0
  -21.6047   -4.3051   24.7225 C   0  0  0  0  0  0
  -21.8810   -3.8135   23.4357 C   0  0  0  0  0  0
  -21.9193   -4.6951   22.3411 C   0  0  0  0  0  0
  -22.7794  -13.5205   21.1901 C   0  0  0  0  0  0
  -22.1656   -4.2134   21.0990 F   0  0  0  0  0  0
  -21.5636   -3.4536   25.7753 F   0  0  0  0  0  0
  -29.9215  -13.7846   20.3718 N   0  0  0  0  0  0
  -26.2914  -12.9413   20.3303 N   0  0  0  0  0  0
  -25.9331  -11.6569   20.5772 N   0  0  0  0  0  0
  -22.0432  -12.8195   22.0439 N   0  0  0  0  0  0
  -25.4156  -15.1925   20.4173 N   0  0  0  0  0  0
  -31.7075  -15.1288   20.2242 O   0  0  0  0  0  0
  -21.6629   -6.8853   21.4234 O   0  0  0  0  0  0
  -22.3502  -14.5495   20.6718 O   0  0  0  0  0  0
  -24.6460  -31.8396   23.1828 C   0  0  0  0  0  0
  -25.9255  -32.4661   23.8238 C   0  0  1  0  0  0
  -27.1790  -27.0211   20.2179 C   0  0  0  0  0  0
  -25.5959  -33.8432   24.2110 N   0  0  0  0  0  0
  -23.4542  -30.4579   21.5189 C   0  0  2  0  0  0
  -24.9091  -28.8760   20.1095 C   0  0  0  0  0  0
  -22.7585  -29.4518   22.4706 C   0  0  0  0  0  0
  -18.0329  -28.1394   22.8466 C   0  0  0  0  0  0
  -24.1503  -36.7240   23.2646 C   0  0  0  0  0  0
  -26.0203  -30.6751   21.4040 C   0  0  0  0  0  0
  -26.0841  -29.2768   20.7573 C   0  0  0  0  0  0
  -27.2180  -28.3654   20.8030 C   0  0  0  0  0  0
  -26.0137  -26.7930   19.4546 C   0  0  0  0  0  0
  -24.8933  -27.6464   19.4418 C   0  0  0  0  0  0
  -23.6960  -29.7946   20.1394 C   0  0  0  0  0  0
  -25.4142  -36.2987   24.0312 C   0  0  1  0  0  0
  -20.5972  -28.3767   23.1185 C   0  0  2  0  0  0
  -20.6842  -26.9451   22.5410 C   0  0  0  0  0  0
  -19.5777  -26.6362   21.5218 C   0  0  0  0  0  0
  -18.1957  -26.7964   22.1633 C   0  0  0  0  0  0
  -19.1613  -28.8868   23.2853 C   0  0  0  0  0  0
  -18.9542  -30.1487   23.8853 C   0  0  0  0  0  0
  -17.6541  -30.6599   24.0576 C   0  0  0  0  0  0
  -25.9075  -34.9367   23.5016 C   0  0  0  0  0  0
  -16.5405  -29.9124   23.6339 C   0  0  0  0  0  0
  -16.7326  -28.6550   23.0332 C   0  0  0  0  0  0
  -26.4510  -31.6528   25.0661 C   0  0  0  0  0  0
  -25.3670  -31.3812   26.1332 C   0  0  0  0  0  0
  -27.0434  -30.2918   24.6348 C   0  0  0  0  0  0
  -27.6034  -32.4292   25.7448 C   0  0  0  0  0  0
  -27.5578  -37.1781   24.8482 C   0  0  0  0  0  0
  -21.4267  -29.3091   22.3538 N   0  0  0  0  0  0
  -26.4313  -37.3711   23.9409 N   0  0  0  0  0  0
  -24.7270  -31.0216   22.0881 N   0  0  0  0  0  0
  -23.4236  -28.8037   23.2849 O   0  0  0  0  0  0
  -28.1579  -25.9317   20.3062 O   0  0  0  0  0  0
  -26.5700  -34.8879   22.4606 O   0  0  0  0  0  0
  -23.5548  -32.1286   23.6956 O   0  0  0  0  0  0
  -30.3313  -20.1362   21.8196 C   0  0  0  0  0  0
  -29.3593  -20.3060   20.8372 C   0  0  0  0  0  0
  -29.8478  -17.8037   20.7582 C   0  0  0  0  0  0
  -28.9185  -23.0993   20.6723 C   0  0  0  0  0  0
  -26.4386  -23.8529   20.2346 C   0  0  0  0  0  0
  -27.8151  -24.3994   20.6875 C   0  0  2  0  0  0
  -30.8446  -21.1316   22.8253 C   0  0  0  0  0  0
  -29.0835  -18.9183   20.3128 N   0  0  0  0  0  0
  -28.6310  -21.6801   20.5538 N   0  0  0  0  0  0
  -29.6697  -16.2657   20.5157 N   0  0  0  0  0  0
  -30.0949  -23.4388   20.8117 O   0  0  0  0  0  0
  -31.8350  -21.8650   22.3295 F   0  0  0  0  0  0
  -29.8925  -21.9415   23.2831 F   0  0  0  0  0  0
  -31.3365  -20.5251   23.9064 F   0  0  0  0  0  0
  -30.9912  -18.4662   21.9280 S   0  0  0  0  0  0
  -31.4780  -12.8508   19.2040 H   0  0  0  0  0  0
  -30.4711  -11.7320   20.0661 H   0  0  0  0  0  0
  -29.8743  -11.7478   17.6206 H   0  0  0  0  0  0
  -29.5862  -13.4668   17.6876 H   0  0  0  0  0  0
  -28.0048  -11.2675   19.0400 H   0  0  0  0  0  0
  -27.3964  -12.3830   17.8476 H   0  0  0  0  0  0
  -27.5828  -14.2393   19.3975 H   0  0  0  0  0  0
  -28.8000  -12.3346   21.4479 H   0  0  0  0  0  0
  -28.3521  -13.9899   21.7754 H   0  0  0  0  0  0
  -25.2767   -9.5676   22.4780 H   0  0  0  0  0  0
  -23.9987   -7.4624   22.7493 H   0  0  0  0  0  0
  -21.0829   -8.8747   19.8970 H   0  0  0  0  0  0
  -22.3664  -10.9669   19.6159 H   0  0  0  0  0  0
  -21.1991   -7.6138   23.9703 H   0  0  0  0  0  0
  -21.1490   -6.0533   25.9084 H   0  0  0  0  0  0
  -22.0599   -2.7599   23.2867 H   0  0  0  0  0  0
  -22.4075  -11.9852   22.4777 H   0  0  0  0  0  0
  -21.1077  -13.1235   22.2662 H   0  0  0  0  0  0
  -24.6460  -15.8456   20.5400 H   0  0  0  0  0  0
  -26.2477  -15.6322   20.0441 H   0  0  0  0  0  0
  -26.7255  -32.5207   23.0902 H   0  0  0  0  0  0
  -25.0091  -33.9549   25.0226 H   0  0  0  0  0  0
  -22.7621  -31.2892   21.3571 H   0  0  0  0  0  0
  -23.3758  -35.9589   23.3290 H   0  0  0  0  0  0
  -24.3612  -36.8864   22.2081 H   0  0  0  0  0  0
  -23.7306  -37.6427   23.6688 H   0  0  0  0  0  0
  -26.2026  -31.4226   20.6299 H   0  0  0  0  0  0
  -26.8826  -30.7219   22.0595 H   0  0  0  0  0  0
  -28.0913  -28.6615   21.3620 H   0  0  0  0  0  0
  -25.9300  -25.8902   18.8773 H   0  0  0  0  0  0
  -24.0096  -27.3421   18.9014 H   0  0  0  0  0  0
  -23.8595  -30.5724   19.3907 H   0  0  0  0  0  0
  -22.8094  -29.2530   19.8073 H   0  0  0  0  0  0
  -25.1332  -36.1782   25.0816 H   0  0  0  0  0  0
  -21.0093  -28.3351   24.1281 H   0  0  0  0  0  0
  -20.5740  -26.2349   23.3627 H   0  0  0  0  0  0
  -21.6704  -26.7429   22.1176 H   0  0  0  0  0  0
  -19.6990  -25.6254   21.1253 H   0  0  0  0  0  0
  -19.6750  -27.3184   20.6736 H   0  0  0  0  0  0
  -17.4266  -26.6690   21.4015 H   0  0  0  0  0  0
  -18.0385  -26.0111   22.9021 H   0  0  0  0  0  0
  -19.8024  -30.7319   24.2165 H   0  0  0  0  0  0
  -17.5111  -31.6268   24.5202 H   0  0  0  0  0  0
  -15.5435  -30.3018   23.7686 H   0  0  0  0  0  0
  -15.8722  -28.0869   22.7027 H   0  0  0  0  0  0
  -24.5842  -30.7160   25.7650 H   0  0  0  0  0  0
  -24.8885  -32.3036   26.4596 H   0  0  0  0  0  0
  -25.7902  -30.9065   27.0202 H   0  0  0  0  0  0
  -26.3120  -29.6546   24.1342 H   0  0  0  0  0  0
  -27.4033  -29.7270   25.4966 H   0  0  0  0  0  0
  -27.8991  -30.4102   23.9713 H   0  0  0  0  0  0
  -27.2637  -33.3663   26.1880 H   0  0  0  0  0  0
  -28.3924  -32.6729   25.0312 H   0  0  0  0  0  0
  -28.0591  -31.8488   26.5483 H   0  0  0  0  0  0
  -28.2561  -38.0085   24.7473 H   0  0  0  0  0  0
  -28.1080  -36.2614   24.6338 H   0  0  0  0  0  0
  -27.2295  -37.1459   25.8876 H   0  0  0  0  0  0
  -20.9443  -29.8841   21.6756 H   0  0  0  0  0  0
  -26.0132  -38.2750   24.1399 H   0  0  0  0  0  0
  -26.2290  -22.8787   20.6807 H   0  0  0  0  0  0
  -26.4060  -23.7334   19.1481 H   0  0  0  0  0  0
  -25.6049  -24.4810   20.5562 H   0  0  0  0  0  0
  -27.6750  -24.5316   21.7612 H   0  0  0  0  0  0
  -27.6859  -21.5413   20.2224 H   0  0  0  0  0  0
  -28.6963  -16.0130   20.4623 H   0  0  0  0  0  0
  1 25  1  0  0  0
  1 30  2  0  0  0
  1 80  1  0  0  0
  2  3  1  0  0  0
  2 25  1  0  0  0
  2 86  1  0  0  0
  2 87  1  0  0  0
  3  4  1  0  0  0
  3 88  1  0  0  0
  3 89  1  0  0  0
  4  5  1  0  0  0
  4 90  1  0  0  0
  4 91  1  0  0  0
  5  6  1  0  0  0
  5 26  1  0  0  0
  5 92  1  0  0  0
  6 25  1  0  0  0
  6 93  1  0  0  0
  6 94  1  0  0  0
  7  8  2  0  0  0
  7 26  1  0  0  0
  7 29  1  0  0  0
  8  9  1  0  0  0
  8 22  1  0  0  0
  9 10  1  0  0  0
  9 27  2  0  0  0
 10 11  2  0  0  0
 10 15  1  0  0  0
 11 12  1  0  0  0
 11 95  1  0  0  0
 12 13  2  0  0  0
 12 96  1  0  0  0
 13 14  1  0  0  0
 13 31  1  0  0  0
 14 15  2  0  0  0
 14 97  1  0  0  0
 15 98  1  0  0  0
 16 17  2  0  0  0
 16 21  1  0  0  0
 16 31  1  0  0  0
 17 18  1  0  0  0
 17 99  1  0  0  0
 18 19  2  0  0  0
 18100  1  0  0  0
 19 20  1  0  0  0
 19 24  1  0  0  0
 20 21  2  0  0  0
 20101  1  0  0  0
 21 23  1  0  0  0
 22 28  1  0  0  0
 22 32  2  0  0  0
 26 27  1  0  0  0
 28102  1  0  0  0
 28103  1  0  0  0
 29104  1  0  0  0
 29105  1  0  0  0
 33 34  1  0  0  0
 33 66  1  0  0  0
 33 70  2  0  0  0
 34 36  1  0  0  0
 34 59  1  0  0  0
 34106  1  0  0  0
 35 44  2  0  0  0
 35 45  1  0  0  0
 35 68  1  0  0  0
 36 56  1  0  0  0
 36107  1  0  0  0
 37 39  1  0  0  0
 37 47  1  0  0  0
 37 66  1  0  0  0
 37108  1  0  0  0
 38 43  2  0  0  0
 38 46  1  0  0  0
 38 47  1  0  0  0
 39 64  1  0  0  0
 39 67  2  0  0  0
 40 52  1  0  0  0
 40 53  2  0  0  0
 40 58  1  0  0  0
 41109  1  0  0  0
 41110  1  0  0  0
 41111  1  0  0  0
 41 48  1  0  0  0
 42 43  1  0  0  0
 42 66  1  0  0  0
 42112  1  0  0  0
 42113  1  0  0  0
 43 44  1  0  0  0
 44114  1  0  0  0
 45 46  2  0  0  0
 45115  1  0  0  0
 46116  1  0  0  0
 47117  1  0  0  0
 47118  1  0  0  0
 48 56  1  0  0  0
 48 65  1  0  0  0
 48119  1  0  0  0
 49 50  1  0  0  0
 49 53  1  0  0  0
 49 64  1  0  0  0
 49120  1  0  0  0
 50 51  1  0  0  0
 50121  1  0  0  0
 50122  1  0  0  0
 51 52  1  0  0  0
 51123  1  0  0  0
 51124  1  0  0  0
 52125  1  0  0  0
 52126  1  0  0  0
 53 54  1  0  0  0
 54 55  2  0  0  0
 54127  1  0  0  0
 55 57  1  0  0  0
 55128  1  0  0  0
 56 69  2  0  0  0
 57 58  2  0  0  0
 57129  1  0  0  0
 58130  1  0  0  0
 59 60  1  0  0  0
 59 61  1  0  0  0
 59 62  1  0  0  0
 60131  1  0  0  0
 60132  1  0  0  0
 60133  1  0  0  0
 61134  1  0  0  0
 61135  1  0  0  0
 61136  1  0  0  0
 62137  1  0  0  0
 62138  1  0  0  0
 62139  1  0  0  0
 63 65  1  0  0  0
 63140  1  0  0  0
 63141  1  0  0  0
 63142  1  0  0  0
 64143  1  0  0  0
 65144  1  0  0  0
 68 76  1  0  0  0
 71 72  2  0  0  0
 71 77  1  0  0  0
 71 85  1  0  0  0
 72 78  1  0  0  0
 72 79  1  0  0  0
 73 78  2  0  0  0
 73 80  1  0  0  0
 73 85  1  0  0  0
 74 76  1  0  0  0
 74 79  1  0  0  0
 74 81  2  0  0  0
 75145  1  0  0  0
 75146  1  0  0  0
 75147  1  0  0  0
 75 76  1  0  0  0
 76148  1  0  0  0
 77 82  1  0  0  0
 77 83  1  0  0  0
 77 84  1  0  0  0
 79149  1  0  0  0
 80150  1  0  0  0
M  ISO  4   1 100  68 101  76 101  80 100
M  END
> <chiral flag>
0

> <version>
0

> <s_m_source_file>
/data/baiqing/PycharmProjects/Reinvent-master-3.2/result/LINK_invent/BTK/process_docking_weight1_custom_product_contain_oxygen_bond_distance_aromatic_linkinvent_7_9_3/rearranged_h_0184.sdf

> <i_m_source_file_index>
79

> <r_mmod_Potential_Energy-OPLS-2005>
718.416748046875

> <r_mmod_Stretch_Energy-OPLS-2005>
370.117950439453

> <r_mmod_Bend_Energy-OPLS-2005>
323.348724365234

> <r_mmod_Torsional_Energy-OPLS-2005>
262.961761474609

> <r_mmod_Improper_Torsional_Energy-OPLS-2005>
7.94808340072632

> <r_mmod_Van_der_Waal_Energy-OPLS-2005>
117.867042541504

> <r_mmod_Electrostatic_Energy-OPLS-2005>
-433.518249511719

> <r_mmod_Solvation_Energy-OPLS-2005>
-238.19416809082

> <b_mmod_Minimization_Converged-OPLS-2005>
0

> <r_mmod_RMS_Derivative-OPLS-2005>
8.56253910064697

$$$$
79
                    3D
 Structure written by MMmdl.
148156  0  0  1  0            999 V2000
  -30.4947  -15.0384   20.4078 C   0  0  0  0  0  0
  -30.4469  -12.6462   19.5109 C   0  0  0  0  0  0
  -29.5290  -12.5462   18.2679 C   0  0  0  0  0  0
  -28.0648  -12.3144   18.6850 C   0  0  0  0  0  0
  -27.6283  -13.2536   19.8383 C   0  0  2  0  0  0
  -28.6683  -13.3080   20.9780 C   0  0  0  0  0  0
  -25.2451  -13.8219   20.5714 C   0  0  0  0  0  0
  -24.1775  -13.0438   20.9228 C   0  0  0  0  0  0
  -24.6398  -11.6925   20.8746 C   0  0  0  0  0  0
  -23.9082  -10.4292   21.0400 C   0  0  0  0  0  0
  -24.3627   -9.4207   21.9181 C   0  0  0  0  0  0
  -23.6299   -8.2244   22.0753 C   0  0  0  0  0  0
  -22.4280   -8.0279   21.3544 C   0  0  0  0  0  0
  -21.9917   -9.0254   20.4645 C   0  0  0  0  0  0
  -22.7249  -10.2132   20.3053 C   0  0  0  0  0  0
  -21.6856   -6.0732   22.5277 C   0  0  0  0  0  0
  -21.4017   -6.5638   23.8209 C   0  0  0  0  0  0
  -21.3661   -5.6792   24.9173 C   0  0  0  0  0  0
  -21.6043   -4.3054   24.7225 C   0  0  0  0  0  0
  -21.8820   -3.8144   23.4347 C   0  0  0  0  0  0
  -21.9194   -4.6960   22.3402 C   0  0  0  0  0  0
  -22.7794  -13.5203   21.1885 C   0  0  0  0  0  0
  -22.1663   -4.2144   21.0979 F   0  0  0  0  0  0
  -21.5628   -3.4539   25.7740 F   0  0  0  0  0  0
  -29.9372  -13.7508   20.3823 N   0  0  0  0  0  0
  -26.2880  -12.9461   20.3240 N   0  0  0  0  0  0
  -25.9333  -11.6585   20.5729 N   0  0  0  0  0  0
  -22.0451  -12.8187   22.0440 N   0  0  0  0  0  0
  -25.4105  -15.1952   20.4147 N   0  0  0  0  0  0
  -31.6942  -15.1120   20.1162 O   0  0  0  0  0  0
  -21.6643   -6.8876   21.4239 O   0  0  0  0  0  0
  -22.3476  -14.5508   20.6729 O   0  0  0  0  0  0
  -24.6499  -31.8385   23.1836 C   0  0  0  0  0  0
  -25.9241  -32.4667   23.8246 C   0  0  1  0  0  0
  -27.2093  -27.0605   20.1771 C   0  0  0  0  0  0
  -25.5962  -33.8475   24.2157 N   0  0  0  0  0  0
  -23.4578  -30.4555   21.5305 C   0  0  2  0  0  0
  -24.9094  -28.8717   20.1140 C   0  0  0  0  0  0
  -22.7602  -29.4513   22.4828 C   0  0  0  0  0  0
  -18.0312  -28.1400   22.8465 C   0  0  0  0  0  0
  -24.1491  -36.7243   23.2642 C   0  0  0  0  0  0
  -26.0192  -30.6864   21.3988 C   0  0  0  0  0  0
  -26.0881  -29.2891   20.7467 C   0  0  0  0  0  0
  -27.2383  -28.4002   20.7623 C   0  0  0  0  0  0
  -26.0214  -26.7878   19.4649 C   0  0  0  0  0  0
  -24.8923  -27.6349   19.4555 C   0  0  0  0  0  0
  -23.6906  -29.7831   20.1520 C   0  0  0  0  0  0
  -25.4125  -36.3015   24.0313 C   0  0  1  0  0  0
  -20.5929  -28.3736   23.1212 C   0  0  2  0  0  0
  -20.6796  -26.9430   22.5401 C   0  0  0  0  0  0
  -19.5771  -26.6376   21.5212 C   0  0  0  0  0  0
  -18.1948  -26.7934   22.1619 C   0  0  0  0  0  0
  -19.1570  -28.8886   23.2828 C   0  0  0  0  0  0
  -18.9486  -30.1476   23.8864 C   0  0  0  0  0  0
  -17.6484  -30.6594   24.0555 C   0  0  0  0  0  0
  -25.9082  -34.9394   23.5049 C   0  0  0  0  0  0
  -16.5372  -29.9085   23.6338 C   0  0  0  0  0  0
  -16.7297  -28.6505   23.0354 C   0  0  0  0  0  0
  -26.4535  -31.6560   25.0717 C   0  0  0  0  0  0
  -25.3689  -31.3778   26.1391 C   0  0  0  0  0  0
  -27.0417  -30.2942   24.6367 C   0  0  0  0  0  0
  -27.6049  -32.4343   25.7505 C   0  0  0  0  0  0
  -27.5573  -37.1775   24.8465 C   0  0  0  0  0  0
  -21.4286  -29.3049   22.3576 N   0  0  0  0  0  0
  -26.4282  -37.3736   23.9412 N   0  0  0  0  0  0
  -24.7288  -31.0173   22.0917 N   0  0  0  0  0  0
  -23.4211  -28.8068   23.3007 O   0  0  0  0  0  0
  -28.2329  -26.0177   20.1998 O   0  0  0  0  0  0
  -26.5673  -34.8903   22.4632 O   0  0  0  0  0  0
  -23.5598  -32.1297   23.7008 O   0  0  0  0  0  0
  -30.3665  -19.9858   19.8184 C   0  0  0  0  0  0
  -30.6407  -18.5235   19.8449 C   0  0  0  0  0  0
  -29.2003  -20.4629   20.4185 C   0  0  0  0  0  0
  -29.7371  -17.6536   20.4548 C   0  0  0  0  0  0
  -28.8932  -23.1604   20.1994 C   0  0  0  0  0  0
  -26.5257  -24.1001   20.8238 C   0  0  0  0  0  0
  -28.0054  -24.5142   20.7002 C   0  0  2  0  0  0
  -28.6323  -21.8009   20.6047 N   0  0  0  0  0  0
  -29.6695  -16.1991   20.6140 N   0  0  0  0  0  0
  -29.8418  -23.3722   19.4403 O   0  0  0  0  0  0
  -31.7299  -18.0684   19.2702 F   0  0  0  0  0  0
  -28.4750  -18.8743   21.0136 S   0  0  0  0  0  0
  -31.4761  -12.8230   19.1949 H   0  0  0  0  0  0
  -30.4638  -11.7024   20.0577 H   0  0  0  0  0  0
  -29.8646  -11.7423   17.6114 H   0  0  0  0  0  0
  -29.6009  -13.4668   17.6862 H   0  0  0  0  0  0
  -27.9742  -11.2756   19.0044 H   0  0  0  0  0  0
  -27.4014  -12.4283   17.8269 H   0  0  0  0  0  0
  -27.5825  -14.2499   19.3976 H   0  0  0  0  0  0
  -28.7740  -12.3364   21.4620 H   0  0  0  0  0  0
  -28.3496  -14.0051   21.7546 H   0  0  0  0  0  0
  -25.2773   -9.5683   22.4757 H   0  0  0  0  0  0
  -24.0005   -7.4636   22.7475 H   0  0  0  0  0  0
  -21.0846   -8.8775   19.8952 H   0  0  0  0  0  0
  -22.3706  -10.9671   19.6162 H   0  0  0  0  0  0
  -21.2011   -7.6148   23.9711 H   0  0  0  0  0  0
  -21.1483   -6.0524   25.9076 H   0  0  0  0  0  0
  -22.0597   -2.7606   23.2851 H   0  0  0  0  0  0
  -22.4088  -11.9859   22.4831 H   0  0  0  0  0  0
  -21.1065  -13.1197   22.2650 H   0  0  0  0  0  0
  -24.6353  -15.8410   20.5199 H   0  0  0  0  0  0
  -26.2447  -15.6374   20.0521 H   0  0  0  0  0  0
  -26.7307  -32.5252   23.0966 H   0  0  0  0  0  0
  -25.0072  -33.9580   25.0280 H   0  0  0  0  0  0
  -22.7644  -31.2835   21.3703 H   0  0  0  0  0  0
  -23.3764  -35.9565   23.3289 H   0  0  0  0  0  0
  -24.3575  -36.8897   22.2060 H   0  0  0  0  0  0
  -23.7238  -37.6428   23.6696 H   0  0  0  0  0  0
  -26.1847  -31.4344   20.6222 H   0  0  0  0  0  0
  -26.8856  -30.7396   22.0459 H   0  0  0  0  0  0
  -28.1327  -28.7147   21.2812 H   0  0  0  0  0  0
  -25.9412  -25.8619   18.9178 H   0  0  0  0  0  0
  -24.0023  -27.3167   18.9296 H   0  0  0  0  0  0
  -23.8374  -30.5568   19.3974 H   0  0  0  0  0  0
  -22.8041  -29.2312   19.8350 H   0  0  0  0  0  0
  -25.1313  -36.1836   25.0806 H   0  0  0  0  0  0
  -21.0014  -28.3338   24.1338 H   0  0  0  0  0  0
  -20.5693  -26.2351   23.3630 H   0  0  0  0  0  0
  -21.6659  -26.7429   22.1197 H   0  0  0  0  0  0
  -19.6936  -25.6279   21.1265 H   0  0  0  0  0  0
  -19.6713  -27.3165   20.6724 H   0  0  0  0  0  0
  -17.4217  -26.6674   21.4021 H   0  0  0  0  0  0
  -18.0347  -26.0088   22.9028 H   0  0  0  0  0  0
  -19.7966  -30.7292   24.2224 H   0  0  0  0  0  0
  -17.5040  -31.6273   24.5160 H   0  0  0  0  0  0
  -15.5371  -30.2976   23.7685 H   0  0  0  0  0  0
  -15.8695  -28.0816   22.7084 H   0  0  0  0  0  0
  -24.5881  -30.7118   25.7698 H   0  0  0  0  0  0
  -24.8858  -32.2969   26.4716 H   0  0  0  0  0  0
  -25.7931  -30.9007   27.0234 H   0  0  0  0  0  0
  -26.3058  -29.6639   24.1357 H   0  0  0  0  0  0
  -27.3977  -29.7278   25.4983 H   0  0  0  0  0  0
  -27.8991  -30.4155   23.9743 H   0  0  0  0  0  0
  -27.2637  -33.3681   26.1990 H   0  0  0  0  0  0
  -28.3900  -32.6849   25.0357 H   0  0  0  0  0  0
  -28.0675  -31.8532   26.5496 H   0  0  0  0  0  0
  -28.2572  -38.0086   24.7516 H   0  0  0  0  0  0
  -28.1087  -36.2615   24.6285 H   0  0  0  0  0  0
  -27.2292  -37.1411   25.8866 H   0  0  0  0  0  0
  -20.9515  -29.8763   21.6743 H   0  0  0  0  0  0
  -26.0148  -38.2804   24.1420 H   0  0  0  0  0  0
  -31.0763  -20.6442   19.3396 H   0  0  0  0  0  0
  -26.4201  -23.1817   21.4010 H   0  0  0  0  0  0
  -26.0750  -23.9114   19.8507 H   0  0  0  0  0  0
  -25.9370  -24.8509   21.3500 H   0  0  0  0  0  0
  -28.3344  -24.6043   21.7360 H   0  0  0  0  0  0
  -27.8089  -21.7783   21.1915 H   0  0  0  0  0  0
  -28.7547  -15.9046   20.9191 H   0  0  0  0  0  0
  1 25  1  0  0  0
  1 30  2  0  0  0
  1 79  1  0  0  0
  2  3  1  0  0  0
  2 25  1  0  0  0
  2 83  1  0  0  0
  2 84  1  0  0  0
  3  4  1  0  0  0
  3 85  1  0  0  0
  3 86  1  0  0  0
  4  5  1  0  0  0
  4 87  1  0  0  0
  4 88  1  0  0  0
  5  6  1  0  0  0
  5 26  1  0  0  0
  5 89  1  0  0  0
  6 25  1  0  0  0
  6 90  1  0  0  0
  6 91  1  0  0  0
  7  8  2  0  0  0
  7 26  1  0  0  0
  7 29  1  0  0  0
  8  9  1  0  0  0
  8 22  1  0  0  0
  9 10  1  0  0  0
  9 27  2  0  0  0
 10 11  2  0  0  0
 10 15  1  0  0  0
 11 12  1  0  0  0
 11 92  1  0  0  0
 12 13  2  0  0  0
 12 93  1  0  0  0
 13 14  1  0  0  0
 13 31  1  0  0  0
 14 15  2  0  0  0
 14 94  1  0  0  0
 15 95  1  0  0  0
 16 17  2  0  0  0
 16 21  1  0  0  0
 16 31  1  0  0  0
 17 18  1  0  0  0
 17 96  1  0  0  0
 18 19  2  0  0  0
 18 97  1  0  0  0
 19 20  1  0  0  0
 19 24  1  0  0  0
 20 21  2  0  0  0
 20 98  1  0  0  0
 21 23  1  0  0  0
 22 28  1  0  0  0
 22 32  2  0  0  0
 26 27  1  0  0  0
 28 99  1  0  0  0
 28100  1  0  0  0
 29101  1  0  0  0
 29102  1  0  0  0
 33 34  1  0  0  0
 33 66  1  0  0  0
 33 70  2  0  0  0
 34 36  1  0  0  0
 34 59  1  0  0  0
 34103  1  0  0  0
 35 44  2  0  0  0
 35 45  1  0  0  0
 35 68  1  0  0  0
 36 56  1  0  0  0
 36104  1  0  0  0
 37 39  1  0  0  0
 37 47  1  0  0  0
 37 66  1  0  0  0
 37105  1  0  0  0
 38 43  2  0  0  0
 38 46  1  0  0  0
 38 47  1  0  0  0
 39 64  1  0  0  0
 39 67  2  0  0  0
 40 52  1  0  0  0
 40 53  2  0  0  0
 40 58  1  0  0  0
 41106  1  0  0  0
 41107  1  0  0  0
 41108  1  0  0  0
 41 48  1  0  0  0
 42 43  1  0  0  0
 42 66  1  0  0  0
 42109  1  0  0  0
 42110  1  0  0  0
 43 44  1  0  0  0
 44111  1  0  0  0
 45 46  2  0  0  0
 45112  1  0  0  0
 46113  1  0  0  0
 47114  1  0  0  0
 47115  1  0  0  0
 48 56  1  0  0  0
 48 65  1  0  0  0
 48116  1  0  0  0
 49 50  1  0  0  0
 49 53  1  0  0  0
 49 64  1  0  0  0
 49117  1  0  0  0
 50 51  1  0  0  0
 50118  1  0  0  0
 50119  1  0  0  0
 51 52  1  0  0  0
 51120  1  0  0  0
 51121  1  0  0  0
 52122  1  0  0  0
 52123  1  0  0  0
 53 54  1  0  0  0
 54 55  2  0  0  0
 54124  1  0  0  0
 55 57  1  0  0  0
 55125  1  0  0  0
 56 69  2  0  0  0
 57 58  2  0  0  0
 57126  1  0  0  0
 58127  1  0  0  0
 59 60  1  0  0  0
 59 61  1  0  0  0
 59 62  1  0  0  0
 60128  1  0  0  0
 60129  1  0  0  0
 60130  1  0  0  0
 61131  1  0  0  0
 61132  1  0  0  0
 61133  1  0  0  0
 62134  1  0  0  0
 62135  1  0  0  0
 62136  1  0  0  0
 63 65  1  0  0  0
 63137  1  0  0  0
 63138  1  0  0  0
 63139  1  0  0  0
 64140  1  0  0  0
 65141  1  0  0  0
 68 77  1  0  0  0
 71 72  1  0  0  0
 71 73  2  0  0  0
 71142  1  0  0  0
 72 74  2  0  0  0
 72 81  1  0  0  0
 73 78  1  0  0  0
 73 82  1  0  0  0
 74 79  1  0  0  0
 74 82  1  0  0  0
 75 77  1  0  0  0
 75 78  1  0  0  0
 75 80  2  0  0  0
 76143  1  0  0  0
 76144  1  0  0  0
 76145  1  0  0  0
 76 77  1  0  0  0
 77146  1  0  0  0
 78147  1  0  0  0
 79148  1  0  0  0
M  ISO  4   1 100  68 101  77 101  79 100
M  END
> <chiral flag>
0

> <version>
0

> <s_m_source_file>
/data/baiqing/PycharmProjects/Reinvent-master-3.2/result/LINK_invent/BTK/process_docking_weight1_custom_product_contain_oxygen_bond_distance_aromatic_linkinvent_7_9_3/rearranged_h_0184.sdf

> <i_m_source_file_index>
80

> <r_mmod_Potential_Energy-OPLS-2005>
599.805786132812

> <r_mmod_Stretch_Energy-OPLS-2005>
299.030487060547

> <r_mmod_Bend_Energy-OPLS-2005>
312.295074462891

> <r_mmod_Torsional_Energy-OPLS-2005>
247.789535522461

> <r_mmod_Improper_Torsional_Energy-OPLS-2005>
3.27535462379456

> <r_mmod_Van_der_Waal_Energy-OPLS-2005>
111.005615234375

> <r_mmod_Electrostatic_Energy-OPLS-2005>
-388.799163818359

> <r_mmod_Solvation_Energy-OPLS-2005>
-248.302780151367

> <b_mmod_Minimization_Converged-OPLS-2005>
0

> <r_mmod_RMS_Derivative-OPLS-2005>
0.678238272666931

$$$$
80
                    3D
 Structure written by MMmdl.
160168  0  0  1  0            999 V2000
  -30.7402  -14.4709   20.5983 C   0  0  0  0  0  0
  -30.4184  -12.3217   19.4201 C   0  0  0  0  0  0
  -29.4913  -12.5100   18.2033 C   0  0  0  0  0  0
  -28.0132  -12.3728   18.6161 C   0  0  0  0  0  0
  -27.6590  -13.2145   19.8718 C   0  0  2  0  0  0
  -28.7046  -13.0150   20.9932 C   0  0  0  0  0  0
  -25.2535  -13.8147   20.5637 C   0  0  0  0  0  0
  -24.1815  -13.0424   20.9190 C   0  0  0  0  0  0
  -24.6387  -11.6901   20.8753 C   0  0  0  0  0  0
  -23.9050  -10.4287   21.0408 C   0  0  0  0  0  0
  -24.3603   -9.4205   21.9184 C   0  0  0  0  0  0
  -23.6282   -8.2240   22.0755 C   0  0  0  0  0  0
  -22.4268   -8.0275   21.3543 C   0  0  0  0  0  0
  -21.9899   -9.0246   20.4649 C   0  0  0  0  0  0
  -22.7223  -10.2129   20.3056 C   0  0  0  0  0  0
  -21.6851   -6.0734   22.5281 C   0  0  0  0  0  0
  -21.4011   -6.5641   23.8210 C   0  0  0  0  0  0
  -21.3653   -5.6795   24.9172 C   0  0  0  0  0  0
  -21.6040   -4.3056   24.7226 C   0  0  0  0  0  0
  -21.8821   -3.8149   23.4347 C   0  0  0  0  0  0
  -21.9194   -4.6964   22.3403 C   0  0  0  0  0  0
  -22.7838  -13.5224   21.1839 C   0  0  0  0  0  0
  -22.1670   -4.2148   21.0980 F   0  0  0  0  0  0
  -21.5613   -3.4537   25.7736 F   0  0  0  0  0  0
  -30.0348  -13.3157   20.4369 N   0  0  0  0  0  0
  -26.3006  -12.9353   20.3360 N   0  0  0  0  0  0
  -25.9323  -11.6507   20.5786 N   0  0  0  0  0  0
  -22.0478  -12.8227   22.0402 N   0  0  0  0  0  0
  -25.4151  -15.1842   20.3905 N   0  0  0  0  0  0
  -31.8457  -14.6466   20.0794 O   0  0  0  0  0  0
  -21.6636   -6.8871   21.4240 O   0  0  0  0  0  0
  -22.3524  -14.5526   20.6678 O   0  0  0  0  0  0
  -24.6165  -31.8669   23.2103 C   0  0  0  0  0  0
  -25.9046  -32.4821   23.8394 C   0  0  1  0  0  0
  -27.2292  -27.4093   20.0893 C   0  0  0  0  0  0
  -25.5893  -33.8624   24.2319 N   0  0  0  0  0  0
  -23.4052  -30.4926   21.5524 C   0  0  2  0  0  0
  -24.8504  -28.9641   20.1119 C   0  0  0  0  0  0
  -22.7422  -29.4643   22.4975 C   0  0  0  0  0  0
  -18.0275  -28.1370   22.8487 C   0  0  0  0  0  0
  -24.1480  -36.7306   23.2642 C   0  0  0  0  0  0
  -25.9399  -30.8240   21.3705 C   0  0  0  0  0  0
  -26.0151  -29.4603   20.7103 C   0  0  0  0  0  0
  -27.2078  -28.6925   20.6943 C   0  0  0  0  0  0
  -26.0389  -26.9461   19.4751 C   0  0  0  0  0  0
  -24.8587  -27.7072   19.4914 C   0  0  0  0  0  0
  -23.6137  -29.8317   20.1653 C   0  0  0  0  0  0
  -25.4101  -36.3113   24.0341 C   0  0  1  0  0  0
  -20.5869  -28.3649   23.1314 C   0  0  2  0  0  0
  -20.6761  -26.9378   22.5418 C   0  0  0  0  0  0
  -19.5741  -26.6372   21.5215 C   0  0  0  0  0  0
  -18.1916  -26.7916   22.1621 C   0  0  0  0  0  0
  -19.1526  -28.8822   23.2895 C   0  0  0  0  0  0
  -18.9457  -30.1431   23.8899 C   0  0  0  0  0  0
  -17.6460  -30.6575   24.0548 C   0  0  0  0  0  0
  -25.9034  -34.9482   23.5132 C   0  0  0  0  0  0
  -16.5348  -29.9074   23.6333 C   0  0  0  0  0  0
  -16.7263  -28.6495   23.0345 C   0  0  0  0  0  0
  -26.4466  -31.6614   25.0733 C   0  0  0  0  0  0
  -25.3731  -31.3735   26.1485 C   0  0  0  0  0  0
  -27.0300  -30.3053   24.6131 C   0  0  0  0  0  0
  -27.6027  -32.4350   25.7500 C   0  0  0  0  0  0
  -27.5575  -37.1805   24.8468 C   0  0  0  0  0  0
  -21.4147  -29.3016   22.3717 N   0  0  0  0  0  0
  -26.4288  -37.3798   23.9417 N   0  0  0  0  0  0
  -24.6722  -31.0753   22.1019 N   0  0  0  0  0  0
  -23.4191  -28.8175   23.3010 O   0  0  0  0  0  0
  -28.3801  -26.6309   20.1212 O   0  0  0  0  0  0
  -26.5606  -34.8935   22.4696 O   0  0  0  0  0  0
  -23.5348  -32.1430   23.7479 O   0  0  0  0  0  0
  -28.6476  -19.7862   20.9449 C   0  0  0  0  0  0
  -28.8229  -18.3892   21.2263 C   0  0  0  0  0  0
  -30.1495  -18.0256   21.3377 C   0  0  0  0  0  0
  -29.8174  -20.4981   20.8438 C   0  0  0  0  0  0
  -29.3346  -24.3062   20.3579 C   0  0  0  0  0  0
  -27.3895  -17.1350   22.8837 C   0  0  0  0  0  0
  -28.5134  -22.9181   22.2929 C   0  0  0  0  0  0
  -27.6538  -17.4678   21.4105 C   0  0  0  0  0  0
  -30.7942  -16.7086   21.7428 C   0  0  0  0  0  0
  -28.1744  -25.2142   19.8916 C   0  0  0  0  0  0
  -28.9480  -22.8641   20.8161 C   0  0  2  0  0  0
  -30.0233  -21.8746   20.6302 N   0  0  0  0  0  0
  -30.1493  -15.4513   21.3089 N   0  0  0  0  0  0
  -30.5010  -24.7141   20.3604 O   0  0  0  0  0  0
  -31.1788  -19.4216   21.0481 S   0  0  0  0  0  0
  -31.4621  -12.4129   19.1143 H   0  0  0  0  0  0
  -30.3178  -11.3140   19.8263 H   0  0  0  0  0  0
  -29.7313  -11.7794   17.4294 H   0  0  0  0  0  0
  -29.6603  -13.4927   17.7600 H   0  0  0  0  0  0
  -27.8193  -11.3171   18.8094 H   0  0  0  0  0  0
  -27.3656  -12.6506   17.7835 H   0  0  0  0  0  0
  -27.6971  -14.2608   19.5690 H   0  0  0  0  0  0
  -28.6852  -11.9844   21.3508 H   0  0  0  0  0  0
  -28.4628  -13.6295   21.8606 H   0  0  0  0  0  0
  -25.2744   -9.5687   22.4758 H   0  0  0  0  0  0
  -23.9992   -7.4631   22.7473 H   0  0  0  0  0  0
  -21.0828   -8.8757   19.8956 H   0  0  0  0  0  0
  -22.3670  -10.9663   19.6165 H   0  0  0  0  0  0
  -21.2007   -7.6148   23.9711 H   0  0  0  0  0  0
  -21.1472   -6.0526   25.9070 H   0  0  0  0  0  0
  -22.0606   -2.7610   23.2849 H   0  0  0  0  0  0
  -22.4091  -11.9898   22.4808 H   0  0  0  0  0  0
  -21.1086  -13.1251   22.2574 H   0  0  0  0  0  0
  -24.6424  -15.8329   20.4886 H   0  0  0  0  0  0
  -26.2483  -15.6131   20.0131 H   0  0  0  0  0  0
  -26.7104  -32.5516   23.1142 H   0  0  0  0  0  0
  -25.0040  -33.9790   25.0465 H   0  0  0  0  0  0
  -22.6941  -31.3102   21.4153 H   0  0  0  0  0  0
  -23.3751  -35.9633   23.3326 H   0  0  0  0  0  0
  -24.3570  -36.8903   22.2053 H   0  0  0  0  0  0
  -23.7236  -37.6516   23.6647 H   0  0  0  0  0  0
  -26.0645  -31.5940   20.6079 H   0  0  0  0  0  0
  -26.8242  -30.8687   21.9942 H   0  0  0  0  0  0
  -28.1035  -29.0716   21.1663 H   0  0  0  0  0  0
  -25.9872  -25.9928   18.9702 H   0  0  0  0  0  0
  -23.9653  -27.3195   19.0226 H   0  0  0  0  0  0
  -23.7216  -30.6102   19.4089 H   0  0  0  0  0  0
  -22.7372  -29.2538   19.8671 H   0  0  0  0  0  0
  -25.1284  -36.1973   25.0838 H   0  0  0  0  0  0
  -20.9957  -28.3202   24.1436 H   0  0  0  0  0  0
  -20.5658  -26.2239   23.3596 H   0  0  0  0  0  0
  -21.6628  -26.7409   22.1203 H   0  0  0  0  0  0
  -19.6899  -25.6289   21.1221 H   0  0  0  0  0  0
  -19.6696  -27.3196   20.6754 H   0  0  0  0  0  0
  -17.4188  -26.6659   21.4023 H   0  0  0  0  0  0
  -18.0308  -26.0064   22.9023 H   0  0  0  0  0  0
  -19.7937  -30.7239   24.2264 H   0  0  0  0  0  0
  -17.5026  -31.6266   24.5134 H   0  0  0  0  0  0
  -15.5352  -30.2974   23.7664 H   0  0  0  0  0  0
  -15.8659  -28.0816   22.7058 H   0  0  0  0  0  0
  -24.5898  -30.7081   25.7842 H   0  0  0  0  0  0
  -24.8923  -32.2896   26.4932 H   0  0  0  0  0  0
  -25.8087  -30.8915   27.0244 H   0  0  0  0  0  0
  -26.2849  -29.6823   24.1166 H   0  0  0  0  0  0
  -27.4049  -29.7288   25.4597 H   0  0  0  0  0  0
  -27.8699  -30.4382   23.9305 H   0  0  0  0  0  0
  -27.2625  -33.3649   26.2072 H   0  0  0  0  0  0
  -28.3829  -32.6920   25.0325 H   0  0  0  0  0  0
  -28.0702  -31.8487   26.5422 H   0  0  0  0  0  0
  -28.2601  -38.0091   24.7513 H   0  0  0  0  0  0
  -28.1064  -36.2628   24.6302 H   0  0  0  0  0  0
  -27.2298  -37.1472   25.8872 H   0  0  0  0  0  0
  -20.9294  -29.8762   21.6972 H   0  0  0  0  0  0
  -26.0180  -38.2878   24.1422 H   0  0  0  0  0  0
  -27.6615  -20.2189   20.8515 H   0  0  0  0  0  0
  -26.5321  -16.4679   22.9797 H   0  0  0  0  0  0
  -27.1741  -18.0374   23.4563 H   0  0  0  0  0  0
  -28.2445  -16.6431   23.3472 H   0  0  0  0  0  0
  -27.6992  -23.6286   22.4419 H   0  0  0  0  0  0
  -29.3378  -23.2264   22.9382 H   0  0  0  0  0  0
  -28.1580  -21.9526   22.6525 H   0  0  0  0  0  0
  -27.8054  -16.5506   20.8449 H   0  0  0  0  0  0
  -26.7551  -17.9169   20.9859 H   0  0  0  0  0  0
  -30.8328  -16.6745   22.8324 H   0  0  0  0  0  0
  -31.8404  -16.7244   21.4341 H   0  0  0  0  0  0
  -27.2795  -24.8787   20.4161 H   0  0  0  0  0  0
  -28.0168  -25.0378   18.8277 H   0  0  0  0  0  0
  -28.0967  -22.5436   20.2136 H   0  0  0  0  0  0
  -30.9528  -22.2677   20.4913 H   0  0  0  0  0  0
  -29.2338  -15.2500   21.6784 H   0  0  0  0  0  0
  1 25  1  0  0  0
  1 30  2  0  0  0
  1 83  1  0  0  0
  2  3  1  0  0  0
  2 25  1  0  0  0
  2 86  1  0  0  0
  2 87  1  0  0  0
  3  4  1  0  0  0
  3 88  1  0  0  0
  3 89  1  0  0  0
  4  5  1  0  0  0
  4 90  1  0  0  0
  4 91  1  0  0  0
  5  6  1  0  0  0
  5 26  1  0  0  0
  5 92  1  0  0  0
  6 25  1  0  0  0
  6 93  1  0  0  0
  6 94  1  0  0  0
  7  8  2  0  0  0
  7 26  1  0  0  0
  7 29  1  0  0  0
  8  9  1  0  0  0
  8 22  1  0  0  0
  9 10  1  0  0  0
  9 27  2  0  0  0
 10 11  2  0  0  0
 10 15  1  0  0  0
 11 12  1  0  0  0
 11 95  1  0  0  0
 12 13  2  0  0  0
 12 96  1  0  0  0
 13 14  1  0  0  0
 13 31  1  0  0  0
 14 15  2  0  0  0
 14 97  1  0  0  0
 15 98  1  0  0  0
 16 17  2  0  0  0
 16 21  1  0  0  0
 16 31  1  0  0  0
 17 18  1  0  0  0
 17 99  1  0  0  0
 18 19  2  0  0  0
 18100  1  0  0  0
 19 20  1  0  0  0
 19 24  1  0  0  0
 20 21  2  0  0  0
 20101  1  0  0  0
 21 23  1  0  0  0
 22 28  1  0  0  0
 22 32  2  0  0  0
 26 27  1  0  0  0
 28102  1  0  0  0
 28103  1  0  0  0
 29104  1  0  0  0
 29105  1  0  0  0
 33 34  1  0  0  0
 33 66  1  0  0  0
 33 70  2  0  0  0
 34 36  1  0  0  0
 34 59  1  0  0  0
 34106  1  0  0  0
 35 44  2  0  0  0
 35 45  1  0  0  0
 35 68  1  0  0  0
 36 56  1  0  0  0
 36107  1  0  0  0
 37 39  1  0  0  0
 37 47  1  0  0  0
 37 66  1  0  0  0
 37108  1  0  0  0
 38 43  2  0  0  0
 38 46  1  0  0  0
 38 47  1  0  0  0
 39 64  1  0  0  0
 39 67  2  0  0  0
 40 52  1  0  0  0
 40 53  2  0  0  0
 40 58  1  0  0  0
 41109  1  0  0  0
 41110  1  0  0  0
 41111  1  0  0  0
 41 48  1  0  0  0
 42 43  1  0  0  0
 42 66  1  0  0  0
 42112  1  0  0  0
 42113  1  0  0  0
 43 44  1  0  0  0
 44114  1  0  0  0
 45 46  2  0  0  0
 45115  1  0  0  0
 46116  1  0  0  0
 47117  1  0  0  0
 47118  1  0  0  0
 48 56  1  0  0  0
 48 65  1  0  0  0
 48119  1  0  0  0
 49 50  1  0  0  0
 49 53  1  0  0  0
 49 64  1  0  0  0
 49120  1  0  0  0
 50 51  1  0  0  0
 50121  1  0  0  0
 50122  1  0  0  0
 51 52  1  0  0  0
 51123  1  0  0  0
 51124  1  0  0  0
 52125  1  0  0  0
 52126  1  0  0  0
 53 54  1  0  0  0
 54 55  2  0  0  0
 54127  1  0  0  0
 55 57  1  0  0  0
 55128  1  0  0  0
 56 69  2  0  0  0
 57 58  2  0  0  0
 57129  1  0  0  0
 58130  1  0  0  0
 59 60  1  0  0  0
 59 61  1  0  0  0
 59 62  1  0  0  0
 60131  1  0  0  0
 60132  1  0  0  0
 60133  1  0  0  0
 61134  1  0  0  0
 61135  1  0  0  0
 61136  1  0  0  0
 62137  1  0  0  0
 62138  1  0  0  0
 62139  1  0  0  0
 63 65  1  0  0  0
 63140  1  0  0  0
 63141  1  0  0  0
 63142  1  0  0  0
 64143  1  0  0  0
 65144  1  0  0  0
 68 80  1  0  0  0
 71 72  1  0  0  0
 71 74  2  0  0  0
 71145  1  0  0  0
 72 73  2  0  0  0
 72 78  1  0  0  0
 73 79  1  0  0  0
 73 85  1  0  0  0
 74 82  1  0  0  0
 74 85  1  0  0  0
 75 80  1  0  0  0
 75 81  1  0  0  0
 75 84  2  0  0  0
 76 78  1  0  0  0
 76146  1  0  0  0
 76147  1  0  0  0
 76148  1  0  0  0
 77149  1  0  0  0
 77150  1  0  0  0
 77151  1  0  0  0
 77 81  1  0  0  0
 78152  1  0  0  0
 78153  1  0  0  0
 79 83  1  0  0  0
 79154  1  0  0  0
 79155  1  0  0  0
 80156  1  0  0  0
 80157  1  0  0  0
 81 82  1  0  0  0
 81158  1  0  0  0
 82159  1  0  0  0
 83160  1  0  0  0
M  ISO  4   1 100  68 101  80 101  83 100
M  END
> <chiral flag>
0

> <version>
0

> <s_m_source_file>
/data/baiqing/PycharmProjects/Reinvent-master-3.2/result/LINK_invent/BTK/process_docking_weight1_custom_product_contain_oxygen_bond_distance_aromatic_linkinvent_7_9_3/rearranged_h_0184.sdf

> <i_m_source_file_index>
81

> <r_mmod_Potential_Energy-OPLS-2005>
-88.9029541015625

> <r_mmod_Stretch_Energy-OPLS-2005>
41.773063659668

> <r_mmod_Bend_Energy-OPLS-2005>
109.714859008789

> <r_mmod_Torsional_Energy-OPLS-2005>
195.384689331055

> <r_mmod_Improper_Torsional_Energy-OPLS-2005>
2.78026962280273

> <r_mmod_Van_der_Waal_Energy-OPLS-2005>
126.141120910645

> <r_mmod_Electrostatic_Energy-OPLS-2005>
-348.284820556641

> <r_mmod_Solvation_Energy-OPLS-2005>
-232.013748168945

> <b_mmod_Minimization_Converged-OPLS-2005>
0

> <r_mmod_RMS_Derivative-OPLS-2005>
1.36217558383942

$$$$
81
                    3D
 Structure written by MMmdl.
150158  0  0  1  0            999 V2000
  -30.6062  -14.7223   20.4618 C   0  0  0  0  0  0
  -30.4348  -12.4372   19.4661 C   0  0  0  0  0  0
  -29.5092  -12.5059   18.2313 C   0  0  0  0  0  0
  -28.0340  -12.3340   18.6437 C   0  0  0  0  0  0
  -27.6442  -13.2253   19.8531 C   0  0  2  0  0  0
  -28.6905  -13.1372   20.9865 C   0  0  0  0  0  0
  -25.2519  -13.8183   20.5677 C   0  0  0  0  0  0
  -24.1810  -13.0436   20.9212 C   0  0  0  0  0  0
  -24.6396  -11.6913   20.8760 C   0  0  0  0  0  0
  -23.9071  -10.4291   21.0412 C   0  0  0  0  0  0
  -24.3623   -9.4204   21.9187 C   0  0  0  0  0  0
  -23.6298   -8.2240   22.0753 C   0  0  0  0  0  0
  -22.4280   -8.0280   21.3546 C   0  0  0  0  0  0
  -21.9916   -9.0252   20.4648 C   0  0  0  0  0  0
  -22.7242  -10.2131   20.3059 C   0  0  0  0  0  0
  -21.6852   -6.0735   22.5281 C   0  0  0  0  0  0
  -21.4010   -6.5640   23.8213 C   0  0  0  0  0  0
  -21.3663   -5.6794   24.9177 C   0  0  0  0  0  0
  -21.6043   -4.3057   24.7229 C   0  0  0  0  0  0
  -21.8818   -3.8148   23.4352 C   0  0  0  0  0  0
  -21.9191   -4.6964   22.3407 C   0  0  0  0  0  0
  -22.7831  -13.5222   21.1870 C   0  0  0  0  0  0
  -22.1658   -4.2149   21.0984 F   0  0  0  0  0  0
  -21.5633   -3.4540   25.7743 F   0  0  0  0  0  0
  -29.9943  -13.4900   20.4086 N   0  0  0  0  0  0
  -26.2944  -12.9378   20.3279 N   0  0  0  0  0  0
  -25.9324  -11.6531   20.5762 N   0  0  0  0  0  0
  -22.0477  -12.8210   22.0426 N   0  0  0  0  0  0
  -25.4200  -15.1904   20.4048 N   0  0  0  0  0  0
  -31.7961  -14.8250   20.1450 O   0  0  0  0  0  0
  -21.6640   -6.8877   21.4244 O   0  0  0  0  0  0
  -22.3517  -14.5529   20.6715 O   0  0  0  0  0  0
  -24.6315  -31.8560   23.1993 C   0  0  0  0  0  0
  -25.9143  -32.4759   23.8339 C   0  0  1  0  0  0
  -27.2188  -27.2691   20.1213 C   0  0  0  0  0  0
  -25.5945  -33.8562   24.2261 N   0  0  0  0  0  0
  -23.4273  -30.4801   21.5423 C   0  0  2  0  0  0
  -24.8736  -28.9309   20.1092 C   0  0  0  0  0  0
  -22.7501  -29.4613   22.4907 C   0  0  0  0  0  0
  -18.0296  -28.1379   22.8493 C   0  0  0  0  0  0
  -24.1494  -36.7282   23.2640 C   0  0  0  0  0  0
  -25.9744  -30.7720   21.3779 C   0  0  0  0  0  0
  -26.0467  -29.3964   20.7170 C   0  0  0  0  0  0
  -27.2222  -28.5787   20.7108 C   0  0  0  0  0  0
  -26.0199  -26.8729   19.4841 C   0  0  0  0  0  0
  -24.8657  -27.6774   19.4822 C   0  0  0  0  0  0
  -23.6437  -29.8157   20.1583 C   0  0  0  0  0  0
  -25.4121  -36.3070   24.0322 C   0  0  1  0  0  0
  -20.5903  -28.3698   23.1266 C   0  0  2  0  0  0
  -20.6781  -26.9413   22.5405 C   0  0  0  0  0  0
  -19.5754  -26.6377   21.5215 C   0  0  0  0  0  0
  -18.1935  -26.7924   22.1627 C   0  0  0  0  0  0
  -19.1549  -28.8856   23.2876 C   0  0  0  0  0  0
  -18.9466  -30.1457   23.8897 C   0  0  0  0  0  0
  -17.6461  -30.6584   24.0562 C   0  0  0  0  0  0
  -25.9061  -34.9438   23.5089 C   0  0  0  0  0  0
  -16.5356  -29.9074   23.6333 C   0  0  0  0  0  0
  -16.7281  -28.6489   23.0365 C   0  0  0  0  0  0
  -26.4505  -31.6591   25.0735 C   0  0  0  0  0  0
  -25.3719  -31.3736   26.1448 C   0  0  0  0  0  0
  -27.0356  -30.3007   24.6237 C   0  0  0  0  0  0
  -27.6065  -32.4335   25.7502 C   0  0  0  0  0  0
  -27.5580  -37.1800   24.8463 C   0  0  0  0  0  0
  -21.4210  -29.3047   22.3651 N   0  0  0  0  0  0
  -26.4295  -37.3769   23.9404 N   0  0  0  0  0  0
  -24.6969  -31.0534   22.0960 N   0  0  0  0  0  0
  -23.4202  -28.8145   23.2999 O   0  0  0  0  0  0
  -28.3142  -26.3756   20.1819 O   0  0  0  0  0  0
  -26.5626  -34.8911   22.4654 O   0  0  0  0  0  0
  -23.5467  -32.1378   23.7289 O   0  0  0  0  0  0
  -31.2276  -19.2672   20.4545 C   0  0  0  0  0  0
  -29.9922  -19.9023   20.4490 C   0  0  0  0  0  0
  -30.0202  -17.2841   20.5658 C   0  0  0  0  0  0
  -28.8193  -22.2124   20.3514 C   0  0  0  0  0  0
  -32.5542  -19.9643   20.4140 C   0  0  0  0  0  0
  -28.0689  -24.8998   19.9963 C   0  0  0  0  0  0
  -29.1666  -23.7828   20.3947 C   0  0  2  0  0  0
  -31.2325  -17.8491   20.5130 N   0  0  0  0  0  0
  -29.8534  -21.3020   20.4050 N   0  0  0  0  0  0
  -29.7913  -15.8245   20.6642 N   0  0  0  0  0  0
  -27.6445  -21.8443   20.2830 O   0  0  0  0  0  0
  -30.2565  -23.9779   19.6462 F   0  0  0  0  0  0
  -28.7640  -18.5963   20.5350 S   0  0  0  0  0  0
  -31.4756  -12.5618   19.1630 H   0  0  0  0  0  0
  -30.3777  -11.4554   19.9386 H   0  0  0  0  0  0
  -29.7876  -11.7394   17.5068 H   0  0  0  0  0  0
  -29.6395  -13.4644   17.7264 H   0  0  0  0  0  0
  -27.8851  -11.2837   18.8974 H   0  0  0  0  0  0
  -27.3774  -12.5376   17.7971 H   0  0  0  0  0  0
  -27.6435  -14.2498   19.4824 H   0  0  0  0  0  0
  -28.7216  -12.1305   21.4066 H   0  0  0  0  0  0
  -28.4301  -13.8019   21.8118 H   0  0  0  0  0  0
  -25.2770   -9.5678   22.4760 H   0  0  0  0  0  0
  -24.0009   -7.4629   22.7469 H   0  0  0  0  0  0
  -21.0847   -8.8771   19.8953 H   0  0  0  0  0  0
  -22.3706  -10.9670   19.6165 H   0  0  0  0  0  0
  -21.1999   -7.6146   23.9721 H   0  0  0  0  0  0
  -21.1485   -6.0521   25.9078 H   0  0  0  0  0  0
  -22.0595   -2.7612   23.2852 H   0  0  0  0  0  0
  -22.4092  -11.9871   22.4816 H   0  0  0  0  0  0
  -21.1093  -13.1226   22.2631 H   0  0  0  0  0  0
  -24.6432  -15.8359   20.4995 H   0  0  0  0  0  0
  -26.2461  -15.6264   20.0171 H   0  0  0  0  0  0
  -26.7212  -32.5407   23.1083 H   0  0  0  0  0  0
  -25.0118  -33.9707   25.0423 H   0  0  0  0  0  0
  -22.7247  -31.3034   21.3964 H   0  0  0  0  0  0
  -23.3758  -35.9613   23.3298 H   0  0  0  0  0  0
  -24.3592  -36.8910   22.2058 H   0  0  0  0  0  0
  -23.7243  -37.6477   23.6669 H   0  0  0  0  0  0
  -26.1153  -31.5356   20.6113 H   0  0  0  0  0  0
  -26.8504  -30.8172   22.0131 H   0  0  0  0  0  0
  -28.1195  -28.9308   21.2000 H   0  0  0  0  0  0
  -25.9387  -25.9166   18.9902 H   0  0  0  0  0  0
  -23.9676  -27.3161   19.0008 H   0  0  0  0  0  0
  -23.7635  -30.5911   19.4011 H   0  0  0  0  0  0
  -22.7632  -29.2456   19.8557 H   0  0  0  0  0  0
  -25.1301  -36.1917   25.0813 H   0  0  0  0  0  0
  -21.0011  -28.3270   24.1380 H   0  0  0  0  0  0
  -20.5692  -26.2302   23.3608 H   0  0  0  0  0  0
  -21.6644  -26.7434   22.1192 H   0  0  0  0  0  0
  -19.6914  -25.6285   21.1251 H   0  0  0  0  0  0
  -19.6688  -27.3183   20.6742 H   0  0  0  0  0  0
  -17.4206  -26.6691   21.4025 H   0  0  0  0  0  0
  -18.0327  -26.0055   22.9011 H   0  0  0  0  0  0
  -19.7939  -30.7280   24.2264 H   0  0  0  0  0  0
  -17.5009  -31.6268   24.5152 H   0  0  0  0  0  0
  -15.5353  -30.2972   23.7652 H   0  0  0  0  0  0
  -15.8684  -28.0797   22.7091 H   0  0  0  0  0  0
  -24.5912  -30.7068   25.7766 H   0  0  0  0  0  0
  -24.8889  -32.2899   26.4854 H   0  0  0  0  0  0
  -25.8029  -30.8928   27.0238 H   0  0  0  0  0  0
  -26.2945  -29.6752   24.1253 H   0  0  0  0  0  0
  -27.4011  -29.7285   25.4771 H   0  0  0  0  0  0
  -27.8831  -30.4270   23.9497 H   0  0  0  0  0  0
  -27.2685  -33.3649   26.2054 H   0  0  0  0  0  0
  -28.3884  -32.6876   25.0333 H   0  0  0  0  0  0
  -28.0722  -31.8477   26.5435 H   0  0  0  0  0  0
  -28.2592  -38.0103   24.7516 H   0  0  0  0  0  0
  -28.1078  -36.2632   24.6278 H   0  0  0  0  0  0
  -27.2297  -37.1434   25.8865 H   0  0  0  0  0  0
  -20.9388  -29.8772   21.6862 H   0  0  0  0  0  0
  -26.0168  -38.2840   24.1402 H   0  0  0  0  0  0
  -32.6622  -20.5528   19.5029 H   0  0  0  0  0  0
  -33.3862  -19.2608   20.4478 H   0  0  0  0  0  0
  -32.6689  -20.6403   21.2615 H   0  0  0  0  0  0
  -27.1657  -24.6494   20.5545 H   0  0  0  0  0  0
  -27.8251  -24.7412   18.9457 H   0  0  0  0  0  0
  -29.4779  -23.9878   21.4187 H   0  0  0  0  0  0
  -30.7402  -21.7887   20.4125 H   0  0  0  0  0  0
  -28.8331  -15.5757   20.8483 H   0  0  0  0  0  0
  1 25  1  0  0  0
  1 30  2  0  0  0
  1 80  1  0  0  0
  2  3  1  0  0  0
  2 25  1  0  0  0
  2 84  1  0  0  0
  2 85  1  0  0  0
  3  4  1  0  0  0
  3 86  1  0  0  0
  3 87  1  0  0  0
  4  5  1  0  0  0
  4 88  1  0  0  0
  4 89  1  0  0  0
  5  6  1  0  0  0
  5 26  1  0  0  0
  5 90  1  0  0  0
  6 25  1  0  0  0
  6 91  1  0  0  0
  6 92  1  0  0  0
  7  8  2  0  0  0
  7 26  1  0  0  0
  7 29  1  0  0  0
  8  9  1  0  0  0
  8 22  1  0  0  0
  9 10  1  0  0  0
  9 27  2  0  0  0
 10 11  2  0  0  0
 10 15  1  0  0  0
 11 12  1  0  0  0
 11 93  1  0  0  0
 12 13  2  0  0  0
 12 94  1  0  0  0
 13 14  1  0  0  0
 13 31  1  0  0  0
 14 15  2  0  0  0
 14 95  1  0  0  0
 15 96  1  0  0  0
 16 17  2  0  0  0
 16 21  1  0  0  0
 16 31  1  0  0  0
 17 18  1  0  0  0
 17 97  1  0  0  0
 18 19  2  0  0  0
 18 98  1  0  0  0
 19 20  1  0  0  0
 19 24  1  0  0  0
 20 21  2  0  0  0
 20 99  1  0  0  0
 21 23  1  0  0  0
 22 28  1  0  0  0
 22 32  2  0  0  0
 26 27  1  0  0  0
 28100  1  0  0  0
 28101  1  0  0  0
 29102  1  0  0  0
 29103  1  0  0  0
 33 34  1  0  0  0
 33 66  1  0  0  0
 33 70  2  0  0  0
 34 36  1  0  0  0
 34 59  1  0  0  0
 34104  1  0  0  0
 35 44  2  0  0  0
 35 45  1  0  0  0
 35 68  1  0  0  0
 36 56  1  0  0  0
 36105  1  0  0  0
 37 39  1  0  0  0
 37 47  1  0  0  0
 37 66  1  0  0  0
 37106  1  0  0  0
 38 43  2  0  0  0
 38 46  1  0  0  0
 38 47  1  0  0  0
 39 64  1  0  0  0
 39 67  2  0  0  0
 40 52  1  0  0  0
 40 53  2  0  0  0
 40 58  1  0  0  0
 41107  1  0  0  0
 41108  1  0  0  0
 41109  1  0  0  0
 41 48  1  0  0  0
 42 43  1  0  0  0
 42 66  1  0  0  0
 42110  1  0  0  0
 42111  1  0  0  0
 43 44  1  0  0  0
 44112  1  0  0  0
 45 46  2  0  0  0
 45113  1  0  0  0
 46114  1  0  0  0
 47115  1  0  0  0
 47116  1  0  0  0
 48 56  1  0  0  0
 48 65  1  0  0  0
 48117  1  0  0  0
 49 50  1  0  0  0
 49 53  1  0  0  0
 49 64  1  0  0  0
 49118  1  0  0  0
 50 51  1  0  0  0
 50119  1  0  0  0
 50120  1  0  0  0
 51 52  1  0  0  0
 51121  1  0  0  0
 51122  1  0  0  0
 52123  1  0  0  0
 52124  1  0  0  0
 53 54  1  0  0  0
 54 55  2  0  0  0
 54125  1  0  0  0
 55 57  1  0  0  0
 55126  1  0  0  0
 56 69  2  0  0  0
 57 58  2  0  0  0
 57127  1  0  0  0
 58128  1  0  0  0
 59 60  1  0  0  0
 59 61  1  0  0  0
 59 62  1  0  0  0
 60129  1  0  0  0
 60130  1  0  0  0
 60131  1  0  0  0
 61132  1  0  0  0
 61133  1  0  0  0
 61134  1  0  0  0
 62135  1  0  0  0
 62136  1  0  0  0
 62137  1  0  0  0
 63 65  1  0  0  0
 63138  1  0  0  0
 63139  1  0  0  0
 63140  1  0  0  0
 64141  1  0  0  0
 65142  1  0  0  0
 68 76  1  0  0  0
 71 72  2  0  0  0
 71 75  1  0  0  0
 71 78  1  0  0  0
 72 79  1  0  0  0
 72 83  1  0  0  0
 73 78  2  0  0  0
 73 80  1  0  0  0
 73 83  1  0  0  0
 74 77  1  0  0  0
 74 79  1  0  0  0
 74 81  2  0  0  0
 75143  1  0  0  0
 75144  1  0  0  0
 75145  1  0  0  0
 76 77  1  0  0  0
 76146  1  0  0  0
 76147  1  0  0  0
 77 82  1  0  0  0
 77148  1  0  0  0
 79149  1  0  0  0
 80150  1  0  0  0
M  ISO  4   1 100  68 101  76 101  80 100
M  END
> <chiral flag>
0

> <version>
0

> <s_m_source_file>
/data/baiqing/PycharmProjects/Reinvent-master-3.2/result/LINK_invent/BTK/process_docking_weight1_custom_product_contain_oxygen_bond_distance_aromatic_linkinvent_7_9_3/rearranged_h_0184.sdf

> <i_m_source_file_index>
82

> <r_mmod_Potential_Energy-OPLS-2005>
36.8492546081543

> <r_mmod_Stretch_Energy-OPLS-2005>
107.176475524902

> <r_mmod_Bend_Energy-OPLS-2005>
179.119049072266

> <r_mmod_Torsional_Energy-OPLS-2005>
198.959854125977

> <r_mmod_Improper_Torsional_Energy-OPLS-2005>
5.1529426574707

> <r_mmod_Van_der_Waal_Energy-OPLS-2005>
119.307579040527

> <r_mmod_Electrostatic_Energy-OPLS-2005>
-403.966674804688

> <r_mmod_Solvation_Energy-OPLS-2005>
-246.574005126953

> <b_mmod_Minimization_Converged-OPLS-2005>
0

> <r_mmod_RMS_Derivative-OPLS-2005>
0.93544864654541

$$$$
82
                    3D
 Structure written by MMmdl.
162170  0  0  1  0            999 V2000
  -30.7051  -14.5140   20.5418 C   0  0  0  0  0  0
  -30.4029  -12.3217   19.4586 C   0  0  0  0  0  0
  -29.4933  -12.5264   18.2281 C   0  0  0  0  0  0
  -28.0110  -12.3853   18.6176 C   0  0  0  0  0  0
  -27.6506  -13.2215   19.8770 C   0  0  2  0  0  0
  -28.6880  -13.0357   21.0067 C   0  0  0  0  0  0
  -25.2519  -13.8164   20.5668 C   0  0  0  0  0  0
  -24.1829  -13.0397   20.9136 C   0  0  0  0  0  0
  -24.6448  -11.6875   20.8765 C   0  0  0  0  0  0
  -23.9165  -10.4245   21.0411 C   0  0  0  0  0  0
  -24.3708   -9.4174   21.9211 C   0  0  0  0  0  0
  -23.6339   -8.2234   22.0782 C   0  0  0  0  0  0
  -22.4320   -8.0292   21.3564 C   0  0  0  0  0  0
  -21.9982   -9.0271   20.4671 C   0  0  0  0  0  0
  -22.7331  -10.2114   20.3059 C   0  0  0  0  0  0
  -21.6845   -6.0775   22.5303 C   0  0  0  0  0  0
  -21.4021   -6.5677   23.8241 C   0  0  0  0  0  0
  -21.3641   -5.6813   24.9192 C   0  0  0  0  0  0
  -21.6029   -4.3080   24.7223 C   0  0  0  0  0  0
  -21.8804   -3.8180   23.4356 C   0  0  0  0  0  0
  -21.9169   -4.7013   22.3405 C   0  0  0  0  0  0
  -22.7865  -13.5203   21.1743 C   0  0  0  0  0  0
  -22.1614   -4.2194   21.0976 F   0  0  0  0  0  0
  -21.5638   -3.4537   25.7729 F   0  0  0  0  0  0
  -30.0172  -13.3374   20.4583 N   0  0  0  0  0  0
  -26.2987  -12.9390   20.3373 N   0  0  0  0  0  0
  -25.9375  -11.6532   20.5843 N   0  0  0  0  0  0
  -22.0528  -12.8203   22.0329 N   0  0  0  0  0  0
  -25.4111  -15.1899   20.4164 N   0  0  0  0  0  0
  -31.8439  -14.6113   20.0782 O   0  0  0  0  0  0
  -21.6651   -6.8927   21.4261 O   0  0  0  0  0  0
  -22.3571  -14.5472   20.6532 O   0  0  0  0  0  0
  -24.6119  -31.8685   23.2125 C   0  0  0  0  0  0
  -25.9017  -32.4828   23.8417 C   0  0  1  0  0  0
  -27.2537  -27.4552   20.1015 C   0  0  0  0  0  0
  -25.5891  -33.8632   24.2368 N   0  0  0  0  0  0
  -23.4014  -30.4883   21.5491 C   0  0  2  0  0  0
  -24.8560  -28.9546   20.1183 C   0  0  0  0  0  0
  -22.7404  -29.4662   22.5012 C   0  0  0  0  0  0
  -18.0255  -28.1372   22.8505 C   0  0  0  0  0  0
  -24.1486  -36.7321   23.2646 C   0  0  0  0  0  0
  -25.9269  -30.8386   21.3648 C   0  0  0  0  0  0
  -26.0102  -29.4727   20.7185 C   0  0  0  0  0  0
  -27.2140  -28.7327   20.7038 C   0  0  0  0  0  0
  -26.0866  -26.9446   19.4991 C   0  0  0  0  0  0
  -24.8880  -27.6887   19.5027 C   0  0  0  0  0  0
  -23.6116  -29.8152   20.1654 C   0  0  0  0  0  0
  -25.4114  -36.3127   24.0346 C   0  0  1  0  0  0
  -20.5847  -28.3659   23.1328 C   0  0  2  0  0  0
  -20.6759  -26.9395   22.5423 C   0  0  0  0  0  0
  -19.5743  -26.6379   21.5224 C   0  0  0  0  0  0
  -18.1914  -26.7930   22.1625 C   0  0  0  0  0  0
  -19.1508  -28.8845   23.2914 C   0  0  0  0  0  0
  -18.9446  -30.1451   23.8911 C   0  0  0  0  0  0
  -17.6434  -30.6583   24.0564 C   0  0  0  0  0  0
  -25.9022  -34.9475   23.5154 C   0  0  0  0  0  0
  -16.5329  -29.9083   23.6313 C   0  0  0  0  0  0
  -16.7241  -28.6494   23.0353 C   0  0  0  0  0  0
  -26.4465  -31.6590   25.0723 C   0  0  0  0  0  0
  -25.3743  -31.3662   26.1472 C   0  0  0  0  0  0
  -27.0320  -30.3035   24.6087 C   0  0  0  0  0  0
  -27.6046  -32.4300   25.7484 C   0  0  0  0  0  0
  -27.5567  -37.1840   24.8480 C   0  0  0  0  0  0
  -21.4140  -29.3042   22.3750 N   0  0  0  0  0  0
  -26.4323  -37.3788   23.9375 N   0  0  0  0  0  0
  -24.6630  -31.0790   22.1019 N   0  0  0  0  0  0
  -23.4169  -28.8230   23.3078 O   0  0  0  0  0  0
  -28.4307  -26.7462   19.9975 O   0  0  0  0  0  0
  -26.5557  -34.8917   22.4700 O   0  0  0  0  0  0
  -23.5305  -32.1450   23.7517 O   0  0  0  0  0  0
  -28.8004  -20.2217   21.6463 C   0  0  0  0  0  0
  -28.8590  -18.7849   21.6578 C   0  0  0  0  0  0
  -29.8535  -18.2895   20.8417 C   0  0  0  0  0  0
  -29.7208  -20.8484   20.8371 C   0  0  0  0  0  0
  -30.2898  -16.9311   20.5574 C   0  0  0  0  0  0
  -30.0096  -15.6981   21.0747 C   0  0  0  0  0  0
  -29.1688  -23.2390   20.9996 C   0  0  0  0  0  0
  -29.9921  -25.7784   23.3608 C   0  0  0  0  0  0
  -30.6906  -27.4988   21.6301 C   0  0  0  0  0  0
  -29.5783  -24.6432   20.4958 C   0  0  0  0  0  0
  -29.5271  -26.6544   22.1818 C   0  0  0  0  0  0
  -28.7748  -25.8604   21.0754 C   0  0  1  0  0  0
  -27.9186  -17.9552   22.4840 C   0  0  0  0  0  0
  -29.9072  -22.1822   20.5820 N   0  0  0  0  0  0
  -28.1883  -23.1180   21.7380 O   0  0  0  0  0  0
  -26.9992  -18.7060   23.0912 F   0  0  0  0  0  0
  -27.2706  -17.0642   21.7361 F   0  0  0  0  0  0
  -28.5802  -17.2984   23.4349 F   0  0  0  0  0  0
  -30.7281  -19.6204   20.0921 S   0  0  0  0  0  0
  -31.4491  -12.3937   19.1554 H   0  0  0  0  0  0
  -30.2818  -11.3180   19.8738 H   0  0  0  0  0  0
  -29.7536  -11.8294   17.4311 H   0  0  0  0  0  0
  -29.6576  -13.5253   17.8216 H   0  0  0  0  0  0
  -27.8082  -11.3290   18.7964 H   0  0  0  0  0  0
  -27.3765  -12.6859   17.7824 H   0  0  0  0  0  0
  -27.6799  -14.2669   19.5739 H   0  0  0  0  0  0
  -28.6666  -12.0067   21.3669 H   0  0  0  0  0  0
  -28.4402  -13.6409   21.8791 H   0  0  0  0  0  0
  -25.2844   -9.5635   22.4828 H   0  0  0  0  0  0
  -24.0011   -7.4633   22.7500 H   0  0  0  0  0  0
  -21.0910   -8.8789   19.9006 H   0  0  0  0  0  0
  -22.3792  -10.9670   19.6185 H   0  0  0  0  0  0
  -21.2046   -7.6184   23.9765 H   0  0  0  0  0  0
  -21.1475   -6.0546   25.9090 H   0  0  0  0  0  0
  -22.0617   -2.7651   23.2827 H   0  0  0  0  0  0
  -22.4183  -11.9912   22.4752 H   0  0  0  0  0  0
  -21.1186  -13.1276   22.2579 H   0  0  0  0  0  0
  -24.6626  -15.8358   20.6406 H   0  0  0  0  0  0
  -26.2892  -15.6535   20.2208 H   0  0  0  0  0  0
  -26.7086  -32.5560   23.1193 H   0  0  0  0  0  0
  -25.0102  -33.9815   25.0539 H   0  0  0  0  0  0
  -22.6878  -31.3040   21.4067 H   0  0  0  0  0  0
  -23.3715  -35.9693   23.3423 H   0  0  0  0  0  0
  -24.3562  -36.8803   22.2034 H   0  0  0  0  0  0
  -23.7283  -37.6587   23.6571 H   0  0  0  0  0  0
  -26.0340  -31.6033   20.5935 H   0  0  0  0  0  0
  -26.8168  -30.8971   21.9793 H   0  0  0  0  0  0
  -28.1149  -29.1507   21.1315 H   0  0  0  0  0  0
  -26.1147  -25.9814   19.0081 H   0  0  0  0  0  0
  -24.0061  -27.2938   19.0181 H   0  0  0  0  0  0
  -23.7136  -30.5891   19.4025 H   0  0  0  0  0  0
  -22.7387  -29.2277   19.8741 H   0  0  0  0  0  0
  -25.1303  -36.2030   25.0843 H   0  0  0  0  0  0
  -20.9921  -28.3229   24.1459 H   0  0  0  0  0  0
  -20.5687  -26.2271   23.3620 H   0  0  0  0  0  0
  -21.6628  -26.7466   22.1201 H   0  0  0  0  0  0
  -19.6905  -25.6302   21.1252 H   0  0  0  0  0  0
  -19.6683  -27.3208   20.6777 H   0  0  0  0  0  0
  -17.4191  -26.6693   21.4007 H   0  0  0  0  0  0
  -18.0281  -26.0058   22.9007 H   0  0  0  0  0  0
  -19.7912  -30.7275   24.2275 H   0  0  0  0  0  0
  -17.4983  -31.6266   24.5180 H   0  0  0  0  0  0
  -15.5334  -30.2995   23.7645 H   0  0  0  0  0  0
  -15.8643  -28.0835   22.7062 H   0  0  0  0  0  0
  -24.5909  -30.7028   25.7798 H   0  0  0  0  0  0
  -24.8944  -32.2800   26.4978 H   0  0  0  0  0  0
  -25.8106  -30.8777   27.0192 H   0  0  0  0  0  0
  -26.2868  -29.6766   24.1167 H   0  0  0  0  0  0
  -27.4132  -29.7298   25.4552 H   0  0  0  0  0  0
  -27.8687  -30.4382   23.9225 H   0  0  0  0  0  0
  -27.2669  -33.3585   26.2106 H   0  0  0  0  0  0
  -28.3830  -32.6877   25.0289 H   0  0  0  0  0  0
  -28.0726  -31.8380   26.5356 H   0  0  0  0  0  0
  -28.2683  -38.0032   24.7391 H   0  0  0  0  0  0
  -28.0971  -36.2569   24.6512 H   0  0  0  0  0  0
  -27.2260  -37.1722   25.8878 H   0  0  0  0  0  0
  -20.9301  -29.8707   21.6929 H   0  0  0  0  0  0
  -26.0237  -38.2902   24.1269 H   0  0  0  0  0  0
  -28.0655  -20.7495   22.2359 H   0  0  0  0  0  0
  -30.9884  -16.9235   19.7322 H   0  0  0  0  0  0
  -29.3155  -15.5830   21.8897 H   0  0  0  0  0  0
  -30.3660  -26.3970   24.1785 H   0  0  0  0  0  0
  -30.7954  -25.0979   23.0756 H   0  0  0  0  0  0
  -29.1714  -25.1791   23.7570 H   0  0  0  0  0  0
  -31.1250  -28.1199   22.4147 H   0  0  0  0  0  0
  -30.3479  -28.1711   20.8422 H   0  0  0  0  0  0
  -31.4887  -26.8804   21.2194 H   0  0  0  0  0  0
  -29.4395  -24.6215   19.4180 H   0  0  0  0  0  0
  -30.6498  -24.7795   20.6397 H   0  0  0  0  0  0
  -28.8104  -27.3588   22.6049 H   0  0  0  0  0  0
  -27.8411  -25.5008   21.5067 H   0  0  0  0  0  0
  -30.6790  -22.4066   19.9631 H   0  0  0  0  0  0
  1 25  1  0  0  0
  1 30  2  0  0  0
  1 76  1  0  0  0
  2  3  1  0  0  0
  2 25  1  0  0  0
  2 90  1  0  0  0
  2 91  1  0  0  0
  3  4  1  0  0  0
  3 92  1  0  0  0
  3 93  1  0  0  0
  4  5  1  0  0  0
  4 94  1  0  0  0
  4 95  1  0  0  0
  5  6  1  0  0  0
  5 26  1  0  0  0
  5 96  1  0  0  0
  6 25  1  0  0  0
  6 97  1  0  0  0
  6 98  1  0  0  0
  7  8  2  0  0  0
  7 26  1  0  0  0
  7 29  1  0  0  0
  8  9  1  0  0  0
  8 22  1  0  0  0
  9 10  1  0  0  0
  9 27  2  0  0  0
 10 11  2  0  0  0
 10 15  1  0  0  0
 11 12  1  0  0  0
 11 99  1  0  0  0
 12 13  2  0  0  0
 12100  1  0  0  0
 13 14  1  0  0  0
 13 31  1  0  0  0
 14 15  2  0  0  0
 14101  1  0  0  0
 15102  1  0  0  0
 16 17  2  0  0  0
 16 21  1  0  0  0
 16 31  1  0  0  0
 17 18  1  0  0  0
 17103  1  0  0  0
 18 19  2  0  0  0
 18104  1  0  0  0
 19 20  1  0  0  0
 19 24  1  0  0  0
 20 21  2  0  0  0
 20105  1  0  0  0
 21 23  1  0  0  0
 22 28  1  0  0  0
 22 32  2  0  0  0
 26 27  1  0  0  0
 28106  1  0  0  0
 28107  1  0  0  0
 29108  1  0  0  0
 29109  1  0  0  0
 33 34  1  0  0  0
 33 66  1  0  0  0
 33 70  2  0  0  0
 34 36  1  0  0  0
 34 59  1  0  0  0
 34110  1  0  0  0
 35 44  2  0  0  0
 35 45  1  0  0  0
 35 68  1  0  0  0
 36 56  1  0  0  0
 36111  1  0  0  0
 37 39  1  0  0  0
 37 47  1  0  0  0
 37 66  1  0  0  0
 37112  1  0  0  0
 38 43  2  0  0  0
 38 46  1  0  0  0
 38 47  1  0  0  0
 39 64  1  0  0  0
 39 67  2  0  0  0
 40 52  1  0  0  0
 40 53  2  0  0  0
 40 58  1  0  0  0
 41113  1  0  0  0
 41114  1  0  0  0
 41115  1  0  0  0
 41 48  1  0  0  0
 42 43  1  0  0  0
 42 66  1  0  0  0
 42116  1  0  0  0
 42117  1  0  0  0
 43 44  1  0  0  0
 44118  1  0  0  0
 45 46  2  0  0  0
 45119  1  0  0  0
 46120  1  0  0  0
 47121  1  0  0  0
 47122  1  0  0  0
 48 56  1  0  0  0
 48 65  1  0  0  0
 48123  1  0  0  0
 49 50  1  0  0  0
 49 53  1  0  0  0
 49 64  1  0  0  0
 49124  1  0  0  0
 50 51  1  0  0  0
 50125  1  0  0  0
 50126  1  0  0  0
 51 52  1  0  0  0
 51127  1  0  0  0
 51128  1  0  0  0
 52129  1  0  0  0
 52130  1  0  0  0
 53 54  1  0  0  0
 54 55  2  0  0  0
 54131  1  0  0  0
 55 57  1  0  0  0
 55132  1  0  0  0
 56 69  2  0  0  0
 57 58  2  0  0  0
 57133  1  0  0  0
 58134  1  0  0  0
 59 60  1  0  0  0
 59 61  1  0  0  0
 59 62  1  0  0  0
 60135  1  0  0  0
 60136  1  0  0  0
 60137  1  0  0  0
 61138  1  0  0  0
 61139  1  0  0  0
 61140  1  0  0  0
 62141  1  0  0  0
 62142  1  0  0  0
 62143  1  0  0  0
 63 65  1  0  0  0
 63144  1  0  0  0
 63145  1  0  0  0
 63146  1  0  0  0
 64147  1  0  0  0
 65148  1  0  0  0
 68 82  1  0  0  0
 71 72  1  0  0  0
 71 74  2  0  0  0
 71149  1  0  0  0
 72 73  2  0  0  0
 72 83  1  0  0  0
 73 75  1  0  0  0
 73 89  1  0  0  0
 74 84  1  0  0  0
 74 89  1  0  0  0
 75 76  2  0  0  0
 75150  1  0  0  0
 76151  1  0  0  0
 77 80  1  0  0  0
 77 84  1  0  0  0
 77 85  2  0  0  0
 78152  1  0  0  0
 78153  1  0  0  0
 78154  1  0  0  0
 78 81  1  0  0  0
 79 81  1  0  0  0
 79155  1  0  0  0
 79156  1  0  0  0
 79157  1  0  0  0
 80158  1  0  0  0
 80159  1  0  0  0
 80 82  1  0  0  0
 81 82  1  0  0  0
 81160  1  0  0  0
 82161  1  0  0  0
 83 86  1  0  0  0
 83 87  1  0  0  0
 83 88  1  0  0  0
 84162  1  0  0  0
M  ISO  4   1 100  68 101  76 100  82 101
M  END
> <chiral flag>
0

> <version>
0

> <s_m_source_file>
/data/baiqing/PycharmProjects/Reinvent-master-3.2/result/LINK_invent/BTK/process_docking_weight1_custom_product_contain_oxygen_bond_distance_aromatic_linkinvent_7_9_3/rearranged_h_0184.sdf

> <i_m_source_file_index>
83

> <r_mmod_Potential_Energy-OPLS-2005>
-21.2306327819824

> <r_mmod_Stretch_Energy-OPLS-2005>
42.4612045288086

> <r_mmod_Bend_Energy-OPLS-2005>
121.618827819824

> <r_mmod_Torsional_Energy-OPLS-2005>
223.444320678711

> <r_mmod_Improper_Torsional_Energy-OPLS-2005>
3.57700777053833

> <r_mmod_Van_der_Waal_Energy-OPLS-2005>
133.599395751953

> <r_mmod_Electrostatic_Energy-OPLS-2005>
-362.295715332031

> <r_mmod_Solvation_Energy-OPLS-2005>
-198.21418762207

> <b_mmod_Minimization_Converged-OPLS-2005>
0

> <r_mmod_RMS_Derivative-OPLS-2005>
5.05244398117065

$$$$
83
                    3D
 Structure written by MMmdl.
150158  0  0  1  0            999 V2000
  -30.6199  -14.7551   20.4515 C   0  0  0  0  0  0
  -30.4302  -12.4584   19.4823 C   0  0  0  0  0  0
  -29.5120  -12.5079   18.2412 C   0  0  0  0  0  0
  -28.0380  -12.3316   18.6527 C   0  0  0  0  0  0
  -27.6411  -13.2351   19.8507 C   0  0  2  0  0  0
  -28.6849  -13.1802   20.9884 C   0  0  0  0  0  0
  -25.2503  -13.8202   20.5694 C   0  0  0  0  0  0
  -24.1800  -13.0441   20.9207 C   0  0  0  0  0  0
  -24.6397  -11.6921   20.8748 C   0  0  0  0  0  0
  -23.9076  -10.4295   21.0406 C   0  0  0  0  0  0
  -24.3625   -9.4209   21.9184 C   0  0  0  0  0  0
  -23.6299   -8.2244   22.0753 C   0  0  0  0  0  0
  -22.4281   -8.0282   21.3544 C   0  0  0  0  0  0
  -21.9917   -9.0255   20.4646 C   0  0  0  0  0  0
  -22.7248  -10.2134   20.3056 C   0  0  0  0  0  0
  -21.6854   -6.0738   22.5279 C   0  0  0  0  0  0
  -21.4015   -6.5641   23.8212 C   0  0  0  0  0  0
  -21.3660   -5.6793   24.9174 C   0  0  0  0  0  0
  -21.6044   -4.3056   24.7225 C   0  0  0  0  0  0
  -21.8819   -3.8148   23.4345 C   0  0  0  0  0  0
  -21.9192   -4.6965   22.3402 C   0  0  0  0  0  0
  -22.7820  -13.5217   21.1863 C   0  0  0  0  0  0
  -22.1660   -4.2151   21.0979 F   0  0  0  0  0  0
  -21.5628   -3.4539   25.7737 F   0  0  0  0  0  0
  -29.9877  -13.5294   20.4079 N   0  0  0  0  0  0
  -26.2934  -12.9417   20.3281 N   0  0  0  0  0  0
  -25.9330  -11.6556   20.5758 N   0  0  0  0  0  0
  -22.0468  -12.8211   22.0423 N   0  0  0  0  0  0
  -25.4185  -15.1928   20.4110 N   0  0  0  0  0  0
  -31.8099  -14.8189   20.1303 O   0  0  0  0  0  0
  -21.6642   -6.8881   21.4241 O   0  0  0  0  0  0
  -22.3503  -14.5519   20.6705 O   0  0  0  0  0  0
  -24.6333  -31.8546   23.1988 C   0  0  0  0  0  0
  -25.9154  -32.4751   23.8334 C   0  0  1  0  0  0
  -27.2145  -27.2448   20.1257 C   0  0  0  0  0  0
  -25.5944  -33.8554   24.2252 N   0  0  0  0  0  0
  -23.4306  -30.4788   21.5428 C   0  0  2  0  0  0
  -24.8774  -28.9289   20.1079 C   0  0  0  0  0  0
  -22.7515  -29.4601   22.4906 C   0  0  0  0  0  0
  -18.0294  -28.1391   22.8481 C   0  0  0  0  0  0
  -24.1491  -36.7280   23.2640 C   0  0  0  0  0  0
  -25.9793  -30.7613   21.3835 C   0  0  0  0  0  0
  -26.0508  -29.3839   20.7227 C   0  0  0  0  0  0
  -27.2212  -28.5538   20.7235 C   0  0  0  0  0  0
  -26.0183  -26.8737   19.4665 C   0  0  0  0  0  0
  -24.8677  -27.6827   19.4684 C   0  0  0  0  0  0
  -23.6497  -29.8174   20.1578 C   0  0  0  0  0  0
  -25.4118  -36.3066   24.0323 C   0  0  1  0  0  0
  -20.5900  -28.3705   23.1263 C   0  0  2  0  0  0
  -20.6785  -26.9422   22.5406 C   0  0  0  0  0  0
  -19.5760  -26.6384   21.5212 C   0  0  0  0  0  0
  -18.1939  -26.7932   22.1623 C   0  0  0  0  0  0
  -19.1548  -28.8865   23.2865 C   0  0  0  0  0  0
  -18.9468  -30.1463   23.8887 C   0  0  0  0  0  0
  -17.6466  -30.6591   24.0560 C   0  0  0  0  0  0
  -25.9060  -34.9437   23.5089 C   0  0  0  0  0  0
  -16.5357  -29.9087   23.6331 C   0  0  0  0  0  0
  -16.7280  -28.6504   23.0354 C   0  0  0  0  0  0
  -26.4511  -31.6584   25.0733 C   0  0  0  0  0  0
  -25.3722  -31.3740   26.1444 C   0  0  0  0  0  0
  -27.0364  -30.2997   24.6242 C   0  0  0  0  0  0
  -27.6059  -32.4329   25.7511 C   0  0  0  0  0  0
  -27.5578  -37.1797   24.8465 C   0  0  0  0  0  0
  -21.4220  -29.3049   22.3650 N   0  0  0  0  0  0
  -26.4290  -37.3767   23.9407 N   0  0  0  0  0  0
  -24.7003  -31.0496   22.0976 N   0  0  0  0  0  0
  -23.4206  -28.8136   23.3008 O   0  0  0  0  0  0
  -28.2871  -26.3166   20.2044 O   0  0  0  0  0  0
  -26.5632  -34.8914   22.4658 O   0  0  0  0  0  0
  -23.5478  -32.1379   23.7270 O   0  0  0  0  0  0
  -29.9689  -19.7366   20.4355 C   0  0  0  0  0  0
  -31.1880  -19.5368   19.8338 C   0  0  0  0  0  0
  -30.1935  -17.3368   20.4257 C   0  0  0  0  0  0
  -28.9640  -23.6877   20.4024 C   0  0  0  0  0  0
  -27.9933  -24.8657   19.8894 C   0  0  0  0  0  0
  -28.6975  -22.1096   20.0294 C   0  0  1  0  0  0
  -28.8253  -21.9019   18.4963 C   0  0  0  0  0  0
  -29.4045  -18.4332   20.7490 N   0  0  0  0  0  0
  -29.4905  -21.0717   20.8176 N   0  0  0  0  0  0
  -29.8650  -15.9041   20.6773 N   0  0  0  0  0  0
  -29.9255  -23.9909   21.1180 O   0  0  0  0  0  0
  -32.0050  -20.5534   19.4628 F   0  0  0  0  0  0
  -27.9731  -22.6861   17.8390 F   0  0  0  0  0  0
  -28.5432  -20.6420   18.1611 F   0  0  0  0  0  0
  -30.0602  -22.1898   18.0867 F   0  0  0  0  0  0
  -31.6810  -17.8707   19.6285 S   0  0  0  0  0  0
  -31.4728  -12.5721   19.1804 H   0  0  0  0  0  0
  -30.3679  -11.4846   19.9704 H   0  0  0  0  0  0
  -29.7971  -11.7327   17.5285 H   0  0  0  0  0  0
  -29.6394  -13.4611   17.7255 H   0  0  0  0  0  0
  -27.8967  -11.2836   18.9192 H   0  0  0  0  0  0
  -27.3814  -12.5191   17.8023 H   0  0  0  0  0  0
  -27.6323  -14.2549   19.4653 H   0  0  0  0  0  0
  -28.7202  -12.1858   21.4361 H   0  0  0  0  0  0
  -28.4170  -13.8674   21.7924 H   0  0  0  0  0  0
  -25.2769   -9.5683   22.4760 H   0  0  0  0  0  0
  -24.0005   -7.4637   22.7475 H   0  0  0  0  0  0
  -21.0846   -8.8777   19.8956 H   0  0  0  0  0  0
  -22.3705  -10.9673   19.6166 H   0  0  0  0  0  0
  -21.2011   -7.6150   23.9716 H   0  0  0  0  0  0
  -21.1482   -6.0523   25.9076 H   0  0  0  0  0  0
  -22.0598   -2.7611   23.2844 H   0  0  0  0  0  0
  -22.4086  -11.9876   22.4817 H   0  0  0  0  0  0
  -21.1085  -13.1234   22.2625 H   0  0  0  0  0  0
  -24.6480  -15.8437   20.5194 H   0  0  0  0  0  0
  -26.2612  -15.6354   20.0679 H   0  0  0  0  0  0
  -26.7222  -32.5393   23.1074 H   0  0  0  0  0  0
  -25.0087  -33.9689   25.0396 H   0  0  0  0  0  0
  -22.7277  -31.3020   21.3982 H   0  0  0  0  0  0
  -23.3755  -35.9610   23.3298 H   0  0  0  0  0  0
  -24.3581  -36.8909   22.2055 H   0  0  0  0  0  0
  -23.7243  -37.6478   23.6670 H   0  0  0  0  0  0
  -26.1232  -31.5227   20.6157 H   0  0  0  0  0  0
  -26.8549  -30.8074   22.0194 H   0  0  0  0  0  0
  -28.1147  -28.8930   21.2286 H   0  0  0  0  0  0
  -25.9283  -25.9297   18.9510 H   0  0  0  0  0  0
  -23.9717  -27.3327   18.9739 H   0  0  0  0  0  0
  -23.7766  -30.5960   19.4049 H   0  0  0  0  0  0
  -22.7669  -29.2542   19.8496 H   0  0  0  0  0  0
  -25.1302  -36.1908   25.0816 H   0  0  0  0  0  0
  -20.9988  -28.3286   24.1386 H   0  0  0  0  0  0
  -20.5690  -26.2315   23.3612 H   0  0  0  0  0  0
  -21.6652  -26.7450   22.1196 H   0  0  0  0  0  0
  -19.6923  -25.6291   21.1250 H   0  0  0  0  0  0
  -19.6697  -27.3187   20.6736 H   0  0  0  0  0  0
  -17.4208  -26.6675   21.4027 H   0  0  0  0  0  0
  -18.0342  -26.0078   22.9023 H   0  0  0  0  0  0
  -19.7944  -30.7281   24.2255 H   0  0  0  0  0  0
  -17.5021  -31.6270   24.5163 H   0  0  0  0  0  0
  -15.5357  -30.2985   23.7663 H   0  0  0  0  0  0
  -15.8680  -28.0818   22.7078 H   0  0  0  0  0  0
  -24.5905  -30.7082   25.7769 H   0  0  0  0  0  0
  -24.8903  -32.2909   26.4847 H   0  0  0  0  0  0
  -25.8028  -30.8931   27.0236 H   0  0  0  0  0  0
  -26.2958  -29.6737   24.1249 H   0  0  0  0  0  0
  -27.4015  -29.7271   25.4779 H   0  0  0  0  0  0
  -27.8851  -30.4264   23.9517 H   0  0  0  0  0  0
  -27.2667  -33.3637   26.2069 H   0  0  0  0  0  0
  -28.3882  -32.6876   25.0348 H   0  0  0  0  0  0
  -28.0715  -31.8465   26.5443 H   0  0  0  0  0  0
  -28.2592  -38.0097   24.7512 H   0  0  0  0  0  0
  -28.1077  -36.2626   24.6290 H   0  0  0  0  0  0
  -27.2294  -37.1445   25.8867 H   0  0  0  0  0  0
  -20.9411  -29.8770   21.6850 H   0  0  0  0  0  0
  -26.0165  -38.2840   24.1409 H   0  0  0  0  0  0
  -27.0128  -24.6154   20.2944 H   0  0  0  0  0  0
  -27.9132  -24.7906   18.8065 H   0  0  0  0  0  0
  -27.6549  -21.9101   20.2766 H   0  0  0  0  0  0
  -30.3124  -21.5932   21.1082 H   0  0  0  0  0  0
  -28.9225  -15.7318   20.9866 H   0  0  0  0  0  0
  1 25  1  0  0  0
  1 30  2  0  0  0
  1 80  1  0  0  0
  2  3  1  0  0  0
  2 25  1  0  0  0
  2 87  1  0  0  0
  2 88  1  0  0  0
  3  4  1  0  0  0
  3 89  1  0  0  0
  3 90  1  0  0  0
  4  5  1  0  0  0
  4 91  1  0  0  0
  4 92  1  0  0  0
  5  6  1  0  0  0
  5 26  1  0  0  0
  5 93  1  0  0  0
  6 25  1  0  0  0
  6 94  1  0  0  0
  6 95  1  0  0  0
  7  8  2  0  0  0
  7 26  1  0  0  0
  7 29  1  0  0  0
  8  9  1  0  0  0
  8 22  1  0  0  0
  9 10  1  0  0  0
  9 27  2  0  0  0
 10 11  2  0  0  0
 10 15  1  0  0  0
 11 12  1  0  0  0
 11 96  1  0  0  0
 12 13  2  0  0  0
 12 97  1  0  0  0
 13 14  1  0  0  0
 13 31  1  0  0  0
 14 15  2  0  0  0
 14 98  1  0  0  0
 15 99  1  0  0  0
 16 17  2  0  0  0
 16 21  1  0  0  0
 16 31  1  0  0  0
 17 18  1  0  0  0
 17100  1  0  0  0
 18 19  2  0  0  0
 18101  1  0  0  0
 19 20  1  0  0  0
 19 24  1  0  0  0
 20 21  2  0  0  0
 20102  1  0  0  0
 21 23  1  0  0  0
 22 28  1  0  0  0
 22 32  2  0  0  0
 26 27  1  0  0  0
 28103  1  0  0  0
 28104  1  0  0  0
 29105  1  0  0  0
 29106  1  0  0  0
 33 34  1  0  0  0
 33 66  1  0  0  0
 33 70  2  0  0  0
 34 36  1  0  0  0
 34 59  1  0  0  0
 34107  1  0  0  0
 35 44  2  0  0  0
 35 45  1  0  0  0
 35 68  1  0  0  0
 36 56  1  0  0  0
 36108  1  0  0  0
 37 39  1  0  0  0
 37 47  1  0  0  0
 37 66  1  0  0  0
 37109  1  0  0  0
 38 43  2  0  0  0
 38 46  1  0  0  0
 38 47  1  0  0  0
 39 64  1  0  0  0
 39 67  2  0  0  0
 40 52  1  0  0  0
 40 53  2  0  0  0
 40 58  1  0  0  0
 41110  1  0  0  0
 41111  1  0  0  0
 41112  1  0  0  0
 41 48  1  0  0  0
 42 43  1  0  0  0
 42 66  1  0  0  0
 42113  1  0  0  0
 42114  1  0  0  0
 43 44  1  0  0  0
 44115  1  0  0  0
 45 46  2  0  0  0
 45116  1  0  0  0
 46117  1  0  0  0
 47118  1  0  0  0
 47119  1  0  0  0
 48 56  1  0  0  0
 48 65  1  0  0  0
 48120  1  0  0  0
 49 50  1  0  0  0
 49 53  1  0  0  0
 49 64  1  0  0  0
 49121  1  0  0  0
 50 51  1  0  0  0
 50122  1  0  0  0
 50123  1  0  0  0
 51 52  1  0  0  0
 51124  1  0  0  0
 51125  1  0  0  0
 52126  1  0  0  0
 52127  1  0  0  0
 53 54  1  0  0  0
 54 55  2  0  0  0
 54128  1  0  0  0
 55 57  1  0  0  0
 55129  1  0  0  0
 56 69  2  0  0  0
 57 58  2  0  0  0
 57130  1  0  0  0
 58131  1  0  0  0
 59 60  1  0  0  0
 59 61  1  0  0  0
 59 62  1  0  0  0
 60132  1  0  0  0
 60133  1  0  0  0
 60134  1  0  0  0
 61135  1  0  0  0
 61136  1  0  0  0
 61137  1  0  0  0
 62138  1  0  0  0
 62139  1  0  0  0
 62140  1  0  0  0
 63 65  1  0  0  0
 63141  1  0  0  0
 63142  1  0  0  0
 63143  1  0  0  0
 64144  1  0  0  0
 65145  1  0  0  0
 68 75  1  0  0  0
 71 72  2  0  0  0
 71 78  1  0  0  0
 71 79  1  0  0  0
 72 82  1  0  0  0
 72 86  1  0  0  0
 73 78  2  0  0  0
 73 80  1  0  0  0
 73 86  1  0  0  0
 74 75  1  0  0  0
 74 76  1  0  0  0
 74 81  2  0  0  0
 75146  1  0  0  0
 75147  1  0  0  0
 76 77  1  0  0  0
 76 79  1  0  0  0
 76148  1  0  0  0
 77 83  1  0  0  0
 77 84  1  0  0  0
 77 85  1  0  0  0
 79149  1  0  0  0
 80150  1  0  0  0
M  ISO  4   1 100  68 101  75 101  80 100
M  END
> <chiral flag>
0

> <version>
0

> <s_m_source_file>
/data/baiqing/PycharmProjects/Reinvent-master-3.2/result/LINK_invent/BTK/process_docking_weight1_custom_product_contain_oxygen_bond_distance_aromatic_linkinvent_7_9_3/rearranged_h_0184.sdf

> <i_m_source_file_index>
84

> <r_mmod_Potential_Energy-OPLS-2005>
109.399398803711

> <r_mmod_Stretch_Energy-OPLS-2005>
134.977401733398

> <r_mmod_Bend_Energy-OPLS-2005>
174.828887939453

> <r_mmod_Torsional_Energy-OPLS-2005>
215.911605834961

> <r_mmod_Improper_Torsional_Energy-OPLS-2005>
10.8093023300171

> <r_mmod_Van_der_Waal_Energy-OPLS-2005>
127.214874267578

> <r_mmod_Electrostatic_Energy-OPLS-2005>
-420.488555908203

> <r_mmod_Solvation_Energy-OPLS-2005>
-228.644241333008

> <b_mmod_Minimization_Converged-OPLS-2005>
0

> <r_mmod_RMS_Derivative-OPLS-2005>
0.30876412987709

$$$$
84
                    3D
 Structure written by MMmdl.
146154  0  0  1  0            999 V2000
  -30.5750  -14.8622   20.4313 C   0  0  0  0  0  0
  -30.4406  -12.5281   19.4943 C   0  0  0  0  0  0
  -29.5206  -12.5171   18.2522 C   0  0  0  0  0  0
  -28.0504  -12.3203   18.6670 C   0  0  0  0  0  0
  -27.6376  -13.2408   19.8461 C   0  0  2  0  0  0
  -28.6807  -13.2271   20.9851 C   0  0  0  0  0  0
  -25.2490  -13.8205   20.5709 C   0  0  0  0  0  0
  -24.1793  -13.0439   20.9220 C   0  0  0  0  0  0
  -24.6400  -11.6923   20.8759 C   0  0  0  0  0  0
  -23.9085  -10.4294   21.0419 C   0  0  0  0  0  0
  -24.3629   -9.4207   21.9200 C   0  0  0  0  0  0
  -23.6297   -8.2246   22.0772 C   0  0  0  0  0  0
  -22.4279   -8.0287   21.3563 C   0  0  0  0  0  0
  -21.9916   -9.0263   20.4666 C   0  0  0  0  0  0
  -22.7254  -10.2137   20.3073 C   0  0  0  0  0  0
  -21.6848   -6.0738   22.5286 C   0  0  0  0  0  0
  -21.4010   -6.5640   23.8220 C   0  0  0  0  0  0
  -21.3658   -5.6792   24.9182 C   0  0  0  0  0  0
  -21.6042   -4.3055   24.7230 C   0  0  0  0  0  0
  -21.8817   -3.8150   23.4350 C   0  0  0  0  0  0
  -21.9194   -4.6967   22.3408 C   0  0  0  0  0  0
  -22.7816  -13.5226   21.1865 C   0  0  0  0  0  0
  -22.1665   -4.2155   21.0986 F   0  0  0  0  0  0
  -21.5629   -3.4537   25.7742 F   0  0  0  0  0  0
  -29.9715  -13.6121   20.3989 N   0  0  0  0  0  0
  -26.2919  -12.9431   20.3268 N   0  0  0  0  0  0
  -25.9331  -11.6566   20.5747 N   0  0  0  0  0  0
  -22.0451  -12.8236   22.0420 N   0  0  0  0  0  0
  -25.4154  -15.1935   20.4135 N   0  0  0  0  0  0
  -31.7689  -14.9315   20.1176 O   0  0  0  0  0  0
  -21.6643   -6.8882   21.4250 O   0  0  0  0  0  0
  -22.3516  -14.5540   20.6713 O   0  0  0  0  0  0
  -24.6389  -31.8486   23.1931 C   0  0  0  0  0  0
  -25.9185  -32.4720   23.8298 C   0  0  1  0  0  0
  -27.2171  -27.1930   20.1416 C   0  0  0  0  0  0
  -25.5957  -33.8525   24.2218 N   0  0  0  0  0  0
  -23.4405  -30.4702   21.5373 C   0  0  2  0  0  0
  -24.8931  -28.9118   20.1048 C   0  0  0  0  0  0
  -22.7550  -29.4572   22.4871 C   0  0  0  0  0  0
  -18.0307  -28.1391   22.8478 C   0  0  0  0  0  0
  -24.1489  -36.7265   23.2638 C   0  0  0  0  0  0
  -25.9936  -30.7389   21.3876 C   0  0  0  0  0  0
  -26.0682  -29.3569   20.7271 C   0  0  0  0  0  0
  -27.2352  -28.5099   20.7378 C   0  0  0  0  0  0
  -26.0255  -26.8449   19.4699 C   0  0  0  0  0  0
  -24.8812  -27.6661   19.4611 C   0  0  0  0  0  0
  -23.6641  -29.8036   20.1543 C   0  0  0  0  0  0
  -25.4120  -36.3044   24.0315 C   0  0  1  0  0  0
  -20.5918  -28.3715   23.1238 C   0  0  2  0  0  0
  -20.6799  -26.9423   22.5399 C   0  0  0  0  0  0
  -19.5770  -26.6377   21.5213 C   0  0  0  0  0  0
  -18.1950  -26.7927   22.1626 C   0  0  0  0  0  0
  -19.1562  -28.8872   23.2849 C   0  0  0  0  0  0
  -18.9479  -30.1469   23.8872 C   0  0  0  0  0  0
  -17.6476  -30.6587   24.0560 C   0  0  0  0  0  0
  -25.9068  -34.9418   23.5067 C   0  0  0  0  0  0
  -16.5368  -29.9078   23.6338 C   0  0  0  0  0  0
  -16.7293  -28.6498   23.0357 C   0  0  0  0  0  0
  -26.4518  -31.6575   25.0723 C   0  0  0  0  0  0
  -25.3708  -31.3767   26.1424 C   0  0  0  0  0  0
  -27.0385  -30.2973   24.6289 C   0  0  0  0  0  0
  -27.6050  -32.4338   25.7510 C   0  0  0  0  0  0
  -27.5573  -37.1789   24.8464 C   0  0  0  0  0  0
  -21.4248  -29.3046   22.3612 N   0  0  0  0  0  0
  -26.4289  -37.3751   23.9404 N   0  0  0  0  0  0
  -24.7101  -31.0386   22.0946 N   0  0  0  0  0  0
  -23.4213  -28.8121   23.3006 O   0  0  0  0  0  0
  -28.2120  -26.1656   20.2229 O   0  0  0  0  0  0
  -26.5643  -34.8908   22.4639 O   0  0  0  0  0  0
  -23.5521  -32.1345   23.7175 O   0  0  0  0  0  0
  -31.1174  -17.9902   19.7218 C   0  0  0  0  0  0
  -30.0186  -17.4964   20.3912 C   0  0  0  0  0  0
  -29.5608  -19.9008   20.3466 C   0  0  0  0  0  0
  -27.7756  -24.9304   20.8337 C   0  0  0  0  0  0
  -28.0414  -23.5370   20.8918 C   0  0  0  0  0  0
  -29.0402  -22.5574   20.2725 C   0  0  0  0  0  0
  -29.1489  -18.6266   20.7345 N   0  0  0  0  0  0
  -29.7950  -16.0189   20.6455 N   0  0  0  0  0  0
  -28.8475  -21.2008   20.6187 N   0  0  0  0  0  0
  -29.9556  -22.9053   19.5247 O   0  0  0  0  0  0
  -27.1873  -22.8990   21.7144 O   0  0  0  0  0  0
  -31.1029  -19.7527   19.4987 S   0  0  0  0  0  0
  -31.4776  -12.6676   19.1857 H   0  0  0  0  0  0
  -30.4133  -11.5651   20.0070 H   0  0  0  0  0  0
  -29.8245  -11.7275   17.5639 H   0  0  0  0  0  0
  -29.6266  -13.4558   17.7065 H   0  0  0  0  0  0
  -27.9312  -11.2760   18.9581 H   0  0  0  0  0  0
  -27.3911  -12.4753   17.8122 H   0  0  0  0  0  0
  -27.6156  -14.2514   19.4374 H   0  0  0  0  0  0
  -28.7428  -12.2396   21.4449 H   0  0  0  0  0  0
  -28.3943  -13.9184   21.7787 H   0  0  0  0  0  0
  -25.2765   -9.5679   22.4785 H   0  0  0  0  0  0
  -23.9994   -7.4635   22.7498 H   0  0  0  0  0  0
  -21.0843   -8.8795   19.8976 H   0  0  0  0  0  0
  -22.3716  -10.9685   19.6189 H   0  0  0  0  0  0
  -21.2002   -7.6147   23.9728 H   0  0  0  0  0  0
  -21.1479   -6.0522   25.9086 H   0  0  0  0  0  0
  -22.0596   -2.7612   23.2853 H   0  0  0  0  0  0
  -22.4039  -11.9885   22.4802 H   0  0  0  0  0  0
  -21.1085  -13.1300   22.2640 H   0  0  0  0  0  0
  -24.6402  -15.8384   20.5216 H   0  0  0  0  0  0
  -26.2528  -15.6402   20.0623 H   0  0  0  0  0  0
  -26.7255  -32.5345   23.1036 H   0  0  0  0  0  0
  -25.0099  -33.9649   25.0361 H   0  0  0  0  0  0
  -22.7403  -31.2948   21.3874 H   0  0  0  0  0  0
  -23.3749  -35.9600   23.3299 H   0  0  0  0  0  0
  -24.3574  -36.8894   22.2053 H   0  0  0  0  0  0
  -23.7250  -37.6465   23.6675 H   0  0  0  0  0  0
  -26.1459  -31.4983   20.6192 H   0  0  0  0  0  0
  -26.8650  -30.7855   22.0291 H   0  0  0  0  0  0
  -28.1247  -28.8348   21.2585 H   0  0  0  0  0  0
  -25.9596  -25.8805   18.9859 H   0  0  0  0  0  0
  -23.9855  -27.3200   18.9638 H   0  0  0  0  0  0
  -23.7877  -30.5797   19.3978 H   0  0  0  0  0  0
  -22.7818  -29.2375   19.8495 H   0  0  0  0  0  0
  -25.1306  -36.1875   25.0808 H   0  0  0  0  0  0
  -21.0016  -28.3308   24.1358 H   0  0  0  0  0  0
  -20.5703  -26.2331   23.3613 H   0  0  0  0  0  0
  -21.6663  -26.7439   22.1188 H   0  0  0  0  0  0
  -19.6929  -25.6282   21.1257 H   0  0  0  0  0  0
  -19.6700  -27.3172   20.6729 H   0  0  0  0  0  0
  -17.4216  -26.6667   21.4034 H   0  0  0  0  0  0
  -18.0358  -26.0077   22.9033 H   0  0  0  0  0  0
  -19.7957  -30.7295   24.2224 H   0  0  0  0  0  0
  -17.5030  -31.6265   24.5164 H   0  0  0  0  0  0
  -15.5366  -30.2971   23.7676 H   0  0  0  0  0  0
  -15.8695  -28.0807   22.7084 H   0  0  0  0  0  0
  -24.5875  -30.7134   25.7742 H   0  0  0  0  0  0
  -24.8917  -32.2958   26.4807 H   0  0  0  0  0  0
  -25.7988  -30.8958   27.0227 H   0  0  0  0  0  0
  -26.3007  -29.6702   24.1275 H   0  0  0  0  0  0
  -27.3982  -29.7266   25.4860 H   0  0  0  0  0  0
  -27.8918  -30.4214   23.9619 H   0  0  0  0  0  0
  -27.2636  -33.3644   26.2058 H   0  0  0  0  0  0
  -28.3880  -32.6894   25.0359 H   0  0  0  0  0  0
  -28.0702  -31.8490   26.5454 H   0  0  0  0  0  0
  -28.2587  -38.0087   24.7501 H   0  0  0  0  0  0
  -28.1070  -36.2616   24.6303 H   0  0  0  0  0  0
  -27.2289  -37.1452   25.8866 H   0  0  0  0  0  0
  -20.9454  -29.8744   21.6781 H   0  0  0  0  0  0
  -26.0154  -38.2819   24.1403 H   0  0  0  0  0  0
  -31.9493  -17.4245   19.3226 H   0  0  0  0  0  0
  -26.9492  -25.2191   21.4707 H   0  0  0  0  0  0
  -28.8641  -15.8004   20.9644 H   0  0  0  0  0  0
  -28.0339  -21.1102   21.2112 H   0  0  0  0  0  0
  -26.5918  -23.5443   22.0718 H   0  0  0  0  0  0
  1 25  1  0  0  0
  1 30  2  0  0  0
  1 78  1  0  0  0
  2  3  1  0  0  0
  2 25  1  0  0  0
  2 83  1  0  0  0
  2 84  1  0  0  0
  3  4  1  0  0  0
  3 85  1  0  0  0
  3 86  1  0  0  0
  4  5  1  0  0  0
  4 87  1  0  0  0
  4 88  1  0  0  0
  5  6  1  0  0  0
  5 26  1  0  0  0
  5 89  1  0  0  0
  6 25  1  0  0  0
  6 90  1  0  0  0
  6 91  1  0  0  0
  7  8  2  0  0  0
  7 26  1  0  0  0
  7 29  1  0  0  0
  8  9  1  0  0  0
  8 22  1  0  0  0
  9 10  1  0  0  0
  9 27  2  0  0  0
 10 11  2  0  0  0
 10 15  1  0  0  0
 11 12  1  0  0  0
 11 92  1  0  0  0
 12 13  2  0  0  0
 12 93  1  0  0  0
 13 14  1  0  0  0
 13 31  1  0  0  0
 14 15  2  0  0  0
 14 94  1  0  0  0
 15 95  1  0  0  0
 16 17  2  0  0  0
 16 21  1  0  0  0
 16 31  1  0  0  0
 17 18  1  0  0  0
 17 96  1  0  0  0
 18 19  2  0  0  0
 18 97  1  0  0  0
 19 20  1  0  0  0
 19 24  1  0  0  0
 20 21  2  0  0  0
 20 98  1  0  0  0
 21 23  1  0  0  0
 22 28  1  0  0  0
 22 32  2  0  0  0
 26 27  1  0  0  0
 28 99  1  0  0  0
 28100  1  0  0  0
 29101  1  0  0  0
 29102  1  0  0  0
 33 34  1  0  0  0
 33 66  1  0  0  0
 33 70  2  0  0  0
 34 36  1  0  0  0
 34 59  1  0  0  0
 34103  1  0  0  0
 35 44  2  0  0  0
 35 45  1  0  0  0
 35 68  1  0  0  0
 36 56  1  0  0  0
 36104  1  0  0  0
 37 39  1  0  0  0
 37 47  1  0  0  0
 37 66  1  0  0  0
 37105  1  0  0  0
 38 43  2  0  0  0
 38 46  1  0  0  0
 38 47  1  0  0  0
 39 64  1  0  0  0
 39 67  2  0  0  0
 40 52  1  0  0  0
 40 53  2  0  0  0
 40 58  1  0  0  0
 41106  1  0  0  0
 41107  1  0  0  0
 41108  1  0  0  0
 41 48  1  0  0  0
 42 43  1  0  0  0
 42 66  1  0  0  0
 42109  1  0  0  0
 42110  1  0  0  0
 43 44  1  0  0  0
 44111  1  0  0  0
 45 46  2  0  0  0
 45112  1  0  0  0
 46113  1  0  0  0
 47114  1  0  0  0
 47115  1  0  0  0
 48 56  1  0  0  0
 48 65  1  0  0  0
 48116  1  0  0  0
 49 50  1  0  0  0
 49 53  1  0  0  0
 49 64  1  0  0  0
 49117  1  0  0  0
 50 51  1  0  0  0
 50118  1  0  0  0
 50119  1  0  0  0
 51 52  1  0  0  0
 51120  1  0  0  0
 51121  1  0  0  0
 52122  1  0  0  0
 52123  1  0  0  0
 53 54  1  0  0  0
 54 55  2  0  0  0
 54124  1  0  0  0
 55 57  1  0  0  0
 55125  1  0  0  0
 56 69  2  0  0  0
 57 58  2  0  0  0
 57126  1  0  0  0
 58127  1  0  0  0
 59 60  1  0  0  0
 59 61  1  0  0  0
 59 62  1  0  0  0
 60128  1  0  0  0
 60129  1  0  0  0
 60130  1  0  0  0
 61131  1  0  0  0
 61132  1  0  0  0
 61133  1  0  0  0
 62134  1  0  0  0
 62135  1  0  0  0
 62136  1  0  0  0
 63 65  1  0  0  0
 63137  1  0  0  0
 63138  1  0  0  0
 63139  1  0  0  0
 64140  1  0  0  0
 65141  1  0  0  0
 68 74  1  0  0  0
 71 72  2  0  0  0
 71 82  1  0  0  0
 71142  1  0  0  0
 72 77  1  0  0  0
 72 78  1  0  0  0
 73 77  2  0  0  0
 73 79  1  0  0  0
 73 82  1  0  0  0
 74 75  2  0  0  0
 74143  1  0  0  0
 75 76  1  0  0  0
 75 81  1  0  0  0
 76 79  1  0  0  0
 76 80  2  0  0  0
 78144  1  0  0  0
 79145  1  0  0  0
 81146  1  0  0  0
M  ISO  4   1 100  68 101  74 101  78 100
M  END
> <chiral flag>
0

> <version>
0

> <s_m_source_file>
/data/baiqing/PycharmProjects/Reinvent-master-3.2/result/LINK_invent/BTK/process_docking_weight1_custom_product_contain_oxygen_bond_distance_aromatic_linkinvent_7_9_3/rearranged_h_0184.sdf

> <i_m_source_file_index>
85

> <r_mmod_Potential_Energy-OPLS-2005>
240.837203979492

> <r_mmod_Stretch_Energy-OPLS-2005>
171.564239501953

> <r_mmod_Bend_Energy-OPLS-2005>
269.760314941406

> <r_mmod_Torsional_Energy-OPLS-2005>
208.324371337891

> <r_mmod_Improper_Torsional_Energy-OPLS-2005>
4.12538433074951

> <r_mmod_Van_der_Waal_Energy-OPLS-2005>
126.196762084961

> <r_mmod_Electrostatic_Energy-OPLS-2005>
-454.367553710938

> <r_mmod_Solvation_Energy-OPLS-2005>
-235.562301635742

> <b_mmod_Minimization_Converged-OPLS-2005>
0

> <r_mmod_RMS_Derivative-OPLS-2005>
0.854981184005737

$$$$
85
                    3D
 Structure written by MMmdl.
157165  0  0  1  0            999 V2000
  -30.6194  -14.6674   20.5122 C   0  0  0  0  0  0
  -30.4229  -12.4045   19.4631 C   0  0  0  0  0  0
  -29.5060  -12.4941   18.2214 C   0  0  0  0  0  0
  -28.0183  -12.3628   18.6137 C   0  0  0  0  0  0
  -27.6400  -13.2249   19.8489 C   0  0  2  0  0  0
  -28.6809  -13.0992   20.9807 C   0  0  0  0  0  0
  -25.2489  -13.8177   20.5677 C   0  0  0  0  0  0
  -24.1773  -13.0395   20.9147 C   0  0  0  0  0  0
  -24.6366  -11.6874   20.8648 C   0  0  0  0  0  0
  -23.9045  -10.4254   21.0329 C   0  0  0  0  0  0
  -24.3602   -9.4200   21.9138 C   0  0  0  0  0  0
  -23.6279   -8.2231   22.0741 C   0  0  0  0  0  0
  -22.4271   -8.0245   21.3544 C   0  0  0  0  0  0
  -21.9876   -9.0189   20.4633 C   0  0  0  0  0  0
  -22.7183  -10.2073   20.3020 C   0  0  0  0  0  0
  -21.6833   -6.0694   22.5285 C   0  0  0  0  0  0
  -21.3989   -6.5614   23.8204 C   0  0  0  0  0  0
  -21.3671   -5.6789   24.9182 C   0  0  0  0  0  0
  -21.6029   -4.3049   24.7246 C   0  0  0  0  0  0
  -21.8806   -3.8109   23.4383 C   0  0  0  0  0  0
  -21.9177   -4.6923   22.3427 C   0  0  0  0  0  0
  -22.7822  -13.5149   21.1871 C   0  0  0  0  0  0
  -22.1655   -4.2094   21.1012 F   0  0  0  0  0  0
  -21.5637   -3.4550   25.7779 F   0  0  0  0  0  0
  -29.9926  -13.4460   20.4234 N   0  0  0  0  0  0
  -26.2887  -12.9343   20.3186 N   0  0  0  0  0  0
  -25.9279  -11.6493   20.5643 N   0  0  0  0  0  0
  -22.0460  -12.8145   22.0436 N   0  0  0  0  0  0
  -25.4234  -15.1911   20.4228 N   0  0  0  0  0  0
  -31.7937  -14.7738   20.1432 O   0  0  0  0  0  0
  -21.6644   -6.8828   21.4237 O   0  0  0  0  0  0
  -22.3498  -14.5449   20.6716 O   0  0  0  0  0  0
  -24.6256  -31.8608   23.2028 C   0  0  0  0  0  0
  -25.9129  -32.4776   23.8339 C   0  0  1  0  0  0
  -27.2424  -27.3240   20.1515 C   0  0  0  0  0  0
  -25.5973  -33.8589   24.2290 N   0  0  0  0  0  0
  -23.4201  -30.4837   21.5393 C   0  0  2  0  0  0
  -24.8711  -28.9203   20.1261 C   0  0  0  0  0  0
  -22.7483  -29.4665   22.4912 C   0  0  0  0  0  0
  -18.0307  -28.1409   22.8483 C   0  0  0  0  0  0
  -24.1500  -36.7288   23.2637 C   0  0  0  0  0  0
  -25.9598  -30.7908   21.3724 C   0  0  0  0  0  0
  -26.0346  -29.4134   20.7284 C   0  0  0  0  0  0
  -27.2238  -28.6298   20.7278 C   0  0  0  0  0  0
  -26.0549  -26.8644   19.5460 C   0  0  0  0  0  0
  -24.8782  -27.6460   19.5301 C   0  0  0  0  0  0
  -23.6430  -29.8087   20.1582 C   0  0  0  0  0  0
  -25.4119  -36.3075   24.0336 C   0  0  1  0  0  0
  -20.5902  -28.3723   23.1279 C   0  0  2  0  0  0
  -20.6809  -26.9446   22.5421 C   0  0  0  0  0  0
  -19.5789  -26.6391   21.5235 C   0  0  0  0  0  0
  -18.1961  -26.7948   22.1627 C   0  0  0  0  0  0
  -19.1557  -28.8878   23.2875 C   0  0  0  0  0  0
  -18.9481  -30.1473   23.8904 C   0  0  0  0  0  0
  -17.6484  -30.6603   24.0578 C   0  0  0  0  0  0
  -25.9067  -34.9463   23.5104 C   0  0  0  0  0  0
  -16.5373  -29.9112   23.6332 C   0  0  0  0  0  0
  -16.7297  -28.6533   23.0344 C   0  0  0  0  0  0
  -26.4522  -31.6580   25.0705 C   0  0  0  0  0  0
  -25.3759  -31.3752   26.1433 C   0  0  0  0  0  0
  -27.0364  -30.2994   24.6167 C   0  0  0  0  0  0
  -27.6059  -32.4309   25.7504 C   0  0  0  0  0  0
  -27.5584  -37.1804   24.8463 C   0  0  0  0  0  0
  -21.4200  -29.3060   22.3645 N   0  0  0  0  0  0
  -26.4295  -37.3762   23.9408 N   0  0  0  0  0  0
  -24.6860  -31.0643   22.0948 N   0  0  0  0  0  0
  -23.4209  -28.8224   23.2995 O   0  0  0  0  0  0
  -28.3830  -26.5168   20.0806 O   0  0  0  0  0  0
  -26.5606  -34.8928   22.4653 O   0  0  0  0  0  0
  -23.5426  -32.1414   23.7376 O   0  0  0  0  0  0
  -28.4457  -20.6636   20.0466 C   0  0  0  0  0  0
  -28.7694  -19.2483   20.1518 C   0  0  0  0  0  0
  -29.1382  -21.5033   20.9006 C   0  0  0  0  0  0
  -29.7136  -18.9429   21.1039 C   0  0  0  0  0  0
  -28.4895  -23.9232   20.4247 C   0  0  0  0  0  0
  -31.1377  -25.6428   20.8326 C   0  0  0  0  0  0
  -29.8974  -26.9651   22.6005 C   0  0  0  0  0  0
  -28.5693  -25.4019   21.0357 C   0  0  1  0  0  0
  -29.9169  -25.6640   21.7776 C   0  0  0  0  0  0
  -29.0831  -22.8811   21.1035 N   0  0  0  0  0  0
  -29.8674  -15.8309   20.9087 N   0  0  0  0  0  0
  -27.8770  -23.7415   19.3688 O   0  0  0  0  0  0
  -31.8949  -17.4681   21.3677 O   0  0  0  0  0  0
  -30.0627  -17.2349   23.0964 O   0  0  0  0  0  0
  -30.2166  -20.4664   21.8622 S   0  0  0  0  0  0
  -30.4626  -17.3320   21.6793 S   0  0  0  0  0  0
  -31.4652  -12.5212   19.1594 H   0  0  0  0  0  0
  -30.3505  -11.4164   19.9190 H   0  0  0  0  0  0
  -29.7686  -11.7214   17.4989 H   0  0  0  0  0  0
  -29.6759  -13.4470   17.7187 H   0  0  0  0  0  0
  -27.8221  -11.3117   18.8209 H   0  0  0  0  0  0
  -27.3780  -12.6189   17.7672 H   0  0  0  0  0  0
  -27.6502  -14.2585   19.5053 H   0  0  0  0  0  0
  -28.7006  -12.0834   21.3819 H   0  0  0  0  0  0
  -28.4252  -13.7471   21.8203 H   0  0  0  0  0  0
  -25.2740   -9.5661   22.4698 H   0  0  0  0  0  0
  -23.9951   -7.4623   22.7487 H   0  0  0  0  0  0
  -21.0783   -8.8644   19.8975 H   0  0  0  0  0  0
  -22.3584  -10.9563   19.6121 H   0  0  0  0  0  0
  -21.1975   -7.6114   23.9678 H   0  0  0  0  0  0
  -21.1540   -6.0551   25.9086 H   0  0  0  0  0  0
  -22.0598   -2.7565   23.2923 H   0  0  0  0  0  0
  -22.4117  -11.9857   22.4864 H   0  0  0  0  0  0
  -21.1032  -13.1009   22.2619 H   0  0  0  0  0  0
  -24.6583  -15.8432   20.5574 H   0  0  0  0  0  0
  -26.2534  -15.6335   20.0512 H   0  0  0  0  0  0
  -26.7197  -32.5451   23.1081 H   0  0  0  0  0  0
  -25.0154  -33.9734   25.0458 H   0  0  0  0  0  0
  -22.7087  -31.2989   21.3887 H   0  0  0  0  0  0
  -23.3759  -35.9621   23.3309 H   0  0  0  0  0  0
  -24.3569  -36.8911   22.2043 H   0  0  0  0  0  0
  -23.7280  -37.6512   23.6645 H   0  0  0  0  0  0
  -26.0911  -31.5447   20.5939 H   0  0  0  0  0  0
  -26.8451  -30.8438   21.9992 H   0  0  0  0  0  0
  -28.1195  -29.0269   21.1827 H   0  0  0  0  0  0
  -26.0414  -25.8837   19.0907 H   0  0  0  0  0  0
  -23.9825  -27.2523   19.0699 H   0  0  0  0  0  0
  -23.7817  -30.5827   19.4011 H   0  0  0  0  0  0
  -22.7622  -29.2432   19.8469 H   0  0  0  0  0  0
  -25.1301  -36.1906   25.0826 H   0  0  0  0  0  0
  -21.0002  -28.3322   24.1400 H   0  0  0  0  0  0
  -20.5737  -26.2351   23.3623 H   0  0  0  0  0  0
  -21.6675  -26.7482   22.1204 H   0  0  0  0  0  0
  -19.6949  -25.6294   21.1287 H   0  0  0  0  0  0
  -19.6741  -27.3194   20.6752 H   0  0  0  0  0  0
  -17.4241  -26.6713   21.4017 H   0  0  0  0  0  0
  -18.0332  -26.0095   22.9016 H   0  0  0  0  0  0
  -19.7958  -30.7288   24.2280 H   0  0  0  0  0  0
  -17.5049  -31.6283   24.5193 H   0  0  0  0  0  0
  -15.5383  -30.3031   23.7659 H   0  0  0  0  0  0
  -15.8688  -28.0875   22.7041 H   0  0  0  0  0  0
  -24.5912  -30.7116   25.7785 H   0  0  0  0  0  0
  -24.8968  -32.2947   26.4803 H   0  0  0  0  0  0
  -25.8087  -30.8959   27.0226 H   0  0  0  0  0  0
  -26.2954  -29.6733   24.1181 H   0  0  0  0  0  0
  -27.4066  -29.7240   25.4666 H   0  0  0  0  0  0
  -27.8816  -30.4266   23.9397 H   0  0  0  0  0  0
  -27.2644  -33.3592   26.2085 H   0  0  0  0  0  0
  -28.3900  -32.6904   25.0383 H   0  0  0  0  0  0
  -28.0686  -31.8425   26.5437 H   0  0  0  0  0  0
  -28.2601  -38.0097   24.7485 H   0  0  0  0  0  0
  -28.1097  -36.2634   24.6315 H   0  0  0  0  0  0
  -27.2308  -37.1487   25.8870 H   0  0  0  0  0  0
  -20.9388  -29.8728   21.6804 H   0  0  0  0  0  0
  -26.0184  -38.2851   24.1364 H   0  0  0  0  0  0
  -27.7040  -21.0115   19.3426 H   0  0  0  0  0  0
  -28.2946  -18.5037   19.5342 H   0  0  0  0  0  0
  -32.0656  -25.8412   21.3704 H   0  0  0  0  0  0
  -31.0477  -26.3889   20.0419 H   0  0  0  0  0  0
  -31.2535  -24.6720   20.3509 H   0  0  0  0  0  0
  -30.7460  -27.0132   23.2840 H   0  0  0  0  0  0
  -28.9905  -27.0488   23.1997 H   0  0  0  0  0  0
  -29.9525  -27.8461   21.9644 H   0  0  0  0  0  0
  -27.7671  -25.4480   21.7757 H   0  0  0  0  0  0
  -30.0572  -24.8666   22.5066 H   0  0  0  0  0  0
  -29.6006  -23.1908   21.9125 H   0  0  0  0  0  0
  -28.8867  -15.7058   21.1421 H   0  0  0  0  0  0
  1 25  1  0  0  0
  1 30  2  0  0  0
  1 81  1  0  0  0
  2  3  1  0  0  0
  2 25  1  0  0  0
  2 87  1  0  0  0
  2 88  1  0  0  0
  3  4  1  0  0  0
  3 89  1  0  0  0
  3 90  1  0  0  0
  4  5  1  0  0  0
  4 91  1  0  0  0
  4 92  1  0  0  0
  5  6  1  0  0  0
  5 26  1  0  0  0
  5 93  1  0  0  0
  6 25  1  0  0  0
  6 94  1  0  0  0
  6 95  1  0  0  0
  7  8  2  0  0  0
  7 26  1  0  0  0
  7 29  1  0  0  0
  8  9  1  0  0  0
  8 22  1  0  0  0
  9 10  1  0  0  0
  9 27  2  0  0  0
 10 11  2  0  0  0
 10 15  1  0  0  0
 11 12  1  0  0  0
 11 96  1  0  0  0
 12 13  2  0  0  0
 12 97  1  0  0  0
 13 14  1  0  0  0
 13 31  1  0  0  0
 14 15  2  0  0  0
 14 98  1  0  0  0
 15 99  1  0  0  0
 16 17  2  0  0  0
 16 21  1  0  0  0
 16 31  1  0  0  0
 17 18  1  0  0  0
 17100  1  0  0  0
 18 19  2  0  0  0
 18101  1  0  0  0
 19 20  1  0  0  0
 19 24  1  0  0  0
 20 21  2  0  0  0
 20102  1  0  0  0
 21 23  1  0  0  0
 22 28  1  0  0  0
 22 32  2  0  0  0
 26 27  1  0  0  0
 28103  1  0  0  0
 28104  1  0  0  0
 29105  1  0  0  0
 29106  1  0  0  0
 33 34  1  0  0  0
 33 66  1  0  0  0
 33 70  2  0  0  0
 34 36  1  0  0  0
 34 59  1  0  0  0
 34107  1  0  0  0
 35 44  2  0  0  0
 35 45  1  0  0  0
 35 68  1  0  0  0
 36 56  1  0  0  0
 36108  1  0  0  0
 37 39  1  0  0  0
 37 47  1  0  0  0
 37 66  1  0  0  0
 37109  1  0  0  0
 38 43  2  0  0  0
 38 46  1  0  0  0
 38 47  1  0  0  0
 39 64  1  0  0  0
 39 67  2  0  0  0
 40 52  1  0  0  0
 40 53  2  0  0  0
 40 58  1  0  0  0
 41110  1  0  0  0
 41111  1  0  0  0
 41112  1  0  0  0
 41 48  1  0  0  0
 42 43  1  0  0  0
 42 66  1  0  0  0
 42113  1  0  0  0
 42114  1  0  0  0
 43 44  1  0  0  0
 44115  1  0  0  0
 45 46  2  0  0  0
 45116  1  0  0  0
 46117  1  0  0  0
 47118  1  0  0  0
 47119  1  0  0  0
 48 56  1  0  0  0
 48 65  1  0  0  0
 48120  1  0  0  0
 49 50  1  0  0  0
 49 53  1  0  0  0
 49 64  1  0  0  0
 49121  1  0  0  0
 50 51  1  0  0  0
 50122  1  0  0  0
 50123  1  0  0  0
 51 52  1  0  0  0
 51124  1  0  0  0
 51125  1  0  0  0
 52126  1  0  0  0
 52127  1  0  0  0
 53 54  1  0  0  0
 54 55  2  0  0  0
 54128  1  0  0  0
 55 57  1  0  0  0
 55129  1  0  0  0
 56 69  2  0  0  0
 57 58  2  0  0  0
 57130  1  0  0  0
 58131  1  0  0  0
 59 60  1  0  0  0
 59 61  1  0  0  0
 59 62  1  0  0  0
 60132  1  0  0  0
 60133  1  0  0  0
 60134  1  0  0  0
 61135  1  0  0  0
 61136  1  0  0  0
 61137  1  0  0  0
 62138  1  0  0  0
 62139  1  0  0  0
 62140  1  0  0  0
 63 65  1  0  0  0
 63141  1  0  0  0
 63142  1  0  0  0
 63143  1  0  0  0
 64144  1  0  0  0
 65145  1  0  0  0
 68 78  1  0  0  0
 71 72  1  0  0  0
 71 73  2  0  0  0
 71146  1  0  0  0
 72 74  2  0  0  0
 72147  1  0  0  0
 73 80  1  0  0  0
 73 85  1  0  0  0
 74 85  1  0  0  0
 74 86  1  0  0  0
 75 78  1  0  0  0
 75 80  1  0  0  0
 75 82  2  0  0  0
 76148  1  0  0  0
 76149  1  0  0  0
 76150  1  0  0  0
 76 79  1  0  0  0
 77 79  1  0  0  0
 77151  1  0  0  0
 77152  1  0  0  0
 77153  1  0  0  0
 78 79  1  0  0  0
 78154  1  0  0  0
 79155  1  0  0  0
 80156  1  0  0  0
 81157  1  0  0  0
 81 86  1  0  0  0
 83 86  2  0  0  0
 84 86  2  0  0  0
M  ISO  4   1 100  68 101  78 101  81 100
M  END
> <chiral flag>
0

> <version>
0

> <s_m_source_file>
/data/baiqing/PycharmProjects/Reinvent-master-3.2/result/LINK_invent/BTK/process_docking_weight1_custom_product_contain_oxygen_bond_distance_aromatic_linkinvent_7_9_3/rearranged_h_0184.sdf

> <i_m_source_file_index>
86

> <r_mmod_Potential_Energy-OPLS-2005>
-98.5303955078125

> <r_mmod_Stretch_Energy-OPLS-2005>
84.2245559692383

> <r_mmod_Bend_Energy-OPLS-2005>
168.929153442383

> <r_mmod_Torsional_Energy-OPLS-2005>
230.024429321289

> <r_mmod_Improper_Torsional_Energy-OPLS-2005>
4.56353950500488

> <r_mmod_Van_der_Waal_Energy-OPLS-2005>
103.970375061035

> <r_mmod_Electrostatic_Energy-OPLS-2005>
-459.255645751953

> <r_mmod_Solvation_Energy-OPLS-2005>
-279.572540283203

> <b_mmod_Minimization_Converged-OPLS-2005>
0

> <r_mmod_RMS_Derivative-OPLS-2005>
4.76345205307007

$$$$
86
                    3D
 Structure written by MMmdl.
154162  0  0  1  0            999 V2000
  -30.5700  -14.7456   20.4826 C   0  0  0  0  0  0
  -30.4509  -12.4514   19.4739 C   0  0  0  0  0  0
  -29.5225  -12.5024   18.2389 C   0  0  0  0  0  0
  -28.0465  -12.3228   18.6545 C   0  0  0  0  0  0
  -27.6498  -13.2182   19.8551 C   0  0  2  0  0  0
  -28.6927  -13.1230   20.9909 C   0  0  0  0  0  0
  -25.2551  -13.8162   20.5675 C   0  0  0  0  0  0
  -24.1819  -13.0423   20.9175 C   0  0  0  0  0  0
  -24.6395  -11.6891   20.8747 C   0  0  0  0  0  0
  -23.9072  -10.4271   21.0407 C   0  0  0  0  0  0
  -24.3623   -9.4168   21.9184 C   0  0  0  0  0  0
  -23.6274   -8.2222   22.0750 C   0  0  0  0  0  0
  -22.4262   -8.0278   21.3532 C   0  0  0  0  0  0
  -21.9893   -9.0275   20.4648 C   0  0  0  0  0  0
  -22.7239  -10.2145   20.3046 C   0  0  0  0  0  0
  -21.6833   -6.0725   22.5275 C   0  0  0  0  0  0
  -21.4038   -6.5629   23.8213 C   0  0  0  0  0  0
  -21.3660   -5.6779   24.9161 C   0  0  0  0  0  0
  -21.6038   -4.3045   24.7223 C   0  0  0  0  0  0
  -21.8825   -3.8137   23.4348 C   0  0  0  0  0  0
  -21.9193   -4.6954   22.3398 C   0  0  0  0  0  0
  -22.7841  -13.5232   21.1832 C   0  0  0  0  0  0
  -22.1646   -4.2144   21.0971 F   0  0  0  0  0  0
  -21.5604   -3.4524   25.7735 F   0  0  0  0  0  0
  -29.9977  -13.4927   20.4229 N   0  0  0  0  0  0
  -26.2970  -12.9345   20.3276 N   0  0  0  0  0  0
  -25.9316  -11.6501   20.5720 N   0  0  0  0  0  0
  -22.0479  -12.8271   22.0432 N   0  0  0  0  0  0
  -25.4250  -15.1892   20.4108 N   0  0  0  0  0  0
  -31.7474  -14.9098   20.1446 O   0  0  0  0  0  0
  -21.6619   -6.8873   21.4234 O   0  0  0  0  0  0
  -22.3536  -14.5531   20.6634 O   0  0  0  0  0  0
  -24.6315  -31.8533   23.1950 C   0  0  0  0  0  0
  -25.9135  -32.4755   23.8308 C   0  0  1  0  0  0
  -27.2330  -27.2496   20.1620 C   0  0  0  0  0  0
  -25.5881  -33.8560   24.2226 N   0  0  0  0  0  0
  -23.4328  -30.4701   21.5374 C   0  0  2  0  0  0
  -24.8831  -28.9023   20.1236 C   0  0  0  0  0  0
  -22.7508  -29.4580   22.4911 C   0  0  0  0  0  0
  -18.0279  -28.1394   22.8497 C   0  0  0  0  0  0
  -24.1440  -36.7321   23.2662 C   0  0  0  0  0  0
  -25.9780  -30.7617   21.3796 C   0  0  0  0  0  0
  -26.0524  -29.3779   20.7315 C   0  0  0  0  0  0
  -27.2342  -28.5667   20.7321 C   0  0  0  0  0  0
  -26.0428  -26.8330   19.5326 C   0  0  0  0  0  0
  -24.8827  -27.6379   19.5117 C   0  0  0  0  0  0
  -23.6546  -29.7916   20.1582 C   0  0  0  0  0  0
  -25.4077  -36.3092   24.0326 C   0  0  1  0  0  0
  -20.5900  -28.3686   23.1263 C   0  0  2  0  0  0
  -20.6763  -26.9391   22.5420 C   0  0  0  0  0  0
  -19.5720  -26.6366   21.5236 C   0  0  0  0  0  0
  -18.1902  -26.7933   22.1639 C   0  0  0  0  0  0
  -19.1544  -28.8858   23.2877 C   0  0  0  0  0  0
  -18.9473  -30.1470   23.8878 C   0  0  0  0  0  0
  -17.6471  -30.6583   24.0578 C   0  0  0  0  0  0
  -25.9021  -34.9454   23.5081 C   0  0  0  0  0  0
  -16.5355  -29.9089   23.6357 C   0  0  0  0  0  0
  -16.7271  -28.6522   23.0359 C   0  0  0  0  0  0
  -26.4547  -31.6634   25.0716 C   0  0  0  0  0  0
  -25.3809  -31.3846   26.1503 C   0  0  0  0  0  0
  -27.0440  -30.3039   24.6296 C   0  0  0  0  0  0
  -27.6124  -32.4425   25.7408 C   0  0  0  0  0  0
  -27.5549  -37.1777   24.8441 C   0  0  0  0  0  0
  -21.4226  -29.3038   22.3655 N   0  0  0  0  0  0
  -26.4255  -37.3792   23.9405 N   0  0  0  0  0  0
  -24.6996  -31.0504   22.0908 N   0  0  0  0  0  0
  -23.4189  -28.8125   23.3039 O   0  0  0  0  0  0
  -28.3430  -26.3795   20.1240 O   0  0  0  0  0  0
  -26.5644  -34.8929   22.4673 O   0  0  0  0  0  0
  -23.5474  -32.1366   23.7239 O   0  0  0  0  0  0
  -30.3670  -19.5311   20.6776 C   0  0  0  0  0  0
  -30.7687  -18.1228   20.6781 C   0  0  0  0  0  0
  -29.0062  -19.7721   20.6584 C   0  0  0  0  0  0
  -29.7407  -17.1938   20.6698 C   0  0  0  0  0  0
  -28.2130  -23.6878   20.2344 C   0  0  0  0  0  0
  -29.7399  -25.1446   21.6995 C   0  0  0  0  0  0
  -28.1199  -21.1013   20.6447 C   0  0  1  0  0  0
  -28.3950  -25.1199   20.9527 C   0  0  1  0  0  0
  -26.9648  -20.9962   21.6947 C   0  0  0  0  0  0
  -29.6980  -15.7912   20.7453 N   0  0  0  0  0  0
  -28.7180  -22.5062   20.7706 N   0  0  0  0  0  0
  -27.5227  -23.6446   19.2137 O   0  0  0  0  0  0
  -26.1210  -20.0088   21.3993 F   0  0  0  0  0  0
  -27.4681  -20.7683   22.9102 F   0  0  0  0  0  0
  -26.2304  -22.1083   21.7602 F   0  0  0  0  0  0
  -28.2451  -18.1541   20.6102 S   0  0  0  0  0  0
  -31.4890  -12.5967   19.1713 H   0  0  0  0  0  0
  -30.4156  -11.4660   19.9448 H   0  0  0  0  0  0
  -29.8018  -11.7251   17.5236 H   0  0  0  0  0  0
  -29.6455  -13.4560   17.7210 H   0  0  0  0  0  0
  -27.9053  -11.2759   18.9282 H   0  0  0  0  0  0
  -27.3869  -12.5072   17.8052 H   0  0  0  0  0  0
  -27.6543  -14.2418   19.4797 H   0  0  0  0  0  0
  -28.7304  -12.1109   21.4000 H   0  0  0  0  0  0
  -28.4231  -13.7757   21.8243 H   0  0  0  0  0  0
  -25.2769   -9.5619   22.4762 H   0  0  0  0  0  0
  -23.9956   -7.4605   22.7475 H   0  0  0  0  0  0
  -21.0796   -8.8812   19.8996 H   0  0  0  0  0  0
  -22.3677  -10.9694   19.6164 H   0  0  0  0  0  0
  -21.2052   -7.6147   23.9708 H   0  0  0  0  0  0
  -21.1451   -6.0505   25.9058 H   0  0  0  0  0  0
  -22.0609   -2.7608   23.2837 H   0  0  0  0  0  0
  -22.4063  -11.9954   22.4876 H   0  0  0  0  0  0
  -21.1108  -13.1329   22.2623 H   0  0  0  0  0  0
  -24.6560  -15.8424   20.5164 H   0  0  0  0  0  0
  -26.2580  -15.6227   20.0348 H   0  0  0  0  0  0
  -26.7185  -32.5395   23.1049 H   0  0  0  0  0  0
  -24.9935  -33.9660   25.0314 H   0  0  0  0  0  0
  -22.7279  -31.2892   21.3827 H   0  0  0  0  0  0
  -23.3688  -35.9670   23.3323 H   0  0  0  0  0  0
  -24.3519  -36.8966   22.2075 H   0  0  0  0  0  0
  -23.7212  -37.6517   23.6715 H   0  0  0  0  0  0
  -26.1228  -31.5163   20.6045 H   0  0  0  0  0  0
  -26.8546  -30.8124   22.0152 H   0  0  0  0  0  0
  -28.1397  -28.9317   21.1964 H   0  0  0  0  0  0
  -26.0057  -25.8627   19.0551 H   0  0  0  0  0  0
  -23.9878  -27.2650   19.0324 H   0  0  0  0  0  0
  -23.7819  -30.5607   19.3969 H   0  0  0  0  0  0
  -22.7745  -29.2257   19.8546 H   0  0  0  0  0  0
  -25.1264  -36.1936   25.0821 H   0  0  0  0  0  0
  -21.0016  -28.3284   24.1384 H   0  0  0  0  0  0
  -20.5662  -26.2292   23.3646 H   0  0  0  0  0  0
  -21.6617  -26.7412   22.1200 H   0  0  0  0  0  0
  -19.6865  -25.6284   21.1238 H   0  0  0  0  0  0
  -19.6630  -27.3215   20.6796 H   0  0  0  0  0  0
  -17.4173  -26.6726   21.4031 H   0  0  0  0  0  0
  -18.0262  -26.0062   22.9015 H   0  0  0  0  0  0
  -19.7940  -30.7311   24.2204 H   0  0  0  0  0  0
  -17.5009  -31.6249   24.5209 H   0  0  0  0  0  0
  -15.5346  -30.2976   23.7682 H   0  0  0  0  0  0
  -15.8680  -28.0833   22.7065 H   0  0  0  0  0  0
  -24.5827  -30.7349   25.7847 H   0  0  0  0  0  0
  -24.9240  -32.3070   26.5092 H   0  0  0  0  0  0
  -25.8179  -30.8919   27.0203 H   0  0  0  0  0  0
  -26.2992  -29.6664   24.1503 H   0  0  0  0  0  0
  -27.4193  -29.7460   25.4885 H   0  0  0  0  0  0
  -27.8898  -30.4232   23.9516 H   0  0  0  0  0  0
  -27.2696  -33.3624   26.2149 H   0  0  0  0  0  0
  -28.3797  -32.7150   25.0159 H   0  0  0  0  0  0
  -28.0984  -31.8506   26.5167 H   0  0  0  0  0  0
  -28.2576  -38.0058   24.7547 H   0  0  0  0  0  0
  -28.1036  -36.2621   24.6221 H   0  0  0  0  0  0
  -27.2283  -37.1379   25.8838 H   0  0  0  0  0  0
  -20.9417  -29.8727   21.6832 H   0  0  0  0  0  0
  -26.0150  -38.2860   24.1421 H   0  0  0  0  0  0
  -31.1114  -20.3149   20.6916 H   0  0  0  0  0  0
  -31.8161  -17.8527   20.7077 H   0  0  0  0  0  0
  -29.9268  -26.1243   22.1409 H   0  0  0  0  0  0
  -30.5716  -24.9179   21.0293 H   0  0  0  0  0  0
  -29.7575  -24.4134   22.5092 H   0  0  0  0  0  0
  -27.6289  -21.0995   19.6715 H   0  0  0  0  0  0
  -27.6004  -25.1881   21.6979 H   0  0  0  0  0  0
  -28.7767  -15.4415   20.9559 H   0  0  0  0  0  0
  -29.3218  -22.6185   21.5729 H   0  0  0  0  0  0
  1 25  1  0  0  0
  1 30  2  0  0  0
  1 80  1  0  0  0
  2  3  1  0  0  0
  2 25  1  0  0  0
  2 87  1  0  0  0
  2 88  1  0  0  0
  3  4  1  0  0  0
  3 89  1  0  0  0
  3 90  1  0  0  0
  4  5  1  0  0  0
  4 91  1  0  0  0
  4 92  1  0  0  0
  5  6  1  0  0  0
  5 26  1  0  0  0
  5 93  1  0  0  0
  6 25  1  0  0  0
  6 94  1  0  0  0
  6 95  1  0  0  0
  7  8  2  0  0  0
  7 26  1  0  0  0
  7 29  1  0  0  0
  8  9  1  0  0  0
  8 22  1  0  0  0
  9 10  1  0  0  0
  9 27  2  0  0  0
 10 11  2  0  0  0
 10 15  1  0  0  0
 11 12  1  0  0  0
 11 96  1  0  0  0
 12 13  2  0  0  0
 12 97  1  0  0  0
 13 14  1  0  0  0
 13 31  1  0  0  0
 14 15  2  0  0  0
 14 98  1  0  0  0
 15 99  1  0  0  0
 16 17  2  0  0  0
 16 21  1  0  0  0
 16 31  1  0  0  0
 17 18  1  0  0  0
 17100  1  0  0  0
 18 19  2  0  0  0
 18101  1  0  0  0
 19 20  1  0  0  0
 19 24  1  0  0  0
 20 21  2  0  0  0
 20102  1  0  0  0
 21 23  1  0  0  0
 22 28  1  0  0  0
 22 32  2  0  0  0
 26 27  1  0  0  0
 28103  1  0  0  0
 28104  1  0  0  0
 29105  1  0  0  0
 29106  1  0  0  0
 33 34  1  0  0  0
 33 66  1  0  0  0
 33 70  2  0  0  0
 34 36  1  0  0  0
 34 59  1  0  0  0
 34107  1  0  0  0
 35 44  2  0  0  0
 35 45  1  0  0  0
 35 68  1  0  0  0
 36 56  1  0  0  0
 36108  1  0  0  0
 37 39  1  0  0  0
 37 47  1  0  0  0
 37 66  1  0  0  0
 37109  1  0  0  0
 38 43  2  0  0  0
 38 46  1  0  0  0
 38 47  1  0  0  0
 39 64  1  0  0  0
 39 67  2  0  0  0
 40 52  1  0  0  0
 40 53  2  0  0  0
 40 58  1  0  0  0
 41110  1  0  0  0
 41111  1  0  0  0
 41112  1  0  0  0
 41 48  1  0  0  0
 42 43  1  0  0  0
 42 66  1  0  0  0
 42113  1  0  0  0
 42114  1  0  0  0
 43 44  1  0  0  0
 44115  1  0  0  0
 45 46  2  0  0  0
 45116  1  0  0  0
 46117  1  0  0  0
 47118  1  0  0  0
 47119  1  0  0  0
 48 56  1  0  0  0
 48 65  1  0  0  0
 48120  1  0  0  0
 49 50  1  0  0  0
 49 53  1  0  0  0
 49 64  1  0  0  0
 49121  1  0  0  0
 50 51  1  0  0  0
 50122  1  0  0  0
 50123  1  0  0  0
 51 52  1  0  0  0
 51124  1  0  0  0
 51125  1  0  0  0
 52126  1  0  0  0
 52127  1  0  0  0
 53 54  1  0  0  0
 54 55  2  0  0  0
 54128  1  0  0  0
 55 57  1  0  0  0
 55129  1  0  0  0
 56 69  2  0  0  0
 57 58  2  0  0  0
 57130  1  0  0  0
 58131  1  0  0  0
 59 60  1  0  0  0
 59 61  1  0  0  0
 59 62  1  0  0  0
 60132  1  0  0  0
 60133  1  0  0  0
 60134  1  0  0  0
 61135  1  0  0  0
 61136  1  0  0  0
 61137  1  0  0  0
 62138  1  0  0  0
 62139  1  0  0  0
 62140  1  0  0  0
 63 65  1  0  0  0
 63141  1  0  0  0
 63142  1  0  0  0
 63143  1  0  0  0
 64144  1  0  0  0
 65145  1  0  0  0
 68 78  1  0  0  0
 71 72  1  0  0  0
 71 73  2  0  0  0
 71146  1  0  0  0
 72 74  2  0  0  0
 72147  1  0  0  0
 73 77  1  0  0  0
 73 86  1  0  0  0
 74 80  1  0  0  0
 74 86  1  0  0  0
 75 78  1  0  0  0
 75 81  1  0  0  0
 75 82  2  0  0  0
 76148  1  0  0  0
 76149  1  0  0  0
 76150  1  0  0  0
 76 78  1  0  0  0
 77 79  1  0  0  0
 77 81  1  0  0  0
 77151  1  0  0  0
 78152  1  0  0  0
 79 83  1  0  0  0
 79 84  1  0  0  0
 79 85  1  0  0  0
 80153  1  0  0  0
 81154  1  0  0  0
M  ISO  4   1 100  68 101  78 101  80 100
M  END
> <chiral flag>
0

> <version>
0

> <s_m_source_file>
/data/baiqing/PycharmProjects/Reinvent-master-3.2/result/LINK_invent/BTK/process_docking_weight1_custom_product_contain_oxygen_bond_distance_aromatic_linkinvent_7_9_3/rearranged_h_0184.sdf

> <i_m_source_file_index>
87

> <r_mmod_Potential_Energy-OPLS-2005>
89.4760589599609

> <r_mmod_Stretch_Energy-OPLS-2005>
119.241622924805

> <r_mmod_Bend_Energy-OPLS-2005>
187.151947021484

> <r_mmod_Torsional_Energy-OPLS-2005>
252.11799621582

> <r_mmod_Improper_Torsional_Energy-OPLS-2005>
6.72994232177734

> <r_mmod_Van_der_Waal_Energy-OPLS-2005>
112.929481506348

> <r_mmod_Electrostatic_Energy-OPLS-2005>
-447.669403076172

> <r_mmod_Solvation_Energy-OPLS-2005>
-226.722625732422

> <b_mmod_Minimization_Converged-OPLS-2005>
0

> <r_mmod_RMS_Derivative-OPLS-2005>
4.67327213287354

$$$$
87
                    3D
 Structure written by MMmdl.
153161  0  0  1  0            999 V2000
  -30.6570  -14.7274   20.4380 C   0  0  0  0  0  0
  -30.4150  -12.4309   19.5070 C   0  0  0  0  0  0
  -29.5125  -12.4988   18.2563 C   0  0  0  0  0  0
  -28.0373  -12.3303   18.6613 C   0  0  0  0  0  0
  -27.6417  -13.2397   19.8566 C   0  0  2  0  0  0
  -28.6807  -13.1977   21.0006 C   0  0  0  0  0  0
  -25.2491  -13.8224   20.5713 C   0  0  0  0  0  0
  -24.1788  -13.0447   20.9201 C   0  0  0  0  0  0
  -24.6388  -11.6925   20.8745 C   0  0  0  0  0  0
  -23.9074  -10.4291   21.0399 C   0  0  0  0  0  0
  -24.3621   -9.4209   21.9180 C   0  0  0  0  0  0
  -23.6291   -8.2246   22.0752 C   0  0  0  0  0  0
  -22.4278   -8.0275   21.3539 C   0  0  0  0  0  0
  -21.9914   -9.0253   20.4646 C   0  0  0  0  0  0
  -22.7244  -10.2133   20.3052 C   0  0  0  0  0  0
  -21.6854   -6.0730   22.5272 C   0  0  0  0  0  0
  -21.4022   -6.5641   23.8206 C   0  0  0  0  0  0
  -21.3662   -5.6796   24.9173 C   0  0  0  0  0  0
  -21.6037   -4.3054   24.7227 C   0  0  0  0  0  0
  -21.8822   -3.8144   23.4349 C   0  0  0  0  0  0
  -21.9197   -4.6957   22.3401 C   0  0  0  0  0  0
  -22.7807  -13.5210   21.1863 C   0  0  0  0  0  0
  -22.1660   -4.2136   21.0977 F   0  0  0  0  0  0
  -21.5627   -3.4540   25.7747 F   0  0  0  0  0  0
  -29.9920  -13.5182   20.4260 N   0  0  0  0  0  0
  -26.2931  -12.9451   20.3314 N   0  0  0  0  0  0
  -25.9331  -11.6583   20.5784 N   0  0  0  0  0  0
  -22.0476  -12.8183   22.0424 N   0  0  0  0  0  0
  -25.4187  -15.1945   20.4139 N   0  0  0  0  0  0
  -31.8434  -14.7371   20.0952 O   0  0  0  0  0  0
  -21.6643   -6.8871   21.4231 O   0  0  0  0  0  0
  -22.3491  -14.5517   20.6719 O   0  0  0  0  0  0
  -24.6323  -31.8555   23.2005 C   0  0  0  0  0  0
  -25.9138  -32.4761   23.8348 C   0  0  1  0  0  0
  -27.2078  -27.2530   20.1325 C   0  0  0  0  0  0
  -25.5945  -33.8568   24.2263 N   0  0  0  0  0  0
  -23.4302  -30.4792   21.5448 C   0  0  2  0  0  0
  -24.8790  -28.9407   20.0999 C   0  0  0  0  0  0
  -22.7522  -29.4592   22.4920 C   0  0  0  0  0  0
  -18.0293  -28.1390   22.8463 C   0  0  0  0  0  0
  -24.1492  -36.7292   23.2636 C   0  0  0  0  0  0
  -25.9778  -30.7666   21.3858 C   0  0  0  0  0  0
  -26.0502  -29.3919   20.7225 C   0  0  0  0  0  0
  -27.2191  -28.5593   20.7328 C   0  0  0  0  0  0
  -26.0300  -26.9059   19.4299 C   0  0  0  0  0  0
  -24.8761  -27.7064   19.4402 C   0  0  0  0  0  0
  -23.6475  -29.8224   20.1574 C   0  0  0  0  0  0
  -25.4114  -36.3073   24.0321 C   0  0  1  0  0  0
  -20.5893  -28.3696   23.1260 C   0  0  2  0  0  0
  -20.6784  -26.9413   22.5399 C   0  0  0  0  0  0
  -19.5761  -26.6380   21.5205 C   0  0  0  0  0  0
  -18.1930  -26.7929   22.1606 C   0  0  0  0  0  0
  -19.1546  -28.8859   23.2844 C   0  0  0  0  0  0
  -18.9472  -30.1455   23.8859 C   0  0  0  0  0  0
  -17.6473  -30.6579   24.0556 C   0  0  0  0  0  0
  -25.9060  -34.9443   23.5091 C   0  0  0  0  0  0
  -16.5360  -29.9073   23.6350 C   0  0  0  0  0  0
  -16.7281  -28.6505   23.0346 C   0  0  0  0  0  0
  -26.4507  -31.6592   25.0743 C   0  0  0  0  0  0
  -25.3724  -31.3762   26.1463 C   0  0  0  0  0  0
  -27.0359  -30.2999   24.6256 C   0  0  0  0  0  0
  -27.6060  -32.4350   25.7518 C   0  0  0  0  0  0
  -27.5574  -37.1787   24.8463 C   0  0  0  0  0  0
  -21.4224  -29.3042   22.3654 N   0  0  0  0  0  0
  -26.4287  -37.3769   23.9411 N   0  0  0  0  0  0
  -24.6989  -31.0511   22.0996 N   0  0  0  0  0  0
  -23.4221  -28.8125   23.3022 O   0  0  0  0  0  0
  -28.2432  -26.2880   20.2640 O   0  0  0  0  0  0
  -26.5633  -34.8928   22.4662 O   0  0  0  0  0  0
  -23.5478  -32.1387   23.7285 O   0  0  0  0  0  0
  -29.3456  -20.5705   21.7948 C   0  0  0  0  0  0
  -29.6797  -19.1477   21.8399 C   0  0  0  0  0  0
  -29.7325  -18.5304   20.6045 C   0  0  0  0  0  0
  -29.1195  -21.1188   20.5435 C   0  0  0  0  0  0
  -30.2794  -17.1639   20.1213 C   0  0  0  0  0  0
  -28.9103  -23.6754   20.6338 C   0  0  0  0  0  0
  -26.7751  -24.6570   21.4714 C   0  0  0  0  0  0
  -27.8284  -24.8265   20.3456 C   0  0  1  0  0  0
  -30.0114  -18.4064   23.1052 C   0  0  0  0  0  0
  -28.6594  -22.3923   20.1733 N   0  0  0  0  0  0
  -29.9650  -15.9167   20.6579 N   0  0  0  0  0  0
  -31.0474  -17.2500   19.1580 O   0  0  0  0  0  0
  -29.9214  -23.9380   21.2904 O   0  0  0  0  0  0
  -29.8992  -19.1846   24.1826 F   0  0  0  0  0  0
  -29.1975  -17.3641   23.2755 F   0  0  0  0  0  0
  -31.2604  -17.9415   23.0743 F   0  0  0  0  0  0
  -29.3512  -19.7809   19.3854 S   0  0  0  0  0  0
  -31.4651  -12.5015   19.2177 H   0  0  0  0  0  0
  -30.3153  -11.4616   19.9989 H   0  0  0  0  0  0
  -29.7941  -11.7224   17.5441 H   0  0  0  0  0  0
  -29.6530  -13.4537   17.7477 H   0  0  0  0  0  0
  -27.8924  -11.2831   18.9319 H   0  0  0  0  0  0
  -27.3835  -12.5151   17.8089 H   0  0  0  0  0  0
  -27.6329  -14.2574   19.4663 H   0  0  0  0  0  0
  -28.7009  -12.2143   21.4708 H   0  0  0  0  0  0
  -28.4169  -13.9064   21.7867 H   0  0  0  0  0  0
  -25.2767   -9.5689   22.4756 H   0  0  0  0  0  0
  -23.9998   -7.4647   22.7481 H   0  0  0  0  0  0
  -21.0839   -8.8772   19.8957 H   0  0  0  0  0  0
  -22.3692  -10.9671   19.6160 H   0  0  0  0  0  0
  -21.2019   -7.6151   23.9704 H   0  0  0  0  0  0
  -21.1479   -6.0531   25.9073 H   0  0  0  0  0  0
  -22.0599   -2.7602   23.2860 H   0  0  0  0  0  0
  -22.4122  -11.9836   22.4776 H   0  0  0  0  0  0
  -21.1098  -13.1196   22.2674 H   0  0  0  0  0  0
  -24.6503  -15.8476   20.5206 H   0  0  0  0  0  0
  -26.2665  -15.6326   20.0781 H   0  0  0  0  0  0
  -26.7190  -32.5403   23.1077 H   0  0  0  0  0  0
  -25.0102  -33.9717   25.0414 H   0  0  0  0  0  0
  -22.7273  -31.3016   21.3995 H   0  0  0  0  0  0
  -23.3761  -35.9624   23.3314 H   0  0  0  0  0  0
  -24.3568  -36.8921   22.2050 H   0  0  0  0  0  0
  -23.7253  -37.6492   23.6667 H   0  0  0  0  0  0
  -26.1194  -31.5311   20.6204 H   0  0  0  0  0  0
  -26.8547  -30.8105   22.0205 H   0  0  0  0  0  0
  -28.1053  -28.8867   21.2572 H   0  0  0  0  0  0
  -25.9522  -25.9693   18.9019 H   0  0  0  0  0  0
  -23.9868  -27.3606   18.9311 H   0  0  0  0  0  0
  -23.7691  -30.6042   19.4071 H   0  0  0  0  0  0
  -22.7656  -29.2563   19.8506 H   0  0  0  0  0  0
  -25.1289  -36.1929   25.0814 H   0  0  0  0  0  0
  -20.9951  -28.3264   24.1398 H   0  0  0  0  0  0
  -20.5697  -26.2297   23.3596 H   0  0  0  0  0  0
  -21.6646  -26.7451   22.1173 H   0  0  0  0  0  0
  -19.6936  -25.6289   21.1236 H   0  0  0  0  0  0
  -19.6706  -27.3189   20.6734 H   0  0  0  0  0  0
  -17.4201  -26.6674   21.4006 H   0  0  0  0  0  0
  -18.0316  -26.0083   22.9015 H   0  0  0  0  0  0
  -19.7959  -30.7265   24.2215 H   0  0  0  0  0  0
  -17.5044  -31.6265   24.5151 H   0  0  0  0  0  0
  -15.5358  -30.2959   23.7720 H   0  0  0  0  0  0
  -15.8679  -28.0822   22.7070 H   0  0  0  0  0  0
  -24.5890  -30.7125   25.7790 H   0  0  0  0  0  0
  -24.8921  -32.2938   26.4858 H   0  0  0  0  0  0
  -25.8025  -30.8947   27.0253 H   0  0  0  0  0  0
  -26.2951  -29.6731   24.1271 H   0  0  0  0  0  0
  -27.4005  -29.7283   25.4797 H   0  0  0  0  0  0
  -27.8859  -30.4260   23.9551 H   0  0  0  0  0  0
  -27.2672  -33.3686   26.2027 H   0  0  0  0  0  0
  -28.3903  -32.6850   25.0361 H   0  0  0  0  0  0
  -28.0692  -31.8515   26.5485 H   0  0  0  0  0  0
  -28.2576  -38.0090   24.7494 H   0  0  0  0  0  0
  -28.1078  -36.2614   24.6308 H   0  0  0  0  0  0
  -27.2282  -37.1459   25.8860 H   0  0  0  0  0  0
  -20.9416  -29.8809   21.6883 H   0  0  0  0  0  0
  -26.0179  -38.2851   24.1419 H   0  0  0  0  0  0
  -29.2698  -21.1413   22.7098 H   0  0  0  0  0  0
  -25.8057  -25.0791   21.2175 H   0  0  0  0  0  0
  -27.1123  -25.1319   22.3930 H   0  0  0  0  0  0
  -26.5854  -23.6065   21.6995 H   0  0  0  0  0  0
  -27.3933  -24.5381   19.3886 H   0  0  0  0  0  0
  -27.9323  -22.3717   19.4701 H   0  0  0  0  0  0
  -29.1183  -15.8610   21.1987 H   0  0  0  0  0  0
  1 25  1  0  0  0
  1 30  2  0  0  0
  1 81  1  0  0  0
  2  3  1  0  0  0
  2 25  1  0  0  0
  2 88  1  0  0  0
  2 89  1  0  0  0
  3  4  1  0  0  0
  3 90  1  0  0  0
  3 91  1  0  0  0
  4  5  1  0  0  0
  4 92  1  0  0  0
  4 93  1  0  0  0
  5  6  1  0  0  0
  5 26  1  0  0  0
  5 94  1  0  0  0
  6 25  1  0  0  0
  6 95  1  0  0  0
  6 96  1  0  0  0
  7  8  2  0  0  0
  7 26  1  0  0  0
  7 29  1  0  0  0
  8  9  1  0  0  0
  8 22  1  0  0  0
  9 10  1  0  0  0
  9 27  2  0  0  0
 10 11  2  0  0  0
 10 15  1  0  0  0
 11 12  1  0  0  0
 11 97  1  0  0  0
 12 13  2  0  0  0
 12 98  1  0  0  0
 13 14  1  0  0  0
 13 31  1  0  0  0
 14 15  2  0  0  0
 14 99  1  0  0  0
 15100  1  0  0  0
 16 17  2  0  0  0
 16 21  1  0  0  0
 16 31  1  0  0  0
 17 18  1  0  0  0
 17101  1  0  0  0
 18 19  2  0  0  0
 18102  1  0  0  0
 19 20  1  0  0  0
 19 24  1  0  0  0
 20 21  2  0  0  0
 20103  1  0  0  0
 21 23  1  0  0  0
 22 28  1  0  0  0
 22 32  2  0  0  0
 26 27  1  0  0  0
 28104  1  0  0  0
 28105  1  0  0  0
 29106  1  0  0  0
 29107  1  0  0  0
 33 34  1  0  0  0
 33 66  1  0  0  0
 33 70  2  0  0  0
 34 36  1  0  0  0
 34 59  1  0  0  0
 34108  1  0  0  0
 35 44  2  0  0  0
 35 45  1  0  0  0
 35 68  1  0  0  0
 36 56  1  0  0  0
 36109  1  0  0  0
 37 39  1  0  0  0
 37 47  1  0  0  0
 37 66  1  0  0  0
 37110  1  0  0  0
 38 43  2  0  0  0
 38 46  1  0  0  0
 38 47  1  0  0  0
 39 64  1  0  0  0
 39 67  2  0  0  0
 40 52  1  0  0  0
 40 53  2  0  0  0
 40 58  1  0  0  0
 41111  1  0  0  0
 41112  1  0  0  0
 41113  1  0  0  0
 41 48  1  0  0  0
 42 43  1  0  0  0
 42 66  1  0  0  0
 42114  1  0  0  0
 42115  1  0  0  0
 43 44  1  0  0  0
 44116  1  0  0  0
 45 46  2  0  0  0
 45117  1  0  0  0
 46118  1  0  0  0
 47119  1  0  0  0
 47120  1  0  0  0
 48 56  1  0  0  0
 48 65  1  0  0  0
 48121  1  0  0  0
 49 50  1  0  0  0
 49 53  1  0  0  0
 49 64  1  0  0  0
 49122  1  0  0  0
 50 51  1  0  0  0
 50123  1  0  0  0
 50124  1  0  0  0
 51 52  1  0  0  0
 51125  1  0  0  0
 51126  1  0  0  0
 52127  1  0  0  0
 52128  1  0  0  0
 53 54  1  0  0  0
 54 55  2  0  0  0
 54129  1  0  0  0
 55 57  1  0  0  0
 55130  1  0  0  0
 56 69  2  0  0  0
 57 58  2  0  0  0
 57131  1  0  0  0
 58132  1  0  0  0
 59 60  1  0  0  0
 59 61  1  0  0  0
 59 62  1  0  0  0
 60133  1  0  0  0
 60134  1  0  0  0
 60135  1  0  0  0
 61136  1  0  0  0
 61137  1  0  0  0
 61138  1  0  0  0
 62139  1  0  0  0
 62140  1  0  0  0
 62141  1  0  0  0
 63 65  1  0  0  0
 63142  1  0  0  0
 63143  1  0  0  0
 63144  1  0  0  0
 64145  1  0  0  0
 65146  1  0  0  0
 68 78  1  0  0  0
 71 72  1  0  0  0
 71 74  2  0  0  0
 71147  1  0  0  0
 72 73  2  0  0  0
 72 79  1  0  0  0
 73 75  1  0  0  0
 73 87  1  0  0  0
 74 80  1  0  0  0
 74 87  1  0  0  0
 75 81  1  0  0  0
 75 82  2  0  0  0
 76 78  1  0  0  0
 76 80  1  0  0  0
 76 83  2  0  0  0
 77148  1  0  0  0
 77149  1  0  0  0
 77150  1  0  0  0
 77 78  1  0  0  0
 78151  1  0  0  0
 79 84  1  0  0  0
 79 85  1  0  0  0
 79 86  1  0  0  0
 80152  1  0  0  0
 81153  1  0  0  0
M  ISO  4   1 100  68 101  78 101  81 100
M  END
> <chiral flag>
0

> <version>
0

> <s_m_source_file>
/data/baiqing/PycharmProjects/Reinvent-master-3.2/result/LINK_invent/BTK/process_docking_weight1_custom_product_contain_oxygen_bond_distance_aromatic_linkinvent_7_9_3/rearranged_h_0184.sdf

> <i_m_source_file_index>
88

> <r_mmod_Potential_Energy-OPLS-2005>
44.2942924499512

> <r_mmod_Stretch_Energy-OPLS-2005>
114.470672607422

> <r_mmod_Bend_Energy-OPLS-2005>
178.992797851562

> <r_mmod_Torsional_Energy-OPLS-2005>
287.109161376953

> <r_mmod_Improper_Torsional_Energy-OPLS-2005>
5.95660495758057

> <r_mmod_Van_der_Waal_Energy-OPLS-2005>
133.004913330078

> <r_mmod_Electrostatic_Energy-OPLS-2005>
-521.319274902344

> <r_mmod_Solvation_Energy-OPLS-2005>
-249.537094116211

> <b_mmod_Minimization_Converged-OPLS-2005>
0

> <r_mmod_RMS_Derivative-OPLS-2005>
1.91668820381165

$$$$
88
                    3D
 Structure written by MMmdl.
171179  0  0  1  0            999 V2000
  -30.6312  -14.6587   20.5578 C   0  0  0  0  0  0
  -30.4198  -12.4306   19.4294 C   0  0  0  0  0  0
  -29.4963  -12.5473   18.2015 C   0  0  0  0  0  0
  -28.0174  -12.3768   18.6062 C   0  0  0  0  0  0
  -27.6465  -13.2172   19.8598 C   0  0  2  0  0  0
  -28.7026  -13.0182   20.9699 C   0  0  0  0  0  0
  -25.2414  -13.8057   20.5524 C   0  0  0  0  0  0
  -24.1717  -13.0379   20.9135 C   0  0  0  0  0  0
  -24.6352  -11.6843   20.8764 C   0  0  0  0  0  0
  -23.9023  -10.4246   21.0427 C   0  0  0  0  0  0
  -24.3558   -9.4258   21.9300 C   0  0  0  0  0  0
  -23.6220   -8.2293   22.0941 C   0  0  0  0  0  0
  -22.4223   -8.0298   21.3663 C   0  0  0  0  0  0
  -21.9862   -9.0210   20.4747 C   0  0  0  0  0  0
  -22.7141  -10.2115   20.3134 C   0  0  0  0  0  0
  -21.6762   -6.0838   22.5385 C   0  0  0  0  0  0
  -21.3939   -6.5726   23.8314 C   0  0  0  0  0  0
  -21.3669   -5.6904   24.9260 C   0  0  0  0  0  0
  -21.6045   -4.3169   24.7360 C   0  0  0  0  0  0
  -21.8775   -3.8261   23.4472 C   0  0  0  0  0  0
  -21.9134   -4.7070   22.3500 C   0  0  0  0  0  0
  -22.7780  -13.5191   21.1773 C   0  0  0  0  0  0
  -22.1645   -4.2248   21.1071 F   0  0  0  0  0  0
  -21.5550   -3.4633   25.7801 F   0  0  0  0  0  0
  -29.9828  -13.4489   20.4127 N   0  0  0  0  0  0
  -26.2919  -12.9324   20.3341 N   0  0  0  0  0  0
  -25.9326  -11.6475   20.5890 N   0  0  0  0  0  0
  -22.0344  -12.8093   22.0184 N   0  0  0  0  0  0
  -25.3978  -15.1740   20.3696 N   0  0  0  0  0  0
  -31.7901  -14.7664   20.1531 O   0  0  0  0  0  0
  -21.6550   -6.8911   21.4333 O   0  0  0  0  0  0
  -22.3412  -14.5510   20.6651 O   0  0  0  0  0  0
  -24.6249  -31.8618   23.2028 C   0  0  0  0  0  0
  -25.9086  -32.4777   23.8358 C   0  0  1  0  0  0
  -27.2225  -27.3285   20.1312 C   0  0  0  0  0  0
  -25.5913  -33.8577   24.2259 N   0  0  0  0  0  0
  -23.4152  -30.4858   21.5461 C   0  0  2  0  0  0
  -24.8633  -28.9360   20.1166 C   0  0  0  0  0  0
  -22.7448  -29.4641   22.4932 C   0  0  0  0  0  0
  -18.0305  -28.1382   22.8486 C   0  0  0  0  0  0
  -24.1504  -36.7294   23.2646 C   0  0  0  0  0  0
  -25.9514  -30.7958   21.3731 C   0  0  0  0  0  0
  -26.0310  -29.4235   20.7189 C   0  0  0  0  0  0
  -27.2192  -28.6372   20.7050 C   0  0  0  0  0  0
  -26.0305  -26.8830   19.5216 C   0  0  0  0  0  0
  -24.8637  -27.6715   19.5103 C   0  0  0  0  0  0
  -23.6299  -29.8173   20.1617 C   0  0  0  0  0  0
  -25.4128  -36.3077   24.0330 C   0  0  1  0  0  0
  -20.5876  -28.3689   23.1277 C   0  0  2  0  0  0
  -20.6771  -26.9415   22.5395 C   0  0  0  0  0  0
  -19.5740  -26.6383   21.5200 C   0  0  0  0  0  0
  -18.1932  -26.7926   22.1629 C   0  0  0  0  0  0
  -19.1541  -28.8855   23.2886 C   0  0  0  0  0  0
  -18.9471  -30.1459   23.8898 C   0  0  0  0  0  0
  -17.6467  -30.6582   24.0567 C   0  0  0  0  0  0
  -25.9072  -34.9450   23.5116 C   0  0  0  0  0  0
  -16.5369  -29.9070   23.6314 C   0  0  0  0  0  0
  -16.7294  -28.6484   23.0348 C   0  0  0  0  0  0
  -26.4492  -31.6571   25.0715 C   0  0  0  0  0  0
  -25.3734  -31.3687   26.1442 C   0  0  0  0  0  0
  -27.0328  -30.2993   24.6164 C   0  0  0  0  0  0
  -27.6046  -32.4313   25.7495 C   0  0  0  0  0  0
  -27.5572  -37.1801   24.8456 C   0  0  0  0  0  0
  -21.4152  -29.3070   22.3647 N   0  0  0  0  0  0
  -26.4298  -37.3761   23.9405 N   0  0  0  0  0  0
  -24.6814  -31.0650   22.0973 N   0  0  0  0  0  0
  -23.4199  -28.8208   23.3011 O   0  0  0  0  0  0
  -28.3482  -26.4978   20.1134 O   0  0  0  0  0  0
  -26.5636  -34.8920   22.4688 O   0  0  0  0  0  0
  -23.5417  -32.1415   23.7351 O   0  0  0  0  0  0
  -25.9979  -18.3494   22.3777 C   0  0  0  0  0  0
  -28.1280  -17.6057   21.7954 C   0  0  0  0  0  0
  -28.2428  -19.0159   21.5417 C   0  0  0  0  0  0
  -29.0438  -21.0246   20.4059 C   0  0  0  0  0  0
  -27.2810  -23.5156   19.1930 C   0  0  0  0  0  0
  -27.0320  -14.5208   23.8898 C   0  0  0  0  0  0
  -29.1010  -14.0030   25.1052 C   0  0  0  0  0  0
  -28.0488  -16.2521   25.3874 C   0  0  0  0  0  0
  -29.3543  -15.7512   23.2706 C   0  0  0  0  0  0
  -28.2882  -25.1890   20.8127 C   0  0  0  0  0  0
  -28.9003  -16.2104   21.8349 C   0  0  2  0  0  0
  -28.9638  -22.5277   20.9682 C   0  0  1  0  0  0
  -28.5293  -23.7944   20.0484 C   0  0  1  0  0  0
  -28.3725  -15.1518   24.3610 C   0  0  0  0  0  0
  -26.8209  -17.3267   22.2172 N   0  0  0  0  0  0
  -29.2385  -19.9265   21.2293 N   0  0  0  0  0  0
  -29.9681  -15.8428   20.8500 N   0  0  0  0  0  0
  -28.9526  -20.8344   19.1896 O   0  0  0  0  0  0
  -28.1404  -22.5277   22.0186 F   0  0  0  0  0  0
  -26.6913  -19.8289   21.8572 S   0  0  0  0  0  0
  -31.4558  -12.5694   19.1125 H   0  0  0  0  0  0
  -30.3733  -11.4260   19.8502 H   0  0  0  0  0  0
  -29.7669  -11.8054   17.4516 H   0  0  0  0  0  0
  -29.6372  -13.5191   17.7286 H   0  0  0  0  0  0
  -27.8534  -11.3186   18.8031 H   0  0  0  0  0  0
  -27.3623  -12.6281   17.7661 H   0  0  0  0  0  0
  -27.6740  -14.2573   19.5397 H   0  0  0  0  0  0
  -28.7536  -11.9746   21.2769 H   0  0  0  0  0  0
  -28.4848  -13.5394   21.8787 H   0  0  0  0  0  0
  -25.2680   -9.5863   22.4840 H   0  0  0  0  0  0
  -23.9811   -7.4730   22.7760 H   0  0  0  0  0  0
  -21.0794   -8.8579   19.9060 H   0  0  0  0  0  0
  -22.3506  -10.9592   19.6225 H   0  0  0  0  0  0
  -21.1912   -7.6226   23.9738 H   0  0  0  0  0  0
  -21.1477   -6.0708   25.9105 H   0  0  0  0  0  0
  -22.0486   -2.7700   23.2945 H   0  0  0  0  0  0
  -22.3821  -11.9586   22.4403 H   0  0  0  0  0  0
  -21.0784  -13.0895   22.1917 H   0  0  0  0  0  0
  -24.6804  -15.8332   20.6479 H   0  0  0  0  0  0
  -26.2733  -15.6137   20.1234 H   0  0  0  0  0  0
  -26.7140  -32.5443   23.1095 H   0  0  0  0  0  0
  -24.9980  -33.9719   25.0353 H   0  0  0  0  0  0
  -22.7091  -31.3055   21.4008 H   0  0  0  0  0  0
  -23.3748  -35.9638   23.3309 H   0  0  0  0  0  0
  -24.3579  -36.8920   22.2051 H   0  0  0  0  0  0
  -23.7275  -37.6516   23.6673 H   0  0  0  0  0  0
  -26.0919  -31.5609   20.6087 H   0  0  0  0  0  0
  -26.8303  -30.8382   22.0049 H   0  0  0  0  0  0
  -28.1216  -29.0222   21.1649 H   0  0  0  0  0  0
  -25.9813  -25.9148   19.0550 H   0  0  0  0  0  0
  -23.9713  -27.2912   19.0416 H   0  0  0  0  0  0
  -23.7488  -30.5945   19.4035 H   0  0  0  0  0  0
  -22.7469  -29.2494   19.8555 H   0  0  0  0  0  0
  -25.1304  -36.1931   25.0812 H   0  0  0  0  0  0
  -21.0009  -28.3281   24.1382 H   0  0  0  0  0  0
  -20.5641  -26.2325   23.3611 H   0  0  0  0  0  0
  -21.6649  -26.7418   22.1210 H   0  0  0  0  0  0
  -19.6917  -25.6291   21.1232 H   0  0  0  0  0  0
  -19.6672  -27.3184   20.6717 H   0  0  0  0  0  0
  -17.4195  -26.6668   21.4039 H   0  0  0  0  0  0
  -18.0374  -26.0055   22.9020 H   0  0  0  0  0  0
  -19.7958  -30.7272   24.2253 H   0  0  0  0  0  0
  -17.5037  -31.6257   24.5188 H   0  0  0  0  0  0
  -15.5368  -30.2996   23.7630 H   0  0  0  0  0  0
  -15.8695  -28.0812   22.7065 H   0  0  0  0  0  0
  -24.5929  -30.7028   25.7732 H   0  0  0  0  0  0
  -24.8931  -32.2854   26.4884 H   0  0  0  0  0  0
  -25.8084  -30.8834   27.0199 H   0  0  0  0  0  0
  -26.2890  -29.6742   24.1210 H   0  0  0  0  0  0
  -27.4031  -29.7242   25.4662 H   0  0  0  0  0  0
  -27.8765  -30.4248   23.9371 H   0  0  0  0  0  0
  -27.2645  -33.3615   26.2076 H   0  0  0  0  0  0
  -28.3873  -32.6881   25.0328 H   0  0  0  0  0  0
  -28.0721  -31.8450   26.5428 H   0  0  0  0  0  0
  -28.2591  -38.0095   24.7496 H   0  0  0  0  0  0
  -28.1074  -36.2624   24.6306 H   0  0  0  0  0  0
  -27.2283  -37.1467   25.8857 H   0  0  0  0  0  0
  -20.9335  -29.8795   21.6860 H   0  0  0  0  0  0
  -26.0175  -38.2847   24.1390 H   0  0  0  0  0  0
  -24.9923  -18.2255   22.7534 H   0  0  0  0  0  0
  -27.1575  -24.2886   18.4341 H   0  0  0  0  0  0
  -26.3769  -23.4926   19.8070 H   0  0  0  0  0  0
  -27.3314  -22.5800   18.6433 H   0  0  0  0  0  0
  -26.3675  -14.3581   24.7420 H   0  0  0  0  0  0
  -27.1441  -13.5374   23.4375 H   0  0  0  0  0  0
  -26.4591  -15.1266   23.2009 H   0  0  0  0  0  0
  -28.5029  -13.5921   25.9234 H   0  0  0  0  0  0
  -30.0541  -14.3157   25.5338 H   0  0  0  0  0  0
  -29.3145  -13.1633   24.4378 H   0  0  0  0  0  0
  -27.3823  -15.8923   26.1729 H   0  0  0  0  0  0
  -27.5666  -17.1069   24.9176 H   0  0  0  0  0  0
  -28.9484  -16.6180   25.8834 H   0  0  0  0  0  0
  -29.9185  -16.5647   23.7209 H   0  0  0  0  0  0
  -30.1048  -14.9793   23.1360 H   0  0  0  0  0  0
  -29.0435  -25.2641   21.5918 H   0  0  0  0  0  0
  -27.3434  -25.1404   21.3591 H   0  0  0  0  0  0
  -28.1292  -15.5029   21.5395 H   0  0  0  0  0  0
  -29.9483  -22.7546   21.3701 H   0  0  0  0  0  0
  -29.3577  -23.9520   19.3594 H   0  0  0  0  0  0
  -29.7986  -20.1555   22.0373 H   0  0  0  0  0  0
  -30.5505  -16.6428   20.6396 H   0  0  0  0  0  0
  1 25  1  0  0  0
  1 30  2  0  0  0
  1 87  1  0  0  0
  2  3  1  0  0  0
  2 25  1  0  0  0
  2 91  1  0  0  0
  2 92  1  0  0  0
  3  4  1  0  0  0
  3 93  1  0  0  0
  3 94  1  0  0  0
  4  5  1  0  0  0
  4 95  1  0  0  0
  4 96  1  0  0  0
  5  6  1  0  0  0
  5 26  1  0  0  0
  5 97  1  0  0  0
  6 25  1  0  0  0
  6 98  1  0  0  0
  6 99  1  0  0  0
  7  8  2  0  0  0
  7 26  1  0  0  0
  7 29  1  0  0  0
  8  9  1  0  0  0
  8 22  1  0  0  0
  9 10  1  0  0  0
  9 27  2  0  0  0
 10 11  2  0  0  0
 10 15  1  0  0  0
 11 12  1  0  0  0
 11100  1  0  0  0
 12 13  2  0  0  0
 12101  1  0  0  0
 13 14  1  0  0  0
 13 31  1  0  0  0
 14 15  2  0  0  0
 14102  1  0  0  0
 15103  1  0  0  0
 16 17  2  0  0  0
 16 21  1  0  0  0
 16 31  1  0  0  0
 17 18  1  0  0  0
 17104  1  0  0  0
 18 19  2  0  0  0
 18105  1  0  0  0
 19 20  1  0  0  0
 19 24  1  0  0  0
 20 21  2  0  0  0
 20106  1  0  0  0
 21 23  1  0  0  0
 22 28  1  0  0  0
 22 32  2  0  0  0
 26 27  1  0  0  0
 28107  1  0  0  0
 28108  1  0  0  0
 29109  1  0  0  0
 29110  1  0  0  0
 33 34  1  0  0  0
 33 66  1  0  0  0
 33 70  2  0  0  0
 34 36  1  0  0  0
 34 59  1  0  0  0
 34111  1  0  0  0
 35 44  2  0  0  0
 35 45  1  0  0  0
 35 68  1  0  0  0
 36 56  1  0  0  0
 36112  1  0  0  0
 37 39  1  0  0  0
 37 47  1  0  0  0
 37 66  1  0  0  0
 37113  1  0  0  0
 38 43  2  0  0  0
 38 46  1  0  0  0
 38 47  1  0  0  0
 39 64  1  0  0  0
 39 67  2  0  0  0
 40 52  1  0  0  0
 40 53  2  0  0  0
 40 58  1  0  0  0
 41114  1  0  0  0
 41115  1  0  0  0
 41116  1  0  0  0
 41 48  1  0  0  0
 42 43  1  0  0  0
 42 66  1  0  0  0
 42117  1  0  0  0
 42118  1  0  0  0
 43 44  1  0  0  0
 44119  1  0  0  0
 45 46  2  0  0  0
 45120  1  0  0  0
 46121  1  0  0  0
 47122  1  0  0  0
 47123  1  0  0  0
 48 56  1  0  0  0
 48 65  1  0  0  0
 48124  1  0  0  0
 49 50  1  0  0  0
 49 53  1  0  0  0
 49 64  1  0  0  0
 49125  1  0  0  0
 50 51  1  0  0  0
 50126  1  0  0  0
 50127  1  0  0  0
 51 52  1  0  0  0
 51128  1  0  0  0
 51129  1  0  0  0
 52130  1  0  0  0
 52131  1  0  0  0
 53 54  1  0  0  0
 54 55  2  0  0  0
 54132  1  0  0  0
 55 57  1  0  0  0
 55133  1  0  0  0
 56 69  2  0  0  0
 57 58  2  0  0  0
 57134  1  0  0  0
 58135  1  0  0  0
 59 60  1  0  0  0
 59 61  1  0  0  0
 59 62  1  0  0  0
 60136  1  0  0  0
 60137  1  0  0  0
 60138  1  0  0  0
 61139  1  0  0  0
 61140  1  0  0  0
 61141  1  0  0  0
 62142  1  0  0  0
 62143  1  0  0  0
 62144  1  0  0  0
 63 65  1  0  0  0
 63145  1  0  0  0
 63146  1  0  0  0
 63147  1  0  0  0
 64148  1  0  0  0
 65149  1  0  0  0
 68 80  1  0  0  0
 71 85  2  0  0  0
 71 90  1  0  0  0
 71150  1  0  0  0
 72 73  2  0  0  0
 72 81  1  0  0  0
 72 85  1  0  0  0
 73 86  1  0  0  0
 73 90  1  0  0  0
 74 82  1  0  0  0
 74 86  1  0  0  0
 74 88  2  0  0  0
 75151  1  0  0  0
 75152  1  0  0  0
 75153  1  0  0  0
 75 83  1  0  0  0
 76154  1  0  0  0
 76155  1  0  0  0
 76156  1  0  0  0
 76 84  1  0  0  0
 77 84  1  0  0  0
 77157  1  0  0  0
 77158  1  0  0  0
 77159  1  0  0  0
 78 84  1  0  0  0
 78160  1  0  0  0
 78161  1  0  0  0
 78162  1  0  0  0
 79 84  1  0  0  0
 79163  1  0  0  0
 79164  1  0  0  0
 79 81  1  0  0  0
 80 83  1  0  0  0
 80165  1  0  0  0
 80166  1  0  0  0
 81 87  1  0  0  0
 81167  1  0  0  0
 82 83  1  0  0  0
 82 89  1  0  0  0
 82168  1  0  0  0
 83169  1  0  0  0
 86170  1  0  0  0
 87171  1  0  0  0
M  ISO  4   1 100  68 101  80 101  87 100
M  END
> <chiral flag>
0

> <version>
0

> <s_m_source_file>
/data/baiqing/PycharmProjects/Reinvent-master-3.2/result/LINK_invent/BTK/process_docking_weight1_custom_product_contain_oxygen_bond_distance_aromatic_linkinvent_7_9_3/rearranged_h_0184.sdf

> <i_m_source_file_index>
89

> <r_mmod_Potential_Energy-OPLS-2005>
310.426910400391

> <r_mmod_Stretch_Energy-OPLS-2005>
124.248588562012

> <r_mmod_Bend_Energy-OPLS-2005>
290.764221191406

> <r_mmod_Torsional_Energy-OPLS-2005>
343.683868408203

> <r_mmod_Improper_Torsional_Energy-OPLS-2005>
13.5024003982544

> <r_mmod_Van_der_Waal_Energy-OPLS-2005>
130.930816650391

> <r_mmod_Electrostatic_Energy-OPLS-2005>
-420.917358398438

> <r_mmod_Solvation_Energy-OPLS-2005>
-217.764739990234

> <b_mmod_Minimization_Converged-OPLS-2005>
0

> <r_mmod_RMS_Derivative-OPLS-2005>
9.25715446472168

$$$$
89
                    3D
 Structure written by MMmdl.
158166  0  0  1  0            999 V2000
  -30.7093  -14.5182   20.5105 C   0  0  0  0  0  0
  -30.4120  -12.3147   19.4469 C   0  0  0  0  0  0
  -29.4965  -12.4898   18.2183 C   0  0  0  0  0  0
  -28.0179  -12.3525   18.6266 C   0  0  0  0  0  0
  -27.6542  -13.2168   19.8642 C   0  0  2  0  0  0
  -28.6967  -13.0573   20.9951 C   0  0  0  0  0  0
  -25.2557  -13.8192   20.5680 C   0  0  0  0  0  0
  -24.1823  -13.0451   20.9176 C   0  0  0  0  0  0
  -24.6394  -11.6922   20.8735 C   0  0  0  0  0  0
  -23.9070  -10.4299   21.0397 C   0  0  0  0  0  0
  -24.3625   -9.4216   21.9177 C   0  0  0  0  0  0
  -23.6298   -8.2252   22.0752 C   0  0  0  0  0  0
  -22.4280   -8.0285   21.3544 C   0  0  0  0  0  0
  -21.9912   -9.0258   20.4645 C   0  0  0  0  0  0
  -22.7240  -10.2138   20.3048 C   0  0  0  0  0  0
  -21.6857   -6.0735   22.5276 C   0  0  0  0  0  0
  -21.4020   -6.5639   23.8210 C   0  0  0  0  0  0
  -21.3659   -5.6791   24.9170 C   0  0  0  0  0  0
  -21.6046   -4.3053   24.7222 C   0  0  0  0  0  0
  -21.8821   -3.8145   23.4343 C   0  0  0  0  0  0
  -21.9197   -4.6963   22.3400 C   0  0  0  0  0  0
  -22.7845  -13.5239   21.1837 C   0  0  0  0  0  0
  -22.1661   -4.2150   21.0976 F   0  0  0  0  0  0
  -21.5629   -3.4536   25.7734 F   0  0  0  0  0  0
  -30.0252  -13.3403   20.4322 N   0  0  0  0  0  0
  -26.2989  -12.9374   20.3326 N   0  0  0  0  0  0
  -25.9323  -11.6528   20.5760 N   0  0  0  0  0  0
  -22.0494  -12.8234   22.0398 N   0  0  0  0  0  0
  -25.4280  -15.1914   20.4102 N   0  0  0  0  0  0
  -31.8756  -14.5913   20.1160 O   0  0  0  0  0  0
  -21.6646   -6.8880   21.4238 O   0  0  0  0  0  0
  -22.3522  -14.5535   20.6673 O   0  0  0  0  0  0
  -24.6166  -31.8668   23.2083 C   0  0  0  0  0  0
  -25.9051  -32.4816   23.8383 C   0  0  1  0  0  0
  -27.2236  -27.4130   20.1082 C   0  0  0  0  0  0
  -25.5897  -33.8615   24.2314 N   0  0  0  0  0  0
  -23.4057  -30.4906   21.5488 C   0  0  2  0  0  0
  -24.8522  -28.9562   20.1108 C   0  0  0  0  0  0
  -22.7423  -29.4658   22.4973 C   0  0  0  0  0  0
  -18.0277  -28.1384   22.8492 C   0  0  0  0  0  0
  -24.1489  -36.7313   23.2639 C   0  0  0  0  0  0
  -25.9366  -30.8282   21.3631 C   0  0  0  0  0  0
  -26.0147  -29.4622   20.7079 C   0  0  0  0  0  0
  -27.2085  -28.6998   20.6993 C   0  0  0  0  0  0
  -26.0493  -26.9317   19.4930 C   0  0  0  0  0  0
  -24.8655  -27.6921   19.4971 C   0  0  0  0  0  0
  -23.6146  -29.8244   20.1632 C   0  0  0  0  0  0
  -25.4109  -36.3106   24.0336 C   0  0  1  0  0  0
  -20.5871  -28.3673   23.1312 C   0  0  2  0  0  0
  -20.6768  -26.9406   22.5420 C   0  0  0  0  0  0
  -19.5746  -26.6388   21.5218 C   0  0  0  0  0  0
  -18.1925  -26.7929   22.1627 C   0  0  0  0  0  0
  -19.1527  -28.8845   23.2902 C   0  0  0  0  0  0
  -18.9455  -30.1451   23.8911 C   0  0  0  0  0  0
  -17.6457  -30.6588   24.0568 C   0  0  0  0  0  0
  -25.9036  -34.9471   23.5124 C   0  0  0  0  0  0
  -16.5348  -29.9091   23.6326 C   0  0  0  0  0  0
  -16.7267  -28.6510   23.0346 C   0  0  0  0  0  0
  -26.4473  -31.6596   25.0715 C   0  0  0  0  0  0
  -25.3736  -31.3706   26.1465 C   0  0  0  0  0  0
  -27.0302  -30.3034   24.6099 C   0  0  0  0  0  0
  -27.6043  -32.4321   25.7482 C   0  0  0  0  0  0
  -27.5584  -37.1813   24.8464 C   0  0  0  0  0  0
  -21.4148  -29.3036   22.3712 N   0  0  0  0  0  0
  -26.4297  -37.3791   23.9406 N   0  0  0  0  0  0
  -24.6713  -31.0763   22.0985 N   0  0  0  0  0  0
  -23.4187  -28.8201   23.3026 O   0  0  0  0  0  0
  -28.3494  -26.6126   20.1405 O   0  0  0  0  0  0
  -26.5607  -34.8927   22.4691 O   0  0  0  0  0  0
  -23.5356  -32.1428   23.7471 O   0  0  0  0  0  0
  -31.5022  -17.5015   20.2420 C   0  0  0  0  0  0
  -31.6453  -18.8584   19.9404 C   0  0  0  0  0  0
  -30.2387  -17.0143   20.6337 C   0  0  0  0  0  0
  -29.4600  -19.2148   20.4590 C   0  0  0  0  0  0
  -28.0598  -22.7367   20.5814 C   0  0  0  0  0  0
  -27.1891  -19.8305   19.5346 C   0  0  0  0  0  0
  -28.9824  -25.4982   22.1652 C   0  0  0  0  0  0
  -28.5896  -24.0951   20.0401 C   0  0  0  0  0  0
  -28.2890  -20.2144   20.5423 C   0  0  2  0  0  0
  -28.1814  -25.3637   20.8622 C   0  0  1  0  0  0
  -30.6156  -19.7109   20.0291 N   0  0  0  0  0  0
  -29.2374  -17.9248   20.7645 N   0  0  0  0  0  0
  -29.9933  -15.6125   20.8837 N   0  0  0  0  0  0
  -28.7235  -21.6039   20.2778 N   0  0  0  0  0  0
  -27.0165  -22.7012   21.2359 O   0  0  0  0  0  0
  -31.4595  -12.3833   19.1488 H   0  0  0  0  0  0
  -30.2924  -11.3180   19.8755 H   0  0  0  0  0  0
  -29.7432  -11.7489   17.4570 H   0  0  0  0  0  0
  -29.6669  -13.4660   17.7616 H   0  0  0  0  0  0
  -27.8342  -11.2993   18.8435 H   0  0  0  0  0  0
  -27.3699  -12.6051   17.7864 H   0  0  0  0  0  0
  -27.6801  -14.2549   19.5333 H   0  0  0  0  0  0
  -28.6744  -12.0420   21.3940 H   0  0  0  0  0  0
  -28.4612  -13.7122   21.8353 H   0  0  0  0  0  0
  -25.2773   -9.5695   22.4748 H   0  0  0  0  0  0
  -24.0010   -7.4648   22.7469 H   0  0  0  0  0  0
  -21.0845   -8.8773   19.8954 H   0  0  0  0  0  0
  -22.3693  -10.9676   19.6156 H   0  0  0  0  0  0
  -21.2011   -7.6147   23.9713 H   0  0  0  0  0  0
  -21.1480   -6.0519   25.9073 H   0  0  0  0  0  0
  -22.0601   -2.7608   23.2841 H   0  0  0  0  0  0
  -22.4113  -11.9902   22.4797 H   0  0  0  0  0  0
  -21.1108  -13.1253   22.2591 H   0  0  0  0  0  0
  -24.6635  -15.8478   20.5238 H   0  0  0  0  0  0
  -26.2833  -15.6349   20.1001 H   0  0  0  0  0  0
  -26.7124  -32.5522   23.1146 H   0  0  0  0  0  0
  -25.0027  -33.9766   25.0447 H   0  0  0  0  0  0
  -22.6956  -31.3086   21.4097 H   0  0  0  0  0  0
  -23.3743  -35.9654   23.3310 H   0  0  0  0  0  0
  -24.3582  -36.8924   22.2054 H   0  0  0  0  0  0
  -23.7250  -37.6524   23.6647 H   0  0  0  0  0  0
  -26.0525  -31.5953   20.5958 H   0  0  0  0  0  0
  -26.8227  -30.8800   21.9835 H   0  0  0  0  0  0
  -28.1037  -29.0800   21.1712 H   0  0  0  0  0  0
  -26.0448  -25.9570   19.0252 H   0  0  0  0  0  0
  -23.9716  -27.2980   19.0329 H   0  0  0  0  0  0
  -23.7229  -30.5995   19.4039 H   0  0  0  0  0  0
  -22.7377  -29.2456   19.8677 H   0  0  0  0  0  0
  -25.1291  -36.1969   25.0831 H   0  0  0  0  0  0
  -20.9968  -28.3243   24.1431 H   0  0  0  0  0  0
  -20.5679  -26.2282   23.3610 H   0  0  0  0  0  0
  -21.6639  -26.7452   22.1210 H   0  0  0  0  0  0
  -19.6908  -25.6303   21.1240 H   0  0  0  0  0  0
  -19.6687  -27.3205   20.6754 H   0  0  0  0  0  0
  -17.4201  -26.6686   21.4024 H   0  0  0  0  0  0
  -18.0318  -26.0070   22.9020 H   0  0  0  0  0  0
  -19.7934  -30.7265   24.2283 H   0  0  0  0  0  0
  -17.5014  -31.6265   24.5172 H   0  0  0  0  0  0
  -15.5351  -30.3000   23.7639 H   0  0  0  0  0  0
  -15.8667  -28.0834   22.7048 H   0  0  0  0  0  0
  -24.5894  -30.7076   25.7792 H   0  0  0  0  0  0
  -24.8946  -32.2869   26.4931 H   0  0  0  0  0  0
  -25.8091  -30.8851   27.0207 H   0  0  0  0  0  0
  -26.2848  -29.6799   24.1149 H   0  0  0  0  0  0
  -27.4064  -29.7269   25.4559 H   0  0  0  0  0  0
  -27.8684  -30.4347   23.9250 H   0  0  0  0  0  0
  -27.2649  -33.3599   26.2099 H   0  0  0  0  0  0
  -28.3832  -32.6926   25.0301 H   0  0  0  0  0  0
  -28.0735  -31.8426   26.5369 H   0  0  0  0  0  0
  -28.2611  -38.0103   24.7503 H   0  0  0  0  0  0
  -28.1076  -36.2639   24.6298 H   0  0  0  0  0  0
  -27.2303  -37.1469   25.8869 H   0  0  0  0  0  0
  -20.9309  -29.8757   21.6929 H   0  0  0  0  0  0
  -26.0187  -38.2871   24.1399 H   0  0  0  0  0  0
  -32.3743  -16.8747   20.1399 H   0  0  0  0  0  0
  -32.5915  -19.2621   19.6124 H   0  0  0  0  0  0
  -26.8198  -18.8237   19.7312 H   0  0  0  0  0  0
  -27.5666  -19.8488   18.5125 H   0  0  0  0  0  0
  -26.3349  -20.5043   19.5938 H   0  0  0  0  0  0
  -28.6460  -26.3602   22.7421 H   0  0  0  0  0  0
  -30.0460  -25.6270   21.9645 H   0  0  0  0  0  0
  -28.8657  -24.6167   22.7962 H   0  0  0  0  0  0
  -28.1930  -24.1966   19.0300 H   0  0  0  0  0  0
  -29.6741  -24.0514   19.9341 H   0  0  0  0  0  0
  -27.8872  -20.1601   21.5553 H   0  0  0  0  0  0
  -27.1373  -25.2457   21.1588 H   0  0  0  0  0  0
  -29.0654  -15.4024   21.2101 H   0  0  0  0  0  0
  -29.6237  -21.6456   19.8132 H   0  0  0  0  0  0
  1 25  1  0  0  0
  1 30  2  0  0  0
  1 83  1  0  0  0
  2  3  1  0  0  0
  2 25  1  0  0  0
  2 86  1  0  0  0
  2 87  1  0  0  0
  3  4  1  0  0  0
  3 88  1  0  0  0
  3 89  1  0  0  0
  4  5  1  0  0  0
  4 90  1  0  0  0
  4 91  1  0  0  0
  5  6  1  0  0  0
  5 26  1  0  0  0
  5 92  1  0  0  0
  6 25  1  0  0  0
  6 93  1  0  0  0
  6 94  1  0  0  0
  7  8  2  0  0  0
  7 26  1  0  0  0
  7 29  1  0  0  0
  8  9  1  0  0  0
  8 22  1  0  0  0
  9 10  1  0  0  0
  9 27  2  0  0  0
 10 11  2  0  0  0
 10 15  1  0  0  0
 11 12  1  0  0  0
 11 95  1  0  0  0
 12 13  2  0  0  0
 12 96  1  0  0  0
 13 14  1  0  0  0
 13 31  1  0  0  0
 14 15  2  0  0  0
 14 97  1  0  0  0
 15 98  1  0  0  0
 16 17  2  0  0  0
 16 21  1  0  0  0
 16 31  1  0  0  0
 17 18  1  0  0  0
 17 99  1  0  0  0
 18 19  2  0  0  0
 18100  1  0  0  0
 19 20  1  0  0  0
 19 24  1  0  0  0
 20 21  2  0  0  0
 20101  1  0  0  0
 21 23  1  0  0  0
 22 28  1  0  0  0
 22 32  2  0  0  0
 26 27  1  0  0  0
 28102  1  0  0  0
 28103  1  0  0  0
 29104  1  0  0  0
 29105  1  0  0  0
 33 34  1  0  0  0
 33 66  1  0  0  0
 33 70  2  0  0  0
 34 36  1  0  0  0
 34 59  1  0  0  0
 34106  1  0  0  0
 35 44  2  0  0  0
 35 45  1  0  0  0
 35 68  1  0  0  0
 36 56  1  0  0  0
 36107  1  0  0  0
 37 39  1  0  0  0
 37 47  1  0  0  0
 37 66  1  0  0  0
 37108  1  0  0  0
 38 43  2  0  0  0
 38 46  1  0  0  0
 38 47  1  0  0  0
 39 64  1  0  0  0
 39 67  2  0  0  0
 40 52  1  0  0  0
 40 53  2  0  0  0
 40 58  1  0  0  0
 41109  1  0  0  0
 41110  1  0  0  0
 41111  1  0  0  0
 41 48  1  0  0  0
 42 43  1  0  0  0
 42 66  1  0  0  0
 42112  1  0  0  0
 42113  1  0  0  0
 43 44  1  0  0  0
 44114  1  0  0  0
 45 46  2  0  0  0
 45115  1  0  0  0
 46116  1  0  0  0
 47117  1  0  0  0
 47118  1  0  0  0
 48 56  1  0  0  0
 48 65  1  0  0  0
 48119  1  0  0  0
 49 50  1  0  0  0
 49 53  1  0  0  0
 49 64  1  0  0  0
 49120  1  0  0  0
 50 51  1  0  0  0
 50121  1  0  0  0
 50122  1  0  0  0
 51 52  1  0  0  0
 51123  1  0  0  0
 51124  1  0  0  0
 52125  1  0  0  0
 52126  1  0  0  0
 53 54  1  0  0  0
 54 55  2  0  0  0
 54127  1  0  0  0
 55 57  1  0  0  0
 55128  1  0  0  0
 56 69  2  0  0  0
 57 58  2  0  0  0
 57129  1  0  0  0
 58130  1  0  0  0
 59 60  1  0  0  0
 59 61  1  0  0  0
 59 62  1  0  0  0
 60131  1  0  0  0
 60132  1  0  0  0
 60133  1  0  0  0
 61134  1  0  0  0
 61135  1  0  0  0
 61136  1  0  0  0
 62137  1  0  0  0
 62138  1  0  0  0
 62139  1  0  0  0
 63 65  1  0  0  0
 63140  1  0  0  0
 63141  1  0  0  0
 63142  1  0  0  0
 64143  1  0  0  0
 65144  1  0  0  0
 68 80  1  0  0  0
 71 72  2  0  0  0
 71 73  1  0  0  0
 71145  1  0  0  0
 72 81  1  0  0  0
 72146  1  0  0  0
 73 82  2  0  0  0
 73 83  1  0  0  0
 74 79  1  0  0  0
 74 81  2  0  0  0
 74 82  1  0  0  0
 75 78  1  0  0  0
 75 84  1  0  0  0
 75 85  2  0  0  0
 76147  1  0  0  0
 76148  1  0  0  0
 76149  1  0  0  0
 76 79  1  0  0  0
 77150  1  0  0  0
 77151  1  0  0  0
 77152  1  0  0  0
 77 80  1  0  0  0
 78 80  1  0  0  0
 78153  1  0  0  0
 78154  1  0  0  0
 79 84  1  0  0  0
 79155  1  0  0  0
 80156  1  0  0  0
 83157  1  0  0  0
 84158  1  0  0  0
M  ISO  4   1 100  68 101  80 101  83 100
M  END
> <chiral flag>
0

> <version>
0

> <s_m_source_file>
/data/baiqing/PycharmProjects/Reinvent-master-3.2/result/LINK_invent/BTK/process_docking_weight1_custom_product_contain_oxygen_bond_distance_aromatic_linkinvent_7_9_3/rearranged_h_0184.sdf

> <i_m_source_file_index>
90

> <r_mmod_Potential_Energy-OPLS-2005>
-618.932312011719

> <r_mmod_Stretch_Energy-OPLS-2005>
44.9625625610352

> <r_mmod_Bend_Energy-OPLS-2005>
108.932929992676

> <r_mmod_Torsional_Energy-OPLS-2005>
212.236694335938

> <r_mmod_Improper_Torsional_Energy-OPLS-2005>
4.34551811218262

> <r_mmod_Van_der_Waal_Energy-OPLS-2005>
169.752227783203

> <r_mmod_Electrostatic_Energy-OPLS-2005>
-953.076904296875

> <r_mmod_Solvation_Energy-OPLS-2005>
-228.792739868164

> <b_mmod_Minimization_Converged-OPLS-2005>
0

> <r_mmod_RMS_Derivative-OPLS-2005>
0.820120394229889

$$$$
90
                    3D
 Structure written by MMmdl.
159167  0  0  1  0            999 V2000
  -30.7224  -14.3576   20.7036 C   0  0  0  0  0  0
  -30.4375  -12.2899   19.3708 C   0  0  0  0  0  0
  -29.4905  -12.5354   18.1773 C   0  0  0  0  0  0
  -28.0099  -12.3988   18.5911 C   0  0  0  0  0  0
  -27.6740  -13.1902   19.8828 C   0  0  2  0  0  0
  -28.7103  -12.8613   20.9777 C   0  0  0  0  0  0
  -25.2671  -13.8125   20.5667 C   0  0  0  0  0  0
  -24.1884  -13.0419   20.9145 C   0  0  0  0  0  0
  -24.6402  -11.6879   20.8703 C   0  0  0  0  0  0
  -23.9043  -10.4282   21.0367 C   0  0  0  0  0  0
  -24.3610   -9.4215   21.9156 C   0  0  0  0  0  0
  -23.6306   -8.2234   22.0729 C   0  0  0  0  0  0
  -22.4281   -8.0273   21.3532 C   0  0  0  0  0  0
  -21.9900   -9.0229   20.4623 C   0  0  0  0  0  0
  -22.7208  -10.2118   20.3026 C   0  0  0  0  0  0
  -21.6844   -6.0731   22.5294 C   0  0  0  0  0  0
  -21.4009   -6.5627   23.8231 C   0  0  0  0  0  0
  -21.3659   -5.6781   24.9184 C   0  0  0  0  0  0
  -21.6048   -4.3044   24.7223 C   0  0  0  0  0  0
  -21.8822   -3.8138   23.4347 C   0  0  0  0  0  0
  -21.9195   -4.6964   22.3411 C   0  0  0  0  0  0
  -22.7911  -13.5249   21.1803 C   0  0  0  0  0  0
  -22.1666   -4.2162   21.0981 F   0  0  0  0  0  0
  -21.5637   -3.4514   25.7725 F   0  0  0  0  0  0
  -30.0561  -13.1973   20.4611 N   0  0  0  0  0  0
  -26.3093  -12.9261   20.3383 N   0  0  0  0  0  0
  -25.9334  -11.6431   20.5738 N   0  0  0  0  0  0
  -22.0522  -12.8263   22.0371 N   0  0  0  0  0  0
  -25.4467  -15.1831   20.4091 N   0  0  0  0  0  0
  -31.7542  -14.6972   20.1090 O   0  0  0  0  0  0
  -21.6639   -6.8877   21.4253 O   0  0  0  0  0  0
  -22.3575  -14.5542   20.6651 O   0  0  0  0  0  0
  -24.6144  -31.8697   23.2144 C   0  0  0  0  0  0
  -25.9047  -32.4832   23.8442 C   0  0  1  0  0  0
  -27.2467  -27.4763   20.0807 C   0  0  0  0  0  0
  -25.5926  -33.8626   24.2392 N   0  0  0  0  0  0
  -23.4020  -30.4933   21.5552 C   0  0  2  0  0  0
  -24.8493  -28.9595   20.1213 C   0  0  0  0  0  0
  -22.7406  -29.4663   22.5017 C   0  0  0  0  0  0
  -18.0282  -28.1401   22.8493 C   0  0  0  0  0  0
  -24.1395  -36.7341   23.2644 C   0  0  0  0  0  0
  -25.9281  -30.8463   21.3643 C   0  0  0  0  0  0
  -26.0078  -29.4842   20.7090 C   0  0  0  0  0  0
  -27.2141  -28.7537   20.6795 C   0  0  0  0  0  0
  -26.0735  -26.9505   19.4999 C   0  0  0  0  0  0
  -24.8742  -27.6896   19.5161 C   0  0  0  0  0  0
  -23.6100  -29.8257   20.1694 C   0  0  0  0  0  0
  -25.4022  -36.3131   24.0345 C   0  0  1  0  0  0
  -20.5870  -28.3674   23.1346 C   0  0  2  0  0  0
  -20.6744  -26.9399   22.5444 C   0  0  0  0  0  0
  -19.5724  -26.6384   21.5235 C   0  0  0  0  0  0
  -18.1916  -26.7949   22.1639 C   0  0  0  0  0  0
  -19.1523  -28.8848   23.2930 C   0  0  0  0  0  0
  -18.9458  -30.1465   23.8945 C   0  0  0  0  0  0
  -17.6447  -30.6593   24.0583 C   0  0  0  0  0  0
  -25.8964  -34.9477   23.5148 C   0  0  0  0  0  0
  -16.5346  -29.9107   23.6321 C   0  0  0  0  0  0
  -16.7278  -28.6536   23.0337 C   0  0  0  0  0  0
  -26.4439  -31.6577   25.0750 C   0  0  0  0  0  0
  -25.3669  -31.3622   26.1461 C   0  0  0  0  0  0
  -27.0328  -30.3074   24.6080 C   0  0  0  0  0  0
  -27.5986  -32.4271   25.7573 C   0  0  0  0  0  0
  -27.5514  -37.1832   24.8448 C   0  0  0  0  0  0
  -21.4129  -29.3037   22.3750 N   0  0  0  0  0  0
  -26.4202  -37.3817   23.9416 N   0  0  0  0  0  0
  -24.6665  -31.0840   22.1031 N   0  0  0  0  0  0
  -23.4174  -28.8179   23.3027 O   0  0  0  0  0  0
  -28.4187  -26.7668   20.0208 O   0  0  0  0  0  0
  -26.5479  -34.8926   22.4672 O   0  0  0  0  0  0
  -23.5349  -32.1434   23.7564 O   0  0  0  0  0  0
  -29.1560  -18.4679   22.1314 C   0  0  0  0  0  0
  -30.4713  -18.8729   22.2057 C   0  0  0  0  0  0
  -30.1648  -16.4673   21.8211 C   0  0  0  0  0  0
  -30.4038  -23.5654   22.5081 C   0  0  0  0  0  0
  -31.2372  -22.7832   24.6627 C   0  0  0  0  0  0
  -30.9913  -20.2629   22.4416 C   0  0  0  0  0  0
  -29.6478  -23.3393   21.1828 C   0  0  0  0  0  0
  -29.4645  -24.6041   20.3098 C   0  0  0  0  0  0
  -30.0152  -21.1818   23.2121 C   0  0  0  0  0  0
  -28.4689  -25.6339   20.8818 C   0  0  0  0  0  0
  -28.9949  -17.0937   21.9489 N   0  0  0  0  0  0
  -30.1594  -15.0728   21.6824 N   0  0  0  0  0  0
  -30.5423  -22.5463   23.3925 N   0  0  0  0  0  0
  -30.8811  -24.6822   22.7386 O   0  0  0  0  0  0
  -31.5665  -17.5181   21.9851 S   0  0  0  0  0  0
  -31.4766  -12.4248   19.0651 H   0  0  0  0  0  0
  -30.3614  -11.2537   19.7047 H   0  0  0  0  0  0
  -29.7197  -11.8428   17.3666 H   0  0  0  0  0  0
  -29.6656  -13.5329   17.7716 H   0  0  0  0  0  0
  -27.7998  -11.3400   18.7407 H   0  0  0  0  0  0
  -27.3637  -12.7265   17.7758 H   0  0  0  0  0  0
  -27.7503  -14.2545   19.6518 H   0  0  0  0  0  0
  -28.6808  -11.7928   21.1989 H   0  0  0  0  0  0
  -28.4491  -13.3403   21.9208 H   0  0  0  0  0  0
  -25.2766   -9.5696   22.4709 H   0  0  0  0  0  0
  -24.0027   -7.4624   22.7454 H   0  0  0  0  0  0
  -21.0822   -8.8719   19.8942 H   0  0  0  0  0  0
  -22.3652  -10.9638   19.6122 H   0  0  0  0  0  0
  -21.1996   -7.6136   23.9737 H   0  0  0  0  0  0
  -21.1485   -6.0496   25.9092 H   0  0  0  0  0  0
  -22.0610   -2.7602   23.2828 H   0  0  0  0  0  0
  -22.4121  -11.9963   22.4840 H   0  0  0  0  0  0
  -21.1122  -13.1298   22.2507 H   0  0  0  0  0  0
  -24.6973  -15.8529   20.5420 H   0  0  0  0  0  0
  -26.3254  -15.6163   20.1488 H   0  0  0  0  0  0
  -26.7145  -32.5562   23.1251 H   0  0  0  0  0  0
  -25.0238  -33.9805   25.0649 H   0  0  0  0  0  0
  -22.6909  -31.3116   21.4169 H   0  0  0  0  0  0
  -23.3632  -35.9697   23.3338 H   0  0  0  0  0  0
  -24.3491  -36.8929   22.2059 H   0  0  0  0  0  0
  -23.7126  -37.6563   23.6626 H   0  0  0  0  0  0
  -26.0437  -31.6177   20.6023 H   0  0  0  0  0  0
  -26.8156  -30.9010   21.9814 H   0  0  0  0  0  0
  -28.1168  -29.1651   21.1080 H   0  0  0  0  0  0
  -26.0926  -25.9816   19.0216 H   0  0  0  0  0  0
  -23.9833  -27.2843   19.0555 H   0  0  0  0  0  0
  -23.7174  -30.6007   19.4090 H   0  0  0  0  0  0
  -22.7336  -29.2464   19.8752 H   0  0  0  0  0  0
  -25.1178  -36.2024   25.0837 H   0  0  0  0  0  0
  -21.0005  -28.3198   24.1447 H   0  0  0  0  0  0
  -20.5646  -26.2250   23.3616 H   0  0  0  0  0  0
  -21.6614  -26.7409   22.1234 H   0  0  0  0  0  0
  -19.6865  -25.6299   21.1258 H   0  0  0  0  0  0
  -19.6682  -27.3198   20.6775 H   0  0  0  0  0  0
  -17.4180  -26.6737   21.4051 H   0  0  0  0  0  0
  -18.0309  -26.0105   22.9047 H   0  0  0  0  0  0
  -19.7919  -30.7292   24.2314 H   0  0  0  0  0  0
  -17.4992  -31.6285   24.5168 H   0  0  0  0  0  0
  -15.5345  -30.3021   23.7625 H   0  0  0  0  0  0
  -15.8678  -28.0887   22.6992 H   0  0  0  0  0  0
  -24.5848  -30.7015   25.7702 H   0  0  0  0  0  0
  -24.8880  -32.2777   26.4983 H   0  0  0  0  0  0
  -25.7940  -30.8703   27.0199 H   0  0  0  0  0  0
  -26.2958  -29.6835   24.1025 H   0  0  0  0  0  0
  -27.4075  -29.7292   25.4535 H   0  0  0  0  0  0
  -27.8754  -30.4480   23.9303 H   0  0  0  0  0  0
  -27.2634  -33.3611   26.2121 H   0  0  0  0  0  0
  -28.3862  -32.6729   25.0431 H   0  0  0  0  0  0
  -28.0519  -31.8412   26.5576 H   0  0  0  0  0  0
  -28.2563  -38.0111   24.7448 H   0  0  0  0  0  0
  -28.0961  -36.2632   24.6275 H   0  0  0  0  0  0
  -27.2256  -37.1523   25.8866 H   0  0  0  0  0  0
  -20.9257  -29.8763   21.7006 H   0  0  0  0  0  0
  -26.0088  -38.2871   24.1499 H   0  0  0  0  0  0
  -28.2696  -19.0784   22.2239 H   0  0  0  0  0  0
  -32.2246  -23.2128   24.4833 H   0  0  0  0  0  0
  -31.3858  -21.8731   25.2405 H   0  0  0  0  0  0
  -30.6781  -23.4841   25.2841 H   0  0  0  0  0  0
  -31.2589  -20.7067   21.4828 H   0  0  0  0  0  0
  -31.9256  -20.1983   23.0044 H   0  0  0  0  0  0
  -28.6678  -22.9092   21.3806 H   0  0  0  0  0  0
  -30.1996  -22.5996   20.6026 H   0  0  0  0  0  0
  -29.1139  -24.2865   19.3273 H   0  0  0  0  0  0
  -30.4346  -25.0720   20.1323 H   0  0  0  0  0  0
  -29.7845  -20.7425   24.1837 H   0  0  0  0  0  0
  -29.0542  -21.2201   22.7019 H   0  0  0  0  0  0
  -28.7858  -25.9793   21.8659 H   0  0  0  0  0  0
  -27.4917  -25.1670   21.0053 H   0  0  0  0  0  0
  -29.3568  -14.6146   22.0839 H   0  0  0  0  0  0
  1 25  1  0  0  0
  1 30  2  0  0  0
  1 82  1  0  0  0
  2  3  1  0  0  0
  2 25  1  0  0  0
  2 86  1  0  0  0
  2 87  1  0  0  0
  3  4  1  0  0  0
  3 88  1  0  0  0
  3 89  1  0  0  0
  4  5  1  0  0  0
  4 90  1  0  0  0
  4 91  1  0  0  0
  5  6  1  0  0  0
  5 26  1  0  0  0
  5 92  1  0  0  0
  6 25  1  0  0  0
  6 93  1  0  0  0
  6 94  1  0  0  0
  7  8  2  0  0  0
  7 26  1  0  0  0
  7 29  1  0  0  0
  8  9  1  0  0  0
  8 22  1  0  0  0
  9 10  1  0  0  0
  9 27  2  0  0  0
 10 11  2  0  0  0
 10 15  1  0  0  0
 11 12  1  0  0  0
 11 95  1  0  0  0
 12 13  2  0  0  0
 12 96  1  0  0  0
 13 14  1  0  0  0
 13 31  1  0  0  0
 14 15  2  0  0  0
 14 97  1  0  0  0
 15 98  1  0  0  0
 16 17  2  0  0  0
 16 21  1  0  0  0
 16 31  1  0  0  0
 17 18  1  0  0  0
 17 99  1  0  0  0
 18 19  2  0  0  0
 18100  1  0  0  0
 19 20  1  0  0  0
 19 24  1  0  0  0
 20 21  2  0  0  0
 20101  1  0  0  0
 21 23  1  0  0  0
 22 28  1  0  0  0
 22 32  2  0  0  0
 26 27  1  0  0  0
 28102  1  0  0  0
 28103  1  0  0  0
 29104  1  0  0  0
 29105  1  0  0  0
 33 34  1  0  0  0
 33 66  1  0  0  0
 33 70  2  0  0  0
 34 36  1  0  0  0
 34 59  1  0  0  0
 34106  1  0  0  0
 35 44  2  0  0  0
 35 45  1  0  0  0
 35 68  1  0  0  0
 36 56  1  0  0  0
 36107  1  0  0  0
 37 39  1  0  0  0
 37 47  1  0  0  0
 37 66  1  0  0  0
 37108  1  0  0  0
 38 43  2  0  0  0
 38 46  1  0  0  0
 38 47  1  0  0  0
 39 64  1  0  0  0
 39 67  2  0  0  0
 40 52  1  0  0  0
 40 53  2  0  0  0
 40 58  1  0  0  0
 41109  1  0  0  0
 41110  1  0  0  0
 41111  1  0  0  0
 41 48  1  0  0  0
 42 43  1  0  0  0
 42 66  1  0  0  0
 42112  1  0  0  0
 42113  1  0  0  0
 43 44  1  0  0  0
 44114  1  0  0  0
 45 46  2  0  0  0
 45115  1  0  0  0
 46116  1  0  0  0
 47117  1  0  0  0
 47118  1  0  0  0
 48 56  1  0  0  0
 48 65  1  0  0  0
 48119  1  0  0  0
 49 50  1  0  0  0
 49 53  1  0  0  0
 49 64  1  0  0  0
 49120  1  0  0  0
 50 51  1  0  0  0
 50121  1  0  0  0
 50122  1  0  0  0
 51 52  1  0  0  0
 51123  1  0  0  0
 51124  1  0  0  0
 52125  1  0  0  0
 52126  1  0  0  0
 53 54  1  0  0  0
 54 55  2  0  0  0
 54127  1  0  0  0
 55 57  1  0  0  0
 55128  1  0  0  0
 56 69  2  0  0  0
 57 58  2  0  0  0
 57129  1  0  0  0
 58130  1  0  0  0
 59 60  1  0  0  0
 59 61  1  0  0  0
 59 62  1  0  0  0
 60131  1  0  0  0
 60132  1  0  0  0
 60133  1  0  0  0
 61134  1  0  0  0
 61135  1  0  0  0
 61136  1  0  0  0
 62137  1  0  0  0
 62138  1  0  0  0
 62139  1  0  0  0
 63 65  1  0  0  0
 63140  1  0  0  0
 63141  1  0  0  0
 63142  1  0  0  0
 64143  1  0  0  0
 65144  1  0  0  0
 68 80  1  0  0  0
 71 72  2  0  0  0
 71 81  1  0  0  0
 71145  1  0  0  0
 72 76  1  0  0  0
 72 85  1  0  0  0
 73 81  2  0  0  0
 73 82  1  0  0  0
 73 85  1  0  0  0
 74 77  1  0  0  0
 74 83  1  0  0  0
 74 84  2  0  0  0
 75 83  1  0  0  0
 75146  1  0  0  0
 75147  1  0  0  0
 75148  1  0  0  0
 76 79  1  0  0  0
 76149  1  0  0  0
 76150  1  0  0  0
 77 78  1  0  0  0
 77151  1  0  0  0
 77152  1  0  0  0
 78 80  1  0  0  0
 78153  1  0  0  0
 78154  1  0  0  0
 79 83  1  0  0  0
 79155  1  0  0  0
 79156  1  0  0  0
 80157  1  0  0  0
 80158  1  0  0  0
 82159  1  0  0  0
M  ISO  4   1 100  68 101  80 101  82 100
M  END
> <chiral flag>
0

> <version>
0

> <s_m_source_file>
/data/baiqing/PycharmProjects/Reinvent-master-3.2/result/LINK_invent/BTK/process_docking_weight1_custom_product_contain_oxygen_bond_distance_aromatic_linkinvent_7_9_3/rearranged_h_0184.sdf

> <i_m_source_file_index>
91

> <r_mmod_Potential_Energy-OPLS-2005>
-152.50309753418

> <r_mmod_Stretch_Energy-OPLS-2005>
33.8977165222168

> <r_mmod_Bend_Energy-OPLS-2005>
95.6094741821289

> <r_mmod_Torsional_Energy-OPLS-2005>
243.132949829102

> <r_mmod_Improper_Torsional_Energy-OPLS-2005>
4.07441759109497

> <r_mmod_Van_der_Waal_Energy-OPLS-2005>
137.923736572266

> <r_mmod_Electrostatic_Energy-OPLS-2005>
-441.699493408203

> <r_mmod_Solvation_Energy-OPLS-2005>
-233.836029052734

> <b_mmod_Minimization_Converged-OPLS-2005>
0

> <r_mmod_RMS_Derivative-OPLS-2005>
4.57444953918457

$$$$
91
                    3D
 Structure written by MMmdl.
159167  0  0  1  0            999 V2000
  -30.5718  -14.7957   20.4365 C   0  0  0  0  0  0
  -30.4418  -12.4834   19.4680 C   0  0  0  0  0  0
  -29.5125  -12.5074   18.2333 C   0  0  0  0  0  0
  -28.0420  -12.3114   18.6557 C   0  0  0  0  0  0
  -27.6362  -13.2279   19.8397 C   0  0  2  0  0  0
  -28.6841  -13.1970   20.9735 C   0  0  0  0  0  0
  -25.2505  -13.8149   20.5690 C   0  0  0  0  0  0
  -24.1804  -13.0399   20.9219 C   0  0  0  0  0  0
  -24.6407  -11.6869   20.8749 C   0  0  0  0  0  0
  -23.9090  -10.4259   21.0410 C   0  0  0  0  0  0
  -24.3614   -9.4168   21.9191 C   0  0  0  0  0  0
  -23.6288   -8.2215   22.0766 C   0  0  0  0  0  0
  -22.4271   -8.0265   21.3567 C   0  0  0  0  0  0
  -21.9907   -9.0239   20.4666 C   0  0  0  0  0  0
  -22.7249  -10.2119   20.3070 C   0  0  0  0  0  0
  -21.6847   -6.0736   22.5283 C   0  0  0  0  0  0
  -21.4009   -6.5640   23.8220 C   0  0  0  0  0  0
  -21.3667   -5.6798   24.9181 C   0  0  0  0  0  0
  -21.6036   -4.3064   24.7232 C   0  0  0  0  0  0
  -21.8806   -3.8148   23.4359 C   0  0  0  0  0  0
  -21.9187   -4.6964   22.3406 C   0  0  0  0  0  0
  -22.7824  -13.5183   21.1884 C   0  0  0  0  0  0
  -22.1657   -4.2146   21.0997 F   0  0  0  0  0  0
  -21.5625   -3.4546   25.7754 F   0  0  0  0  0  0
  -29.9779  -13.5543   20.3767 N   0  0  0  0  0  0
  -26.2916  -12.9359   20.3226 N   0  0  0  0  0  0
  -25.9326  -11.6502   20.5723 N   0  0  0  0  0  0
  -22.0502  -12.8177   22.0465 N   0  0  0  0  0  0
  -25.4118  -15.1883   20.4136 N   0  0  0  0  0  0
  -31.7843  -14.9059   20.2361 O   0  0  0  0  0  0
  -21.6630   -6.8867   21.4254 O   0  0  0  0  0  0
  -22.3513  -14.5495   20.6758 O   0  0  0  0  0  0
  -24.6349  -31.8499   23.1937 C   0  0  0  0  0  0
  -25.9176  -32.4734   23.8258 C   0  0  1  0  0  0
  -27.2313  -27.2557   20.1485 C   0  0  0  0  0  0
  -25.5925  -33.8537   24.2171 N   0  0  0  0  0  0
  -23.4289  -30.4708   21.5387 C   0  0  2  0  0  0
  -24.8807  -28.9048   20.1159 C   0  0  0  0  0  0
  -22.7497  -29.4593   22.4935 C   0  0  0  0  0  0
  -18.0271  -28.1397   22.8457 C   0  0  0  0  0  0
  -24.1495  -36.7307   23.2640 C   0  0  0  0  0  0
  -25.9746  -30.7641   21.3700 C   0  0  0  0  0  0
  -26.0502  -29.3821   20.7203 C   0  0  0  0  0  0
  -27.2327  -28.5760   20.7162 C   0  0  0  0  0  0
  -26.0405  -26.8391   19.5218 C   0  0  0  0  0  0
  -24.8808  -27.6411   19.5011 C   0  0  0  0  0  0
  -23.6456  -29.7865   20.1609 C   0  0  0  0  0  0
  -25.4129  -36.3050   24.0290 C   0  0  1  0  0  0
  -20.5885  -28.3695   23.1252 C   0  0  2  0  0  0
  -20.6751  -26.9399   22.5419 C   0  0  0  0  0  0
  -19.5722  -26.6369   21.5219 C   0  0  0  0  0  0
  -18.1897  -26.7920   22.1624 C   0  0  0  0  0  0
  -19.1534  -28.8864   23.2841 C   0  0  0  0  0  0
  -18.9472  -30.1448   23.8885 C   0  0  0  0  0  0
  -17.6476  -30.6592   24.0572 C   0  0  0  0  0  0
  -25.9057  -34.9418   23.5038 C   0  0  0  0  0  0
  -16.5361  -29.9102   23.6325 C   0  0  0  0  0  0
  -16.7263  -28.6518   23.0345 C   0  0  0  0  0  0
  -26.4553  -31.6618   25.0676 C   0  0  0  0  0  0
  -25.3762  -31.3766   26.1363 C   0  0  0  0  0  0
  -27.0485  -30.3028   24.6281 C   0  0  0  0  0  0
  -27.6067  -32.4446   25.7441 C   0  0  0  0  0  0
  -27.5581  -37.1788   24.8413 C   0  0  0  0  0  0
  -21.4206  -29.3043   22.3665 N   0  0  0  0  0  0
  -26.4313  -37.3745   23.9344 N   0  0  0  0  0  0
  -24.6981  -31.0474   22.0898 N   0  0  0  0  0  0
  -23.4192  -28.8154   23.3050 O   0  0  0  0  0  0
  -28.3374  -26.3806   20.1203 O   0  0  0  0  0  0
  -26.5641  -34.8906   22.4617 O   0  0  0  0  0  0
  -23.5507  -32.1332   23.7238 O   0  0  0  0  0  0
  -28.8401  -19.2867   22.0856 C   0  0  0  0  0  0
  -29.2068  -19.6468   20.7932 C   0  0  0  0  0  0
  -29.7516  -17.2922   20.8112 C   0  0  0  0  0  0
  -29.2522  -22.2813   20.6144 C   0  0  0  0  0  0
  -26.5868  -20.3548   22.4721 C   0  0  0  0  0  0
  -28.5498  -21.1146   23.8933 C   0  0  0  0  0  0
  -29.1298  -25.2607   22.0197 C   0  0  0  0  0  0
  -28.6862  -23.6530   19.9415 C   0  0  0  0  0  0
  -27.9363  -19.9650   23.0897 C   0  0  0  0  0  0
  -28.2706  -25.0188   20.7666 C   0  0  2  0  0  0
  -29.6155  -18.4512   20.0675 N   0  0  0  0  0  0
  -28.8999  -20.9921   20.2066 N   0  0  0  0  0  0
  -29.7215  -15.8924   20.3199 N   0  0  0  0  0  0
  -30.1483  -22.4035   21.4501 O   0  0  0  0  0  0
  -29.3569  -17.6408   22.4861 S   0  0  0  0  0  0
  -31.4792  -12.6287   19.1642 H   0  0  0  0  0  0
  -30.4005  -11.5132   19.9643 H   0  0  0  0  0  0
  -29.8054  -11.7383   17.5158 H   0  0  0  0  0  0
  -29.6188  -13.4622   17.7146 H   0  0  0  0  0  0
  -27.9235  -11.2645   18.9379 H   0  0  0  0  0  0
  -27.3780  -12.4735   17.8065 H   0  0  0  0  0  0
  -27.6106  -14.2384   19.4320 H   0  0  0  0  0  0
  -28.7250  -12.2148   21.4469 H   0  0  0  0  0  0
  -28.4098  -13.9099   21.7565 H   0  0  0  0  0  0
  -25.2759   -9.5631   22.4766 H   0  0  0  0  0  0
  -23.9983   -7.4597   22.7483 H   0  0  0  0  0  0
  -21.0832   -8.8772   19.8956 H   0  0  0  0  0  0
  -22.3716  -10.9662   19.6179 H   0  0  0  0  0  0
  -21.2007   -7.6154   23.9722 H   0  0  0  0  0  0
  -21.1504   -6.0542   25.9094 H   0  0  0  0  0  0
  -22.0579   -2.7611   23.2868 H   0  0  0  0  0  0
  -22.4146  -11.9835   22.4806 H   0  0  0  0  0  0
  -21.1131  -13.1218   22.2736 H   0  0  0  0  0  0
  -24.6284  -15.8213   20.5239 H   0  0  0  0  0  0
  -26.2437  -15.6487   20.0672 H   0  0  0  0  0  0
  -26.7251  -32.5398   23.1016 H   0  0  0  0  0  0
  -25.0000  -33.9633   25.0275 H   0  0  0  0  0  0
  -22.7275  -31.2959   21.3874 H   0  0  0  0  0  0
  -23.3743  -35.9656   23.3293 H   0  0  0  0  0  0
  -24.3561  -36.8958   22.2052 H   0  0  0  0  0  0
  -23.7284  -37.6502   23.6705 H   0  0  0  0  0  0
  -26.1119  -31.5197   20.5960 H   0  0  0  0  0  0
  -26.8524  -30.8178   22.0048 H   0  0  0  0  0  0
  -28.1359  -28.9541   21.1739 H   0  0  0  0  0  0
  -26.0147  -25.8673   19.0482 H   0  0  0  0  0  0
  -23.9898  -27.2686   19.0160 H   0  0  0  0  0  0
  -23.7517  -30.5545   19.3937 H   0  0  0  0  0  0
  -22.7648  -29.2079   19.8724 H   0  0  0  0  0  0
  -25.1349  -36.1889   25.0790 H   0  0  0  0  0  0
  -20.9947  -28.3285   24.1380 H   0  0  0  0  0  0
  -20.5591  -26.2318   23.3651 H   0  0  0  0  0  0
  -21.6617  -26.7350   22.1252 H   0  0  0  0  0  0
  -19.6866  -25.6280   21.1229 H   0  0  0  0  0  0
  -19.6672  -27.3194   20.6766 H   0  0  0  0  0  0
  -17.4157  -26.6648   21.4043 H   0  0  0  0  0  0
  -18.0290  -26.0116   22.9067 H   0  0  0  0  0  0
  -19.7974  -30.7229   24.2273 H   0  0  0  0  0  0
  -17.5063  -31.6261   24.5193 H   0  0  0  0  0  0
  -15.5369  -30.3010   23.7685 H   0  0  0  0  0  0
  -15.8656  -28.0846   22.7072 H   0  0  0  0  0  0
  -24.5891  -30.7221   25.7612 H   0  0  0  0  0  0
  -24.9045  -32.2982   26.4816 H   0  0  0  0  0  0
  -25.8053  -30.8846   27.0113 H   0  0  0  0  0  0
  -27.4169  -29.7412   25.4886 H   0  0  0  0  0  0
  -26.3130  -29.6672   24.1353 H   0  0  0  0  0  0
  -27.8990  -30.4271   23.9565 H   0  0  0  0  0  0
  -27.2595  -33.3715   26.2027 H   0  0  0  0  0  0
  -28.3849  -32.7118   25.0276 H   0  0  0  0  0  0
  -28.0840  -31.8646   26.5343 H   0  0  0  0  0  0
  -28.2558  -38.0118   24.7465 H   0  0  0  0  0  0
  -28.1122  -36.2640   24.6269 H   0  0  0  0  0  0
  -27.2262  -37.1438   25.8801 H   0  0  0  0  0  0
  -20.9435  -29.8803   21.6879 H   0  0  0  0  0  0
  -26.0195  -38.2816   24.1367 H   0  0  0  0  0  0
  -26.1481  -19.5090   21.9373 H   0  0  0  0  0  0
  -26.6875  -21.1781   21.7643 H   0  0  0  0  0  0
  -25.8748  -20.6681   23.2381 H   0  0  0  0  0  0
  -29.5538  -20.8694   24.2417 H   0  0  0  0  0  0
  -27.9381  -21.3402   24.7682 H   0  0  0  0  0  0
  -28.5899  -22.0372   23.3208 H   0  0  0  0  0  0
  -30.1784  -25.3982   21.7483 H   0  0  0  0  0  0
  -29.0641  -24.4413   22.7373 H   0  0  0  0  0  0
  -28.8104  -26.1661   22.5421 H   0  0  0  0  0  0
  -27.8608  -23.3984   19.2754 H   0  0  0  0  0  0
  -29.4879  -23.9579   19.2685 H   0  0  0  0  0  0
  -27.6924  -19.2117   23.8420 H   0  0  0  0  0  0
  -27.2471  -24.8648   21.1173 H   0  0  0  0  0  0
  -28.3092  -20.9565   19.3874 H   0  0  0  0  0  0
  -28.7791  -15.5810   20.1577 H   0  0  0  0  0  0
  1 25  1  0  0  0
  1 30  2  0  0  0
  1 83  1  0  0  0
  2  3  1  0  0  0
  2 25  1  0  0  0
  2 86  1  0  0  0
  2 87  1  0  0  0
  3  4  1  0  0  0
  3 88  1  0  0  0
  3 89  1  0  0  0
  4  5  1  0  0  0
  4 90  1  0  0  0
  4 91  1  0  0  0
  5  6  1  0  0  0
  5 26  1  0  0  0
  5 92  1  0  0  0
  6 25  1  0  0  0
  6 93  1  0  0  0
  6 94  1  0  0  0
  7  8  2  0  0  0
  7 26  1  0  0  0
  7 29  1  0  0  0
  8  9  1  0  0  0
  8 22  1  0  0  0
  9 10  1  0  0  0
  9 27  2  0  0  0
 10 11  2  0  0  0
 10 15  1  0  0  0
 11 12  1  0  0  0
 11 95  1  0  0  0
 12 13  2  0  0  0
 12 96  1  0  0  0
 13 14  1  0  0  0
 13 31  1  0  0  0
 14 15  2  0  0  0
 14 97  1  0  0  0
 15 98  1  0  0  0
 16 17  2  0  0  0
 16 21  1  0  0  0
 16 31  1  0  0  0
 17 18  1  0  0  0
 17 99  1  0  0  0
 18 19  2  0  0  0
 18100  1  0  0  0
 19 20  1  0  0  0
 19 24  1  0  0  0
 20 21  2  0  0  0
 20101  1  0  0  0
 21 23  1  0  0  0
 22 28  1  0  0  0
 22 32  2  0  0  0
 26 27  1  0  0  0
 28102  1  0  0  0
 28103  1  0  0  0
 29104  1  0  0  0
 29105  1  0  0  0
 33 34  1  0  0  0
 33 66  1  0  0  0
 33 70  2  0  0  0
 34 36  1  0  0  0
 34 59  1  0  0  0
 34106  1  0  0  0
 35 44  2  0  0  0
 35 45  1  0  0  0
 35 68  1  0  0  0
 36 56  1  0  0  0
 36107  1  0  0  0
 37 39  1  0  0  0
 37 47  1  0  0  0
 37 66  1  0  0  0
 37108  1  0  0  0
 38 43  2  0  0  0
 38 46  1  0  0  0
 38 47  1  0  0  0
 39 64  1  0  0  0
 39 67  2  0  0  0
 40 52  1  0  0  0
 40 53  2  0  0  0
 40 58  1  0  0  0
 41109  1  0  0  0
 41110  1  0  0  0
 41111  1  0  0  0
 41 48  1  0  0  0
 42 43  1  0  0  0
 42 66  1  0  0  0
 42112  1  0  0  0
 42113  1  0  0  0
 43 44  1  0  0  0
 44114  1  0  0  0
 45 46  2  0  0  0
 45115  1  0  0  0
 46116  1  0  0  0
 47117  1  0  0  0
 47118  1  0  0  0
 48 56  1  0  0  0
 48 65  1  0  0  0
 48119  1  0  0  0
 49 50  1  0  0  0
 49 53  1  0  0  0
 49 64  1  0  0  0
 49120  1  0  0  0
 50 51  1  0  0  0
 50121  1  0  0  0
 50122  1  0  0  0
 51 52  1  0  0  0
 51123  1  0  0  0
 51124  1  0  0  0
 52125  1  0  0  0
 52126  1  0  0  0
 53 54  1  0  0  0
 54 55  2  0  0  0
 54127  1  0  0  0
 55 57  1  0  0  0
 55128  1  0  0  0
 56 69  2  0  0  0
 57 58  2  0  0  0
 57129  1  0  0  0
 58130  1  0  0  0
 59 60  1  0  0  0
 59 61  1  0  0  0
 59 62  1  0  0  0
 60131  1  0  0  0
 60132  1  0  0  0
 60133  1  0  0  0
 61134  1  0  0  0
 61135  1  0  0  0
 61136  1  0  0  0
 62137  1  0  0  0
 62138  1  0  0  0
 62139  1  0  0  0
 63 65  1  0  0  0
 63140  1  0  0  0
 63141  1  0  0  0
 63142  1  0  0  0
 64143  1  0  0  0
 65144  1  0  0  0
 68 80  1  0  0  0
 71 72  2  0  0  0
 71 79  1  0  0  0
 71 85  1  0  0  0
 72 81  1  0  0  0
 72 82  1  0  0  0
 73 81  2  0  0  0
 73 83  1  0  0  0
 73 85  1  0  0  0
 74 78  1  0  0  0
 74 82  1  0  0  0
 74 84  2  0  0  0
 75145  1  0  0  0
 75146  1  0  0  0
 75147  1  0  0  0
 75 79  1  0  0  0
 76 79  1  0  0  0
 76148  1  0  0  0
 76149  1  0  0  0
 76150  1  0  0  0
 77151  1  0  0  0
 77152  1  0  0  0
 77153  1  0  0  0
 77 80  1  0  0  0
 78 80  1  0  0  0
 78154  1  0  0  0
 78155  1  0  0  0
 79156  1  0  0  0
 80157  1  0  0  0
 82158  1  0  0  0
 83159  1  0  0  0
M  ISO  4   1 100  68 101  80 101  83 100
M  END
> <chiral flag>
0

> <version>
0

> <s_m_source_file>
/data/baiqing/PycharmProjects/Reinvent-master-3.2/result/LINK_invent/BTK/process_docking_weight1_custom_product_contain_oxygen_bond_distance_aromatic_linkinvent_7_9_3/rearranged_h_0184.sdf

> <i_m_source_file_index>
92

> <r_mmod_Potential_Energy-OPLS-2005>
198.112930297852

> <r_mmod_Stretch_Energy-OPLS-2005>
138.764221191406

> <r_mmod_Bend_Energy-OPLS-2005>
200.928237915039

> <r_mmod_Torsional_Energy-OPLS-2005>
291.969757080078

> <r_mmod_Improper_Torsional_Energy-OPLS-2005>
21.215705871582

> <r_mmod_Van_der_Waal_Energy-OPLS-2005>
102.532279968262

> <r_mmod_Electrostatic_Energy-OPLS-2005>
-421.627532958984

> <r_mmod_Solvation_Energy-OPLS-2005>
-237.117630004883

> <b_mmod_Minimization_Converged-OPLS-2005>
0

> <r_mmod_RMS_Derivative-OPLS-2005>
4.68803548812866

$$$$
92
                    3D
 Structure written by MMmdl.
164172  0  0  1  0            999 V2000
  -30.6561  -14.5845   20.3820 C   0  0  0  0  0  0
  -30.4320  -12.3003   19.4829 C   0  0  0  0  0  0
  -29.5175  -12.3345   18.2416 C   0  0  0  0  0  0
  -28.0206  -12.3058   18.6326 C   0  0  0  0  0  0
  -27.6498  -13.2038   19.8505 C   0  0  2  0  0  0
  -28.6977  -13.0941   20.9796 C   0  0  0  0  0  0
  -25.2512  -13.8117   20.5709 C   0  0  0  0  0  0
  -24.1798  -13.0400   20.9248 C   0  0  0  0  0  0
  -24.6351  -11.6875   20.8794 C   0  0  0  0  0  0
  -23.9036  -10.4263   21.0435 C   0  0  0  0  0  0
  -24.3597   -9.4169   21.9205 C   0  0  0  0  0  0
  -23.6292   -8.2204   22.0773 C   0  0  0  0  0  0
  -22.4276   -8.0251   21.3575 C   0  0  0  0  0  0
  -21.9920   -9.0194   20.4660 C   0  0  0  0  0  0
  -22.7208  -10.2085   20.3081 C   0  0  0  0  0  0
  -21.6841   -6.0708   22.5281 C   0  0  0  0  0  0
  -21.3973   -6.5621   23.8199 C   0  0  0  0  0  0
  -21.3685   -5.6791   24.9187 C   0  0  0  0  0  0
  -21.6082   -4.3064   24.7238 C   0  0  0  0  0  0
  -21.8805   -3.8123   23.4370 C   0  0  0  0  0  0
  -21.9147   -4.6935   22.3406 C   0  0  0  0  0  0
  -22.7811  -13.5196   21.1846 C   0  0  0  0  0  0
  -22.1625   -4.2096   21.1003 F   0  0  0  0  0  0
  -21.5678   -3.4562   25.7778 F   0  0  0  0  0  0
  -30.0096  -13.3809   20.3913 N   0  0  0  0  0  0
  -26.2946  -12.9298   20.3292 N   0  0  0  0  0  0
  -25.9267  -11.6476   20.5819 N   0  0  0  0  0  0
  -22.0403  -12.8240   22.0440 N   0  0  0  0  0  0
  -25.4131  -15.1823   20.4070 N   0  0  0  0  0  0
  -31.8602  -14.6653   20.1426 O   0  0  0  0  0  0
  -21.6649   -6.8849   21.4247 O   0  0  0  0  0  0
  -22.3523  -14.5459   20.6623 O   0  0  0  0  0  0
  -24.6141  -31.8634   23.2010 C   0  0  0  0  0  0
  -25.9016  -32.4812   23.8326 C   0  0  1  0  0  0
  -27.2428  -27.4095   20.1141 C   0  0  0  0  0  0
  -25.5835  -33.8620   24.2243 N   0  0  0  0  0  0
  -23.4008  -30.4847   21.5436 C   0  0  2  0  0  0
  -24.8535  -28.9522   20.1077 C   0  0  0  0  0  0
  -22.7377  -29.4621   22.4960 C   0  0  0  0  0  0
  -18.0254  -28.1374   22.8500 C   0  0  0  0  0  0
  -24.1469  -36.7317   23.2653 C   0  0  0  0  0  0
  -25.9300  -30.8274   21.3538 C   0  0  0  0  0  0
  -26.0117  -29.4563   20.7132 C   0  0  0  0  0  0
  -27.2066  -28.6906   20.7184 C   0  0  0  0  0  0
  -26.0670  -26.9414   19.4744 C   0  0  0  0  0  0
  -24.8804  -27.6984   19.4799 C   0  0  0  0  0  0
  -23.6068  -29.8113   20.1599 C   0  0  0  0  0  0
  -25.4100  -36.3103   24.0323 C   0  0  1  0  0  0
  -20.5843  -28.3624   23.1333 C   0  0  2  0  0  0
  -20.6773  -26.9350   22.5448 C   0  0  0  0  0  0
  -19.5739  -26.6366   21.5243 C   0  0  0  0  0  0
  -18.1914  -26.7921   22.1640 C   0  0  0  0  0  0
  -19.1507  -28.8814   23.2915 C   0  0  0  0  0  0
  -18.9457  -30.1435   23.8862 C   0  0  0  0  0  0
  -17.6478  -30.6591   24.0584 C   0  0  0  0  0  0
  -25.9019  -34.9478   23.5098 C   0  0  0  0  0  0
  -16.5359  -29.9102   23.6358 C   0  0  0  0  0  0
  -16.7260  -28.6542   23.0329 C   0  0  0  0  0  0
  -26.4413  -31.6613   25.0688 C   0  0  0  0  0  0
  -25.3644  -31.3830   26.1426 C   0  0  0  0  0  0
  -27.0250  -30.3057   24.6068 C   0  0  0  0  0  0
  -27.5961  -32.4348   25.7487 C   0  0  0  0  0  0
  -27.5551  -37.1811   24.8453 C   0  0  0  0  0  0
  -21.4100  -29.3006   22.3727 N   0  0  0  0  0  0
  -26.4261  -37.3811   23.9399 N   0  0  0  0  0  0
  -24.6658  -31.0738   22.0925 N   0  0  0  0  0  0
  -23.4162  -28.8128   23.2958 O   0  0  0  0  0  0
  -28.3993  -26.6441   20.1818 O   0  0  0  0  0  0
  -26.5640  -34.8944   22.4689 O   0  0  0  0  0  0
  -23.5346  -32.1397   23.7417 O   0  0  0  0  0  0
  -30.3835  -18.2548   20.2010 C   0  0  0  0  0  0
  -31.5726  -18.9500   20.3292 C   0  0  0  0  0  0
  -30.1714  -20.6101   20.9942 C   0  0  0  0  0  0
  -29.3115  -22.8266   20.3823 C   0  0  0  0  0  0
  -29.3815  -15.8076   17.3029 C   0  0  0  0  0  0
  -29.6956  -18.2571   17.2960 C   0  0  0  0  0  0
  -27.7692  -17.2382   18.5119 C   0  0  0  0  0  0
  -28.2831  -25.2091   19.9863 C   0  0  0  0  0  0
  -30.1735  -16.9198   19.4703 C   0  0  2  0  0  0
  -29.3589  -24.3480   20.7193 C   0  0  2  0  0  0
  -29.2663  -17.0601   18.1808 C   0  0  0  0  0  0
  -31.4440  -20.2591   20.8000 N   0  0  0  0  0  0
  -32.8462  -18.4926   19.9910 N   0  0  0  0  0  0
  -29.8383  -21.9635   21.2821 N   0  0  0  0  0  0
  -29.8640  -15.6946   20.2905 N   0  0  0  0  0  0
  -28.8159  -22.4424   19.3124 O   0  0  0  0  0  0
  -30.5817  -24.8024   20.4164 F   0  0  0  0  0  0
  -29.0549  -19.2513   20.8049 S   0  0  0  0  0  0
  -31.4767  -12.3854   19.1780 H   0  0  0  0  0  0
  -30.3530  -11.3351   19.9837 H   0  0  0  0  0  0
  -29.7329  -11.4653   17.6168 H   0  0  0  0  0  0
  -29.7721  -13.1795   17.6138 H   0  0  0  0  0  0
  -27.7864  -11.2694   18.8715 H   0  0  0  0  0  0
  -27.3927  -12.5579   17.7778 H   0  0  0  0  0  0
  -27.6587  -14.2318   19.4965 H   0  0  0  0  0  0
  -28.6885  -12.0958   21.4193 H   0  0  0  0  0  0
  -28.4731  -13.7876   21.7913 H   0  0  0  0  0  0
  -25.2732   -9.5636   22.4790 H   0  0  0  0  0  0
  -23.9987   -7.4599   22.7502 H   0  0  0  0  0  0
  -21.0865   -8.8664   19.8970 H   0  0  0  0  0  0
  -22.3636  -10.9620   19.6206 H   0  0  0  0  0  0
  -21.1935   -7.6122   23.9687 H   0  0  0  0  0  0
  -21.1578   -6.0546   25.9095 H   0  0  0  0  0  0
  -22.0562   -2.7580   23.2878 H   0  0  0  0  0  0
  -22.3993  -11.9940   22.4926 H   0  0  0  0  0  0
  -21.0960  -13.1222   22.2502 H   0  0  0  0  0  0
  -24.6449  -15.8260   20.5625 H   0  0  0  0  0  0
  -26.2046  -15.6133   19.9500 H   0  0  0  0  0  0
  -26.7089  -32.5518   23.1086 H   0  0  0  0  0  0
  -24.9886  -33.9796   25.0317 H   0  0  0  0  0  0
  -22.6947  -31.3046   21.4075 H   0  0  0  0  0  0
  -23.3736  -35.9634   23.3291 H   0  0  0  0  0  0
  -24.3567  -36.8960   22.2067 H   0  0  0  0  0  0
  -23.7228  -37.6539   23.6664 H   0  0  0  0  0  0
  -26.0323  -31.5752   20.5642 H   0  0  0  0  0  0
  -26.8234  -30.8969   21.9616 H   0  0  0  0  0  0
  -28.0923  -29.0713   21.2096 H   0  0  0  0  0  0
  -26.0460  -25.9893   18.9684 H   0  0  0  0  0  0
  -23.9948  -27.3203   18.9890 H   0  0  0  0  0  0
  -23.6950  -30.5810   19.3933 H   0  0  0  0  0  0
  -22.7332  -29.2209   19.8773 H   0  0  0  0  0  0
  -25.1288  -36.1938   25.0814 H   0  0  0  0  0  0
  -20.9980  -28.3170   24.1418 H   0  0  0  0  0  0
  -20.5697  -26.2189   23.3610 H   0  0  0  0  0  0
  -21.6639  -26.7397   22.1193 H   0  0  0  0  0  0
  -19.6901  -25.6280   21.1207 H   0  0  0  0  0  0
  -19.6716  -27.3236   20.6818 H   0  0  0  0  0  0
  -17.4206  -26.6657   21.4032 H   0  0  0  0  0  0
  -18.0310  -26.0090   22.9035 H   0  0  0  0  0  0
  -19.7946  -30.7283   24.2194 H   0  0  0  0  0  0
  -17.5044  -31.6257   24.5197 H   0  0  0  0  0  0
  -15.5366  -30.3010   23.7737 H   0  0  0  0  0  0
  -15.8639  -28.0906   22.6995 H   0  0  0  0  0  0
  -24.5720  -30.7274   25.7785 H   0  0  0  0  0  0
  -24.8962  -32.3091   26.4786 H   0  0  0  0  0  0
  -25.7941  -30.9040   27.0229 H   0  0  0  0  0  0
  -26.2857  -29.6854   24.0991 H   0  0  0  0  0  0
  -27.3965  -29.7236   25.4513 H   0  0  0  0  0  0
  -27.8664  -30.4440   23.9277 H   0  0  0  0  0  0
  -27.2509  -33.3628   26.2064 H   0  0  0  0  0  0
  -28.3772  -32.6927   25.0320 H   0  0  0  0  0  0
  -28.0582  -31.8455   26.5418 H   0  0  0  0  0  0
  -28.2588  -38.0091   24.7518 H   0  0  0  0  0  0
  -28.1037  -36.2647   24.6246 H   0  0  0  0  0  0
  -27.2292  -37.1421   25.8865 H   0  0  0  0  0  0
  -20.9224  -29.8749   21.6993 H   0  0  0  0  0  0
  -26.0130  -38.2875   24.1441 H   0  0  0  0  0  0
  -28.9085  -15.9418   16.3286 H   0  0  0  0  0  0
  -28.8553  -14.9947   17.7845 H   0  0  0  0  0  0
  -30.4160  -15.5113   17.1259 H   0  0  0  0  0  0
  -29.1013  -18.2966   16.3803 H   0  0  0  0  0  0
  -30.7408  -18.1787   16.9967 H   0  0  0  0  0  0
  -29.5639  -19.2187   17.7928 H   0  0  0  0  0  0
  -27.1399  -17.0251   17.6444 H   0  0  0  0  0  0
  -27.5326  -18.2589   18.8042 H   0  0  0  0  0  0
  -27.4569  -16.5882   19.3230 H   0  0  0  0  0  0
  -27.3229  -24.8530   20.3650 H   0  0  0  0  0  0
  -28.3133  -25.0086   18.9127 H   0  0  0  0  0  0
  -31.1467  -16.7100   19.0240 H   0  0  0  0  0  0
  -29.2406  -24.4813   21.7959 H   0  0  0  0  0  0
  -33.0025  -17.4932   19.9479 H   0  0  0  0  0  0
  -33.6408  -19.0198   20.3315 H   0  0  0  0  0  0
  -30.2465  -22.3598   22.1233 H   0  0  0  0  0  0
  -28.8973  -15.5665   20.5398 H   0  0  0  0  0  0
  1 25  1  0  0  0
  1 30  2  0  0  0
  1 85  1  0  0  0
  2  3  1  0  0  0
  2 25  1  0  0  0
  2 89  1  0  0  0
  2 90  1  0  0  0
  3  4  1  0  0  0
  3 91  1  0  0  0
  3 92  1  0  0  0
  4  5  1  0  0  0
  4 93  1  0  0  0
  4 94  1  0  0  0
  5  6  1  0  0  0
  5 26  1  0  0  0
  5 95  1  0  0  0
  6 25  1  0  0  0
  6 96  1  0  0  0
  6 97  1  0  0  0
  7  8  2  0  0  0
  7 26  1  0  0  0
  7 29  1  0  0  0
  8  9  1  0  0  0
  8 22  1  0  0  0
  9 10  1  0  0  0
  9 27  2  0  0  0
 10 11  2  0  0  0
 10 15  1  0  0  0
 11 12  1  0  0  0
 11 98  1  0  0  0
 12 13  2  0  0  0
 12 99  1  0  0  0
 13 14  1  0  0  0
 13 31  1  0  0  0
 14 15  2  0  0  0
 14100  1  0  0  0
 15101  1  0  0  0
 16 17  2  0  0  0
 16 21  1  0  0  0
 16 31  1  0  0  0
 17 18  1  0  0  0
 17102  1  0  0  0
 18 19  2  0  0  0
 18103  1  0  0  0
 19 20  1  0  0  0
 19 24  1  0  0  0
 20 21  2  0  0  0
 20104  1  0  0  0
 21 23  1  0  0  0
 22 28  1  0  0  0
 22 32  2  0  0  0
 26 27  1  0  0  0
 28105  1  0  0  0
 28106  1  0  0  0
 29107  1  0  0  0
 29108  1  0  0  0
 33 34  1  0  0  0
 33 66  1  0  0  0
 33 70  2  0  0  0
 34 36  1  0  0  0
 34 59  1  0  0  0
 34109  1  0  0  0
 35 44  2  0  0  0
 35 45  1  0  0  0
 35 68  1  0  0  0
 36 56  1  0  0  0
 36110  1  0  0  0
 37 39  1  0  0  0
 37 47  1  0  0  0
 37 66  1  0  0  0
 37111  1  0  0  0
 38 43  2  0  0  0
 38 46  1  0  0  0
 38 47  1  0  0  0
 39 64  1  0  0  0
 39 67  2  0  0  0
 40 52  1  0  0  0
 40 53  2  0  0  0
 40 58  1  0  0  0
 41112  1  0  0  0
 41113  1  0  0  0
 41114  1  0  0  0
 41 48  1  0  0  0
 42 43  1  0  0  0
 42 66  1  0  0  0
 42115  1  0  0  0
 42116  1  0  0  0
 43 44  1  0  0  0
 44117  1  0  0  0
 45 46  2  0  0  0
 45118  1  0  0  0
 46119  1  0  0  0
 47120  1  0  0  0
 47121  1  0  0  0
 48 56  1  0  0  0
 48 65  1  0  0  0
 48122  1  0  0  0
 49 50  1  0  0  0
 49 53  1  0  0  0
 49 64  1  0  0  0
 49123  1  0  0  0
 50 51  1  0  0  0
 50124  1  0  0  0
 50125  1  0  0  0
 51 52  1  0  0  0
 51126  1  0  0  0
 51127  1  0  0  0
 52128  1  0  0  0
 52129  1  0  0  0
 53 54  1  0  0  0
 54 55  2  0  0  0
 54130  1  0  0  0
 55 57  1  0  0  0
 55131  1  0  0  0
 56 69  2  0  0  0
 57 58  2  0  0  0
 57132  1  0  0  0
 58133  1  0  0  0
 59 60  1  0  0  0
 59 61  1  0  0  0
 59 62  1  0  0  0
 60134  1  0  0  0
 60135  1  0  0  0
 60136  1  0  0  0
 61137  1  0  0  0
 61138  1  0  0  0
 61139  1  0  0  0
 62140  1  0  0  0
 62141  1  0  0  0
 62142  1  0  0  0
 63 65  1  0  0  0
 63143  1  0  0  0
 63144  1  0  0  0
 63145  1  0  0  0
 64146  1  0  0  0
 65147  1  0  0  0
 68 78  1  0  0  0
 71 72  2  0  0  0
 71 79  1  0  0  0
 71 88  1  0  0  0
 72 82  1  0  0  0
 72 83  1  0  0  0
 73 82  2  0  0  0
 73 84  1  0  0  0
 73 88  1  0  0  0
 74 80  1  0  0  0
 74 84  1  0  0  0
 74 86  2  0  0  0
 75148  1  0  0  0
 75149  1  0  0  0
 75150  1  0  0  0
 75 81  1  0  0  0
 76 81  1  0  0  0
 76151  1  0  0  0
 76152  1  0  0  0
 76153  1  0  0  0
 77 81  1  0  0  0
 77154  1  0  0  0
 77155  1  0  0  0
 77156  1  0  0  0
 78 80  1  0  0  0
 78157  1  0  0  0
 78158  1  0  0  0
 79 81  1  0  0  0
 79 85  1  0  0  0
 79159  1  0  0  0
 80 87  1  0  0  0
 80160  1  0  0  0
 83161  1  0  0  0
 83162  1  0  0  0
 84163  1  0  0  0
 85164  1  0  0  0
M  ISO  4   1 100  68 101  78 101  85 100
M  END
> <chiral flag>
0

> <version>
0

> <s_m_source_file>
/data/baiqing/PycharmProjects/Reinvent-master-3.2/result/LINK_invent/BTK/process_docking_weight1_custom_product_contain_oxygen_bond_distance_aromatic_linkinvent_7_9_3/rearranged_h_0184.sdf

> <i_m_source_file_index>
93

> <r_mmod_Potential_Energy-OPLS-2005>
-136.195907592773

> <r_mmod_Stretch_Energy-OPLS-2005>
53.7998847961426

> <r_mmod_Bend_Energy-OPLS-2005>
124.958595275879

> <r_mmod_Torsional_Energy-OPLS-2005>
267.636047363281

> <r_mmod_Improper_Torsional_Energy-OPLS-2005>
15.1640634536743

> <r_mmod_Van_der_Waal_Energy-OPLS-2005>
130.58088684082

> <r_mmod_Electrostatic_Energy-OPLS-2005>
-533.603576660156

> <r_mmod_Solvation_Energy-OPLS-2005>
-234.466384887695

> <b_mmod_Minimization_Converged-OPLS-2005>
0

> <r_mmod_RMS_Derivative-OPLS-2005>
5.94711351394653

$$$$
93
                    3D
 Structure written by MMmdl.
150158  0  0  1  0            999 V2000
  -30.4963  -15.0063   20.4145 C   0  0  0  0  0  0
  -30.4420  -12.6252   19.4981 C   0  0  0  0  0  0
  -29.5245  -12.5460   18.2541 C   0  0  0  0  0  0
  -28.0542  -12.3271   18.6663 C   0  0  0  0  0  0
  -27.6244  -13.2541   19.8343 C   0  0  2  0  0  0
  -28.6663  -13.2853   20.9720 C   0  0  0  0  0  0
  -25.2405  -13.8221   20.5686 C   0  0  0  0  0  0
  -24.1736  -13.0426   20.9211 C   0  0  0  0  0  0
  -24.6376  -11.6916   20.8735 C   0  0  0  0  0  0
  -23.9070  -10.4281   21.0403 C   0  0  0  0  0  0
  -24.3620   -9.4197   21.9177 C   0  0  0  0  0  0
  -23.6287   -8.2242   22.0752 C   0  0  0  0  0  0
  -22.4271   -8.0277   21.3552 C   0  0  0  0  0  0
  -21.9901   -9.0252   20.4657 C   0  0  0  0  0  0
  -22.7241  -10.2119   20.3059 C   0  0  0  0  0  0
  -21.6848   -6.0720   22.5264 C   0  0  0  0  0  0
  -21.4026   -6.5627   23.8201 C   0  0  0  0  0  0
  -21.3678   -5.6783   24.9160 C   0  0  0  0  0  0
  -21.6045   -4.3046   24.7220 C   0  0  0  0  0  0
  -21.8822   -3.8133   23.4339 C   0  0  0  0  0  0
  -21.9186   -4.6947   22.3384 C   0  0  0  0  0  0
  -22.7751  -13.5189   21.1903 C   0  0  0  0  0  0
  -22.1661   -4.2127   21.0971 F   0  0  0  0  0  0
  -21.5625   -3.4556   25.7747 F   0  0  0  0  0  0
  -29.9360  -13.7248   20.3752 N   0  0  0  0  0  0
  -26.2841  -12.9469   20.3205 N   0  0  0  0  0  0
  -25.9308  -11.6591   20.5696 N   0  0  0  0  0  0
  -22.0431  -12.8180   22.0490 N   0  0  0  0  0  0
  -25.4050  -15.1960   20.4124 N   0  0  0  0  0  0
  -31.6991  -15.0957   20.1456 O   0  0  0  0  0  0
  -21.6634   -6.8876   21.4235 O   0  0  0  0  0  0
  -22.3423  -14.5489   20.6750 O   0  0  0  0  0  0
  -24.6482  -31.8407   23.1834 C   0  0  0  0  0  0
  -25.9230  -32.4680   23.8254 C   0  0  1  0  0  0
  -27.2132  -27.0794   20.1697 C   0  0  0  0  0  0
  -25.5954  -33.8488   24.2168 N   0  0  0  0  0  0
  -23.4549  -30.4572   21.5293 C   0  0  2  0  0  0
  -24.9057  -28.8738   20.1108 C   0  0  0  0  0  0
  -22.7602  -29.4520   22.4828 C   0  0  0  0  0  0
  -18.0318  -28.1400   22.8475 C   0  0  0  0  0  0
  -24.1492  -36.7259   23.2643 C   0  0  0  0  0  0
  -26.0147  -30.6953   21.3905 C   0  0  0  0  0  0
  -26.0844  -29.3002   20.7364 C   0  0  0  0  0  0
  -27.2384  -28.4204   20.7454 C   0  0  0  0  0  0
  -26.0100  -26.7707   19.4974 C   0  0  0  0  0  0
  -24.8858  -27.6257   19.4719 C   0  0  0  0  0  0
  -23.6858  -29.7843   20.1500 C   0  0  0  0  0  0
  -25.4122  -36.3023   24.0317 C   0  0  1  0  0  0
  -20.5937  -28.3725   23.1222 C   0  0  2  0  0  0
  -20.6797  -26.9421   22.5402 C   0  0  0  0  0  0
  -19.5767  -26.6373   21.5216 C   0  0  0  0  0  0
  -18.1952  -26.7936   22.1630 C   0  0  0  0  0  0
  -19.1578  -28.8879   23.2845 C   0  0  0  0  0  0
  -18.9485  -30.1474   23.8877 C   0  0  0  0  0  0
  -17.6477  -30.6586   24.0560 C   0  0  0  0  0  0
  -25.9074  -34.9400   23.5054 C   0  0  0  0  0  0
  -16.5370  -29.9078   23.6330 C   0  0  0  0  0  0
  -16.7304  -28.6499   23.0348 C   0  0  0  0  0  0
  -26.4514  -31.6568   25.0719 C   0  0  0  0  0  0
  -25.3669  -31.3777   26.1388 C   0  0  0  0  0  0
  -27.0386  -30.2965   24.6327 C   0  0  0  0  0  0
  -27.6040  -32.4333   25.7502 C   0  0  0  0  0  0
  -27.5584  -37.1780   24.8458 C   0  0  0  0  0  0
  -21.4284  -29.3050   22.3589 N   0  0  0  0  0  0
  -26.4280  -37.3744   23.9413 N   0  0  0  0  0  0
  -24.7263  -31.0206   22.0894 N   0  0  0  0  0  0
  -23.4218  -28.8074   23.2998 O   0  0  0  0  0  0
  -28.2595  -26.0698   20.2169 O   0  0  0  0  0  0
  -26.5668  -34.8907   22.4635 O   0  0  0  0  0  0
  -23.5588  -32.1301   23.7018 O   0  0  0  0  0  0
  -30.9216  -18.5607   20.3484 C   0  0  0  0  0  0
  -28.7797  -18.7296   20.5356 C   0  0  0  0  0  0
  -29.7733  -17.7115   20.4755 C   0  0  0  0  0  0
  -28.5416  -21.5305   20.5667 C   0  0  0  0  0  0
  -27.9878  -24.5135   20.3765 C   0  0  0  0  0  0
  -29.0236  -23.1450   20.2056 C   0  0  1  0  0  0
  -30.3428  -23.4774   20.9406 C   0  0  0  0  0  0
  -30.6386  -19.8999   20.3442 N   0  0  0  0  0  0
  -29.2839  -20.0960   20.4424 N   0  0  0  0  0  0
  -29.6553  -16.1610   20.5594 N   0  0  0  0  0  0
  -29.2861  -23.1173   18.8949 F   0  0  0  0  0  0
  -31.3215  -22.6314   20.6288 F   0  0  0  0  0  0
  -30.7580  -24.7082   20.6346 F   0  0  0  0  0  0
  -30.1441  -23.4245   22.2596 F   0  0  0  0  0  0
  -31.4761  -12.7938   19.1939 H   0  0  0  0  0  0
  -30.4437  -11.6769   20.0362 H   0  0  0  0  0  0
  -29.8506  -11.7461   17.5870 H   0  0  0  0  0  0
  -29.6079  -13.4692   17.6776 H   0  0  0  0  0  0
  -27.9464  -11.2827   18.9646 H   0  0  0  0  0  0
  -27.3943  -12.4717   17.8099 H   0  0  0  0  0  0
  -27.5825  -14.2548   19.4038 H   0  0  0  0  0  0
  -28.7628  -12.3034   21.4360 H   0  0  0  0  0  0
  -28.3553  -13.9723   21.7607 H   0  0  0  0  0  0
  -25.2780   -9.5673   22.4723 H   0  0  0  0  0  0
  -24.0011   -7.4629   22.7454 H   0  0  0  0  0  0
  -21.0838   -8.8760   19.8958 H   0  0  0  0  0  0
  -22.3713  -10.9637   19.6145 H   0  0  0  0  0  0
  -21.2053   -7.6138   23.9702 H   0  0  0  0  0  0
  -21.1493   -6.0515   25.9061 H   0  0  0  0  0  0
  -22.0593   -2.7593   23.2836 H   0  0  0  0  0  0
  -22.4081  -11.9851   22.4862 H   0  0  0  0  0  0
  -21.1027  -13.1136   22.2693 H   0  0  0  0  0  0
  -24.6299  -15.8422   20.5157 H   0  0  0  0  0  0
  -26.2328  -15.6338   20.0310 H   0  0  0  0  0  0
  -26.7303  -32.5269   23.0991 H   0  0  0  0  0  0
  -25.0066  -33.9590   25.0291 H   0  0  0  0  0  0
  -22.7600  -31.2844   21.3703 H   0  0  0  0  0  0
  -23.3764  -35.9581   23.3269 H   0  0  0  0  0  0
  -24.3586  -36.8927   22.2070 H   0  0  0  0  0  0
  -23.7237  -37.6437   23.6707 H   0  0  0  0  0  0
  -26.1749  -31.4434   20.6127 H   0  0  0  0  0  0
  -26.8839  -30.7524   22.0343 H   0  0  0  0  0  0
  -28.1354  -28.7413   21.2560 H   0  0  0  0  0  0
  -25.9070  -25.8275   18.9847 H   0  0  0  0  0  0
  -23.9916  -27.2972   18.9604 H   0  0  0  0  0  0
  -23.8308  -30.5570   19.3943 H   0  0  0  0  0  0
  -22.7982  -29.2316   19.8366 H   0  0  0  0  0  0
  -25.1309  -36.1847   25.0810 H   0  0  0  0  0  0
  -21.0041  -28.3328   24.1340 H   0  0  0  0  0  0
  -20.5682  -26.2342   23.3631 H   0  0  0  0  0  0
  -21.6661  -26.7409   22.1206 H   0  0  0  0  0  0
  -19.6912  -25.6275   21.1267 H   0  0  0  0  0  0
  -19.6698  -27.3167   20.6736 H   0  0  0  0  0  0
  -17.4216  -26.6689   21.4044 H   0  0  0  0  0  0
  -18.0344  -26.0091   22.9037 H   0  0  0  0  0  0
  -19.7957  -30.7303   24.2242 H   0  0  0  0  0  0
  -17.5019  -31.6261   24.5166 H   0  0  0  0  0  0
  -15.5363  -30.2960   23.7653 H   0  0  0  0  0  0
  -15.8717  -28.0797   22.7065 H   0  0  0  0  0  0
  -24.5834  -30.7150   25.7691 H   0  0  0  0  0  0
  -24.8866  -32.2966   26.4766 H   0  0  0  0  0  0
  -25.7908  -30.8960   27.0207 H   0  0  0  0  0  0
  -26.3017  -29.6675   24.1318 H   0  0  0  0  0  0
  -27.3974  -29.7281   25.4918 H   0  0  0  0  0  0
  -27.8935  -30.4205   23.9676 H   0  0  0  0  0  0
  -27.2642  -33.3652   26.2035 H   0  0  0  0  0  0
  -28.3876  -32.6863   25.0346 H   0  0  0  0  0  0
  -28.0686  -31.8487   26.5452 H   0  0  0  0  0  0
  -28.2560  -38.0114   24.7533 H   0  0  0  0  0  0
  -28.1113  -36.2642   24.6232 H   0  0  0  0  0  0
  -27.2308  -37.1373   25.8859 H   0  0  0  0  0  0
  -20.9499  -29.8769   21.6775 H   0  0  0  0  0  0
  -26.0145  -38.2808   24.1417 H   0  0  0  0  0  0
  -31.9583  -18.2597   20.2787 H   0  0  0  0  0  0
  -27.7134  -18.5946   20.6548 H   0  0  0  0  0  0
  -27.6015  -21.3911   20.0346 H   0  0  0  0  0  0
  -28.2373  -21.5749   21.6129 H   0  0  0  0  0  0
  -27.5942  -24.4365   21.3892 H   0  0  0  0  0  0
  -27.1325  -24.2741   19.7501 H   0  0  0  0  0  0
  -28.7077  -15.8586   20.7242 H   0  0  0  0  0  0
  1 25  1  0  0  0
  1 30  2  0  0  0
  1 80  1  0  0  0
  2  3  1  0  0  0
  2 25  1  0  0  0
  2 85  1  0  0  0
  2 86  1  0  0  0
  3  4  1  0  0  0
  3 87  1  0  0  0
  3 88  1  0  0  0
  4  5  1  0  0  0
  4 89  1  0  0  0
  4 90  1  0  0  0
  5  6  1  0  0  0
  5 26  1  0  0  0
  5 91  1  0  0  0
  6 25  1  0  0  0
  6 92  1  0  0  0
  6 93  1  0  0  0
  7  8  2  0  0  0
  7 26  1  0  0  0
  7 29  1  0  0  0
  8  9  1  0  0  0
  8 22  1  0  0  0
  9 10  1  0  0  0
  9 27  2  0  0  0
 10 11  2  0  0  0
 10 15  1  0  0  0
 11 12  1  0  0  0
 11 94  1  0  0  0
 12 13  2  0  0  0
 12 95  1  0  0  0
 13 14  1  0  0  0
 13 31  1  0  0  0
 14 15  2  0  0  0
 14 96  1  0  0  0
 15 97  1  0  0  0
 16 17  2  0  0  0
 16 21  1  0  0  0
 16 31  1  0  0  0
 17 18  1  0  0  0
 17 98  1  0  0  0
 18 19  2  0  0  0
 18 99  1  0  0  0
 19 20  1  0  0  0
 19 24  1  0  0  0
 20 21  2  0  0  0
 20100  1  0  0  0
 21 23  1  0  0  0
 22 28  1  0  0  0
 22 32  2  0  0  0
 26 27  1  0  0  0
 28101  1  0  0  0
 28102  1  0  0  0
 29103  1  0  0  0
 29104  1  0  0  0
 33 34  1  0  0  0
 33 66  1  0  0  0
 33 70  2  0  0  0
 34 36  1  0  0  0
 34 59  1  0  0  0
 34105  1  0  0  0
 35 44  2  0  0  0
 35 45  1  0  0  0
 35 68  1  0  0  0
 36 56  1  0  0  0
 36106  1  0  0  0
 37 39  1  0  0  0
 37 47  1  0  0  0
 37 66  1  0  0  0
 37107  1  0  0  0
 38 43  2  0  0  0
 38 46  1  0  0  0
 38 47  1  0  0  0
 39 64  1  0  0  0
 39 67  2  0  0  0
 40 52  1  0  0  0
 40 53  2  0  0  0
 40 58  1  0  0  0
 41108  1  0  0  0
 41109  1  0  0  0
 41110  1  0  0  0
 41 48  1  0  0  0
 42 43  1  0  0  0
 42 66  1  0  0  0
 42111  1  0  0  0
 42112  1  0  0  0
 43 44  1  0  0  0
 44113  1  0  0  0
 45 46  2  0  0  0
 45114  1  0  0  0
 46115  1  0  0  0
 47116  1  0  0  0
 47117  1  0  0  0
 48 56  1  0  0  0
 48 65  1  0  0  0
 48118  1  0  0  0
 49 50  1  0  0  0
 49 53  1  0  0  0
 49 64  1  0  0  0
 49119  1  0  0  0
 50 51  1  0  0  0
 50120  1  0  0  0
 50121  1  0  0  0
 51 52  1  0  0  0
 51122  1  0  0  0
 51123  1  0  0  0
 52124  1  0  0  0
 52125  1  0  0  0
 53 54  1  0  0  0
 54 55  2  0  0  0
 54126  1  0  0  0
 55 57  1  0  0  0
 55127  1  0  0  0
 56 69  2  0  0  0
 57 58  2  0  0  0
 57128  1  0  0  0
 58129  1  0  0  0
 59 60  1  0  0  0
 59 61  1  0  0  0
 59 62  1  0  0  0
 60130  1  0  0  0
 60131  1  0  0  0
 60132  1  0  0  0
 61133  1  0  0  0
 61134  1  0  0  0
 61135  1  0  0  0
 62136  1  0  0  0
 62137  1  0  0  0
 62138  1  0  0  0
 63 65  1  0  0  0
 63139  1  0  0  0
 63140  1  0  0  0
 63141  1  0  0  0
 64142  1  0  0  0
 65143  1  0  0  0
 68 75  1  0  0  0
 71 73  1  0  0  0
 71 78  2  0  0  0
 71144  1  0  0  0
 72 73  2  0  0  0
 72 79  1  0  0  0
 72145  1  0  0  0
 73 80  1  0  0  0
 74 76  1  0  0  0
 74 79  1  0  0  0
 74146  1  0  0  0
 74147  1  0  0  0
 75 76  1  0  0  0
 75148  1  0  0  0
 75149  1  0  0  0
 76 77  1  0  0  0
 76 81  1  0  0  0
 77 82  1  0  0  0
 77 83  1  0  0  0
 77 84  1  0  0  0
 78 79  1  0  0  0
 80150  1  0  0  0
M  ISO  4   1 100  68 101  75 101  80 100
M  END
> <chiral flag>
0

> <version>
0

> <s_m_source_file>
/data/baiqing/PycharmProjects/Reinvent-master-3.2/result/LINK_invent/BTK/process_docking_weight1_custom_product_contain_oxygen_bond_distance_aromatic_linkinvent_7_9_3/rearranged_h_0184.sdf

> <i_m_source_file_index>
94

> <r_mmod_Potential_Energy-OPLS-2005>
643.7705078125

> <r_mmod_Stretch_Energy-OPLS-2005>
320.689208984375

> <r_mmod_Bend_Energy-OPLS-2005>
313.531036376953

> <r_mmod_Torsional_Energy-OPLS-2005>
221.779983520508

> <r_mmod_Improper_Torsional_Energy-OPLS-2005>
4.61195373535156

> <r_mmod_Van_der_Waal_Energy-OPLS-2005>
108.399772644043

> <r_mmod_Electrostatic_Energy-OPLS-2005>
-330.281066894531

> <r_mmod_Solvation_Energy-OPLS-2005>
-234.631896972656

> <b_mmod_Minimization_Converged-OPLS-2005>
0

> <r_mmod_RMS_Derivative-OPLS-2005>
2.57583522796631

$$$$
94
                    3D
 Structure written by MMmdl.
148156  0  0  1  0            999 V2000
  -30.5654  -14.8146   20.4552 C   0  0  0  0  0  0
  -30.4399  -12.4923   19.4948 C   0  0  0  0  0  0
  -29.5223  -12.5230   18.2508 C   0  0  0  0  0  0
  -28.0472  -12.3333   18.6554 C   0  0  0  0  0  0
  -27.6409  -13.2374   19.8490 C   0  0  2  0  0  0
  -28.6793  -13.1857   20.9877 C   0  0  0  0  0  0
  -25.2510  -13.8202   20.5693 C   0  0  0  0  0  0
  -24.1796  -13.0442   20.9182 C   0  0  0  0  0  0
  -24.6392  -11.6920   20.8723 C   0  0  0  0  0  0
  -23.9068  -10.4293   21.0390 C   0  0  0  0  0  0
  -24.3617   -9.4211   21.9175 C   0  0  0  0  0  0
  -23.6293   -8.2246   22.0750 C   0  0  0  0  0  0
  -22.4277   -8.0280   21.3541 C   0  0  0  0  0  0
  -21.9909   -9.0251   20.4642 C   0  0  0  0  0  0
  -22.7235  -10.2131   20.3045 C   0  0  0  0  0  0
  -21.6857   -6.0732   22.5277 C   0  0  0  0  0  0
  -21.4017   -6.5635   23.8210 C   0  0  0  0  0  0
  -21.3660   -5.6790   24.9173 C   0  0  0  0  0  0
  -21.6044   -4.3052   24.7226 C   0  0  0  0  0  0
  -21.8819   -3.8144   23.4347 C   0  0  0  0  0  0
  -21.9193   -4.6959   22.3402 C   0  0  0  0  0  0
  -22.7819  -13.5220   21.1860 C   0  0  0  0  0  0
  -22.1661   -4.2141   21.0982 F   0  0  0  0  0  0
  -21.5628   -3.4538   25.7741 F   0  0  0  0  0  0
  -29.9811  -13.5597   20.4207 N   0  0  0  0  0  0
  -26.2932  -12.9415   20.3257 N   0  0  0  0  0  0
  -25.9321  -11.6549   20.5715 N   0  0  0  0  0  0
  -22.0478  -12.8204   22.0422 N   0  0  0  0  0  0
  -25.4245  -15.1926   20.4167 N   0  0  0  0  0  0
  -31.7409  -14.8983   20.0898 O   0  0  0  0  0  0
  -21.6644   -6.8877   21.4239 O   0  0  0  0  0  0
  -22.3494  -14.5526   20.6713 O   0  0  0  0  0  0
  -24.6355  -31.8501   23.1916 C   0  0  0  0  0  0
  -25.9162  -32.4729   23.8285 C   0  0  1  0  0  0
  -27.2268  -27.2167   20.1320 C   0  0  0  0  0  0
  -25.5950  -33.8532   24.2213 N   0  0  0  0  0  0
  -23.4344  -30.4693   21.5356 C   0  0  2  0  0  0
  -24.8810  -28.9040   20.1070 C   0  0  0  0  0  0
  -22.7524  -29.4575   22.4887 C   0  0  0  0  0  0
  -18.0296  -28.1393   22.8490 C   0  0  0  0  0  0
  -24.1486  -36.7263   23.2640 C   0  0  0  0  0  0
  -25.9814  -30.7489   21.3757 C   0  0  0  0  0  0
  -26.0520  -29.3672   20.7170 C   0  0  0  0  0  0
  -27.2213  -28.5361   20.7147 C   0  0  0  0  0  0
  -26.0231  -26.8177   19.5137 C   0  0  0  0  0  0
  -24.8744  -27.6396   19.4942 C   0  0  0  0  0  0
  -23.6536  -29.7969   20.1535 C   0  0  0  0  0  0
  -25.4119  -36.3053   24.0318 C   0  0  1  0  0  0
  -20.5902  -28.3711   23.1256 C   0  0  2  0  0  0
  -20.6782  -26.9423   22.5407 C   0  0  0  0  0  0
  -19.5758  -26.6382   21.5218 C   0  0  0  0  0  0
  -18.1939  -26.7935   22.1626 C   0  0  0  0  0  0
  -19.1551  -28.8869   23.2868 C   0  0  0  0  0  0
  -18.9471  -30.1466   23.8890 C   0  0  0  0  0  0
  -17.6472  -30.6597   24.0563 C   0  0  0  0  0  0
  -25.9065  -34.9428   23.5069 C   0  0  0  0  0  0
  -16.5363  -29.9092   23.6339 C   0  0  0  0  0  0
  -16.7282  -28.6507   23.0366 C   0  0  0  0  0  0
  -26.4511  -31.6584   25.0708 C   0  0  0  0  0  0
  -25.3718  -31.3756   26.1421 C   0  0  0  0  0  0
  -27.0369  -30.2996   24.6234 C   0  0  0  0  0  0
  -27.6047  -32.4351   25.7484 C   0  0  0  0  0  0
  -27.5573  -37.1786   24.8469 C   0  0  0  0  0  0
  -21.4227  -29.3048   22.3635 N   0  0  0  0  0  0
  -26.4284  -37.3766   23.9414 N   0  0  0  0  0  0
  -24.7032  -31.0424   22.0907 N   0  0  0  0  0  0
  -23.4200  -28.8133   23.3020 O   0  0  0  0  0  0
  -28.3480  -26.3466   20.2396 O   0  0  0  0  0  0
  -26.5645  -34.8916   22.4639 O   0  0  0  0  0  0
  -23.5494  -32.1343   23.7185 O   0  0  0  0  0  0
  -27.8576  -20.5221   21.3652 C   0  0  0  0  0  0
  -28.8256  -20.9633   20.4934 C   0  0  0  0  0  0
  -29.3276  -18.5822   20.6142 C   0  0  0  0  0  0
  -30.0177  -17.2001   20.3856 C   0  0  0  0  0  0
  -28.2752  -23.5842   20.3747 C   0  0  0  0  0  0
  -28.2315  -24.9188   18.1119 C   0  0  0  0  0  0
  -28.5982  -24.9797   19.6045 C   0  0  2  0  0  0
  -29.6467  -19.8294   20.0867 N   0  0  0  0  0  0
  -29.7243  -15.9561   20.7705 N   0  0  0  0  0  0
  -28.9495  -22.3939   20.0493 N   0  0  0  0  0  0
  -27.4147  -23.6074   21.2590 O   0  0  0  0  0  0
  -27.9301  -18.7801   21.6794 S   0  0  0  0  0  0
  -31.4811  -12.6199   19.1944 H   0  0  0  0  0  0
  -30.3922  -11.5179   19.9840 H   0  0  0  0  0  0
  -29.8197  -11.7492   17.5418 H   0  0  0  0  0  0
  -29.6400  -13.4760   17.7328 H   0  0  0  0  0  0
  -27.9127  -11.2855   18.9252 H   0  0  0  0  0  0
  -27.3927  -12.5152   17.8021 H   0  0  0  0  0  0
  -27.6329  -14.2580   19.4651 H   0  0  0  0  0  0
  -28.7239  -12.1888   21.4292 H   0  0  0  0  0  0
  -28.3974  -13.8646   21.7943 H   0  0  0  0  0  0
  -25.2761   -9.5690   22.4749 H   0  0  0  0  0  0
  -24.0000   -7.4640   22.7469 H   0  0  0  0  0  0
  -21.0839   -8.8764   19.8951 H   0  0  0  0  0  0
  -22.3687  -10.9666   19.6153 H   0  0  0  0  0  0
  -21.2012   -7.6144   23.9710 H   0  0  0  0  0  0
  -21.1483   -6.0522   25.9074 H   0  0  0  0  0  0
  -22.0599   -2.7605   23.2852 H   0  0  0  0  0  0
  -22.4113  -11.9869   22.4799 H   0  0  0  0  0  0
  -21.1096  -13.1219   22.2637 H   0  0  0  0  0  0
  -24.6718  -15.8600   20.5429 H   0  0  0  0  0  0
  -26.3012  -15.6249   20.1520 H   0  0  0  0  0  0
  -26.7223  -32.5363   23.1015 H   0  0  0  0  0  0
  -25.0133  -33.9665   25.0385 H   0  0  0  0  0  0
  -22.7334  -31.2933   21.3851 H   0  0  0  0  0  0
  -23.3767  -35.9580   23.3305 H   0  0  0  0  0  0
  -24.3572  -36.8892   22.2056 H   0  0  0  0  0  0
  -23.7220  -37.6448   23.6674 H   0  0  0  0  0  0
  -26.1251  -31.5065   20.6040 H   0  0  0  0  0  0
  -26.8567  -30.7977   22.0123 H   0  0  0  0  0  0
  -28.1181  -28.8875   21.2051 H   0  0  0  0  0  0
  -25.9281  -25.8329   19.0882 H   0  0  0  0  0  0
  -23.9713  -27.2727   19.0266 H   0  0  0  0  0  0
  -23.7820  -30.5709   19.3961 H   0  0  0  0  0  0
  -22.7701  -29.2336   19.8479 H   0  0  0  0  0  0
  -25.1298  -36.1884   25.0809 H   0  0  0  0  0  0
  -20.9996  -28.3298   24.1377 H   0  0  0  0  0  0
  -20.5695  -26.2325   23.3621 H   0  0  0  0  0  0
  -21.6646  -26.7447   22.1195 H   0  0  0  0  0  0
  -19.6927  -25.6289   21.1263 H   0  0  0  0  0  0
  -19.6692  -27.3182   20.6741 H   0  0  0  0  0  0
  -17.4208  -26.6694   21.4027 H   0  0  0  0  0  0
  -18.0331  -26.0063   22.9006 H   0  0  0  0  0  0
  -19.7945  -30.7286   24.2256 H   0  0  0  0  0  0
  -17.5027  -31.6280   24.5161 H   0  0  0  0  0  0
  -15.5366  -30.2999   23.7662 H   0  0  0  0  0  0
  -15.8680  -28.0822   22.7096 H   0  0  0  0  0  0
  -24.5890  -30.7111   25.7743 H   0  0  0  0  0  0
  -24.8919  -32.2938   26.4820 H   0  0  0  0  0  0
  -25.8014  -30.8942   27.0216 H   0  0  0  0  0  0
  -26.2960  -29.6735   24.1249 H   0  0  0  0  0  0
  -27.4024  -29.7277   25.4774 H   0  0  0  0  0  0
  -27.8849  -30.4263   23.9499 H   0  0  0  0  0  0
  -27.2635  -33.3667   26.2013 H   0  0  0  0  0  0
  -28.3871  -32.6897   25.0320 H   0  0  0  0  0  0
  -28.0708  -31.8524   26.5441 H   0  0  0  0  0  0
  -28.2586  -38.0089   24.7521 H   0  0  0  0  0  0
  -28.1071  -36.2617   24.6285 H   0  0  0  0  0  0
  -27.2295  -37.1417   25.8874 H   0  0  0  0  0  0
  -20.9432  -29.8752   21.6810 H   0  0  0  0  0  0
  -26.0158  -38.2834   24.1436 H   0  0  0  0  0  0
  -27.0881  -21.1095   21.8476 H   0  0  0  0  0  0
  -30.9238  -17.3263   19.7859 H   0  0  0  0  0  0
  -27.2034  -24.6033   17.9437 H   0  0  0  0  0  0
  -28.8622  -24.1952   17.5952 H   0  0  0  0  0  0
  -28.3862  -25.8839   17.6291 H   0  0  0  0  0  0
  -29.6888  -24.9756   19.6044 H   0  0  0  0  0  0
  -29.6618  -22.5353   19.3473 H   0  0  0  0  0  0
  1 25  1  0  0  0
  1 30  2  0  0  0
  1 79  1  0  0  0
  2  3  1  0  0  0
  2 25  1  0  0  0
  2 83  1  0  0  0
  2 84  1  0  0  0
  3  4  1  0  0  0
  3 85  1  0  0  0
  3 86  1  0  0  0
  4  5  1  0  0  0
  4 87  1  0  0  0
  4 88  1  0  0  0
  5  6  1  0  0  0
  5 26  1  0  0  0
  5 89  1  0  0  0
  6 25  1  0  0  0
  6 90  1  0  0  0
  6 91  1  0  0  0
  7  8  2  0  0  0
  7 26  1  0  0  0
  7 29  1  0  0  0
  8  9  1  0  0  0
  8 22  1  0  0  0
  9 10  1  0  0  0
  9 27  2  0  0  0
 10 11  2  0  0  0
 10 15  1  0  0  0
 11 12  1  0  0  0
 11 92  1  0  0  0
 12 13  2  0  0  0
 12 93  1  0  0  0
 13 14  1  0  0  0
 13 31  1  0  0  0
 14 15  2  0  0  0
 14 94  1  0  0  0
 15 95  1  0  0  0
 16 17  2  0  0  0
 16 21  1  0  0  0
 16 31  1  0  0  0
 17 18  1  0  0  0
 17 96  1  0  0  0
 18 19  2  0  0  0
 18 97  1  0  0  0
 19 20  1  0  0  0
 19 24  1  0  0  0
 20 21  2  0  0  0
 20 98  1  0  0  0
 21 23  1  0  0  0
 22 28  1  0  0  0
 22 32  2  0  0  0
 26 27  1  0  0  0
 28 99  1  0  0  0
 28100  1  0  0  0
 29101  1  0  0  0
 29102  1  0  0  0
 33 34  1  0  0  0
 33 66  1  0  0  0
 33 70  2  0  0  0
 34 36  1  0  0  0
 34 59  1  0  0  0
 34103  1  0  0  0
 35 44  2  0  0  0
 35 45  1  0  0  0
 35 68  1  0  0  0
 36 56  1  0  0  0
 36104  1  0  0  0
 37 39  1  0  0  0
 37 47  1  0  0  0
 37 66  1  0  0  0
 37105  1  0  0  0
 38 43  2  0  0  0
 38 46  1  0  0  0
 38 47  1  0  0  0
 39 64  1  0  0  0
 39 67  2  0  0  0
 40 52  1  0  0  0
 40 53  2  0  0  0
 40 58  1  0  0  0
 41106  1  0  0  0
 41107  1  0  0  0
 41108  1  0  0  0
 41 48  1  0  0  0
 42 43  1  0  0  0
 42 66  1  0  0  0
 42109  1  0  0  0
 42110  1  0  0  0
 43 44  1  0  0  0
 44111  1  0  0  0
 45 46  2  0  0  0
 45112  1  0  0  0
 46113  1  0  0  0
 47114  1  0  0  0
 47115  1  0  0  0
 48 56  1  0  0  0
 48 65  1  0  0  0
 48116  1  0  0  0
 49 50  1  0  0  0
 49 53  1  0  0  0
 49 64  1  0  0  0
 49117  1  0  0  0
 50 51  1  0  0  0
 50118  1  0  0  0
 50119  1  0  0  0
 51 52  1  0  0  0
 51120  1  0  0  0
 51121  1  0  0  0
 52122  1  0  0  0
 52123  1  0  0  0
 53 54  1  0  0  0
 54 55  2  0  0  0
 54124  1  0  0  0
 55 57  1  0  0  0
 55125  1  0  0  0
 56 69  2  0  0  0
 57 58  2  0  0  0
 57126  1  0  0  0
 58127  1  0  0  0
 59 60  1  0  0  0
 59 61  1  0  0  0
 59 62  1  0  0  0
 60128  1  0  0  0
 60129  1  0  0  0
 60130  1  0  0  0
 61131  1  0  0  0
 61132  1  0  0  0
 61133  1  0  0  0
 62134  1  0  0  0
 62135  1  0  0  0
 62136  1  0  0  0
 63 65  1  0  0  0
 63137  1  0  0  0
 63138  1  0  0  0
 63139  1  0  0  0
 64140  1  0  0  0
 65141  1  0  0  0
 68 77  1  0  0  0
 71 72  2  0  0  0
 71 82  1  0  0  0
 71142  1  0  0  0
 72 78  1  0  0  0
 72 80  1  0  0  0
 73 74  1  0  0  0
 73 78  2  0  0  0
 73 82  1  0  0  0
 74 79  2  0  0  0
 74143  1  0  0  0
 75 77  1  0  0  0
 75 80  1  0  0  0
 75 81  2  0  0  0
 76144  1  0  0  0
 76145  1  0  0  0
 76146  1  0  0  0
 76 77  1  0  0  0
 77147  1  0  0  0
 80148  1  0  0  0
M  ISO  4   1 100  68 101  77 101  79 100
M  END
> <chiral flag>
0

> <version>
0

> <s_m_source_file>
/data/baiqing/PycharmProjects/Reinvent-master-3.2/result/LINK_invent/BTK/process_docking_weight1_custom_product_contain_oxygen_bond_distance_aromatic_linkinvent_7_9_3/rearranged_h_0184.sdf

> <i_m_source_file_index>
95

> <r_mmod_Potential_Energy-OPLS-2005>
189.005020141602

> <r_mmod_Stretch_Energy-OPLS-2005>
161.564239501953

> <r_mmod_Bend_Energy-OPLS-2005>
220.029891967773

> <r_mmod_Torsional_Energy-OPLS-2005>
174.604644775391

> <r_mmod_Improper_Torsional_Energy-OPLS-2005>
3.33584594726562

> <r_mmod_Van_der_Waal_Energy-OPLS-2005>
116.625465393066

> <r_mmod_Electrostatic_Energy-OPLS-2005>
-383.172088623047

> <r_mmod_Solvation_Energy-OPLS-2005>
-215.614547729492

> <b_mmod_Minimization_Converged-OPLS-2005>
0

> <r_mmod_RMS_Derivative-OPLS-2005>
0.951027810573578

$$$$
95
                    3D
 Structure written by MMmdl.
149157  0  0  1  0            999 V2000
  -30.4555  -15.3267   20.3878 C   0  0  0  0  0  0
  -30.4253  -12.8612   19.5394 C   0  0  0  0  0  0
  -29.5343  -12.5932   18.3018 C   0  0  0  0  0  0
  -28.0975  -12.2835   18.7486 C   0  0  0  0  0  0
  -27.6073  -13.2811   19.8269 C   0  0  2  0  0  0
  -28.6346  -13.5140   20.9580 C   0  0  0  0  0  0
  -25.2386  -13.8252   20.5809 C   0  0  0  0  0  0
  -24.1734  -13.0440   20.9269 C   0  0  0  0  0  0
  -24.6399  -11.6938   20.8771 C   0  0  0  0  0  0
  -23.9101  -10.4297   21.0409 C   0  0  0  0  0  0
  -24.3639   -9.4214   21.9190 C   0  0  0  0  0  0
  -23.6308   -8.2253   22.0751 C   0  0  0  0  0  0
  -22.4290   -8.0291   21.3551 C   0  0  0  0  0  0
  -21.9931   -9.0263   20.4647 C   0  0  0  0  0  0
  -22.7271  -10.2138   20.3061 C   0  0  0  0  0  0
  -21.6854   -6.0734   22.5288 C   0  0  0  0  0  0
  -21.4020   -6.5639   23.8218 C   0  0  0  0  0  0
  -21.3660   -5.6793   24.9184 C   0  0  0  0  0  0
  -21.6046   -4.3057   24.7236 C   0  0  0  0  0  0
  -21.8815   -3.8147   23.4352 C   0  0  0  0  0  0
  -21.9195   -4.6959   22.3412 C   0  0  0  0  0  0
  -22.7763  -13.5193   21.1914 C   0  0  0  0  0  0
  -22.1667   -4.2142   21.0988 F   0  0  0  0  0  0
  -21.5622   -3.4538   25.7746 F   0  0  0  0  0  0
  -29.8554  -14.0311   20.3179 N   0  0  0  0  0  0
  -26.2808  -12.9540   20.3302 N   0  0  0  0  0  0
  -25.9341  -11.6637   20.5756 N   0  0  0  0  0  0
  -22.0448  -12.8150   22.0465 N   0  0  0  0  0  0
  -25.4032  -15.1982   20.4267 N   0  0  0  0  0  0
  -31.6751  -15.2327   20.1731 O   0  0  0  0  0  0
  -21.6659   -6.8881   21.4252 O   0  0  0  0  0  0
  -22.3448  -14.5521   20.6790 O   0  0  0  0  0  0
  -24.6636  -31.8223   23.1689 C   0  0  0  0  0  0
  -25.9299  -32.4593   23.8156 C   0  0  1  0  0  0
  -27.2153  -26.9026   20.1949 C   0  0  0  0  0  0
  -25.5958  -33.8408   24.2069 N   0  0  0  0  0  0
  -23.4806  -30.4321   21.5193 C   0  0  2  0  0  0
  -24.9343  -28.8153   20.1117 C   0  0  0  0  0  0
  -22.7682  -29.4425   22.4791 C   0  0  0  0  0  0
  -18.0337  -28.1399   22.8495 C   0  0  0  0  0  0
  -24.1478  -36.7193   23.2656 C   0  0  0  0  0  0
  -26.0503  -30.6206   21.4039 C   0  0  0  0  0  0
  -26.1176  -29.2076   20.7494 C   0  0  0  0  0  0
  -27.2501  -28.2722   20.7681 C   0  0  0  0  0  0
  -26.0116  -26.6792   19.4879 C   0  0  0  0  0  0
  -24.9082  -27.5721   19.4597 C   0  0  0  0  0  0
  -23.7205  -29.7453   20.1468 C   0  0  0  0  0  0
  -25.4126  -36.2976   24.0312 C   0  0  1  0  0  0
  -20.5954  -28.3728   23.1202 C   0  0  2  0  0  0
  -20.6800  -26.9407   22.5420 C   0  0  0  0  0  0
  -19.5768  -26.6370   21.5231 C   0  0  0  0  0  0
  -18.1955  -26.7940   22.1635 C   0  0  0  0  0  0
  -19.1598  -28.8893   23.2836 C   0  0  0  0  0  0
  -18.9506  -30.1486   23.8856 C   0  0  0  0  0  0
  -17.6497  -30.6587   24.0555 C   0  0  0  0  0  0
  -25.9103  -34.9359   23.5022 C   0  0  0  0  0  0
  -16.5387  -29.9073   23.6347 C   0  0  0  0  0  0
  -16.7324  -28.6490   23.0386 C   0  0  0  0  0  0
  -26.4547  -31.6553   25.0688 C   0  0  0  0  0  0
  -25.3653  -31.3802   26.1330 C   0  0  0  0  0  0
  -27.0445  -30.2932   24.6398 C   0  0  0  0  0  0
  -27.6063  -32.4349   25.7468 C   0  0  0  0  0  0
  -27.5568  -37.1748   24.8481 C   0  0  0  0  0  0
  -21.4350  -29.3020   22.3545 N   0  0  0  0  0  0
  -26.4272  -37.3715   23.9431 N   0  0  0  0  0  0
  -24.7533  -30.9858   22.0839 N   0  0  0  0  0  0
  -23.4236  -28.8006   23.3041 O   0  0  0  0  0  0
  -28.2073  -25.7790   20.2909 O   0  0  0  0  0  0
  -26.5716  -34.8886   22.4615 O   0  0  0  0  0  0
  -23.5707  -32.1208   23.6768 O   0  0  0  0  0  0
  -32.3083  -19.5754   21.0864 C   0  0  0  0  0  0
  -29.9616  -19.6525   20.5466 C   0  0  0  0  0  0
  -31.2310  -20.3192   20.7604 C   0  0  0  0  0  0
  -30.2419  -18.1126   20.6138 C   0  0  0  0  0  0
  -28.8281  -20.8759   20.3144 C   0  0  0  0  0  0
  -26.8254  -23.8815   21.2354 C   0  0  0  0  0  0
  -29.0290  -22.6553   20.3591 C   0  0  0  0  0  0
  -27.9562  -24.1256   20.2238 C   0  0  2  0  0  0
  -29.7706  -16.6769   20.4639 N   0  0  0  0  0  0
  -27.6622  -20.5389   20.0883 O   0  0  0  0  0  0
  -31.4084  -21.6149   20.6765 F   0  0  0  0  0  0
  -31.8818  -17.9454   21.2610 S   0  0  0  0  0  0
  -31.4483  -13.0445   19.2065 H   0  0  0  0  0  0
  -30.4850  -11.9729   20.1703 H   0  0  0  0  0  0
  -29.9385  -11.7639   17.7195 H   0  0  0  0  0  0
  -29.5378  -13.4634   17.6434 H   0  0  0  0  0  0
  -28.1009  -11.2767   19.1688 H   0  0  0  0  0  0
  -27.4189  -12.2616   17.8955 H   0  0  0  0  0  0
  -27.5071  -14.2303   19.2990 H   0  0  0  0  0  0
  -28.8283  -12.6091   21.5364 H   0  0  0  0  0  0
  -28.2561  -14.2546   21.6650 H   0  0  0  0  0  0
  -25.2778   -9.5686   22.4769 H   0  0  0  0  0  0
  -24.0019   -7.4646   22.7457 H   0  0  0  0  0  0
  -21.0865   -8.8782   19.8943 H   0  0  0  0  0  0
  -22.3735  -10.9679   19.6166 H   0  0  0  0  0  0
  -21.2023   -7.6147   23.9720 H   0  0  0  0  0  0
  -21.1484   -6.0526   25.9085 H   0  0  0  0  0  0
  -22.0590   -2.7605   23.2863 H   0  0  0  0  0  0
  -22.4091  -11.9781   22.4788 H   0  0  0  0  0  0
  -21.1079  -13.1149   22.2741 H   0  0  0  0  0  0
  -24.6282  -15.8454   20.5188 H   0  0  0  0  0  0
  -26.2529  -15.6433   20.1071 H   0  0  0  0  0  0
  -26.7360  -32.5112   23.0863 H   0  0  0  0  0  0
  -25.0058  -33.9494   25.0191 H   0  0  0  0  0  0
  -22.7950  -31.2642   21.3475 H   0  0  0  0  0  0
  -23.3771  -35.9495   23.3297 H   0  0  0  0  0  0
  -24.3565  -36.8845   22.2077 H   0  0  0  0  0  0
  -23.7191  -37.6361   23.6711 H   0  0  0  0  0  0
  -26.2338  -31.3601   20.6227 H   0  0  0  0  0  0
  -26.9116  -30.6809   22.0574 H   0  0  0  0  0  0
  -28.1396  -28.5717   21.3044 H   0  0  0  0  0  0
  -25.8890  -25.7352   18.9784 H   0  0  0  0  0  0
  -24.0108  -27.2651   18.9403 H   0  0  0  0  0  0
  -23.8770  -30.5140   19.3895 H   0  0  0  0  0  0
  -22.8300  -29.2000   19.8291 H   0  0  0  0  0  0
  -25.1319  -36.1782   25.0805 H   0  0  0  0  0  0
  -21.0067  -28.3308   24.1310 H   0  0  0  0  0  0
  -20.5693  -26.2322   23.3641 H   0  0  0  0  0  0
  -21.6650  -26.7379   22.1198 H   0  0  0  0  0  0
  -19.6916  -25.6279   21.1259 H   0  0  0  0  0  0
  -19.6707  -27.3173   20.6746 H   0  0  0  0  0  0
  -17.4228  -26.6734   21.4022 H   0  0  0  0  0  0
  -18.0310  -26.0084   22.9020 H   0  0  0  0  0  0
  -19.7986  -30.7327   24.2190 H   0  0  0  0  0  0
  -17.5048  -31.6268   24.5152 H   0  0  0  0  0  0
  -15.5385  -30.2957   23.7698 H   0  0  0  0  0  0
  -15.8722  -28.0784   22.7132 H   0  0  0  0  0  0
  -24.5868  -30.7126   25.7608 H   0  0  0  0  0  0
  -24.8796  -32.2998   26.4609 H   0  0  0  0  0  0
  -25.7858  -30.9056   27.0203 H   0  0  0  0  0  0
  -26.3112  -29.6620   24.1366 H   0  0  0  0  0  0
  -27.3981  -29.7284   25.5035 H   0  0  0  0  0  0
  -27.9043  -30.4161   23.9807 H   0  0  0  0  0  0
  -27.2682  -33.3729   26.1883 H   0  0  0  0  0  0
  -28.3933  -32.6776   25.0311 H   0  0  0  0  0  0
  -28.0646  -31.8564   26.5499 H   0  0  0  0  0  0
  -28.2582  -38.0051   24.7540 H   0  0  0  0  0  0
  -28.1062  -36.2582   24.6287 H   0  0  0  0  0  0
  -27.2288  -37.1364   25.8885 H   0  0  0  0  0  0
  -20.9600  -29.8685   21.6649 H   0  0  0  0  0  0
  -26.0127  -38.2771   24.1458 H   0  0  0  0  0  0
  -33.3174  -19.9060   21.2922 H   0  0  0  0  0  0
  -26.4883  -22.8458   21.1957 H   0  0  0  0  0  0
  -25.9476  -24.4958   21.0428 H   0  0  0  0  0  0
  -27.1602  -24.0805   22.2527 H   0  0  0  0  0  0
  -29.7874  -22.8279   19.5953 H   0  0  0  0  0  0
  -29.5523  -22.8114   21.3022 H   0  0  0  0  0  0
  -27.5078  -24.0052   19.2377 H   0  0  0  0  0  0
  -28.7643  -16.5865   20.4606 H   0  0  0  0  0  0
  1 25  1  0  0  0
  1 30  2  0  0  0
  1 79  1  0  0  0
  2  3  1  0  0  0
  2 25  1  0  0  0
  2 83  1  0  0  0
  2 84  1  0  0  0
  3  4  1  0  0  0
  3 85  1  0  0  0
  3 86  1  0  0  0
  4  5  1  0  0  0
  4 87  1  0  0  0
  4 88  1  0  0  0
  5  6  1  0  0  0
  5 26  1  0  0  0
  5 89  1  0  0  0
  6 25  1  0  0  0
  6 90  1  0  0  0
  6 91  1  0  0  0
  7  8  2  0  0  0
  7 26  1  0  0  0
  7 29  1  0  0  0
  8  9  1  0  0  0
  8 22  1  0  0  0
  9 10  1  0  0  0
  9 27  2  0  0  0
 10 11  2  0  0  0
 10 15  1  0  0  0
 11 12  1  0  0  0
 11 92  1  0  0  0
 12 13  2  0  0  0
 12 93  1  0  0  0
 13 14  1  0  0  0
 13 31  1  0  0  0
 14 15  2  0  0  0
 14 94  1  0  0  0
 15 95  1  0  0  0
 16 17  2  0  0  0
 16 21  1  0  0  0
 16 31  1  0  0  0
 17 18  1  0  0  0
 17 96  1  0  0  0
 18 19  2  0  0  0
 18 97  1  0  0  0
 19 20  1  0  0  0
 19 24  1  0  0  0
 20 21  2  0  0  0
 20 98  1  0  0  0
 21 23  1  0  0  0
 22 28  1  0  0  0
 22 32  2  0  0  0
 26 27  1  0  0  0
 28 99  1  0  0  0
 28100  1  0  0  0
 29101  1  0  0  0
 29102  1  0  0  0
 33 34  1  0  0  0
 33 66  1  0  0  0
 33 70  2  0  0  0
 34 36  1  0  0  0
 34 59  1  0  0  0
 34103  1  0  0  0
 35 44  2  0  0  0
 35 45  1  0  0  0
 35 68  1  0  0  0
 36 56  1  0  0  0
 36104  1  0  0  0
 37 39  1  0  0  0
 37 47  1  0  0  0
 37 66  1  0  0  0
 37105  1  0  0  0
 38 43  2  0  0  0
 38 46  1  0  0  0
 38 47  1  0  0  0
 39 64  1  0  0  0
 39 67  2  0  0  0
 40 52  1  0  0  0
 40 53  2  0  0  0
 40 58  1  0  0  0
 41106  1  0  0  0
 41107  1  0  0  0
 41108  1  0  0  0
 41 48  1  0  0  0
 42 43  1  0  0  0
 42 66  1  0  0  0
 42109  1  0  0  0
 42110  1  0  0  0
 43 44  1  0  0  0
 44111  1  0  0  0
 45 46  2  0  0  0
 45112  1  0  0  0
 46113  1  0  0  0
 47114  1  0  0  0
 47115  1  0  0  0
 48 56  1  0  0  0
 48 65  1  0  0  0
 48116  1  0  0  0
 49 50  1  0  0  0
 49 53  1  0  0  0
 49 64  1  0  0  0
 49117  1  0  0  0
 50 51  1  0  0  0
 50118  1  0  0  0
 50119  1  0  0  0
 51 52  1  0  0  0
 51120  1  0  0  0
 51121  1  0  0  0
 52122  1  0  0  0
 52123  1  0  0  0
 53 54  1  0  0  0
 54 55  2  0  0  0
 54124  1  0  0  0
 55 57  1  0  0  0
 55125  1  0  0  0
 56 69  2  0  0  0
 57 58  2  0  0  0
 57126  1  0  0  0
 58127  1  0  0  0
 59 60  1  0  0  0
 59 61  1  0  0  0
 59 62  1  0  0  0
 60128  1  0  0  0
 60129  1  0  0  0
 60130  1  0  0  0
 61131  1  0  0  0
 61132  1  0  0  0
 61133  1  0  0  0
 62134  1  0  0  0
 62135  1  0  0  0
 62136  1  0  0  0
 63 65  1  0  0  0
 63137  1  0  0  0
 63138  1  0  0  0
 63139  1  0  0  0
 64140  1  0  0  0
 65141  1  0  0  0
 68 78  1  0  0  0
 71 73  2  0  0  0
 71 82  1  0  0  0
 71142  1  0  0  0
 72 73  1  0  0  0
 72 74  2  0  0  0
 72 75  1  0  0  0
 73 81  1  0  0  0
 74 79  1  0  0  0
 74 82  1  0  0  0
 75 77  1  0  0  0
 75 80  2  0  0  0
 76143  1  0  0  0
 76144  1  0  0  0
 76145  1  0  0  0
 76 78  1  0  0  0
 77 78  1  0  0  0
 77146  1  0  0  0
 77147  1  0  0  0
 78148  1  0  0  0
 79149  1  0  0  0
M  ISO  4   1 100  68 101  78 101  79 100
M  END
> <chiral flag>
0

> <version>
0

> <s_m_source_file>
/data/baiqing/PycharmProjects/Reinvent-master-3.2/result/LINK_invent/BTK/process_docking_weight1_custom_product_contain_oxygen_bond_distance_aromatic_linkinvent_7_9_3/rearranged_h_0184.sdf

> <i_m_source_file_index>
96

> <r_mmod_Potential_Energy-OPLS-2005>
1550.96411132812

> <r_mmod_Stretch_Energy-OPLS-2005>
708.11328125

> <r_mmod_Bend_Energy-OPLS-2005>
529.049255371094

> <r_mmod_Torsional_Energy-OPLS-2005>
225.01676940918

> <r_mmod_Improper_Torsional_Energy-OPLS-2005>
4.96257734298706

> <r_mmod_Van_der_Waal_Energy-OPLS-2005>
136.010345458984

> <r_mmod_Electrostatic_Energy-OPLS-2005>
-343.964263916016

> <r_mmod_Solvation_Energy-OPLS-2005>
-217.995727539062

> <b_mmod_Minimization_Converged-OPLS-2005>
0

> <r_mmod_RMS_Derivative-OPLS-2005>
2.99917793273926

$$$$
