0
                    3D
 Structure written by MMmdl.
157165  0  0  1  0            999 V2000
  -30.5669  -14.7596   20.4302 C   0  0  0  0  0  0
  -30.4337  -12.4525   19.4774 C   0  0  0  0  0  0
  -29.5120  -12.5001   18.2369 C   0  0  0  0  0  0
  -28.0392  -12.3231   18.6484 C   0  0  0  0  0  0
  -27.6421  -13.2275   19.8452 C   0  0  2  0  0  0
  -28.6801  -13.1468   20.9842 C   0  0  0  0  0  0
  -25.2508  -13.8169   20.5625 C   0  0  0  0  0  0
  -24.1800  -13.0435   20.9142 C   0  0  0  0  0  0
  -24.6410  -11.6913   20.8729 C   0  0  0  0  0  0
  -23.9094  -10.4284   21.0403 C   0  0  0  0  0  0
  -24.3611   -9.4193   21.9192 C   0  0  0  0  0  0
  -23.6258   -8.2241   22.0770 C   0  0  0  0  0  0
  -22.4245   -8.0297   21.3549 C   0  0  0  0  0  0
  -21.9886   -9.0289   20.4666 C   0  0  0  0  0  0
  -22.7250  -10.2156   20.3067 C   0  0  0  0  0  0
  -21.6856   -6.0725   22.5273 C   0  0  0  0  0  0
  -21.4026   -6.5619   23.8218 C   0  0  0  0  0  0
  -21.3649   -5.6770   24.9186 C   0  0  0  0  0  0
  -21.6030   -4.3027   24.7232 C   0  0  0  0  0  0
  -21.8819   -3.8127   23.4360 C   0  0  0  0  0  0
  -21.9187   -4.6942   22.3426 C   0  0  0  0  0  0
  -22.7833  -13.5235   21.1815 C   0  0  0  0  0  0
  -22.1660   -4.2137   21.0996 F   0  0  0  0  0  0
  -21.5627   -3.4515   25.7747 F   0  0  0  0  0  0
  -29.9857  -13.5075   20.4191 N   0  0  0  0  0  0
  -26.2929  -12.9391   20.3204 N   0  0  0  0  0  0
  -25.9328  -11.6537   20.5698 N   0  0  0  0  0  0
  -22.0463  -12.8285   22.0412 N   0  0  0  0  0  0
  -25.4182  -15.1878   20.4098 N   0  0  0  0  0  0
  -31.7346  -14.8891   20.0533 O   0  0  0  0  0  0
  -21.6627   -6.8876   21.4243 O   0  0  0  0  0  0
  -22.3542  -14.5548   20.6652 O   0  0  0  0  0  0
  -24.6342  -31.8544   23.1948 C   0  0  0  0  0  0
  -25.9165  -32.4747   23.8289 C   0  0  1  0  0  0
  -27.2046  -27.2340   20.1285 C   0  0  0  0  0  0
  -25.5953  -33.8544   24.2234 N   0  0  0  0  0  0
  -23.4298  -30.4753   21.5432 C   0  0  2  0  0  0
  -24.8726  -28.9214   20.1049 C   0  0  0  0  0  0
  -22.7530  -29.4576   22.4927 C   0  0  0  0  0  0
  -18.0291  -28.1375   22.8456 C   0  0  0  0  0  0
  -24.1489  -36.7252   23.2640 C   0  0  0  0  0  0
  -25.9776  -30.7551   21.3784 C   0  0  0  0  0  0
  -26.0475  -29.3751   20.7210 C   0  0  0  0  0  0
  -27.2190  -28.5465   20.7173 C   0  0  0  0  0  0
  -26.0147  -26.8594   19.4725 C   0  0  0  0  0  0
  -24.8644  -27.6737   19.4652 C   0  0  0  0  0  0
  -23.6461  -29.8146   20.1558 C   0  0  0  0  0  0
  -25.4110  -36.3066   24.0332 C   0  0  1  0  0  0
  -20.5889  -28.3681   23.1263 C   0  0  2  0  0  0
  -20.6756  -26.9399   22.5401 C   0  0  0  0  0  0
  -19.5755  -26.6382   21.5186 C   0  0  0  0  0  0
  -18.1938  -26.7914   22.1580 C   0  0  0  0  0  0
  -19.1537  -28.8851   23.2851 C   0  0  0  0  0  0
  -18.9464  -30.1426   23.8907 C   0  0  0  0  0  0
  -17.6452  -30.6560   24.0590 C   0  0  0  0  0  0
  -25.9057  -34.9441   23.5089 C   0  0  0  0  0  0
  -16.5347  -29.9072   23.6325 C   0  0  0  0  0  0
  -16.7279  -28.6491   23.0353 C   0  0  0  0  0  0
  -26.4488  -31.6557   25.0682 C   0  0  0  0  0  0
  -25.3673  -31.3735   26.1378 C   0  0  0  0  0  0
  -27.0336  -30.2982   24.6152 C   0  0  0  0  0  0
  -27.6054  -32.4258   25.7433 C   0  0  0  0  0  0
  -27.5560  -37.1790   24.8472 C   0  0  0  0  0  0
  -21.4227  -29.3043   22.3688 N   0  0  0  0  0  0
  -26.4284  -37.3763   23.9407 N   0  0  0  0  0  0
  -24.7004  -31.0476   22.0938 N   0  0  0  0  0  0
  -23.4215  -28.8123   23.3035 O   0  0  0  0  0  0
  -28.2728  -26.3013   20.1492 O   0  0  0  0  0  0
  -26.5657  -34.8939   22.4674 O   0  0  0  0  0  0
  -23.5487  -32.1389   23.7226 O   0  0  0  0  0  0
  -29.3791  -18.4510   20.8541 C   0  0  0  0  0  0
  -28.8869  -19.6832   18.8094 C   0  0  0  0  0  0
  -29.1970  -18.4910   18.0858 C   0  0  0  0  0  0
  -29.0377  -19.7275   20.2275 C   0  0  0  0  0  0
  -29.6342  -17.2014   20.1512 C   0  0  0  0  0  0
  -29.5585  -17.2856   18.7423 C   0  0  0  0  0  0
  -27.0312  -21.1916   18.1807 C   0  0  0  0  0  0
  -28.3138  -20.8045   18.0528 C   0  0  0  0  0  0
  -28.5820  -22.2115   21.0468 C   0  0  0  0  0  0
  -29.0537  -18.4648   16.5653 C   0  0  0  0  0  0
  -28.7172  -23.5077   20.0983 C   0  0  0  0  0  0
  -27.9961  -24.8863   20.6282 C   0  0  0  0  0  0
  -28.7379  -20.8833   21.0757 N   0  0  0  0  0  0
  -29.7873  -15.8561   20.7860 N   0  0  0  0  0  0
  -29.7404  -16.1652   18.0008 F   0  0  0  0  0  0
  -31.4740  -12.5766   19.1756 H   0  0  0  0  0  0
  -30.3801  -11.4737   19.9528 H   0  0  0  0  0  0
  -29.7945  -11.7229   17.5249 H   0  0  0  0  0  0
  -29.6341  -13.4487   17.7129 H   0  0  0  0  0  0
  -27.8907  -11.2741   18.9166 H   0  0  0  0  0  0
  -27.3936  -12.5107   17.7923 H   0  0  0  0  0  0
  -27.6402  -14.2507   19.4659 H   0  0  0  0  0  0
  -28.7129  -12.1408   21.4019 H   0  0  0  0  0  0
  -28.4027  -13.8058   21.8073 H   0  0  0  0  0  0
  -25.2770   -9.5641   22.4761 H   0  0  0  0  0  0
  -23.9930   -7.4630   22.7521 H   0  0  0  0  0  0
  -21.0781   -8.8845   19.9016 H   0  0  0  0  0  0
  -22.3704  -10.9694   19.6171 H   0  0  0  0  0  0
  -21.2037   -7.6126   23.9721 H   0  0  0  0  0  0
  -21.1453   -6.0504   25.9086 H   0  0  0  0  0  0
  -22.0603   -2.7582   23.2880 H   0  0  0  0  0  0
  -22.4091  -11.9997   22.4863 H   0  0  0  0  0  0
  -21.1130  -13.1396   22.2697 H   0  0  0  0  0  0
  -24.6391  -15.8302   20.5033 H   0  0  0  0  0  0
  -26.2714  -15.6390   20.1092 H   0  0  0  0  0  0
  -26.7200  -32.5351   23.0989 H   0  0  0  0  0  0
  -25.0075  -33.9636   25.0360 H   0  0  0  0  0  0
  -22.7247  -31.2970   21.4025 H   0  0  0  0  0  0
  -23.3763  -35.9575   23.3324 H   0  0  0  0  0  0
  -24.3593  -36.8841   22.2055 H   0  0  0  0  0  0
  -23.7229  -37.6453   23.6637 H   0  0  0  0  0  0
  -26.1205  -31.5149   20.6090 H   0  0  0  0  0  0
  -26.8505  -30.8010   22.0147 H   0  0  0  0  0  0
  -28.1171  -28.8915   21.2078 H   0  0  0  0  0  0
  -25.9625  -25.9094   18.9596 H   0  0  0  0  0  0
  -23.9736  -27.3273   18.9586 H   0  0  0  0  0  0
  -23.7739  -30.5958   19.4047 H   0  0  0  0  0  0
  -22.7602  -29.2546   19.8503 H   0  0  0  0  0  0
  -25.1291  -36.1906   25.0823 H   0  0  0  0  0  0
  -20.9967  -28.3259   24.1381 H   0  0  0  0  0  0
  -20.5602  -26.2319   23.3623 H   0  0  0  0  0  0
  -21.6635  -26.7379   22.1245 H   0  0  0  0  0  0
  -19.6943  -25.6289   21.1248 H   0  0  0  0  0  0
  -19.6736  -27.3166   20.6703 H   0  0  0  0  0  0
  -17.4214  -26.6668   21.3966 H   0  0  0  0  0  0
  -18.0364  -26.0055   22.8973 H   0  0  0  0  0  0
  -19.7948  -30.7212   24.2287 H   0  0  0  0  0  0
  -17.5031  -31.6230   24.5223 H   0  0  0  0  0  0
  -15.5341  -30.2970   23.7654 H   0  0  0  0  0  0
  -15.8696  -28.0806   22.7034 H   0  0  0  0  0  0
  -24.5870  -30.7061   25.7680 H   0  0  0  0  0  0
  -24.8829  -32.2927   26.4701 H   0  0  0  0  0  0
  -25.7957  -30.8969   27.0209 H   0  0  0  0  0  0
  -26.2948  -29.6716   24.1152 H   0  0  0  0  0  0
  -27.4027  -29.7239   25.4650 H   0  0  0  0  0  0
  -27.8799  -30.4267   23.9405 H   0  0  0  0  0  0
  -27.2711  -33.3577   26.1993 H   0  0  0  0  0  0
  -28.3868  -32.6766   25.0244 H   0  0  0  0  0  0
  -28.0707  -31.8374   26.5351 H   0  0  0  0  0  0
  -28.2614  -38.0052   24.7495 H   0  0  0  0  0  0
  -28.1036  -36.2596   24.6334 H   0  0  0  0  0  0
  -27.2304  -37.1472   25.8887 H   0  0  0  0  0  0
  -20.9426  -29.8840   21.6943 H   0  0  0  0  0  0
  -26.0175  -38.2844   24.1383 H   0  0  0  0  0  0
  -29.4096  -18.4188   21.9347 H   0  0  0  0  0  0
  -26.6406  -22.0193   17.6051 H   0  0  0  0  0  0
  -26.3585  -20.6837   18.8584 H   0  0  0  0  0  0
  -28.9626  -21.3205   17.3597 H   0  0  0  0  0  0
  -28.2848  -22.6155   22.0184 H   0  0  0  0  0  0
  -29.7913  -19.1147   16.0970 H   0  0  0  0  0  0
  -28.0593  -18.7962   16.2646 H   0  0  0  0  0  0
  -29.1856  -17.4664   16.1466 H   0  0  0  0  0  0
  -28.3340  -23.2835   19.1075 H   0  0  0  0  0  0
  -29.7809  -23.6975   19.9692 H   0  0  0  0  0  0
  -28.1780  -24.9461   21.7019 H   0  0  0  0  0  0
  -26.9258  -24.6887   20.5665 H   0  0  0  0  0  0
  -28.9963  -15.5949   21.3542 H   0  0  0  0  0  0
  1 25  1  0  0  0
  1 30  2  0  0  0
  1 84  1  0  0  0
  2  3  1  0  0  0
  2 25  1  0  0  0
  2 86  1  0  0  0
  2 87  1  0  0  0
  3  4  1  0  0  0
  3 88  1  0  0  0
  3 89  1  0  0  0
  4  5  1  0  0  0
  4 90  1  0  0  0
  4 91  1  0  0  0
  5  6  1  0  0  0
  5 26  1  0  0  0
  5 92  1  0  0  0
  6 25  1  0  0  0
  6 93  1  0  0  0
  6 94  1  0  0  0
  7  8  2  0  0  0
  7 26  1  0  0  0
  7 29  1  0  0  0
  8  9  1  0  0  0
  8 22  1  0  0  0
  9 10  1  0  0  0
  9 27  2  0  0  0
 10 11  2  0  0  0
 10 15  1  0  0  0
 11 12  1  0  0  0
 11 95  1  0  0  0
 12 13  2  0  0  0
 12 96  1  0  0  0
 13 14  1  0  0  0
 13 31  1  0  0  0
 14 15  2  0  0  0
 14 97  1  0  0  0
 15 98  1  0  0  0
 16 17  2  0  0  0
 16 21  1  0  0  0
 16 31  1  0  0  0
 17 18  1  0  0  0
 17 99  1  0  0  0
 18 19  2  0  0  0
 18100  1  0  0  0
 19 20  1  0  0  0
 19 24  1  0  0  0
 20 21  2  0  0  0
 20101  1  0  0  0
 21 23  1  0  0  0
 22 28  1  0  0  0
 22 32  2  0  0  0
 26 27  1  0  0  0
 28102  1  0  0  0
 28103  1  0  0  0
 29104  1  0  0  0
 29105  1  0  0  0
 33 34  1  0  0  0
 33 66  1  0  0  0
 33 70  2  0  0  0
 34 36  1  0  0  0
 34 59  1  0  0  0
 34106  1  0  0  0
 35 44  2  0  0  0
 35 45  1  0  0  0
 35 68  1  0  0  0
 36 56  1  0  0  0
 36107  1  0  0  0
 37 39  1  0  0  0
 37 47  1  0  0  0
 37 66  1  0  0  0
 37108  1  0  0  0
 38 43  2  0  0  0
 38 46  1  0  0  0
 38 47  1  0  0  0
 39 64  1  0  0  0
 39 67  2  0  0  0
 40 52  1  0  0  0
 40 53  2  0  0  0
 40 58  1  0  0  0
 41109  1  0  0  0
 41110  1  0  0  0
 41111  1  0  0  0
 41 48  1  0  0  0
 42 43  1  0  0  0
 42 66  1  0  0  0
 42112  1  0  0  0
 42113  1  0  0  0
 43 44  1  0  0  0
 44114  1  0  0  0
 45 46  2  0  0  0
 45115  1  0  0  0
 46116  1  0  0  0
 47117  1  0  0  0
 47118  1  0  0  0
 48 56  1  0  0  0
 48 65  1  0  0  0
 48119  1  0  0  0
 49 50  1  0  0  0
 49 53  1  0  0  0
 49 64  1  0  0  0
 49120  1  0  0  0
 50 51  1  0  0  0
 50121  1  0  0  0
 50122  1  0  0  0
 51 52  1  0  0  0
 51123  1  0  0  0
 51124  1  0  0  0
 52125  1  0  0  0
 52126  1  0  0  0
 53 54  1  0  0  0
 54 55  2  0  0  0
 54127  1  0  0  0
 55 57  1  0  0  0
 55128  1  0  0  0
 56 69  2  0  0  0
 57 58  2  0  0  0
 57129  1  0  0  0
 58130  1  0  0  0
 59 60  1  0  0  0
 59 61  1  0  0  0
 59 62  1  0  0  0
 60131  1  0  0  0
 60132  1  0  0  0
 60133  1  0  0  0
 61134  1  0  0  0
 61135  1  0  0  0
 61136  1  0  0  0
 62137  1  0  0  0
 62138  1  0  0  0
 62139  1  0  0  0
 63 65  1  0  0  0
 63140  1  0  0  0
 63141  1  0  0  0
 63142  1  0  0  0
 64143  1  0  0  0
 65144  1  0  0  0
 68 82  1  0  0  0
 71 74  2  0  0  0
 71 75  1  0  0  0
 71145  1  0  0  0
 72 73  2  0  0  0
 72 74  1  0  0  0
 72 78  1  0  0  0
 73 76  1  0  0  0
 73 80  1  0  0  0
 74 83  1  0  0  0
 75 76  2  0  0  0
 75 84  1  0  0  0
 76 85  1  0  0  0
 77 78  2  0  0  0
 77146  1  0  0  0
 77147  1  0  0  0
 78148  1  0  0  0
 79 81  1  0  0  0
 79 83  2  0  0  0
 79149  1  0  0  0
 80150  1  0  0  0
 80151  1  0  0  0
 80152  1  0  0  0
 81 82  1  0  0  0
 81153  1  0  0  0
 81154  1  0  0  0
 82155  1  0  0  0
 82156  1  0  0  0
 84157  1  0  0  0
M  ISO  4   1 100  68 101  82 101  84 100
M  END
> <chiral flag>
0

> <version>
0

> <s_m_source_file>
/data/baiqing/PycharmProjects/Reinvent-master-3.2/result/LINK_invent/BTK/process_docking_weight1_custom_product_contain_oxygen_bond_distance_aromatic_linkinvent_7_9_3/rearranged_h_0117.sdf

> <i_m_source_file_index>
1

> <r_mmod_Potential_Energy-OPLS-2005>
325.943176269531

> <r_mmod_Stretch_Energy-OPLS-2005>
148.448974609375

> <r_mmod_Bend_Energy-OPLS-2005>
267.844268798828

> <r_mmod_Torsional_Energy-OPLS-2005>
291.943939208984

> <r_mmod_Improper_Torsional_Energy-OPLS-2005>
5.84994745254517

> <r_mmod_Van_der_Waal_Energy-OPLS-2005>
144.108947753906

> <r_mmod_Electrostatic_Energy-OPLS-2005>
-415.930450439453

> <r_mmod_Solvation_Energy-OPLS-2005>
-214.997756958008

> <b_mmod_Minimization_Converged-OPLS-2005>
0

> <r_mmod_RMS_Derivative-OPLS-2005>
4.7349681854248

$$$$
1
                    3D
 Structure written by MMmdl.
161169  0  0  1  0            999 V2000
  -30.6968  -14.5186   20.6366 C   0  0  0  0  0  0
  -30.4339  -12.3587   19.4410 C   0  0  0  0  0  0
  -29.5081  -12.5367   18.2172 C   0  0  0  0  0  0
  -28.0256  -12.3774   18.6128 C   0  0  0  0  0  0
  -27.6594  -13.2023   19.8740 C   0  0  2  0  0  0
  -28.6915  -12.9482   20.9903 C   0  0  0  0  0  0
  -25.2534  -13.8094   20.5548 C   0  0  0  0  0  0
  -24.1813  -13.0400   20.9156 C   0  0  0  0  0  0
  -24.6377  -11.6873   20.8737 C   0  0  0  0  0  0
  -23.9037  -10.4279   21.0428 C   0  0  0  0  0  0
  -24.3604   -9.4193   21.9189 C   0  0  0  0  0  0
  -23.6280   -8.2231   22.0756 C   0  0  0  0  0  0
  -22.4268   -8.0263   21.3538 C   0  0  0  0  0  0
  -21.9899   -9.0240   20.4644 C   0  0  0  0  0  0
  -22.7222  -10.2119   20.3058 C   0  0  0  0  0  0
  -21.6849   -6.0729   22.5280 C   0  0  0  0  0  0
  -21.4006   -6.5636   23.8211 C   0  0  0  0  0  0
  -21.3662   -5.6792   24.9178 C   0  0  0  0  0  0
  -21.6049   -4.3054   24.7231 C   0  0  0  0  0  0
  -21.8815   -3.8143   23.4352 C   0  0  0  0  0  0
  -21.9183   -4.6958   22.3407 C   0  0  0  0  0  0
  -22.7845  -13.5224   21.1839 C   0  0  0  0  0  0
  -22.1655   -4.2148   21.0984 F   0  0  0  0  0  0
  -21.5631   -3.4530   25.7742 F   0  0  0  0  0  0
  -30.0255  -13.3277   20.4821 N   0  0  0  0  0  0
  -26.2984  -12.9269   20.3278 N   0  0  0  0  0  0
  -25.9292  -11.6437   20.5721 N   0  0  0  0  0  0
  -22.0480  -12.8236   22.0409 N   0  0  0  0  0  0
  -25.4186  -15.1775   20.3759 N   0  0  0  0  0  0
  -31.7528  -14.7378   20.0305 O   0  0  0  0  0  0
  -21.6629   -6.8862   21.4237 O   0  0  0  0  0  0
  -22.3541  -14.5532   20.6682 O   0  0  0  0  0  0
  -24.6174  -31.8651   23.2076 C   0  0  0  0  0  0
  -25.9063  -32.4807   23.8380 C   0  0  1  0  0  0
  -27.2365  -27.4016   20.0981 C   0  0  0  0  0  0
  -25.5904  -33.8605   24.2313 N   0  0  0  0  0  0
  -23.4054  -30.4885   21.5491 C   0  0  2  0  0  0
  -24.8495  -28.9475   20.1162 C   0  0  0  0  0  0
  -22.7419  -29.4668   22.4995 C   0  0  0  0  0  0
  -18.0290  -28.1385   22.8470 C   0  0  0  0  0  0
  -24.1482  -36.7311   23.2636 C   0  0  0  0  0  0
  -25.9367  -30.8222   21.3616 C   0  0  0  0  0  0
  -26.0115  -29.4532   20.7101 C   0  0  0  0  0  0
  -27.2031  -28.6892   20.6946 C   0  0  0  0  0  0
  -26.0470  -26.9123   19.5091 C   0  0  0  0  0  0
  -24.8644  -27.6782   19.5125 C   0  0  0  0  0  0
  -23.6120  -29.8163   20.1655 C   0  0  0  0  0  0
  -25.4107  -36.3109   24.0336 C   0  0  1  0  0  0
  -20.5877  -28.3695   23.1326 C   0  0  2  0  0  0
  -20.6791  -26.9432   22.5426 C   0  0  0  0  0  0
  -19.5781  -26.6409   21.5218 C   0  0  0  0  0  0
  -18.1955  -26.7942   22.1604 C   0  0  0  0  0  0
  -19.1533  -28.8845   23.2889 C   0  0  0  0  0  0
  -18.9463  -30.1446   23.8903 C   0  0  0  0  0  0
  -17.6474  -30.6588   24.0567 C   0  0  0  0  0  0
  -25.9039  -34.9466   23.5124 C   0  0  0  0  0  0
  -16.5363  -29.9073   23.6324 C   0  0  0  0  0  0
  -16.7286  -28.6507   23.0325 C   0  0  0  0  0  0
  -26.4477  -31.6602   25.0723 C   0  0  0  0  0  0
  -25.3745  -31.3701   26.1472 C   0  0  0  0  0  0
  -27.0303  -30.3041   24.6105 C   0  0  0  0  0  0
  -27.6046  -32.4323   25.7492 C   0  0  0  0  0  0
  -27.5580  -37.1811   24.8464 C   0  0  0  0  0  0
  -21.4144  -29.3059   22.3729 N   0  0  0  0  0  0
  -26.4295  -37.3798   23.9410 N   0  0  0  0  0  0
  -24.6721  -31.0740   22.0975 N   0  0  0  0  0  0
  -23.4163  -28.8224   23.3070 O   0  0  0  0  0  0
  -28.4280  -26.6902   20.1225 O   0  0  0  0  0  0
  -26.5592  -34.8925   22.4682 O   0  0  0  0  0  0
  -23.5364  -32.1411   23.7472 O   0  0  0  0  0  0
  -31.6453  -17.5857   21.2262 C   0  0  0  0  0  0
  -30.8473  -19.8657   20.8645 C   0  0  0  0  0  0
  -30.3281  -17.0749   21.2305 C   0  0  0  0  0  0
  -29.2576  -18.0179   21.0340 C   0  0  0  0  0  0
  -29.5124  -19.4157   20.8518 C   0  0  0  0  0  0
  -31.9024  -18.9558   21.0454 C   0  0  0  0  0  0
  -30.1284  -15.6139   21.5953 C   0  0  0  0  0  0
  -27.0998  -17.8784   22.3767 C   0  0  0  0  0  0
  -27.8005  -17.5709   21.0454 C   0  0  0  0  0  0
  -28.3277  -24.2121   20.6412 C   0  0  0  0  0  0
  -28.5850  -22.7667   20.1010 C   0  0  0  0  0  0
  -28.5360  -25.3466   19.5954 C   0  0  0  0  0  0
  -28.4904  -21.6375   21.1691 C   0  0  0  0  0  0
  -29.5646  -15.3578   22.7007 N   0  0  0  0  0  0
  -28.4537  -20.2930   20.6360 O   0  0  0  0  0  0
  -33.1774  -19.4065   21.0611 F   0  0  0  0  0  0
  -31.4788  -12.4727   19.1455 H   0  0  0  0  0  0
  -30.3613  -11.3411   19.8274 H   0  0  0  0  0  0
  -29.7706  -11.8171   17.4410 H   0  0  0  0  0  0
  -29.6642  -13.5257   17.7827 H   0  0  0  0  0  0
  -27.8426  -11.3182   18.7988 H   0  0  0  0  0  0
  -27.3814  -12.6545   17.7784 H   0  0  0  0  0  0
  -27.7121  -14.2564   19.6045 H   0  0  0  0  0  0
  -28.6961  -11.8890   21.2553 H   0  0  0  0  0  0
  -28.3781  -13.4408   21.9037 H   0  0  0  0  0  0
  -25.2752   -9.5673   22.4752 H   0  0  0  0  0  0
  -23.9990   -7.4627   22.7477 H   0  0  0  0  0  0
  -21.0832   -8.8763   19.8944 H   0  0  0  0  0  0
  -22.3687  -10.9657   19.6161 H   0  0  0  0  0  0
  -21.1994   -7.6143   23.9716 H   0  0  0  0  0  0
  -21.1496   -6.0522   25.9084 H   0  0  0  0  0  0
  -22.0594   -2.7603   23.2849 H   0  0  0  0  0  0
  -22.4080  -11.9888   22.4788 H   0  0  0  0  0  0
  -21.1100  -13.1255   22.2625 H   0  0  0  0  0  0
  -24.6477  -15.8291   20.4676 H   0  0  0  0  0  0
  -26.2513  -15.5946   19.9832 H   0  0  0  0  0  0
  -26.7120  -32.5502   23.1127 H   0  0  0  0  0  0
  -25.0085  -33.9754   25.0479 H   0  0  0  0  0  0
  -22.6965  -31.3061   21.4067 H   0  0  0  0  0  0
  -23.3748  -35.9641   23.3305 H   0  0  0  0  0  0
  -24.3570  -36.8922   22.2046 H   0  0  0  0  0  0
  -23.7230  -37.6517   23.6649 H   0  0  0  0  0  0
  -26.0484  -31.5863   20.5909 H   0  0  0  0  0  0
  -26.8258  -30.8776   21.9777 H   0  0  0  0  0  0
  -28.1025  -29.0831   21.1478 H   0  0  0  0  0  0
  -26.0002  -25.9378   19.0473 H   0  0  0  0  0  0
  -23.9697  -27.2803   19.0524 H   0  0  0  0  0  0
  -23.7213  -30.5897   19.4046 H   0  0  0  0  0  0
  -22.7367  -29.2331   19.8717 H   0  0  0  0  0  0
  -25.1286  -36.1971   25.0830 H   0  0  0  0  0  0
  -20.9956  -28.3274   24.1454 H   0  0  0  0  0  0
  -20.5737  -26.2293   23.3616 H   0  0  0  0  0  0
  -21.6668  -26.7524   22.1203 H   0  0  0  0  0  0
  -19.6937  -25.6333   21.1231 H   0  0  0  0  0  0
  -19.6741  -27.3242   20.6776 H   0  0  0  0  0  0
  -17.4255  -26.6667   21.3989 H   0  0  0  0  0  0
  -18.0383  -26.0077   22.8993 H   0  0  0  0  0  0
  -19.7947  -30.7260   24.2256 H   0  0  0  0  0  0
  -17.5036  -31.6248   24.5190 H   0  0  0  0  0  0
  -15.5360  -30.2965   23.7684 H   0  0  0  0  0  0
  -15.8688  -28.0843   22.7013 H   0  0  0  0  0  0
  -24.5918  -30.7041   25.7817 H   0  0  0  0  0  0
  -24.8930  -32.2849   26.4938 H   0  0  0  0  0  0
  -25.8100  -30.8865   27.0225 H   0  0  0  0  0  0
  -26.2841  -29.6807   24.1156 H   0  0  0  0  0  0
  -27.4066  -29.7272   25.4567 H   0  0  0  0  0  0
  -27.8686  -30.4358   23.9255 H   0  0  0  0  0  0
  -27.2665  -33.3612   26.2096 H   0  0  0  0  0  0
  -28.3852  -32.6900   25.0324 H   0  0  0  0  0  0
  -28.0726  -31.8435   26.5391 H   0  0  0  0  0  0
  -28.2611  -38.0098   24.7520 H   0  0  0  0  0  0
  -28.1063  -36.2630   24.6289 H   0  0  0  0  0  0
  -27.2294  -37.1471   25.8867 H   0  0  0  0  0  0
  -20.9308  -29.8768   21.6936 H   0  0  0  0  0  0
  -26.0180  -38.2877   24.1412 H   0  0  0  0  0  0
  -32.4822  -16.9244   21.3980 H   0  0  0  0  0  0
  -31.0800  -20.9090   20.7168 H   0  0  0  0  0  0
  -26.0578  -17.5618   22.3415 H   0  0  0  0  0  0
  -27.1132  -18.9457   22.5971 H   0  0  0  0  0  0
  -27.5728  -17.3591   23.2090 H   0  0  0  0  0  0
  -27.7250  -16.5092   20.8263 H   0  0  0  0  0  0
  -27.2707  -18.0673   20.2304 H   0  0  0  0  0  0
  -28.9926  -24.3965   21.4857 H   0  0  0  0  0  0
  -27.3148  -24.2752   21.0387 H   0  0  0  0  0  0
  -29.5683  -22.7229   19.6328 H   0  0  0  0  0  0
  -27.8639  -22.5622   19.3099 H   0  0  0  0  0  0
  -27.9210  -25.1904   18.7121 H   0  0  0  0  0  0
  -29.5585  -25.2634   19.2262 H   0  0  0  0  0  0
  -27.5473  -21.7681   21.6987 H   0  0  0  0  0  0
  -29.2609  -21.7567   21.9312 H   0  0  0  0  0  0
  -29.2933  -16.2109   23.1730 H   0  0  0  0  0  0
  1 25  1  0  0  0
  1 30  2  0  0  0
  1 77  1  0  0  0
  2  3  1  0  0  0
  2 25  1  0  0  0
  2 87  1  0  0  0
  2 88  1  0  0  0
  3  4  1  0  0  0
  3 89  1  0  0  0
  3 90  1  0  0  0
  4  5  1  0  0  0
  4 91  1  0  0  0
  4 92  1  0  0  0
  5  6  1  0  0  0
  5 26  1  0  0  0
  5 93  1  0  0  0
  6 25  1  0  0  0
  6 94  1  0  0  0
  6 95  1  0  0  0
  7  8  2  0  0  0
  7 26  1  0  0  0
  7 29  1  0  0  0
  8  9  1  0  0  0
  8 22  1  0  0  0
  9 10  1  0  0  0
  9 27  2  0  0  0
 10 11  2  0  0  0
 10 15  1  0  0  0
 11 12  1  0  0  0
 11 96  1  0  0  0
 12 13  2  0  0  0
 12 97  1  0  0  0
 13 14  1  0  0  0
 13 31  1  0  0  0
 14 15  2  0  0  0
 14 98  1  0  0  0
 15 99  1  0  0  0
 16 17  2  0  0  0
 16 21  1  0  0  0
 16 31  1  0  0  0
 17 18  1  0  0  0
 17100  1  0  0  0
 18 19  2  0  0  0
 18101  1  0  0  0
 19 20  1  0  0  0
 19 24  1  0  0  0
 20 21  2  0  0  0
 20102  1  0  0  0
 21 23  1  0  0  0
 22 28  1  0  0  0
 22 32  2  0  0  0
 26 27  1  0  0  0
 28103  1  0  0  0
 28104  1  0  0  0
 29105  1  0  0  0
 29106  1  0  0  0
 33 34  1  0  0  0
 33 66  1  0  0  0
 33 70  2  0  0  0
 34 36  1  0  0  0
 34 59  1  0  0  0
 34107  1  0  0  0
 35 44  2  0  0  0
 35 45  1  0  0  0
 35 68  1  0  0  0
 36 56  1  0  0  0
 36108  1  0  0  0
 37 39  1  0  0  0
 37 47  1  0  0  0
 37 66  1  0  0  0
 37109  1  0  0  0
 38 43  2  0  0  0
 38 46  1  0  0  0
 38 47  1  0  0  0
 39 64  1  0  0  0
 39 67  2  0  0  0
 40 52  1  0  0  0
 40 53  2  0  0  0
 40 58  1  0  0  0
 41110  1  0  0  0
 41111  1  0  0  0
 41112  1  0  0  0
 41 48  1  0  0  0
 42 43  1  0  0  0
 42 66  1  0  0  0
 42113  1  0  0  0
 42114  1  0  0  0
 43 44  1  0  0  0
 44115  1  0  0  0
 45 46  2  0  0  0
 45116  1  0  0  0
 46117  1  0  0  0
 47118  1  0  0  0
 47119  1  0  0  0
 48 56  1  0  0  0
 48 65  1  0  0  0
 48120  1  0  0  0
 49 50  1  0  0  0
 49 53  1  0  0  0
 49 64  1  0  0  0
 49121  1  0  0  0
 50 51  1  0  0  0
 50122  1  0  0  0
 50123  1  0  0  0
 51 52  1  0  0  0
 51124  1  0  0  0
 51125  1  0  0  0
 52126  1  0  0  0
 52127  1  0  0  0
 53 54  1  0  0  0
 54 55  2  0  0  0
 54128  1  0  0  0
 55 57  1  0  0  0
 55129  1  0  0  0
 56 69  2  0  0  0
 57 58  2  0  0  0
 57130  1  0  0  0
 58131  1  0  0  0
 59 60  1  0  0  0
 59 61  1  0  0  0
 59 62  1  0  0  0
 60132  1  0  0  0
 60133  1  0  0  0
 60134  1  0  0  0
 61135  1  0  0  0
 61136  1  0  0  0
 61137  1  0  0  0
 62138  1  0  0  0
 62139  1  0  0  0
 62140  1  0  0  0
 63 65  1  0  0  0
 63141  1  0  0  0
 63142  1  0  0  0
 63143  1  0  0  0
 64144  1  0  0  0
 65145  1  0  0  0
 68 82  1  0  0  0
 71 73  2  0  0  0
 71 76  1  0  0  0
 71146  1  0  0  0
 72 75  1  0  0  0
 72 76  2  0  0  0
 72147  1  0  0  0
 73 74  1  0  0  0
 73 77  1  0  0  0
 74 75  2  0  0  0
 74 79  1  0  0  0
 75 85  1  0  0  0
 76 86  1  0  0  0
 77 84  2  0  0  0
 78 79  1  0  0  0
 78148  1  0  0  0
 78149  1  0  0  0
 78150  1  0  0  0
 79151  1  0  0  0
 79152  1  0  0  0
 80 81  1  0  0  0
 80 82  1  0  0  0
 80153  1  0  0  0
 80154  1  0  0  0
 81 83  1  0  0  0
 81155  1  0  0  0
 81156  1  0  0  0
 82157  1  0  0  0
 82158  1  0  0  0
 83 85  1  0  0  0
 83159  1  0  0  0
 83160  1  0  0  0
 84161  1  0  0  0
M  ISO  4   1 100  68 101  77 100  82 101
M  END
> <chiral flag>
0

> <version>
0

> <s_m_source_file>
/data/baiqing/PycharmProjects/Reinvent-master-3.2/result/LINK_invent/BTK/process_docking_weight1_custom_product_contain_oxygen_bond_distance_aromatic_linkinvent_7_9_3/rearranged_h_0117.sdf

> <i_m_source_file_index>
2

> <r_mmod_Potential_Energy-OPLS-2005>
122.837432861328

> <r_mmod_Stretch_Energy-OPLS-2005>
58.7802391052246

> <r_mmod_Bend_Energy-OPLS-2005>
133.78564453125

> <r_mmod_Torsional_Energy-OPLS-2005>
203.372192382812

> <r_mmod_Improper_Torsional_Energy-OPLS-2005>
3.08897638320923

> <r_mmod_Van_der_Waal_Energy-OPLS-2005>
152.249542236328

> <r_mmod_Electrostatic_Energy-OPLS-2005>
-260.83056640625

> <r_mmod_Solvation_Energy-OPLS-2005>
-185.046691894531

> <b_mmod_Minimization_Converged-OPLS-2005>
0

> <r_mmod_RMS_Derivative-OPLS-2005>
2.33349108695984

$$$$
2
                    3D
 Structure written by MMmdl.
150158  0  0  1  0            999 V2000
  -30.4950  -15.1127   20.3787 C   0  0  0  0  0  0
  -30.4420  -12.6904   19.5427 C   0  0  0  0  0  0
  -29.5432  -12.5503   18.2909 C   0  0  0  0  0  0
  -28.0814  -12.3052   18.7049 C   0  0  0  0  0  0
  -27.6267  -13.2637   19.8352 C   0  0  2  0  0  0
  -28.6571  -13.3723   20.9823 C   0  0  0  0  0  0
  -25.2462  -13.8251   20.5736 C   0  0  0  0  0  0
  -24.1781  -13.0473   20.9238 C   0  0  0  0  0  0
  -24.6397  -11.6957   20.8759 C   0  0  0  0  0  0
  -23.9087  -10.4310   21.0390 C   0  0  0  0  0  0
  -24.3622   -9.4227   21.9171 C   0  0  0  0  0  0
  -23.6293   -8.2253   22.0743 C   0  0  0  0  0  0
  -22.4262   -8.0290   21.3553 C   0  0  0  0  0  0
  -21.9894   -9.0258   20.4649 C   0  0  0  0  0  0
  -22.7232  -10.2131   20.3067 C   0  0  0  0  0  0
  -21.6853   -6.0740   22.5275 C   0  0  0  0  0  0
  -21.4012   -6.5633   23.8206 C   0  0  0  0  0  0
  -21.3663   -5.6778   24.9164 C   0  0  0  0  0  0
  -21.6056   -4.3050   24.7214 C   0  0  0  0  0  0
  -21.8820   -3.8148   23.4329 C   0  0  0  0  0  0
  -21.9190   -4.6971   22.3392 C   0  0  0  0  0  0
  -22.7795  -13.5237   21.1870 C   0  0  0  0  0  0
  -22.1666   -4.2162   21.0974 F   0  0  0  0  0  0
  -21.5623   -3.4533   25.7723 F   0  0  0  0  0  0
  -29.9259  -13.8213   20.3892 N   0  0  0  0  0  0
  -26.2866  -12.9498   20.3212 N   0  0  0  0  0  0
  -25.9325  -11.6609   20.5710 N   0  0  0  0  0  0
  -22.0435  -12.8244   22.0435 N   0  0  0  0  0  0
  -25.4146  -15.1969   20.4180 N   0  0  0  0  0  0
  -31.6866  -15.1375   20.0390 O   0  0  0  0  0  0
  -21.6645   -6.8875   21.4228 O   0  0  0  0  0  0
  -22.3486  -14.5543   20.6710 O   0  0  0  0  0  0
  -24.6536  -31.8273   23.1772 C   0  0  0  0  0  0
  -25.9262  -32.4599   23.8201 C   0  0  1  0  0  0
  -27.2379  -27.0192   20.1571 C   0  0  0  0  0  0
  -25.5976  -33.8418   24.2117 N   0  0  0  0  0  0
  -23.4675  -30.4371   21.5219 C   0  0  2  0  0  0
  -24.9267  -28.8420   20.1004 C   0  0  0  0  0  0
  -22.7639  -29.4432   22.4805 C   0  0  0  0  0  0
  -18.0322  -28.1389   22.8454 C   0  0  0  0  0  0
  -24.1508  -36.7210   23.2637 C   0  0  0  0  0  0
  -26.0293  -30.6601   21.3994 C   0  0  0  0  0  0
  -26.1014  -29.2617   20.7364 C   0  0  0  0  0  0
  -27.2466  -28.3625   20.7539 C   0  0  0  0  0  0
  -26.0406  -26.7306   19.4675 C   0  0  0  0  0  0
  -24.9154  -27.5952   19.4513 C   0  0  0  0  0  0
  -23.7035  -29.7518   20.1455 C   0  0  0  0  0  0
  -25.4146  -36.2977   24.0300 C   0  0  1  0  0  0
  -20.5938  -28.3716   23.1204 C   0  0  2  0  0  0
  -20.6786  -26.9398   22.5415 C   0  0  0  0  0  0
  -19.5777  -26.6357   21.5203 C   0  0  0  0  0  0
  -18.1954  -26.7924   22.1594 C   0  0  0  0  0  0
  -19.1578  -28.8877   23.2815 C   0  0  0  0  0  0
  -18.9487  -30.1469   23.8847 C   0  0  0  0  0  0
  -17.6477  -30.6574   24.0540 C   0  0  0  0  0  0
  -25.9096  -34.9348   23.5020 C   0  0  0  0  0  0
  -16.5374  -29.9052   23.6327 C   0  0  0  0  0  0
  -16.7302  -28.6473   23.0348 C   0  0  0  0  0  0
  -26.4545  -31.6534   25.0710 C   0  0  0  0  0  0
  -25.3687  -31.3827   26.1398 C   0  0  0  0  0  0
  -27.0372  -30.2874   24.6433 C   0  0  0  0  0  0
  -27.6096  -32.4298   25.7459 C   0  0  0  0  0  0
  -27.5598  -37.1740   24.8442 C   0  0  0  0  0  0
  -21.4318  -29.3005   22.3561 N   0  0  0  0  0  0
  -26.4295  -37.3712   23.9405 N   0  0  0  0  0  0
  -24.7367  -30.9999   22.0871 N   0  0  0  0  0  0
  -23.4211  -28.8008   23.3036 O   0  0  0  0  0  0
  -28.2579  -25.9751   20.3317 O   0  0  0  0  0  0
  -26.5690  -34.8868   22.4608 O   0  0  0  0  0  0
  -23.5627  -32.1220   23.6910 O   0  0  0  0  0  0
  -29.1588  -20.1714   18.4627 C   0  0  0  0  0  0
  -29.6375  -17.7640   18.6308 C   0  0  0  0  0  0
  -29.3888  -18.9114   17.8521 C   0  0  0  0  0  0
  -29.2032  -20.3519   19.8579 C   0  0  0  0  0  0
  -29.6771  -17.7887   20.0368 C   0  0  0  0  0  0
  -28.3561  -22.8873   20.0016 C   0  0  0  0  0  0
  -29.3939  -19.8426   15.6347 C   0  0  0  0  0  0
  -28.4983  -24.5768   19.5846 C   0  0  0  0  0  0
  -29.4660  -19.1236   20.5991 N   0  0  0  0  0  0
  -29.2085  -21.8329   20.2924 N   0  0  0  0  0  0
  -29.7673  -16.3425   20.6587 N   0  0  0  0  0  0
  -29.3822  -18.7070   16.4885 O   0  0  0  0  0  0
  -31.4740  -12.8474   19.2288 H   0  0  0  0  0  0
  -30.4524  -11.7612   20.1132 H   0  0  0  0  0  0
  -29.8971  -11.7312   17.6635 H   0  0  0  0  0  0
  -29.6120  -13.4554   17.6840 H   0  0  0  0  0  0
  -28.0068  -11.2739   19.0526 H   0  0  0  0  0  0
  -27.4228  -12.3829   17.8391 H   0  0  0  0  0  0
  -27.5700  -14.2460   19.3655 H   0  0  0  0  0  0
  -28.7748  -12.4233   21.5070 H   0  0  0  0  0  0
  -28.3172  -14.0962   21.7242 H   0  0  0  0  0  0
  -25.2762   -9.5709   22.4753 H   0  0  0  0  0  0
  -24.0005   -7.4638   22.7446 H   0  0  0  0  0  0
  -21.0825   -8.8775   19.8955 H   0  0  0  0  0  0
  -22.3667  -10.9666   19.6194 H   0  0  0  0  0  0
  -21.2002   -7.6135   23.9720 H   0  0  0  0  0  0
  -21.1491   -6.0506   25.9069 H   0  0  0  0  0  0
  -22.0598   -2.7606   23.2849 H   0  0  0  0  0  0
  -22.4013  -11.9936   22.4908 H   0  0  0  0  0  0
  -21.1053  -13.1292   22.2622 H   0  0  0  0  0  0
  -24.6470  -15.8514   20.5278 H   0  0  0  0  0  0
  -26.2565  -15.6317   20.0642 H   0  0  0  0  0  0
  -26.7327  -32.5160   23.0917 H   0  0  0  0  0  0
  -25.0079  -33.9503   25.0235 H   0  0  0  0  0  0
  -22.7775  -31.2661   21.3524 H   0  0  0  0  0  0
  -23.3783  -35.9525   23.3259 H   0  0  0  0  0  0
  -24.3596  -36.8887   22.2058 H   0  0  0  0  0  0
  -23.7242  -37.6380   23.6710 H   0  0  0  0  0  0
  -26.2090  -31.4127   20.6295 H   0  0  0  0  0  0
  -26.8863  -30.7064   22.0600 H   0  0  0  0  0  0
  -28.1303  -28.6629   21.2990 H   0  0  0  0  0  0
  -25.9281  -25.7666   18.9933 H   0  0  0  0  0  0
  -24.0183  -27.2659   18.9462 H   0  0  0  0  0  0
  -23.8472  -30.5151   19.3809 H   0  0  0  0  0  0
  -22.8181  -29.1921   19.8373 H   0  0  0  0  0  0
  -25.1342  -36.1775   25.0791 H   0  0  0  0  0  0
  -21.0030  -28.3313   24.1325 H   0  0  0  0  0  0
  -20.5620  -26.2331   23.3653 H   0  0  0  0  0  0
  -21.6660  -26.7348   22.1264 H   0  0  0  0  0  0
  -19.6932  -25.6256   21.1258 H   0  0  0  0  0  0
  -19.6721  -27.3141   20.6716 H   0  0  0  0  0  0
  -17.4232  -26.6664   21.3996 H   0  0  0  0  0  0
  -18.0346  -26.0080   22.8994 H   0  0  0  0  0  0
  -19.7966  -30.7300   24.2195 H   0  0  0  0  0  0
  -17.5024  -31.6250   24.5152 H   0  0  0  0  0  0
  -15.5368  -30.2923   23.7685 H   0  0  0  0  0  0
  -15.8705  -28.0759   22.7097 H   0  0  0  0  0  0
  -24.5920  -30.7089   25.7765 H   0  0  0  0  0  0
  -24.8810  -32.3038   26.4611 H   0  0  0  0  0  0
  -25.7947  -30.9185   27.0306 H   0  0  0  0  0  0
  -26.3003  -29.6597   24.1422 H   0  0  0  0  0  0
  -27.3833  -29.7221   25.5094 H   0  0  0  0  0  0
  -27.9000  -30.3989   23.9866 H   0  0  0  0  0  0
  -27.2735  -33.3641   26.1971 H   0  0  0  0  0  0
  -28.3933  -32.6779   25.0284 H   0  0  0  0  0  0
  -28.0754  -31.8464   26.5415 H   0  0  0  0  0  0
  -28.2578  -38.0072   24.7537 H   0  0  0  0  0  0
  -28.1133  -36.2604   24.6208 H   0  0  0  0  0  0
  -27.2323  -37.1326   25.8844 H   0  0  0  0  0  0
  -20.9584  -29.8683   21.6674 H   0  0  0  0  0  0
  -26.0146  -38.2762   24.1454 H   0  0  0  0  0  0
  -29.0037  -21.0444   17.8468 H   0  0  0  0  0  0
  -29.7672  -16.8246   18.1112 H   0  0  0  0  0  0
  -27.3309  -22.5921   19.7678 H   0  0  0  0  0  0
  -29.4757  -19.5113   14.5994 H   0  0  0  0  0  0
  -30.2511  -20.4831   15.8444 H   0  0  0  0  0  0
  -28.4763  -20.4243   15.7237 H   0  0  0  0  0  0
  -27.9328  -24.6720   18.6577 H   0  0  0  0  0  0
  -29.5286  -24.6687   19.2409 H   0  0  0  0  0  0
  -28.9814  -16.1549   21.2604 H   0  0  0  0  0  0
  1 25  1  0  0  0
  1 30  2  0  0  0
  1 81  1  0  0  0
  2  3  1  0  0  0
  2 25  1  0  0  0
  2 83  1  0  0  0
  2 84  1  0  0  0
  3  4  1  0  0  0
  3 85  1  0  0  0
  3 86  1  0  0  0
  4  5  1  0  0  0
  4 87  1  0  0  0
  4 88  1  0  0  0
  5  6  1  0  0  0
  5 26  1  0  0  0
  5 89  1  0  0  0
  6 25  1  0  0  0
  6 90  1  0  0  0
  6 91  1  0  0  0
  7  8  2  0  0  0
  7 26  1  0  0  0
  7 29  1  0  0  0
  8  9  1  0  0  0
  8 22  1  0  0  0
  9 10  1  0  0  0
  9 27  2  0  0  0
 10 11  2  0  0  0
 10 15  1  0  0  0
 11 12  1  0  0  0
 11 92  1  0  0  0
 12 13  2  0  0  0
 12 93  1  0  0  0
 13 14  1  0  0  0
 13 31  1  0  0  0
 14 15  2  0  0  0
 14 94  1  0  0  0
 15 95  1  0  0  0
 16 17  2  0  0  0
 16 21  1  0  0  0
 16 31  1  0  0  0
 17 18  1  0  0  0
 17 96  1  0  0  0
 18 19  2  0  0  0
 18 97  1  0  0  0
 19 20  1  0  0  0
 19 24  1  0  0  0
 20 21  2  0  0  0
 20 98  1  0  0  0
 21 23  1  0  0  0
 22 28  1  0  0  0
 22 32  2  0  0  0
 26 27  1  0  0  0
 28 99  1  0  0  0
 28100  1  0  0  0
 29101  1  0  0  0
 29102  1  0  0  0
 33 34  1  0  0  0
 33 66  1  0  0  0
 33 70  2  0  0  0
 34 36  1  0  0  0
 34 59  1  0  0  0
 34103  1  0  0  0
 35 44  2  0  0  0
 35 45  1  0  0  0
 35 68  1  0  0  0
 36 56  1  0  0  0
 36104  1  0  0  0
 37 39  1  0  0  0
 37 47  1  0  0  0
 37 66  1  0  0  0
 37105  1  0  0  0
 38 43  2  0  0  0
 38 46  1  0  0  0
 38 47  1  0  0  0
 39 64  1  0  0  0
 39 67  2  0  0  0
 40 52  1  0  0  0
 40 53  2  0  0  0
 40 58  1  0  0  0
 41106  1  0  0  0
 41107  1  0  0  0
 41108  1  0  0  0
 41 48  1  0  0  0
 42 43  1  0  0  0
 42 66  1  0  0  0
 42109  1  0  0  0
 42110  1  0  0  0
 43 44  1  0  0  0
 44111  1  0  0  0
 45 46  2  0  0  0
 45112  1  0  0  0
 46113  1  0  0  0
 47114  1  0  0  0
 47115  1  0  0  0
 48 56  1  0  0  0
 48 65  1  0  0  0
 48116  1  0  0  0
 49 50  1  0  0  0
 49 53  1  0  0  0
 49 64  1  0  0  0
 49117  1  0  0  0
 50 51  1  0  0  0
 50118  1  0  0  0
 50119  1  0  0  0
 51 52  1  0  0  0
 51120  1  0  0  0
 51121  1  0  0  0
 52122  1  0  0  0
 52123  1  0  0  0
 53 54  1  0  0  0
 54 55  2  0  0  0
 54124  1  0  0  0
 55 57  1  0  0  0
 55125  1  0  0  0
 56 69  2  0  0  0
 57 58  2  0  0  0
 57126  1  0  0  0
 58127  1  0  0  0
 59 60  1  0  0  0
 59 61  1  0  0  0
 59 62  1  0  0  0
 60128  1  0  0  0
 60129  1  0  0  0
 60130  1  0  0  0
 61131  1  0  0  0
 61132  1  0  0  0
 61133  1  0  0  0
 62134  1  0  0  0
 62135  1  0  0  0
 62136  1  0  0  0
 63 65  1  0  0  0
 63137  1  0  0  0
 63138  1  0  0  0
 63139  1  0  0  0
 64140  1  0  0  0
 65141  1  0  0  0
 68 78  1  0  0  0
 71 73  2  0  0  0
 71 74  1  0  0  0
 71142  1  0  0  0
 72 73  1  0  0  0
 72 75  2  0  0  0
 72143  1  0  0  0
 73 82  1  0  0  0
 74 79  2  0  0  0
 74 80  1  0  0  0
 75 79  1  0  0  0
 75 81  1  0  0  0
 76 78  1  0  0  0
 76 80  2  0  0  0
 76144  1  0  0  0
 77 82  1  0  0  0
 77145  1  0  0  0
 77146  1  0  0  0
 77147  1  0  0  0
 78148  1  0  0  0
 78149  1  0  0  0
 81150  1  0  0  0
M  ISO  4   1 100  68 101  78 101  81 100
M  END
> <chiral flag>
0

> <version>
0

> <s_m_source_file>
/data/baiqing/PycharmProjects/Reinvent-master-3.2/result/LINK_invent/BTK/process_docking_weight1_custom_product_contain_oxygen_bond_distance_aromatic_linkinvent_7_9_3/rearranged_h_0117.sdf

> <i_m_source_file_index>
3

> <r_mmod_Potential_Energy-OPLS-2005>
758.229858398438

> <r_mmod_Stretch_Energy-OPLS-2005>
413.613372802734

> <r_mmod_Bend_Energy-OPLS-2005>
395.214050292969

> <r_mmod_Torsional_Energy-OPLS-2005>
283.902679443359

> <r_mmod_Improper_Torsional_Energy-OPLS-2005>
8.91060256958008

> <r_mmod_Van_der_Waal_Energy-OPLS-2005>
131.536605834961

> <r_mmod_Electrostatic_Energy-OPLS-2005>
-549.792053222656

> <r_mmod_Solvation_Energy-OPLS-2005>
-249.829254150391

> <b_mmod_Minimization_Converged-OPLS-2005>
0

> <r_mmod_RMS_Derivative-OPLS-2005>
3.02530241012573

$$$$
3
                    3D
 Structure written by MMmdl.
156164  0  0  1  0            999 V2000
  -30.6636  -14.5175   20.5277 C   0  0  0  0  0  0
  -30.4228  -12.3165   19.4326 C   0  0  0  0  0  0
  -29.5040  -12.5059   18.2073 C   0  0  0  0  0  0
  -28.0203  -12.3733   18.6143 C   0  0  0  0  0  0
  -27.6589  -13.2089   19.8720 C   0  0  2  0  0  0
  -28.7004  -12.9967   20.9936 C   0  0  0  0  0  0
  -25.2505  -13.8068   20.5574 C   0  0  0  0  0  0
  -24.1796  -13.0387   20.9193 C   0  0  0  0  0  0
  -24.6371  -11.6872   20.8724 C   0  0  0  0  0  0
  -23.9014  -10.4288   21.0387 C   0  0  0  0  0  0
  -24.3570   -9.4234   21.9188 C   0  0  0  0  0  0
  -23.6273   -8.2262   22.0766 C   0  0  0  0  0  0
  -22.4270   -8.0275   21.3547 C   0  0  0  0  0  0
  -21.9873   -9.0244   20.4655 C   0  0  0  0  0  0
  -22.7181  -10.2134   20.3047 C   0  0  0  0  0  0
  -21.6877   -6.0738   22.5281 C   0  0  0  0  0  0
  -21.4040   -6.5633   23.8203 C   0  0  0  0  0  0
  -21.3652   -5.6793   24.9169 C   0  0  0  0  0  0
  -21.6041   -4.3049   24.7208 C   0  0  0  0  0  0
  -21.8822   -3.8144   23.4339 C   0  0  0  0  0  0
  -21.9211   -4.6964   22.3397 C   0  0  0  0  0  0
  -22.7815  -13.5228   21.1819 C   0  0  0  0  0  0
  -22.1688   -4.2157   21.0981 F   0  0  0  0  0  0
  -21.5614   -3.4531   25.7714 F   0  0  0  0  0  0
  -30.0227  -13.3186   20.4344 N   0  0  0  0  0  0
  -26.2994  -12.9302   20.3307 N   0  0  0  0  0  0
  -25.9300  -11.6466   20.5739 N   0  0  0  0  0  0
  -22.0427  -12.8259   22.0368 N   0  0  0  0  0  0
  -25.4020  -15.1730   20.3716 N   0  0  0  0  0  0
  -31.8211  -14.6642   20.1234 O   0  0  0  0  0  0
  -21.6659   -6.8855   21.4225 O   0  0  0  0  0  0
  -22.3528  -14.5540   20.6663 O   0  0  0  0  0  0
  -24.6128  -31.8670   23.2077 C   0  0  0  0  0  0
  -25.9007  -32.4826   23.8399 C   0  0  1  0  0  0
  -27.2707  -27.4378   20.1080 C   0  0  0  0  0  0
  -25.5868  -33.8621   24.2357 N   0  0  0  0  0  0
  -23.4066  -30.4850   21.5474 C   0  0  2  0  0  0
  -24.8648  -28.9432   20.1224 C   0  0  0  0  0  0
  -22.7421  -29.4639   22.4985 C   0  0  0  0  0  0
  -18.0281  -28.1367   22.8491 C   0  0  0  0  0  0
  -24.1475  -36.7303   23.2654 C   0  0  0  0  0  0
  -25.9316  -30.8356   21.3588 C   0  0  0  0  0  0
  -26.0206  -29.4626   20.7191 C   0  0  0  0  0  0
  -27.2259  -28.7207   20.7040 C   0  0  0  0  0  0
  -26.0974  -26.9297   19.5095 C   0  0  0  0  0  0
  -24.8987  -27.6749   19.5124 C   0  0  0  0  0  0
  -23.6231  -29.8099   20.1649 C   0  0  0  0  0  0
  -25.4089  -36.3122   24.0373 C   0  0  1  0  0  0
  -20.5868  -28.3660   23.1322 C   0  0  2  0  0  0
  -20.6765  -26.9390   22.5436 C   0  0  0  0  0  0
  -19.5760  -26.6376   21.5213 C   0  0  0  0  0  0
  -18.1927  -26.7920   22.1600 C   0  0  0  0  0  0
  -19.1525  -28.8824   23.2906 C   0  0  0  0  0  0
  -18.9455  -30.1428   23.8920 C   0  0  0  0  0  0
  -17.6458  -30.6575   24.0556 C   0  0  0  0  0  0
  -25.9010  -34.9478   23.5166 C   0  0  0  0  0  0
  -16.5352  -29.9081   23.6309 C   0  0  0  0  0  0
  -16.7271  -28.6496   23.0337 C   0  0  0  0  0  0
  -26.4454  -31.6572   25.0696 C   0  0  0  0  0  0
  -25.3757  -31.3641   26.1475 C   0  0  0  0  0  0
  -27.0260  -30.3037   24.5976 C   0  0  0  0  0  0
  -27.6067  -32.4248   25.7438 C   0  0  0  0  0  0
  -27.5582  -37.1809   24.8472 C   0  0  0  0  0  0
  -21.4146  -29.3028   22.3732 N   0  0  0  0  0  0
  -26.4284  -37.3799   23.9429 N   0  0  0  0  0  0
  -24.6685  -31.0766   22.0987 N   0  0  0  0  0  0
  -23.4182  -28.8197   23.3048 O   0  0  0  0  0  0
  -28.4519  -26.7193   20.0440 O   0  0  0  0  0  0
  -26.5565  -34.8936   22.4724 O   0  0  0  0  0  0
  -23.5309  -32.1412   23.7466 O   0  0  0  0  0  0
  -29.3981  -19.3362   20.7683 C   0  0  0  0  0  0
  -31.4931  -17.4978   20.9555 C   0  0  0  0  0  0
  -29.1074  -17.9447   20.8122 C   0  0  0  0  0  0
  -30.1702  -16.9904   20.8777 C   0  0  0  0  0  0
  -30.7194  -19.8292   20.8158 C   0  0  0  0  0  0
  -31.7629  -18.8838   20.9265 C   0  0  0  0  0  0
  -26.6628  -18.2777   20.3263 C   0  0  0  0  0  0
  -27.6945  -17.5256   20.7579 C   0  0  0  0  0  0
  -29.0275  -24.3073   20.2430 C   0  0  0  0  0  0
  -29.9273  -23.4065   20.7083 C   0  0  0  0  0  0
  -28.5814  -25.5994   20.9395 C   0  0  0  0  0  0
  -30.3091  -22.1030   19.9964 C   0  0  0  0  0  0
  -29.8867  -15.5682   20.8965 N   0  0  0  0  0  0
  -31.0257  -21.1847   20.8440 O   0  0  0  0  0  0
  -33.0468  -19.3084   21.0032 F   0  0  0  0  0  0
  -31.4732  -12.4042   19.1475 H   0  0  0  0  0  0
  -30.3075  -11.3081   19.8359 H   0  0  0  0  0  0
  -29.7476  -11.7718   17.4374 H   0  0  0  0  0  0
  -29.6796  -13.4847   17.7561 H   0  0  0  0  0  0
  -27.8241  -11.3172   18.8050 H   0  0  0  0  0  0
  -27.3756  -12.6546   17.7820 H   0  0  0  0  0  0
  -27.6990  -14.2571   19.5728 H   0  0  0  0  0  0
  -28.6849  -11.9577   21.3324 H   0  0  0  0  0  0
  -28.4689  -13.5929   21.8765 H   0  0  0  0  0  0
  -25.2718   -9.5774   22.4754 H   0  0  0  0  0  0
  -24.0023   -7.4685   22.7497 H   0  0  0  0  0  0
  -21.0816   -8.8733   19.8979 H   0  0  0  0  0  0
  -22.3617  -10.9659   19.6145 H   0  0  0  0  0  0
  -21.2054   -7.6145   23.9701 H   0  0  0  0  0  0
  -21.1461   -6.0522   25.9063 H   0  0  0  0  0  0
  -22.0602   -2.7605   23.2825 H   0  0  0  0  0  0
  -22.3997  -11.9937   22.4824 H   0  0  0  0  0  0
  -21.1042  -13.1353   22.2509 H   0  0  0  0  0  0
  -24.6028  -15.7931   20.4380 H   0  0  0  0  0  0
  -26.1864  -15.5923   19.8920 H   0  0  0  0  0  0
  -26.7084  -32.5570   23.1175 H   0  0  0  0  0  0
  -25.0043  -33.9778   25.0525 H   0  0  0  0  0  0
  -22.6946  -31.3000   21.4022 H   0  0  0  0  0  0
  -23.3748  -35.9625   23.3328 H   0  0  0  0  0  0
  -24.3585  -36.8882   22.2067 H   0  0  0  0  0  0
  -23.7207  -37.6513   23.6634 H   0  0  0  0  0  0
  -26.0241  -31.5939   20.5798 H   0  0  0  0  0  0
  -26.8262  -30.9109   21.9650 H   0  0  0  0  0  0
  -28.1238  -29.1313   21.1444 H   0  0  0  0  0  0
  -26.1217  -25.9628   19.0276 H   0  0  0  0  0  0
  -24.0161  -27.2723   19.0354 H   0  0  0  0  0  0
  -23.7381  -30.5827   19.4032 H   0  0  0  0  0  0
  -22.7486  -29.2303   19.8644 H   0  0  0  0  0  0
  -25.1258  -36.2002   25.0867 H   0  0  0  0  0  0
  -20.9960  -28.3229   24.1439 H   0  0  0  0  0  0
  -20.5644  -26.2268   23.3626 H   0  0  0  0  0  0
  -21.6644  -26.7423   22.1255 H   0  0  0  0  0  0
  -19.6921  -25.6287   21.1245 H   0  0  0  0  0  0
  -19.6711  -27.3179   20.6740 H   0  0  0  0  0  0
  -17.4213  -26.6696   21.3974 H   0  0  0  0  0  0
  -18.0303  -26.0045   22.8976 H   0  0  0  0  0  0
  -19.7929  -30.7228   24.2313 H   0  0  0  0  0  0
  -17.5016  -31.6256   24.5159 H   0  0  0  0  0  0
  -15.5350  -30.2985   23.7620 H   0  0  0  0  0  0
  -15.8675  -28.0820   22.7031 H   0  0  0  0  0  0
  -24.5904  -30.7015   25.7819 H   0  0  0  0  0  0
  -24.8966  -32.2776   26.5001 H   0  0  0  0  0  0
  -25.8144  -30.8753   27.0185 H   0  0  0  0  0  0
  -26.2750  -29.6804   24.1104 H   0  0  0  0  0  0
  -27.4180  -29.7243   25.4343 H   0  0  0  0  0  0
  -27.8521  -30.4409   23.8995 H   0  0  0  0  0  0
  -27.2738  -33.3537   26.2075 H   0  0  0  0  0  0
  -28.3833  -32.6811   25.0222 H   0  0  0  0  0  0
  -28.0779  -31.8315   26.5283 H   0  0  0  0  0  0
  -28.2619  -38.0090   24.7499 H   0  0  0  0  0  0
  -28.1053  -36.2620   24.6295 H   0  0  0  0  0  0
  -27.2323  -37.1476   25.8885 H   0  0  0  0  0  0
  -20.9298  -29.8758   21.6967 H   0  0  0  0  0  0
  -26.0184  -38.2885   24.1418 H   0  0  0  0  0  0
  -28.5904  -20.0508   20.7506 H   0  0  0  0  0  0
  -32.3380  -16.8341   21.0495 H   0  0  0  0  0  0
  -25.6513  -17.8985   20.3432 H   0  0  0  0  0  0
  -26.7817  -19.2823   19.9441 H   0  0  0  0  0  0
  -27.4747  -16.5379   21.1314 H   0  0  0  0  0  0
  -28.5465  -24.1078   19.2971 H   0  0  0  0  0  0
  -30.4361  -23.5903   21.6457 H   0  0  0  0  0  0
  -29.3068  -25.8587   21.7130 H   0  0  0  0  0  0
  -27.6385  -25.3962   21.4480 H   0  0  0  0  0  0
  -30.9849  -22.3735   19.1845 H   0  0  0  0  0  0
  -29.4291  -21.6731   19.5199 H   0  0  0  0  0  0
  -28.9268  -15.3181   21.0786 H   0  0  0  0  0  0
  1 25  1  0  0  0
  1 30  2  0  0  0
  1 83  1  0  0  0
  2  3  1  0  0  0
  2 25  1  0  0  0
  2 86  1  0  0  0
  2 87  1  0  0  0
  3  4  1  0  0  0
  3 88  1  0  0  0
  3 89  1  0  0  0
  4  5  1  0  0  0
  4 90  1  0  0  0
  4 91  1  0  0  0
  5  6  1  0  0  0
  5 26  1  0  0  0
  5 92  1  0  0  0
  6 25  1  0  0  0
  6 93  1  0  0  0
  6 94  1  0  0  0
  7  8  2  0  0  0
  7 26  1  0  0  0
  7 29  1  0  0  0
  8  9  1  0  0  0
  8 22  1  0  0  0
  9 10  1  0  0  0
  9 27  2  0  0  0
 10 11  2  0  0  0
 10 15  1  0  0  0
 11 12  1  0  0  0
 11 95  1  0  0  0
 12 13  2  0  0  0
 12 96  1  0  0  0
 13 14  1  0  0  0
 13 31  1  0  0  0
 14 15  2  0  0  0
 14 97  1  0  0  0
 15 98  1  0  0  0
 16 17  2  0  0  0
 16 21  1  0  0  0
 16 31  1  0  0  0
 17 18  1  0  0  0
 17 99  1  0  0  0
 18 19  2  0  0  0
 18100  1  0  0  0
 19 20  1  0  0  0
 19 24  1  0  0  0
 20 21  2  0  0  0
 20101  1  0  0  0
 21 23  1  0  0  0
 22 28  1  0  0  0
 22 32  2  0  0  0
 26 27  1  0  0  0
 28102  1  0  0  0
 28103  1  0  0  0
 29104  1  0  0  0
 29105  1  0  0  0
 33 34  1  0  0  0
 33 66  1  0  0  0
 33 70  2  0  0  0
 34 36  1  0  0  0
 34 59  1  0  0  0
 34106  1  0  0  0
 35 44  2  0  0  0
 35 45  1  0  0  0
 35 68  1  0  0  0
 36 56  1  0  0  0
 36107  1  0  0  0
 37 39  1  0  0  0
 37 47  1  0  0  0
 37 66  1  0  0  0
 37108  1  0  0  0
 38 43  2  0  0  0
 38 46  1  0  0  0
 38 47  1  0  0  0
 39 64  1  0  0  0
 39 67  2  0  0  0
 40 52  1  0  0  0
 40 53  2  0  0  0
 40 58  1  0  0  0
 41109  1  0  0  0
 41110  1  0  0  0
 41111  1  0  0  0
 41 48  1  0  0  0
 42 43  1  0  0  0
 42 66  1  0  0  0
 42112  1  0  0  0
 42113  1  0  0  0
 43 44  1  0  0  0
 44114  1  0  0  0
 45 46  2  0  0  0
 45115  1  0  0  0
 46116  1  0  0  0
 47117  1  0  0  0
 47118  1  0  0  0
 48 56  1  0  0  0
 48 65  1  0  0  0
 48119  1  0  0  0
 49 50  1  0  0  0
 49 53  1  0  0  0
 49 64  1  0  0  0
 49120  1  0  0  0
 50 51  1  0  0  0
 50121  1  0  0  0
 50122  1  0  0  0
 51 52  1  0  0  0
 51123  1  0  0  0
 51124  1  0  0  0
 52125  1  0  0  0
 52126  1  0  0  0
 53 54  1  0  0  0
 54 55  2  0  0  0
 54127  1  0  0  0
 55 57  1  0  0  0
 55128  1  0  0  0
 56 69  2  0  0  0
 57 58  2  0  0  0
 57129  1  0  0  0
 58130  1  0  0  0
 59 60  1  0  0  0
 59 61  1  0  0  0
 59 62  1  0  0  0
 60131  1  0  0  0
 60132  1  0  0  0
 60133  1  0  0  0
 61134  1  0  0  0
 61135  1  0  0  0
 61136  1  0  0  0
 62137  1  0  0  0
 62138  1  0  0  0
 62139  1  0  0  0
 63 65  1  0  0  0
 63140  1  0  0  0
 63141  1  0  0  0
 63142  1  0  0  0
 64143  1  0  0  0
 65144  1  0  0  0
 68 81  1  0  0  0
 71 73  2  0  0  0
 71 75  1  0  0  0
 71145  1  0  0  0
 72 74  2  0  0  0
 72 76  1  0  0  0
 72146  1  0  0  0
 73 74  1  0  0  0
 73 78  1  0  0  0
 74 83  1  0  0  0
 75 76  2  0  0  0
 75 84  1  0  0  0
 76 85  1  0  0  0
 77 78  2  0  0  0
 77147  1  0  0  0
 77148  1  0  0  0
 78149  1  0  0  0
 79 80  2  0  0  0
 79 81  1  0  0  0
 79150  1  0  0  0
 80 82  1  0  0  0
 80151  1  0  0  0
 81152  1  0  0  0
 81153  1  0  0  0
 82 84  1  0  0  0
 82154  1  0  0  0
 82155  1  0  0  0
 83156  1  0  0  0
M  ISO  4   1 100  68 101  81 101  83 100
M  END
> <chiral flag>
0

> <version>
0

> <s_m_source_file>
/data/baiqing/PycharmProjects/Reinvent-master-3.2/result/LINK_invent/BTK/process_docking_weight1_custom_product_contain_oxygen_bond_distance_aromatic_linkinvent_7_9_3/rearranged_h_0117.sdf

> <i_m_source_file_index>
4

> <r_mmod_Potential_Energy-OPLS-2005>
12.8989763259888

> <r_mmod_Stretch_Energy-OPLS-2005>
45.3143692016602

> <r_mmod_Bend_Energy-OPLS-2005>
106.262214660645

> <r_mmod_Torsional_Energy-OPLS-2005>
256.602569580078

> <r_mmod_Improper_Torsional_Energy-OPLS-2005>
6.3828821182251

> <r_mmod_Van_der_Waal_Energy-OPLS-2005>
155.524765014648

> <r_mmod_Electrostatic_Energy-OPLS-2005>
-371.385894775391

> <r_mmod_Solvation_Energy-OPLS-2005>
-201.693145751953

> <b_mmod_Minimization_Converged-OPLS-2005>
0

> <r_mmod_RMS_Derivative-OPLS-2005>
3.49982023239136

$$$$
4
                    3D
 Structure written by MMmdl.
163171  0  0  1  0            999 V2000
  -30.7089  -14.5298   20.6593 C   0  0  0  0  0  0
  -30.4268  -12.3802   19.4328 C   0  0  0  0  0  0
  -29.4937  -12.5328   18.2140 C   0  0  0  0  0  0
  -28.0190  -12.3702   18.6243 C   0  0  0  0  0  0
  -27.6613  -13.2101   19.8775 C   0  0  2  0  0  0
  -28.7006  -13.0016   20.9990 C   0  0  0  0  0  0
  -25.2607  -13.8172   20.5713 C   0  0  0  0  0  0
  -24.1852  -13.0451   20.9181 C   0  0  0  0  0  0
  -24.6400  -11.6913   20.8738 C   0  0  0  0  0  0
  -23.9064  -10.4305   21.0408 C   0  0  0  0  0  0
  -24.3616   -9.4223   21.9189 C   0  0  0  0  0  0
  -23.6298   -8.2256   22.0760 C   0  0  0  0  0  0
  -22.4286   -8.0294   21.3547 C   0  0  0  0  0  0
  -21.9913   -9.0266   20.4650 C   0  0  0  0  0  0
  -22.7237  -10.2147   20.3056 C   0  0  0  0  0  0
  -21.6861   -6.0747   22.5280 C   0  0  0  0  0  0
  -21.4017   -6.5647   23.8216 C   0  0  0  0  0  0
  -21.3648   -5.6796   24.9176 C   0  0  0  0  0  0
  -21.6040   -4.3058   24.7224 C   0  0  0  0  0  0
  -21.8817   -3.8152   23.4345 C   0  0  0  0  0  0
  -21.9202   -4.6972   22.3404 C   0  0  0  0  0  0
  -22.7878  -13.5256   21.1836 C   0  0  0  0  0  0
  -22.1673   -4.2150   21.0982 F   0  0  0  0  0  0
  -21.5621   -3.4542   25.7742 F   0  0  0  0  0  0
  -30.0239  -13.3558   20.4680 N   0  0  0  0  0  0
  -26.3035  -12.9337   20.3403 N   0  0  0  0  0  0
  -25.9334  -11.6494   20.5799 N   0  0  0  0  0  0
  -22.0516  -12.8249   22.0391 N   0  0  0  0  0  0
  -25.4315  -15.1883   20.4105 N   0  0  0  0  0  0
  -31.7241  -14.8002   20.0062 O   0  0  0  0  0  0
  -21.6649   -6.8892   21.4248 O   0  0  0  0  0  0
  -22.3563  -14.5561   20.6686 O   0  0  0  0  0  0
  -24.6203  -31.8603   23.2012 C   0  0  0  0  0  0
  -25.9069  -32.4774   23.8342 C   0  0  1  0  0  0
  -27.2430  -27.3723   20.1197 C   0  0  0  0  0  0
  -25.5888  -33.8568   24.2260 N   0  0  0  0  0  0
  -23.4144  -30.4790   21.5422 C   0  0  2  0  0  0
  -24.8643  -28.9299   20.1189 C   0  0  0  0  0  0
  -22.7448  -29.4608   22.4950 C   0  0  0  0  0  0
  -18.0267  -28.1366   22.8479 C   0  0  0  0  0  0
  -24.1481  -36.7295   23.2650 C   0  0  0  0  0  0
  -25.9467  -30.8096   21.3603 C   0  0  0  0  0  0
  -26.0269  -29.4372   20.7130 C   0  0  0  0  0  0
  -27.2219  -28.6698   20.6990 C   0  0  0  0  0  0
  -26.0615  -26.8866   19.5247 C   0  0  0  0  0  0
  -24.8781  -27.6563   19.5203 C   0  0  0  0  0  0
  -23.6279  -29.8050   20.1602 C   0  0  0  0  0  0
  -25.4102  -36.3063   24.0332 C   0  0  1  0  0  0
  -20.5871  -28.3650   23.1292 C   0  0  2  0  0  0
  -20.6756  -26.9367   22.5410 C   0  0  0  0  0  0
  -19.5730  -26.6348   21.5210 C   0  0  0  0  0  0
  -18.1911  -26.7913   22.1616 C   0  0  0  0  0  0
  -19.1526  -28.8826   23.2890 C   0  0  0  0  0  0
  -18.9464  -30.1438   23.8888 C   0  0  0  0  0  0
  -17.6468  -30.6577   24.0556 C   0  0  0  0  0  0
  -25.9034  -34.9441   23.5098 C   0  0  0  0  0  0
  -16.5352  -29.9075   23.6332 C   0  0  0  0  0  0
  -16.7260  -28.6499   23.0337 C   0  0  0  0  0  0
  -26.4474  -31.6587   25.0707 C   0  0  0  0  0  0
  -25.3724  -31.3708   26.1460 C   0  0  0  0  0  0
  -27.0345  -30.3037   24.6105 C   0  0  0  0  0  0
  -27.6050  -32.4321   25.7473 C   0  0  0  0  0  0
  -27.5562  -37.1794   24.8464 C   0  0  0  0  0  0
  -21.4168  -29.3021   22.3715 N   0  0  0  0  0  0
  -26.4273  -37.3758   23.9408 N   0  0  0  0  0  0
  -24.6793  -31.0657   22.0935 N   0  0  0  0  0  0
  -23.4195  -28.8148   23.3010 O   0  0  0  0  0  0
  -28.4010  -26.6056   20.0791 O   0  0  0  0  0  0
  -26.5616  -34.8918   22.4669 O   0  0  0  0  0  0
  -23.5378  -32.1364   23.7368 O   0  0  0  0  0  0
  -27.5808  -18.0301   22.5424 C   0  0  0  0  0  0
  -29.8719  -17.8440   21.0081 C   0  0  0  0  0  0
  -28.3088  -16.8215   22.5757 C   0  0  0  0  0  0
  -27.9910  -19.1687   21.8242 C   0  0  0  0  0  0
  -29.4728  -16.6801   21.7533 C   0  0  0  0  0  0
  -29.1817  -19.1060   21.0511 C   0  0  0  0  0  0
  -27.0645  -16.0071   24.6324 C   0  0  0  0  0  0
  -26.8036  -20.8246   23.2545 C   0  0  0  0  0  0
  -27.8808  -15.8079   23.5814 C   0  0  0  0  0  0
  -27.1941  -20.3849   22.0462 C   0  0  0  0  0  0
  -30.3532  -15.4281   21.8735 C   0  0  0  0  0  0
  -28.5819  -24.0166   19.9184 C   0  0  0  0  0  0
  -29.0636  -22.7211   20.6862 C   0  0  0  0  0  0
  -28.4183  -25.3258   20.7801 C   0  0  0  0  0  0
  -29.0922  -21.3650   19.8724 C   0  0  0  0  0  0
  -30.8465  -15.1263   23.0039 N   0  0  0  0  0  0
  -29.7952  -20.2206   20.4540 O   0  0  0  0  0  0
  -31.4657  -12.5076   19.1246 H   0  0  0  0  0  0
  -30.3689  -11.3683   19.8362 H   0  0  0  0  0  0
  -29.7513  -11.8005   17.4476 H   0  0  0  0  0  0
  -29.6421  -13.5141   17.7627 H   0  0  0  0  0  0
  -27.8407  -11.3134   18.8255 H   0  0  0  0  0  0
  -27.3636  -12.6356   17.7938 H   0  0  0  0  0  0
  -27.7031  -14.2593   19.5842 H   0  0  0  0  0  0
  -28.7032  -11.9644   21.3353 H   0  0  0  0  0  0
  -28.4200  -13.5806   21.8677 H   0  0  0  0  0  0
  -25.2765   -9.5715   22.4755 H   0  0  0  0  0  0
  -24.0010   -7.4657   22.7477 H   0  0  0  0  0  0
  -21.0846   -8.8784   19.8959 H   0  0  0  0  0  0
  -22.3699  -10.9687   19.6157 H   0  0  0  0  0  0
  -21.2011   -7.6159   23.9725 H   0  0  0  0  0  0
  -21.1462   -6.0528   25.9078 H   0  0  0  0  0  0
  -22.0604   -2.7615   23.2850 H   0  0  0  0  0  0
  -22.4107  -11.9882   22.4749 H   0  0  0  0  0  0
  -21.1124  -13.1255   22.2574 H   0  0  0  0  0  0
  -24.6707  -15.8449   20.5455 H   0  0  0  0  0  0
  -26.2965  -15.6372   20.1387 H   0  0  0  0  0  0
  -26.7145  -32.5468   23.1106 H   0  0  0  0  0  0
  -25.0047  -33.9710   25.0411 H   0  0  0  0  0  0
  -22.7064  -31.2975   21.3923 H   0  0  0  0  0  0
  -23.3731  -35.9649   23.3307 H   0  0  0  0  0  0
  -24.3589  -36.8906   22.2069 H   0  0  0  0  0  0
  -23.7250  -37.6500   23.6679 H   0  0  0  0  0  0
  -26.0582  -31.5680   20.5848 H   0  0  0  0  0  0
  -26.8352  -30.8691   21.9774 H   0  0  0  0  0  0
  -28.1265  -29.0608   21.1427 H   0  0  0  0  0  0
  -26.0599  -25.9108   19.0598 H   0  0  0  0  0  0
  -23.9858  -27.2574   19.0592 H   0  0  0  0  0  0
  -23.7390  -30.5756   19.3960 H   0  0  0  0  0  0
  -22.7528  -29.2244   19.8621 H   0  0  0  0  0  0
  -25.1264  -36.1920   25.0825 H   0  0  0  0  0  0
  -20.9965  -28.3204   24.1405 H   0  0  0  0  0  0
  -20.5626  -26.2246   23.3602 H   0  0  0  0  0  0
  -21.6627  -26.7363   22.1214 H   0  0  0  0  0  0
  -19.6901  -25.6259   21.1220 H   0  0  0  0  0  0
  -19.6694  -27.3179   20.6766 H   0  0  0  0  0  0
  -17.4178  -26.6662   21.4013 H   0  0  0  0  0  0
  -18.0299  -26.0049   22.9000 H   0  0  0  0  0  0
  -19.7958  -30.7246   24.2246 H   0  0  0  0  0  0
  -17.5030  -31.6263   24.5141 H   0  0  0  0  0  0
  -15.5358  -30.2972   23.7689 H   0  0  0  0  0  0
  -15.8656  -28.0835   22.7036 H   0  0  0  0  0  0
  -24.5904  -30.7028   25.7791 H   0  0  0  0  0  0
  -24.8921  -32.2879   26.4897 H   0  0  0  0  0  0
  -25.8078  -30.8885   27.0227 H   0  0  0  0  0  0
  -26.2905  -29.6762   24.1168 H   0  0  0  0  0  0
  -27.4147  -29.7293   25.4566 H   0  0  0  0  0  0
  -27.8703  -30.4370   23.9231 H   0  0  0  0  0  0
  -27.2666  -33.3621   26.2057 H   0  0  0  0  0  0
  -28.3868  -32.6881   25.0300 H   0  0  0  0  0  0
  -28.0714  -31.8432   26.5377 H   0  0  0  0  0  0
  -28.2572  -38.0096   24.7497 H   0  0  0  0  0  0
  -28.1050  -36.2619   24.6284 H   0  0  0  0  0  0
  -27.2285  -37.1437   25.8871 H   0  0  0  0  0  0
  -20.9336  -29.8768   21.6954 H   0  0  0  0  0  0
  -26.0142  -38.2819   24.1445 H   0  0  0  0  0  0
  -26.6819  -18.1246   23.1309 H   0  0  0  0  0  0
  -30.7949  -17.7908   20.4483 H   0  0  0  0  0  0
  -26.8194  -15.1896   25.2969 H   0  0  0  0  0  0
  -26.6293  -16.9660   24.8707 H   0  0  0  0  0  0
  -26.2066  -21.7196   23.3535 H   0  0  0  0  0  0
  -27.0749  -20.3068   24.1648 H   0  0  0  0  0  0
  -28.2532  -14.8042   23.4812 H   0  0  0  0  0  0
  -26.8684  -20.9399   21.1810 H   0  0  0  0  0  0
  -27.6370  -23.8123   19.4147 H   0  0  0  0  0  0
  -29.3038  -24.2193   19.1289 H   0  0  0  0  0  0
  -28.4552  -22.6078   21.5796 H   0  0  0  0  0  0
  -30.0697  -22.9114   21.0595 H   0  0  0  0  0  0
  -29.2712  -25.3820   21.4585 H   0  0  0  0  0  0
  -27.5491  -25.2342   21.4321 H   0  0  0  0  0  0
  -29.6445  -21.5767   18.9562 H   0  0  0  0  0  0
  -28.1083  -21.0834   19.5032 H   0  0  0  0  0  0
  -30.5549  -15.7927   23.7096 H   0  0  0  0  0  0
  1 25  1  0  0  0
  1 30  2  0  0  0
  1 81  1  0  0  0
  2  3  1  0  0  0
  2 25  1  0  0  0
  2 88  1  0  0  0
  2 89  1  0  0  0
  3  4  1  0  0  0
  3 90  1  0  0  0
  3 91  1  0  0  0
  4  5  1  0  0  0
  4 92  1  0  0  0
  4 93  1  0  0  0
  5  6  1  0  0  0
  5 26  1  0  0  0
  5 94  1  0  0  0
  6 25  1  0  0  0
  6 95  1  0  0  0
  6 96  1  0  0  0
  7  8  2  0  0  0
  7 26  1  0  0  0
  7 29  1  0  0  0
  8  9  1  0  0  0
  8 22  1  0  0  0
  9 10  1  0  0  0
  9 27  2  0  0  0
 10 11  2  0  0  0
 10 15  1  0  0  0
 11 12  1  0  0  0
 11 97  1  0  0  0
 12 13  2  0  0  0
 12 98  1  0  0  0
 13 14  1  0  0  0
 13 31  1  0  0  0
 14 15  2  0  0  0
 14 99  1  0  0  0
 15100  1  0  0  0
 16 17  2  0  0  0
 16 21  1  0  0  0
 16 31  1  0  0  0
 17 18  1  0  0  0
 17101  1  0  0  0
 18 19  2  0  0  0
 18102  1  0  0  0
 19 20  1  0  0  0
 19 24  1  0  0  0
 20 21  2  0  0  0
 20103  1  0  0  0
 21 23  1  0  0  0
 22 28  1  0  0  0
 22 32  2  0  0  0
 26 27  1  0  0  0
 28104  1  0  0  0
 28105  1  0  0  0
 29106  1  0  0  0
 29107  1  0  0  0
 33 34  1  0  0  0
 33 66  1  0  0  0
 33 70  2  0  0  0
 34 36  1  0  0  0
 34 59  1  0  0  0
 34108  1  0  0  0
 35 44  2  0  0  0
 35 45  1  0  0  0
 35 68  1  0  0  0
 36 56  1  0  0  0
 36109  1  0  0  0
 37 39  1  0  0  0
 37 47  1  0  0  0
 37 66  1  0  0  0
 37110  1  0  0  0
 38 43  2  0  0  0
 38 46  1  0  0  0
 38 47  1  0  0  0
 39 64  1  0  0  0
 39 67  2  0  0  0
 40 52  1  0  0  0
 40 53  2  0  0  0
 40 58  1  0  0  0
 41111  1  0  0  0
 41112  1  0  0  0
 41113  1  0  0  0
 41 48  1  0  0  0
 42 43  1  0  0  0
 42 66  1  0  0  0
 42114  1  0  0  0
 42115  1  0  0  0
 43 44  1  0  0  0
 44116  1  0  0  0
 45 46  2  0  0  0
 45117  1  0  0  0
 46118  1  0  0  0
 47119  1  0  0  0
 47120  1  0  0  0
 48 56  1  0  0  0
 48 65  1  0  0  0
 48121  1  0  0  0
 49 50  1  0  0  0
 49 53  1  0  0  0
 49 64  1  0  0  0
 49122  1  0  0  0
 50 51  1  0  0  0
 50123  1  0  0  0
 50124  1  0  0  0
 51 52  1  0  0  0
 51125  1  0  0  0
 51126  1  0  0  0
 52127  1  0  0  0
 52128  1  0  0  0
 53 54  1  0  0  0
 54 55  2  0  0  0
 54129  1  0  0  0
 55 57  1  0  0  0
 55130  1  0  0  0
 56 69  2  0  0  0
 57 58  2  0  0  0
 57131  1  0  0  0
 58132  1  0  0  0
 59 60  1  0  0  0
 59 61  1  0  0  0
 59 62  1  0  0  0
 60133  1  0  0  0
 60134  1  0  0  0
 60135  1  0  0  0
 61136  1  0  0  0
 61137  1  0  0  0
 61138  1  0  0  0
 62139  1  0  0  0
 62140  1  0  0  0
 62141  1  0  0  0
 63 65  1  0  0  0
 63142  1  0  0  0
 63143  1  0  0  0
 63144  1  0  0  0
 64145  1  0  0  0
 65146  1  0  0  0
 68 84  1  0  0  0
 71 73  2  0  0  0
 71 74  1  0  0  0
 71147  1  0  0  0
 72 75  2  0  0  0
 72 76  1  0  0  0
 72148  1  0  0  0
 73 75  1  0  0  0
 73 79  1  0  0  0
 74 76  2  0  0  0
 74 80  1  0  0  0
 75 81  1  0  0  0
 76 87  1  0  0  0
 77 79  2  0  0  0
 77149  1  0  0  0
 77150  1  0  0  0
 78 80  2  0  0  0
 78151  1  0  0  0
 78152  1  0  0  0
 79153  1  0  0  0
 80154  1  0  0  0
 81 86  2  0  0  0
 82 83  1  0  0  0
 82 84  1  0  0  0
 82155  1  0  0  0
 82156  1  0  0  0
 83 85  1  0  0  0
 83157  1  0  0  0
 83158  1  0  0  0
 84159  1  0  0  0
 84160  1  0  0  0
 85 87  1  0  0  0
 85161  1  0  0  0
 85162  1  0  0  0
 86163  1  0  0  0
M  ISO  4   1 100  68 101  81 100  84 101
M  END
> <chiral flag>
0

> <version>
0

> <s_m_source_file>
/data/baiqing/PycharmProjects/Reinvent-master-3.2/result/LINK_invent/BTK/process_docking_weight1_custom_product_contain_oxygen_bond_distance_aromatic_linkinvent_7_9_3/rearranged_h_0117.sdf

> <i_m_source_file_index>
5

> <r_mmod_Potential_Energy-OPLS-2005>
274.435913085938

> <r_mmod_Stretch_Energy-OPLS-2005>
74.9915618896484

> <r_mmod_Bend_Energy-OPLS-2005>
160.289688110352

> <r_mmod_Torsional_Energy-OPLS-2005>
286.712677001953

> <r_mmod_Improper_Torsional_Energy-OPLS-2005>
7.15253782272339

> <r_mmod_Van_der_Waal_Energy-OPLS-2005>
150.225326538086

> <r_mmod_Electrostatic_Energy-OPLS-2005>
-233.714065551758

> <r_mmod_Solvation_Energy-OPLS-2005>
-194.187530517578

> <b_mmod_Minimization_Converged-OPLS-2005>
0

> <r_mmod_RMS_Derivative-OPLS-2005>
2.87456750869751

$$$$
5
                    3D
 Structure written by MMmdl.
184193  0  0  1  0            999 V2000
  -30.4533  -14.9521   20.3470 C   0  0  0  0  0  0
  -30.4462  -12.5804   19.4668 C   0  0  0  0  0  0
  -29.5160  -12.5309   18.2339 C   0  0  0  0  0  0
  -28.0439  -12.3234   18.6544 C   0  0  0  0  0  0
  -27.6278  -13.2360   19.8364 C   0  0  2  0  0  0
  -28.6763  -13.2363   20.9647 C   0  0  0  0  0  0
  -25.2573  -13.8112   20.6095 C   0  0  0  0  0  0
  -24.1788  -13.0362   20.9307 C   0  0  0  0  0  0
  -24.6365  -11.6861   20.8669 C   0  0  0  0  0  0
  -23.9022  -10.4283   21.0343 C   0  0  0  0  0  0
  -24.3516   -9.4258   21.9208 C   0  0  0  0  0  0
  -23.6204   -8.2295   22.0764 C   0  0  0  0  0  0
  -22.4223   -8.0315   21.3495 C   0  0  0  0  0  0
  -21.9899   -9.0246   20.4524 C   0  0  0  0  0  0
  -22.7237  -10.2118   20.2916 C   0  0  0  0  0  0
  -21.6849   -6.0761   22.5267 C   0  0  0  0  0  0
  -21.4021   -6.5643   23.8230 C   0  0  0  0  0  0
  -21.3621   -5.6763   24.9161 C   0  0  0  0  0  0
  -21.6032   -4.3037   24.7194 C   0  0  0  0  0  0
  -21.8828   -3.8138   23.4311 C   0  0  0  0  0  0
  -21.9192   -4.6980   22.3390 C   0  0  0  0  0  0
  -22.7787  -13.5158   21.1924 C   0  0  0  0  0  0
  -22.1661   -4.2165   21.0958 F   0  0  0  0  0  0
  -21.5617   -3.4505   25.7696 F   0  0  0  0  0  0
  -29.9428  -13.6612   20.3568 N   0  0  0  0  0  0
  -26.2892  -12.9341   20.3273 N   0  0  0  0  0  0
  -25.9279  -11.6468   20.5607 N   0  0  0  0  0  0
  -22.0335  -12.8114   22.0381 N   0  0  0  0  0  0
  -25.4390  -15.1830   20.5263 N   0  0  0  0  0  0
  -31.6644  -15.0883   20.1412 O   0  0  0  0  0  0
  -21.6601   -6.8914   21.4233 O   0  0  0  0  0  0
  -22.3512  -14.5430   20.6711 O   0  0  0  0  0  0
  -24.6427  -31.8414   23.1847 C   0  0  0  0  0  0
  -25.9244  -32.4635   23.8206 C   0  0  1  0  0  0
  -27.2370  -27.1719   20.1361 C   0  0  0  0  0  0
  -25.6019  -33.8430   24.2145 N   0  0  0  0  0  0
  -23.4411  -30.4607   21.5266 C   0  0  2  0  0  0
  -24.8934  -28.8842   20.0930 C   0  0  0  0  0  0
  -22.7523  -29.4569   22.4835 C   0  0  0  0  0  0
  -18.0298  -28.1420   22.8462 C   0  0  0  0  0  0
  -24.1487  -36.7228   23.2651 C   0  0  0  0  0  0
  -25.9897  -30.7265   21.3736 C   0  0  0  0  0  0
  -26.0586  -29.3363   20.7210 C   0  0  0  0  0  0
  -27.2216  -28.4891   20.7379 C   0  0  0  0  0  0
  -26.0544  -26.8070   19.4625 C   0  0  0  0  0  0
  -24.9027  -27.6333   19.4467 C   0  0  0  0  0  0
  -23.6635  -29.7798   20.1433 C   0  0  0  0  0  0
  -25.4115  -36.2973   24.0313 C   0  0  1  0  0  0
  -20.5896  -28.3744   23.1218 C   0  0  2  0  0  0
  -20.6781  -26.9452   22.5384 C   0  0  0  0  0  0
  -19.5766  -26.6394   21.5183 C   0  0  0  0  0  0
  -18.1947  -26.7963   22.1592 C   0  0  0  0  0  0
  -19.1545  -28.8896   23.2833 C   0  0  0  0  0  0
  -18.9485  -30.1491   23.8855 C   0  0  0  0  0  0
  -17.6481  -30.6599   24.0577 C   0  0  0  0  0  0
  -25.9078  -34.9368   23.5031 C   0  0  0  0  0  0
  -16.5368  -29.9098   23.6358 C   0  0  0  0  0  0
  -16.7280  -28.6528   23.0352 C   0  0  0  0  0  0
  -26.4606  -31.6486   25.0628 C   0  0  0  0  0  0
  -25.3856  -31.3642   26.1371 C   0  0  0  0  0  0
  -27.0490  -30.2891   24.6191 C   0  0  0  0  0  0
  -27.6122  -32.4277   25.7429 C   0  0  0  0  0  0
  -27.5547  -37.1763   24.8485 C   0  0  0  0  0  0
  -21.4216  -29.3056   22.3570 N   0  0  0  0  0  0
  -26.4250  -37.3703   23.9442 N   0  0  0  0  0  0
  -24.7102  -31.0334   22.0817 N   0  0  0  0  0  0
  -23.4179  -28.8144   23.2995 O   0  0  0  0  0  0
  -28.3311  -26.2560   20.2754 O   0  0  0  0  0  0
  -26.5633  -34.8904   22.4582 O   0  0  0  0  0  0
  -23.5565  -32.1258   23.7116 O   0  0  0  0  0  0
  -30.5277  -18.5009   20.3389 C   0  0  0  0  0  0
  -28.0838  -19.6863   19.8662 C   0  0  0  0  0  0
  -30.3978  -19.9499   20.2029 C   0  0  0  0  0  0
  -29.1433  -20.6399   19.9697 C   0  0  0  0  0  0
  -29.4616  -17.5535   20.1837 C   0  0  0  0  0  0
  -28.2214  -18.2293   19.8641 C   0  0  0  0  0  0
  -26.7103  -21.8931   17.5432 C   0  0  0  0  0  0
  -32.6749  -20.4637   19.4488 C   0  0  0  0  0  0
  -31.6556  -20.7174   20.2874 C   0  0  0  0  0  0
  -26.3128  -23.1369   18.3345 C   0  0  0  0  0  0
  -28.1824  -21.6278   17.1897 C   0  0  0  0  0  0
  -26.6971  -23.0915   19.8323 C   0  0  0  0  0  0
  -29.2818  -22.1810   18.1326 C   0  0  0  0  0  0
  -28.1956  -23.2976   20.1187 C   0  0  2  0  0  0
  -31.7771  -21.7502   21.3907 C   0  0  0  0  0  0
  -23.0424  -17.8534   17.7689 C   0  0  0  0  0  0
  -26.4274  -16.0172   17.0441 C   0  0  0  0  0  0
  -28.5720  -24.8736   19.6338 C   0  0  0  0  0  0
  -24.0818  -16.7226   17.8123 C   0  0  0  0  0  0
  -26.1985  -18.0634   18.5755 C   0  0  0  0  0  0
  -25.5268  -17.1738   17.4997 C   0  0  1  0  0  0
  -29.0165  -22.0811   19.5748 N   0  0  0  0  0  0
  -29.5202  -16.0259   20.3315 N   0  0  0  0  0  0
  -25.8359  -21.1228   17.1459 O   0  0  0  0  0  0
  -27.1545  -17.4328   19.4566 O   0  0  0  0  0  0
  -31.4757  -12.7632   19.1539 H   0  0  0  0  0  0
  -30.4541  -11.6194   19.9837 H   0  0  0  0  0  0
  -29.8322  -11.7340   17.5599 H   0  0  0  0  0  0
  -29.6075  -13.4628   17.6724 H   0  0  0  0  0  0
  -27.9238  -11.2784   18.9419 H   0  0  0  0  0  0
  -27.3720  -12.4834   17.8086 H   0  0  0  0  0  0
  -27.5911  -14.2441   19.4259 H   0  0  0  0  0  0
  -28.7714  -12.2462   21.4106 H   0  0  0  0  0  0
  -28.3776  -13.9133   21.7688 H   0  0  0  0  0  0
  -25.2601   -9.5783   22.4868 H   0  0  0  0  0  0
  -23.9871   -7.4698   22.7518 H   0  0  0  0  0  0
  -21.0882   -8.8723   19.8736 H   0  0  0  0  0  0
  -22.3767  -10.9620   19.5936 H   0  0  0  0  0  0
  -21.2036   -7.6145   23.9783 H   0  0  0  0  0  0
  -21.1389   -6.0430   25.9087 H   0  0  0  0  0  0
  -22.0637   -2.7603   23.2759 H   0  0  0  0  0  0
  -22.3938  -11.9786   22.4780 H   0  0  0  0  0  0
  -21.0847  -13.0978   22.2439 H   0  0  0  0  0  0
  -24.6717  -15.8214   20.6960 H   0  0  0  0  0  0
  -26.2716  -15.6638   20.2165 H   0  0  0  0  0  0
  -26.7313  -32.5295   23.0940 H   0  0  0  0  0  0
  -25.0314  -33.9496   25.0405 H   0  0  0  0  0  0
  -22.7486  -31.2898   21.3703 H   0  0  0  0  0  0
  -23.3712  -35.9592   23.3269 H   0  0  0  0  0  0
  -24.3604  -36.8891   22.2076 H   0  0  0  0  0  0
  -23.7245  -37.6424   23.6690 H   0  0  0  0  0  0
  -26.1414  -31.4746   20.5923 H   0  0  0  0  0  0
  -26.8616  -30.7797   22.0148 H   0  0  0  0  0  0
  -28.1031  -28.8242   21.2667 H   0  0  0  0  0  0
  -25.9988  -25.8482   18.9758 H   0  0  0  0  0  0
  -24.0161  -27.2814   18.9389 H   0  0  0  0  0  0
  -23.7901  -30.5504   19.3816 H   0  0  0  0  0  0
  -22.7779  -29.2173   19.8377 H   0  0  0  0  0  0
  -25.1287  -36.1773   25.0786 H   0  0  0  0  0  0
  -21.0015  -28.3355   24.1332 H   0  0  0  0  0  0
  -20.5679  -26.2374   23.3617 H   0  0  0  0  0  0
  -21.6664  -26.7482   22.1189 H   0  0  0  0  0  0
  -19.6936  -25.6292   21.1251 H   0  0  0  0  0  0
  -19.6698  -27.3188   20.6700 H   0  0  0  0  0  0
  -17.4222  -26.6704   21.3993 H   0  0  0  0  0  0
  -18.0348  -26.0114   22.8991 H   0  0  0  0  0  0
  -19.7964  -30.7309   24.2201 H   0  0  0  0  0  0
  -17.5048  -31.6283   24.5183 H   0  0  0  0  0  0
  -15.5372  -30.2998   23.7698 H   0  0  0  0  0  0
  -15.8683  -28.0840   22.7079 H   0  0  0  0  0  0
  -24.6095  -30.6896   25.7746 H   0  0  0  0  0  0
  -24.9015  -32.2799   26.4745 H   0  0  0  0  0  0
  -25.8251  -30.8910   27.0161 H   0  0  0  0  0  0
  -26.3092  -29.6572   24.1263 H   0  0  0  0  0  0
  -27.4184  -29.7222   25.4743 H   0  0  0  0  0  0
  -27.8957  -30.4109   23.9437 H   0  0  0  0  0  0
  -27.2675  -33.3612   26.1882 H   0  0  0  0  0  0
  -28.3990  -32.6747   25.0292 H   0  0  0  0  0  0
  -28.0709  -31.8489   26.5452 H   0  0  0  0  0  0
  -28.2542  -38.0077   24.7516 H   0  0  0  0  0  0
  -28.1038  -36.2596   24.6282 H   0  0  0  0  0  0
  -27.2301  -37.1411   25.8900 H   0  0  0  0  0  0
  -20.9439  -29.8761   21.6738 H   0  0  0  0  0  0
  -26.0087  -38.2765   24.1419 H   0  0  0  0  0  0
  -31.5117  -18.1058   20.5431 H   0  0  0  0  0  0
  -27.1142  -20.1115   19.6709 H   0  0  0  0  0  0
  -32.5940  -19.7158   18.6720 H   0  0  0  0  0  0
  -33.6090  -21.0002   19.5250 H   0  0  0  0  0  0
  -25.2303  -23.2300   18.2589 H   0  0  0  0  0  0
  -26.7124  -24.0071   17.8202 H   0  0  0  0  0  0
  -28.3631  -22.0057   16.1835 H   0  0  0  0  0  0
  -28.3019  -20.5468   17.1209 H   0  0  0  0  0  0
  -26.3477  -22.1591   20.2727 H   0  0  0  0  0  0
  -26.1425  -23.8715   20.3589 H   0  0  0  0  0  0
  -29.4823  -23.2152   17.8588 H   0  0  0  0  0  0
  -30.2174  -21.6627   17.9161 H   0  0  0  0  0  0
  -28.3346  -23.2708   21.2010 H   0  0  0  0  0  0
  -31.0557  -22.5556   21.2602 H   0  0  0  0  0  0
  -32.7718  -22.1939   21.3988 H   0  0  0  0  0  0
  -31.6098  -21.2916   22.3658 H   0  0  0  0  0  0
  -22.0347  -17.4598   17.9159 H   0  0  0  0  0  0
  -23.0568  -18.3738   16.8101 H   0  0  0  0  0  0
  -23.2144  -18.5905   18.5538 H   0  0  0  0  0  0
  -26.0816  -15.6126   16.0918 H   0  0  0  0  0  0
  -26.4295  -15.2054   17.7669 H   0  0  0  0  0  0
  -27.4578  -16.3430   16.9004 H   0  0  0  0  0  0
  -28.3312  -25.0034   18.5815 H   0  0  0  0  0  0
  -29.6629  -24.8568   19.6173 H   0  0  0  0  0  0
  -23.7852  -15.9640   17.0858 H   0  0  0  0  0  0
  -24.0239  -16.2441   18.7825 H   0  0  0  0  0  0
  -25.4529  -18.5879   19.1745 H   0  0  0  0  0  0
  -26.7103  -18.8194   17.9800 H   0  0  0  0  0  0
  -25.4243  -17.8119   16.6200 H   0  0  0  0  0  0
  -28.5917  -15.6438   20.4007 H   0  0  0  0  0  0
  1 25  1  0  0  0
  1 30  2  0  0  0
  1 93  1  0  0  0
  2  3  1  0  0  0
  2 25  1  0  0  0
  2 96  1  0  0  0
  2 97  1  0  0  0
  3  4  1  0  0  0
  3 98  1  0  0  0
  3 99  1  0  0  0
  4  5  1  0  0  0
  4100  1  0  0  0
  4101  1  0  0  0
  5  6  1  0  0  0
  5 26  1  0  0  0
  5102  1  0  0  0
  6 25  1  0  0  0
  6103  1  0  0  0
  6104  1  0  0  0
  7  8  2  0  0  0
  7 26  1  0  0  0
  7 29  1  0  0  0
  8  9  1  0  0  0
  8 22  1  0  0  0
  9 10  1  0  0  0
  9 27  2  0  0  0
 10 11  2  0  0  0
 10 15  1  0  0  0
 11 12  1  0  0  0
 11105  1  0  0  0
 12 13  2  0  0  0
 12106  1  0  0  0
 13 14  1  0  0  0
 13 31  1  0  0  0
 14 15  2  0  0  0
 14107  1  0  0  0
 15108  1  0  0  0
 16 17  2  0  0  0
 16 21  1  0  0  0
 16 31  1  0  0  0
 17 18  1  0  0  0
 17109  1  0  0  0
 18 19  2  0  0  0
 18110  1  0  0  0
 19 20  1  0  0  0
 19 24  1  0  0  0
 20 21  2  0  0  0
 20111  1  0  0  0
 21 23  1  0  0  0
 22 28  1  0  0  0
 22 32  2  0  0  0
 26 27  1  0  0  0
 28112  1  0  0  0
 28113  1  0  0  0
 29114  1  0  0  0
 29115  1  0  0  0
 33 34  1  0  0  0
 33 66  1  0  0  0
 33 70  2  0  0  0
 34 36  1  0  0  0
 34 59  1  0  0  0
 34116  1  0  0  0
 35 44  2  0  0  0
 35 45  1  0  0  0
 35 68  1  0  0  0
 36 56  1  0  0  0
 36117  1  0  0  0
 37 39  1  0  0  0
 37 47  1  0  0  0
 37 66  1  0  0  0
 37118  1  0  0  0
 38 43  2  0  0  0
 38 46  1  0  0  0
 38 47  1  0  0  0
 39 64  1  0  0  0
 39 67  2  0  0  0
 40 52  1  0  0  0
 40 53  2  0  0  0
 40 58  1  0  0  0
 41119  1  0  0  0
 41120  1  0  0  0
 41121  1  0  0  0
 41 48  1  0  0  0
 42 43  1  0  0  0
 42 66  1  0  0  0
 42122  1  0  0  0
 42123  1  0  0  0
 43 44  1  0  0  0
 44124  1  0  0  0
 45 46  2  0  0  0
 45125  1  0  0  0
 46126  1  0  0  0
 47127  1  0  0  0
 47128  1  0  0  0
 48 56  1  0  0  0
 48 65  1  0  0  0
 48129  1  0  0  0
 49 50  1  0  0  0
 49 53  1  0  0  0
 49 64  1  0  0  0
 49130  1  0  0  0
 50 51  1  0  0  0
 50131  1  0  0  0
 50132  1  0  0  0
 51 52  1  0  0  0
 51133  1  0  0  0
 51134  1  0  0  0
 52135  1  0  0  0
 52136  1  0  0  0
 53 54  1  0  0  0
 54 55  2  0  0  0
 54137  1  0  0  0
 55 57  1  0  0  0
 55138  1  0  0  0
 56 69  2  0  0  0
 57 58  2  0  0  0
 57139  1  0  0  0
 58140  1  0  0  0
 59 60  1  0  0  0
 59 61  1  0  0  0
 59 62  1  0  0  0
 60141  1  0  0  0
 60142  1  0  0  0
 60143  1  0  0  0
 61144  1  0  0  0
 61145  1  0  0  0
 61146  1  0  0  0
 62147  1  0  0  0
 62148  1  0  0  0
 62149  1  0  0  0
 63 65  1  0  0  0
 63150  1  0  0  0
 63151  1  0  0  0
 63152  1  0  0  0
 64153  1  0  0  0
 65154  1  0  0  0
 68 88  1  0  0  0
 71 73  2  0  0  0
 71 75  1  0  0  0
 71155  1  0  0  0
 72 74  2  0  0  0
 72 76  1  0  0  0
 72156  1  0  0  0
 73 74  1  0  0  0
 73 79  1  0  0  0
 74 92  1  0  0  0
 75 76  2  0  0  0
 75 93  1  0  0  0
 76 95  1  0  0  0
 77 80  1  0  0  0
 77 81  1  0  0  0
 77 94  2  0  0  0
 78 79  2  0  0  0
 78157  1  0  0  0
 78158  1  0  0  0
 79 85  1  0  0  0
 80 82  1  0  0  0
 80159  1  0  0  0
 80160  1  0  0  0
 81 83  1  0  0  0
 81161  1  0  0  0
 81162  1  0  0  0
 82 84  1  0  0  0
 82163  1  0  0  0
 82164  1  0  0  0
 83 92  1  0  0  0
 83165  1  0  0  0
 83166  1  0  0  0
 84 88  1  0  0  0
 84 92  1  0  0  0
 84167  1  0  0  0
 85168  1  0  0  0
 85169  1  0  0  0
 85170  1  0  0  0
 86 89  1  0  0  0
 86171  1  0  0  0
 86172  1  0  0  0
 86173  1  0  0  0
 87174  1  0  0  0
 87175  1  0  0  0
 87176  1  0  0  0
 87 91  1  0  0  0
 88177  1  0  0  0
 88178  1  0  0  0
 89 91  1  0  0  0
 89179  1  0  0  0
 89180  1  0  0  0
 90 91  1  0  0  0
 90 95  1  0  0  0
 90181  1  0  0  0
 90182  1  0  0  0
 91183  1  0  0  0
 93184  1  0  0  0
M  ISO  4   1 100  68 101  88 101  93 100
M  END
> <chiral flag>
0

> <version>
0

> <s_m_source_file>
/data/baiqing/PycharmProjects/Reinvent-master-3.2/result/LINK_invent/BTK/process_docking_weight1_custom_product_contain_oxygen_bond_distance_aromatic_linkinvent_7_9_3/rearranged_h_0117.sdf

> <i_m_source_file_index>
6

> <r_mmod_Potential_Energy-OPLS-2005>
578.81640625

> <r_mmod_Stretch_Energy-OPLS-2005>
230.2919921875

> <r_mmod_Bend_Energy-OPLS-2005>
335.288330078125

> <r_mmod_Torsional_Energy-OPLS-2005>
303.182250976562

> <r_mmod_Improper_Torsional_Energy-OPLS-2005>
10.5023641586304

> <r_mmod_Van_der_Waal_Energy-OPLS-2005>
122.871315002441

> <r_mmod_Electrostatic_Energy-OPLS-2005>
-413.367126464844

> <r_mmod_Solvation_Energy-OPLS-2005>
-199.216232299805

> <b_mmod_Minimization_Converged-OPLS-2005>
0

> <r_mmod_RMS_Derivative-OPLS-2005>
4.28811979293823

$$$$
6
                    3D
 Structure written by MMmdl.
151159  0  0  1  0            999 V2000
  -30.6316  -14.6948   20.4922 C   0  0  0  0  0  0
  -30.4365  -12.4272   19.4783 C   0  0  0  0  0  0
  -29.5150  -12.5271   18.2399 C   0  0  0  0  0  0
  -28.0358  -12.3551   18.6401 C   0  0  0  0  0  0
  -27.6510  -13.2234   19.8672 C   0  0  2  0  0  0
  -28.6925  -13.0744   20.9959 C   0  0  0  0  0  0
  -25.2540  -13.8186   20.5710 C   0  0  0  0  0  0
  -24.1811  -13.0434   20.9187 C   0  0  0  0  0  0
  -24.6392  -11.6911   20.8732 C   0  0  0  0  0  0
  -23.9067  -10.4288   21.0398 C   0  0  0  0  0  0
  -24.3616   -9.4204   21.9173 C   0  0  0  0  0  0
  -23.6286   -8.2245   22.0751 C   0  0  0  0  0  0
  -22.4262   -8.0289   21.3552 C   0  0  0  0  0  0
  -21.9903   -9.0259   20.4647 C   0  0  0  0  0  0
  -22.7240  -10.2132   20.3049 C   0  0  0  0  0  0
  -21.6850   -6.0737   22.5281 C   0  0  0  0  0  0
  -21.4014   -6.5640   23.8216 C   0  0  0  0  0  0
  -21.3659   -5.6795   24.9179 C   0  0  0  0  0  0
  -21.6043   -4.3058   24.7225 C   0  0  0  0  0  0
  -21.8817   -3.8149   23.4345 C   0  0  0  0  0  0
  -21.9191   -4.6964   22.3404 C   0  0  0  0  0  0
  -22.7833  -13.5223   21.1861 C   0  0  0  0  0  0
  -22.1663   -4.2152   21.0981 F   0  0  0  0  0  0
  -21.5628   -3.4542   25.7738 F   0  0  0  0  0  0
  -30.0045  -13.4622   20.4497 N   0  0  0  0  0  0
  -26.2975  -12.9379   20.3332 N   0  0  0  0  0  0
  -25.9320  -11.6521   20.5735 N   0  0  0  0  0  0
  -22.0484  -12.8207   22.0421 N   0  0  0  0  0  0
  -25.4243  -15.1911   20.4176 N   0  0  0  0  0  0
  -31.7823  -14.8121   20.0554 O   0  0  0  0  0  0
  -21.6635   -6.8879   21.4243 O   0  0  0  0  0  0
  -22.3511  -14.5530   20.6717 O   0  0  0  0  0  0
  -24.6286  -31.8582   23.1993 C   0  0  0  0  0  0
  -25.9125  -32.4768   23.8333 C   0  0  1  0  0  0
  -27.2281  -27.2919   20.1088 C   0  0  0  0  0  0
  -25.5929  -33.8569   24.2260 N   0  0  0  0  0  0
  -23.4235  -30.4812   21.5434 C   0  0  2  0  0  0
  -24.8695  -28.9335   20.1099 C   0  0  0  0  0  0
  -22.7488  -29.4617   22.4928 C   0  0  0  0  0  0
  -18.0291  -28.1385   22.8493 C   0  0  0  0  0  0
  -24.1492  -36.7297   23.2636 C   0  0  0  0  0  0
  -25.9671  -30.7791   21.3750 C   0  0  0  0  0  0
  -26.0389  -29.4035   20.7182 C   0  0  0  0  0  0
  -27.2152  -28.5922   20.7130 C   0  0  0  0  0  0
  -26.0299  -26.8866   19.4723 C   0  0  0  0  0  0
  -24.8685  -27.6812   19.4807 C   0  0  0  0  0  0
  -23.6386  -29.8156   20.1592 C   0  0  0  0  0  0
  -25.4117  -36.3077   24.0322 C   0  0  1  0  0  0
  -20.5892  -28.3695   23.1280 C   0  0  2  0  0  0
  -20.6782  -26.9416   22.5415 C   0  0  0  0  0  0
  -19.5751  -26.6382   21.5223 C   0  0  0  0  0  0
  -18.1931  -26.7927   22.1636 C   0  0  0  0  0  0
  -19.1544  -28.8858   23.2880 C   0  0  0  0  0  0
  -18.9462  -30.1458   23.8898 C   0  0  0  0  0  0
  -17.6461  -30.6589   24.0562 C   0  0  0  0  0  0
  -25.9056  -34.9448   23.5094 C   0  0  0  0  0  0
  -16.5354  -29.9089   23.6327 C   0  0  0  0  0  0
  -16.7278  -28.6503   23.0354 C   0  0  0  0  0  0
  -26.4495  -31.6578   25.0711 C   0  0  0  0  0  0
  -25.3718  -31.3747   26.1435 C   0  0  0  0  0  0
  -27.0321  -30.2988   24.6182 C   0  0  0  0  0  0
  -27.6053  -32.4305   25.7490 C   0  0  0  0  0  0
  -27.5581  -37.1802   24.8459 C   0  0  0  0  0  0
  -21.4198  -29.3047   22.3672 N   0  0  0  0  0  0
  -26.4292  -37.3773   23.9404 N   0  0  0  0  0  0
  -24.6922  -31.0570   22.0958 N   0  0  0  0  0  0
  -23.4199  -28.8158   23.3017 O   0  0  0  0  0  0
  -28.3560  -26.4460   20.1834 O   0  0  0  0  0  0
  -26.5634  -34.8921   22.4667 O   0  0  0  0  0  0
  -23.5442  -32.1396   23.7304 O   0  0  0  0  0  0
  -29.6539  -18.6585   20.7674 C   0  0  0  0  0  0
  -29.9793  -19.7688   18.6396 C   0  0  0  0  0  0
  -30.2594  -17.3353   18.8280 C   0  0  0  0  0  0
  -29.6616  -19.8961   20.0095 C   0  0  0  0  0  0
  -29.9524  -17.3464   20.2085 C   0  0  0  0  0  0
  -30.2749  -18.5177   18.0633 C   0  0  0  0  0  0
  -29.3463  -21.2935   20.5722 C   0  0  0  0  0  0
  -29.1192  -22.4799   19.8940 C   0  0  0  0  0  0
  -29.8553  -16.0040   20.9905 C   0  0  0  0  0  0
  -28.8679  -23.8667   20.5007 C   0  0  0  0  0  0
  -28.3766  -25.0734   19.5888 C   0  0  0  0  0  0
  -29.1654  -15.9931   22.0530 N   0  0  0  0  0  0
  -29.0384  -24.0768   21.7061 O   0  0  0  0  0  0
  -30.5708  -18.4491   16.7432 F   0  0  0  0  0  0
  -31.4798  -12.5416   19.1803 H   0  0  0  0  0  0
  -30.3736  -11.4338   19.9254 H   0  0  0  0  0  0
  -29.7919  -11.7758   17.4989 H   0  0  0  0  0  0
  -29.6523  -13.4974   17.7598 H   0  0  0  0  0  0
  -27.8789  -11.3006   18.8717 H   0  0  0  0  0  0
  -27.3847  -12.5824   17.7954 H   0  0  0  0  0  0
  -27.6688  -14.2608   19.5340 H   0  0  0  0  0  0
  -28.7227  -12.0398   21.3408 H   0  0  0  0  0  0
  -28.4069  -13.6453   21.8755 H   0  0  0  0  0  0
  -25.2764   -9.5681   22.4741 H   0  0  0  0  0  0
  -24.0004   -7.4629   22.7459 H   0  0  0  0  0  0
  -21.0843   -8.8774   19.8941 H   0  0  0  0  0  0
  -22.3702  -10.9668   19.6154 H   0  0  0  0  0  0
  -21.2008   -7.6147   23.9724 H   0  0  0  0  0  0
  -21.1486   -6.0523   25.9082 H   0  0  0  0  0  0
  -22.0594   -2.7610   23.2847 H   0  0  0  0  0  0
  -22.4110  -11.9871   22.4809 H   0  0  0  0  0  0
  -21.1105  -13.1230   22.2634 H   0  0  0  0  0  0
  -24.6665  -15.8516   20.5529 H   0  0  0  0  0  0
  -26.2976  -15.6352   20.1641 H   0  0  0  0  0  0
  -26.7197  -32.5427   23.1082 H   0  0  0  0  0  0
  -25.0048  -33.9707   25.0387 H   0  0  0  0  0  0
  -22.7184  -31.3021   21.3990 H   0  0  0  0  0  0
  -23.3752  -35.9629   23.3281 H   0  0  0  0  0  0
  -24.3587  -36.8940   22.2054 H   0  0  0  0  0  0
  -23.7246  -37.6492   23.6677 H   0  0  0  0  0  0
  -26.1011  -31.5388   20.6038 H   0  0  0  0  0  0
  -26.8470  -30.8295   22.0045 H   0  0  0  0  0  0
  -28.1100  -28.9493   21.2037 H   0  0  0  0  0  0
  -25.9297  -25.9425   18.9657 H   0  0  0  0  0  0
  -23.9720  -27.3158   18.9984 H   0  0  0  0  0  0
  -23.7586  -30.5914   19.4023 H   0  0  0  0  0  0
  -22.7582  -29.2455   19.8572 H   0  0  0  0  0  0
  -25.1296  -36.1926   25.0815 H   0  0  0  0  0  0
  -20.9987  -28.3274   24.1399 H   0  0  0  0  0  0
  -20.5697  -26.2303   23.3616 H   0  0  0  0  0  0
  -21.6645  -26.7449   22.1196 H   0  0  0  0  0  0
  -19.6911  -25.6292   21.1253 H   0  0  0  0  0  0
  -19.6682  -27.3194   20.6753 H   0  0  0  0  0  0
  -17.4201  -26.6675   21.4041 H   0  0  0  0  0  0
  -18.0327  -26.0072   22.9035 H   0  0  0  0  0  0
  -19.7937  -30.7276   24.2265 H   0  0  0  0  0  0
  -17.5016  -31.6269   24.5164 H   0  0  0  0  0  0
  -15.5354  -30.2991   23.7643 H   0  0  0  0  0  0
  -15.8677  -28.0820   22.7068 H   0  0  0  0  0  0
  -24.5850  -30.7153   25.7757 H   0  0  0  0  0  0
  -24.8965  -32.2932   26.4882 H   0  0  0  0  0  0
  -25.8016  -30.8883   27.0198 H   0  0  0  0  0  0
  -26.2888  -29.6746   24.1204 H   0  0  0  0  0  0
  -27.3997  -29.7243   25.4694 H   0  0  0  0  0  0
  -27.8775  -30.4251   23.9414 H   0  0  0  0  0  0
  -27.2662  -33.3606   26.2063 H   0  0  0  0  0  0
  -28.3871  -32.6857   25.0326 H   0  0  0  0  0  0
  -28.0706  -31.8425   26.5411 H   0  0  0  0  0  0
  -28.2585  -38.0112   24.7512 H   0  0  0  0  0  0
  -28.1091  -36.2641   24.6274 H   0  0  0  0  0  0
  -27.2301  -37.1438   25.8862 H   0  0  0  0  0  0
  -20.9378  -29.8771   21.6882 H   0  0  0  0  0  0
  -26.0170  -38.2848   24.1404 H   0  0  0  0  0  0
  -29.4046  -18.7205   21.8173 H   0  0  0  0  0  0
  -30.0169  -20.6374   17.9997 H   0  0  0  0  0  0
  -30.4710  -16.4069   18.3188 H   0  0  0  0  0  0
  -29.3256  -21.3458   21.6525 H   0  0  0  0  0  0
  -29.1198  -22.4648   18.8149 H   0  0  0  0  0  0
  -27.4169  -24.7544   19.2012 H   0  0  0  0  0  0
  -29.0377  -25.1141   18.7231 H   0  0  0  0  0  0
  -28.7468  -16.8978   22.2279 H   0  0  0  0  0  0
  1 25  1  0  0  0
  1 30  2  0  0  0
  1 79  1  0  0  0
  2  3  1  0  0  0
  2 25  1  0  0  0
  2 85  1  0  0  0
  2 86  1  0  0  0
  3  4  1  0  0  0
  3 87  1  0  0  0
  3 88  1  0  0  0
  4  5  1  0  0  0
  4 89  1  0  0  0
  4 90  1  0  0  0
  5  6  1  0  0  0
  5 26  1  0  0  0
  5 91  1  0  0  0
  6 25  1  0  0  0
  6 92  1  0  0  0
  6 93  1  0  0  0
  7  8  2  0  0  0
  7 26  1  0  0  0
  7 29  1  0  0  0
  8  9  1  0  0  0
  8 22  1  0  0  0
  9 10  1  0  0  0
  9 27  2  0  0  0
 10 11  2  0  0  0
 10 15  1  0  0  0
 11 12  1  0  0  0
 11 94  1  0  0  0
 12 13  2  0  0  0
 12 95  1  0  0  0
 13 14  1  0  0  0
 13 31  1  0  0  0
 14 15  2  0  0  0
 14 96  1  0  0  0
 15 97  1  0  0  0
 16 17  2  0  0  0
 16 21  1  0  0  0
 16 31  1  0  0  0
 17 18  1  0  0  0
 17 98  1  0  0  0
 18 19  2  0  0  0
 18 99  1  0  0  0
 19 20  1  0  0  0
 19 24  1  0  0  0
 20 21  2  0  0  0
 20100  1  0  0  0
 21 23  1  0  0  0
 22 28  1  0  0  0
 22 32  2  0  0  0
 26 27  1  0  0  0
 28101  1  0  0  0
 28102  1  0  0  0
 29103  1  0  0  0
 29104  1  0  0  0
 33 34  1  0  0  0
 33 66  1  0  0  0
 33 70  2  0  0  0
 34 36  1  0  0  0
 34 59  1  0  0  0
 34105  1  0  0  0
 35 44  2  0  0  0
 35 45  1  0  0  0
 35 68  1  0  0  0
 36 56  1  0  0  0
 36106  1  0  0  0
 37 39  1  0  0  0
 37 47  1  0  0  0
 37 66  1  0  0  0
 37107  1  0  0  0
 38 43  2  0  0  0
 38 46  1  0  0  0
 38 47  1  0  0  0
 39 64  1  0  0  0
 39 67  2  0  0  0
 40 52  1  0  0  0
 40 53  2  0  0  0
 40 58  1  0  0  0
 41108  1  0  0  0
 41109  1  0  0  0
 41110  1  0  0  0
 41 48  1  0  0  0
 42 43  1  0  0  0
 42 66  1  0  0  0
 42111  1  0  0  0
 42112  1  0  0  0
 43 44  1  0  0  0
 44113  1  0  0  0
 45 46  2  0  0  0
 45114  1  0  0  0
 46115  1  0  0  0
 47116  1  0  0  0
 47117  1  0  0  0
 48 56  1  0  0  0
 48 65  1  0  0  0
 48118  1  0  0  0
 49 50  1  0  0  0
 49 53  1  0  0  0
 49 64  1  0  0  0
 49119  1  0  0  0
 50 51  1  0  0  0
 50120  1  0  0  0
 50121  1  0  0  0
 51 52  1  0  0  0
 51122  1  0  0  0
 51123  1  0  0  0
 52124  1  0  0  0
 52125  1  0  0  0
 53 54  1  0  0  0
 54 55  2  0  0  0
 54126  1  0  0  0
 55 57  1  0  0  0
 55127  1  0  0  0
 56 69  2  0  0  0
 57 58  2  0  0  0
 57128  1  0  0  0
 58129  1  0  0  0
 59 60  1  0  0  0
 59 61  1  0  0  0
 59 62  1  0  0  0
 60130  1  0  0  0
 60131  1  0  0  0
 60132  1  0  0  0
 61133  1  0  0  0
 61134  1  0  0  0
 61135  1  0  0  0
 62136  1  0  0  0
 62137  1  0  0  0
 62138  1  0  0  0
 63 65  1  0  0  0
 63139  1  0  0  0
 63140  1  0  0  0
 63141  1  0  0  0
 64142  1  0  0  0
 65143  1  0  0  0
 68 81  1  0  0  0
 71 74  2  0  0  0
 71 75  1  0  0  0
 71144  1  0  0  0
 72 74  1  0  0  0
 72 76  2  0  0  0
 72145  1  0  0  0
 73 75  2  0  0  0
 73 76  1  0  0  0
 73146  1  0  0  0
 74 77  1  0  0  0
 75 79  1  0  0  0
 76 84  1  0  0  0
 77 78  2  0  0  0
 77147  1  0  0  0
 78 80  1  0  0  0
 78148  1  0  0  0
 79 82  2  0  0  0
 80 81  1  0  0  0
 80 83  2  0  0  0
 81149  1  0  0  0
 81150  1  0  0  0
 82151  1  0  0  0
M  ISO  4   1 100  68 101  79 100  81 101
M  END
> <chiral flag>
0

> <version>
0

> <s_m_source_file>
/data/baiqing/PycharmProjects/Reinvent-master-3.2/result/LINK_invent/BTK/process_docking_weight1_custom_product_contain_oxygen_bond_distance_aromatic_linkinvent_7_9_3/rearranged_h_0117.sdf

> <i_m_source_file_index>
7

> <r_mmod_Potential_Energy-OPLS-2005>
225.076797485352

> <r_mmod_Stretch_Energy-OPLS-2005>
117.446197509766

> <r_mmod_Bend_Energy-OPLS-2005>
154.77815246582

> <r_mmod_Torsional_Energy-OPLS-2005>
193.113983154297

> <r_mmod_Improper_Torsional_Energy-OPLS-2005>
2.92504620552063

> <r_mmod_Van_der_Waal_Energy-OPLS-2005>
149.122283935547

> <r_mmod_Electrostatic_Energy-OPLS-2005>
-230.017791748047

> <r_mmod_Solvation_Energy-OPLS-2005>
-223.07991027832

> <b_mmod_Minimization_Converged-OPLS-2005>
0

> <r_mmod_RMS_Derivative-OPLS-2005>
0.980391561985016

$$$$
7
                    3D
 Structure written by MMmdl.
158166  0  0  1  0            999 V2000
  -30.7669  -14.4348   20.5009 C   0  0  0  0  0  0
  -30.3926  -12.2565   19.4593 C   0  0  0  0  0  0
  -29.5002  -12.4780   18.2234 C   0  0  0  0  0  0
  -28.0174  -12.3568   18.6214 C   0  0  0  0  0  0
  -27.6570  -13.2168   19.8644 C   0  0  2  0  0  0
  -28.6937  -13.0464   20.9977 C   0  0  0  0  0  0
  -25.2564  -13.8181   20.5655 C   0  0  0  0  0  0
  -24.1814  -13.0455   20.9156 C   0  0  0  0  0  0
  -24.6372  -11.6919   20.8708 C   0  0  0  0  0  0
  -23.9031  -10.4305   21.0391 C   0  0  0  0  0  0
  -24.3586   -9.4230   21.9168 C   0  0  0  0  0  0
  -23.6285   -8.2256   22.0750 C   0  0  0  0  0  0
  -22.4271   -8.0274   21.3546 C   0  0  0  0  0  0
  -21.9893   -9.0235   20.4643 C   0  0  0  0  0  0
  -22.7203  -10.2128   20.3047 C   0  0  0  0  0  0
  -21.6860   -6.0730   22.5280 C   0  0  0  0  0  0
  -21.4011   -6.5634   23.8212 C   0  0  0  0  0  0
  -21.3660   -5.6777   24.9169 C   0  0  0  0  0  0
  -21.6057   -4.3047   24.7224 C   0  0  0  0  0  0
  -21.8811   -3.8145   23.4342 C   0  0  0  0  0  0
  -21.9190   -4.6956   22.3398 C   0  0  0  0  0  0
  -22.7838  -13.5255   21.1824 C   0  0  0  0  0  0
  -22.1660   -4.2141   21.0975 F   0  0  0  0  0  0
  -21.5636   -3.4533   25.7738 F   0  0  0  0  0  0
  -30.0323  -13.2916   20.4424 N   0  0  0  0  0  0
  -26.2992  -12.9375   20.3296 N   0  0  0  0  0  0
  -25.9298  -11.6526   20.5713 N   0  0  0  0  0  0
  -22.0457  -12.8265   22.0380 N   0  0  0  0  0  0
  -25.4304  -15.1905   20.4111 N   0  0  0  0  0  0
  -31.9365  -14.4498   20.1090 O   0  0  0  0  0  0
  -21.6645   -6.8865   21.4247 O   0  0  0  0  0  0
  -22.3525  -14.5551   20.6656 O   0  0  0  0  0  0
  -24.6131  -31.8701   23.2119 C   0  0  0  0  0  0
  -25.9033  -32.4831   23.8404 C   0  0  1  0  0  0
  -27.2298  -27.4567   20.0880 C   0  0  0  0  0  0
  -25.5890  -33.8628   24.2331 N   0  0  0  0  0  0
  -23.3970  -30.4955   21.5541 C   0  0  2  0  0  0
  -24.8390  -28.9643   20.1144 C   0  0  0  0  0  0
  -22.7391  -29.4678   22.5023 C   0  0  0  0  0  0
  -18.0264  -28.1385   22.8499 C   0  0  0  0  0  0
  -24.1469  -36.7325   23.2639 C   0  0  0  0  0  0
  -25.9231  -30.8425   21.3588 C   0  0  0  0  0  0
  -25.9978  -29.4785   20.7082 C   0  0  0  0  0  0
  -27.1938  -28.7313   20.6925 C   0  0  0  0  0  0
  -26.0514  -26.9507   19.4893 C   0  0  0  0  0  0
  -24.8597  -27.6989   19.5034 C   0  0  0  0  0  0
  -23.6011  -29.8298   20.1672 C   0  0  0  0  0  0
  -25.4088  -36.3121   24.0345 C   0  0  1  0  0  0
  -20.5850  -28.3659   23.1353 C   0  0  2  0  0  0
  -20.6762  -26.9404   22.5441 C   0  0  0  0  0  0
  -19.5743  -26.6392   21.5233 C   0  0  0  0  0  0
  -18.1913  -26.7936   22.1626 C   0  0  0  0  0  0
  -19.1509  -28.8840   23.2923 C   0  0  0  0  0  0
  -18.9438  -30.1449   23.8922 C   0  0  0  0  0  0
  -17.6439  -30.6595   24.0566 C   0  0  0  0  0  0
  -25.9023  -34.9487   23.5132 C   0  0  0  0  0  0
  -16.5331  -29.9095   23.6324 C   0  0  0  0  0  0
  -16.7252  -28.6516   23.0342 C   0  0  0  0  0  0
  -26.4463  -31.6610   25.0729 C   0  0  0  0  0  0
  -25.3741  -31.3714   26.1493 C   0  0  0  0  0  0
  -27.0285  -30.3058   24.6077 C   0  0  0  0  0  0
  -27.6045  -32.4332   25.7485 C   0  0  0  0  0  0
  -27.5579  -37.1798   24.8455 C   0  0  0  0  0  0
  -21.4125  -29.3027   22.3765 N   0  0  0  0  0  0
  -26.4275  -37.3809   23.9423 N   0  0  0  0  0  0
  -24.6632  -31.0828   22.1008 N   0  0  0  0  0  0
  -23.4182  -28.8232   23.3063 O   0  0  0  0  0  0
  -28.4208  -26.7653   20.1052 O   0  0  0  0  0  0
  -26.5593  -34.8942   22.4696 O   0  0  0  0  0  0
  -23.5335  -32.1439   23.7541 O   0  0  0  0  0  0
  -29.2222  -18.6581   21.3034 C   0  0  0  0  0  0
  -28.9731  -20.0313   21.5188 C   0  0  0  0  0  0
  -30.8633  -20.5920   20.1064 C   0  0  0  0  0  0
  -30.2972  -18.2381   20.4894 C   0  0  0  0  0  0
  -31.1158  -19.2282   19.8779 C   0  0  0  0  0  0
  -29.7881  -21.0152   20.9211 C   0  0  0  0  0  0
  -30.6287  -16.8119   20.3094 C   0  0  0  0  0  0
  -30.0990  -15.6881   20.8547 C   0  0  0  0  0  0
  -29.6540  -23.2101   20.2383 C   0  0  0  0  0  0
  -32.2912  -18.8785   18.9721 C   0  0  0  0  0  0
  -30.9431  -25.3062   19.7814 C   0  0  0  0  0  0
  -28.3930  -25.3612   19.8493 C   0  0  0  0  0  0
  -29.6699  -24.7179   20.4181 C   0  0  1  0  0  0
  -29.5675  -22.3711   21.1960 N   0  0  0  0  0  0
  -31.4474  -12.2663   19.1814 H   0  0  0  0  0  0
  -30.2166  -11.2655   19.8809 H   0  0  0  0  0  0
  -29.7447  -11.7512   17.4477 H   0  0  0  0  0  0
  -29.6943  -13.4627   17.7946 H   0  0  0  0  0  0
  -27.8212  -11.3033   18.8302 H   0  0  0  0  0  0
  -27.3777  -12.6222   17.7797 H   0  0  0  0  0  0
  -27.6909  -14.2582   19.5437 H   0  0  0  0  0  0
  -28.6491  -12.0343   21.4006 H   0  0  0  0  0  0
  -28.4686  -13.7018   21.8382 H   0  0  0  0  0  0
  -25.2736   -9.5736   22.4731 H   0  0  0  0  0  0
  -24.0015   -7.4655   22.7470 H   0  0  0  0  0  0
  -21.0831   -8.8740   19.8948 H   0  0  0  0  0  0
  -22.3653  -10.9648   19.6151 H   0  0  0  0  0  0
  -21.2006   -7.6141   23.9709 H   0  0  0  0  0  0
  -21.1494   -6.0511   25.9066 H   0  0  0  0  0  0
  -22.0595   -2.7611   23.2832 H   0  0  0  0  0  0
  -22.4068  -11.9952   22.4819 H   0  0  0  0  0  0
  -21.1063  -13.1307   22.2532 H   0  0  0  0  0  0
  -24.6738  -15.8542   20.5310 H   0  0  0  0  0  0
  -26.2957  -15.6259   20.1149 H   0  0  0  0  0  0
  -26.7113  -32.5549   23.1183 H   0  0  0  0  0  0
  -25.0026  -33.9775   25.0468 H   0  0  0  0  0  0
  -22.6846  -31.3124   21.4201 H   0  0  0  0  0  0
  -23.3737  -35.9649   23.3283 H   0  0  0  0  0  0
  -24.3573  -36.8959   22.2059 H   0  0  0  0  0  0
  -23.7206  -37.6520   23.6662 H   0  0  0  0  0  0
  -26.0257  -31.6048   20.5854 H   0  0  0  0  0  0
  -26.8160  -30.9010   21.9693 H   0  0  0  0  0  0
  -28.0898  -29.1250   21.1515 H   0  0  0  0  0  0
  -26.0331  -25.9863   19.0025 H   0  0  0  0  0  0
  -23.9684  -27.2983   19.0403 H   0  0  0  0  0  0
  -23.7049  -30.6061   19.4082 H   0  0  0  0  0  0
  -22.7243  -29.2493   19.8757 H   0  0  0  0  0  0
  -25.1254  -36.1987   25.0837 H   0  0  0  0  0  0
  -20.9928  -28.3214   24.1477 H   0  0  0  0  0  0
  -20.5696  -26.2250   23.3610 H   0  0  0  0  0  0
  -21.6628  -26.7479   22.1209 H   0  0  0  0  0  0
  -19.6902  -25.6307   21.1248 H   0  0  0  0  0  0
  -19.6698  -27.3218   20.6775 H   0  0  0  0  0  0
  -17.4198  -26.6711   21.4007 H   0  0  0  0  0  0
  -18.0289  -26.0071   22.9012 H   0  0  0  0  0  0
  -19.7910  -30.7264   24.2298 H   0  0  0  0  0  0
  -17.4995  -31.6279   24.5155 H   0  0  0  0  0  0
  -15.5334  -30.3007   23.7637 H   0  0  0  0  0  0
  -15.8654  -28.0855   22.7025 H   0  0  0  0  0  0
  -24.5902  -30.7065   25.7848 H   0  0  0  0  0  0
  -24.8941  -32.2867   26.4968 H   0  0  0  0  0  0
  -25.8109  -30.8877   27.0239 H   0  0  0  0  0  0
  -26.2809  -29.6837   24.1137 H   0  0  0  0  0  0
  -27.4076  -29.7283   25.4519 H   0  0  0  0  0  0
  -27.8638  -30.4394   23.9196 H   0  0  0  0  0  0
  -27.2655  -33.3615   26.2098 H   0  0  0  0  0  0
  -28.3826  -32.6921   25.0291 H   0  0  0  0  0  0
  -28.0747  -31.8439   26.5368 H   0  0  0  0  0  0
  -28.2577  -38.0117   24.7548 H   0  0  0  0  0  0
  -28.1085  -36.2651   24.6196 H   0  0  0  0  0  0
  -27.2315  -37.1372   25.8862 H   0  0  0  0  0  0
  -20.9281  -29.8729   21.6975 H   0  0  0  0  0  0
  -26.0165  -38.2882   24.1452 H   0  0  0  0  0  0
  -28.5861  -17.9287   21.7828 H   0  0  0  0  0  0
  -28.1543  -20.3252   22.1612 H   0  0  0  0  0  0
  -31.5240  -21.3209   19.6583 H   0  0  0  0  0  0
  -31.4484  -16.6658   19.6234 H   0  0  0  0  0  0
  -29.2548  -15.7230   21.5266 H   0  0  0  0  0  0
  -29.7565  -22.8936   19.1957 H   0  0  0  0  0  0
  -32.8064  -19.7698   18.6113 H   0  0  0  0  0  0
  -31.9473  -18.3284   18.0956 H   0  0  0  0  0  0
  -33.0273  -18.2737   19.5019 H   0  0  0  0  0  0
  -31.8422  -24.8454   20.1930 H   0  0  0  0  0  0
  -31.0175  -26.3784   19.9627 H   0  0  0  0  0  0
  -30.9558  -25.1534   18.7019 H   0  0  0  0  0  0
  -27.5313  -24.8997   20.3353 H   0  0  0  0  0  0
  -28.3099  -25.1842   18.7752 H   0  0  0  0  0  0
  -29.7040  -24.9266   21.4882 H   0  0  0  0  0  0
  1 25  1  0  0  0
  1 30  2  0  0  0
  1 78  1  0  0  0
  2  3  1  0  0  0
  2 25  1  0  0  0
  2 85  1  0  0  0
  2 86  1  0  0  0
  3  4  1  0  0  0
  3 87  1  0  0  0
  3 88  1  0  0  0
  4  5  1  0  0  0
  4 89  1  0  0  0
  4 90  1  0  0  0
  5  6  1  0  0  0
  5 26  1  0  0  0
  5 91  1  0  0  0
  6 25  1  0  0  0
  6 92  1  0  0  0
  6 93  1  0  0  0
  7  8  2  0  0  0
  7 26  1  0  0  0
  7 29  1  0  0  0
  8  9  1  0  0  0
  8 22  1  0  0  0
  9 10  1  0  0  0
  9 27  2  0  0  0
 10 11  2  0  0  0
 10 15  1  0  0  0
 11 12  1  0  0  0
 11 94  1  0  0  0
 12 13  2  0  0  0
 12 95  1  0  0  0
 13 14  1  0  0  0
 13 31  1  0  0  0
 14 15  2  0  0  0
 14 96  1  0  0  0
 15 97  1  0  0  0
 16 17  2  0  0  0
 16 21  1  0  0  0
 16 31  1  0  0  0
 17 18  1  0  0  0
 17 98  1  0  0  0
 18 19  2  0  0  0
 18 99  1  0  0  0
 19 20  1  0  0  0
 19 24  1  0  0  0
 20 21  2  0  0  0
 20100  1  0  0  0
 21 23  1  0  0  0
 22 28  1  0  0  0
 22 32  2  0  0  0
 26 27  1  0  0  0
 28101  1  0  0  0
 28102  1  0  0  0
 29103  1  0  0  0
 29104  1  0  0  0
 33 34  1  0  0  0
 33 66  1  0  0  0
 33 70  2  0  0  0
 34 36  1  0  0  0
 34 59  1  0  0  0
 34105  1  0  0  0
 35 44  2  0  0  0
 35 45  1  0  0  0
 35 68  1  0  0  0
 36 56  1  0  0  0
 36106  1  0  0  0
 37 39  1  0  0  0
 37 47  1  0  0  0
 37 66  1  0  0  0
 37107  1  0  0  0
 38 43  2  0  0  0
 38 46  1  0  0  0
 38 47  1  0  0  0
 39 64  1  0  0  0
 39 67  2  0  0  0
 40 52  1  0  0  0
 40 53  2  0  0  0
 40 58  1  0  0  0
 41108  1  0  0  0
 41109  1  0  0  0
 41110  1  0  0  0
 41 48  1  0  0  0
 42 43  1  0  0  0
 42 66  1  0  0  0
 42111  1  0  0  0
 42112  1  0  0  0
 43 44  1  0  0  0
 44113  1  0  0  0
 45 46  2  0  0  0
 45114  1  0  0  0
 46115  1  0  0  0
 47116  1  0  0  0
 47117  1  0  0  0
 48 56  1  0  0  0
 48 65  1  0  0  0
 48118  1  0  0  0
 49 50  1  0  0  0
 49 53  1  0  0  0
 49 64  1  0  0  0
 49119  1  0  0  0
 50 51  1  0  0  0
 50120  1  0  0  0
 50121  1  0  0  0
 51 52  1  0  0  0
 51122  1  0  0  0
 51123  1  0  0  0
 52124  1  0  0  0
 52125  1  0  0  0
 53 54  1  0  0  0
 54 55  2  0  0  0
 54126  1  0  0  0
 55 57  1  0  0  0
 55127  1  0  0  0
 56 69  2  0  0  0
 57 58  2  0  0  0
 57128  1  0  0  0
 58129  1  0  0  0
 59 60  1  0  0  0
 59 61  1  0  0  0
 59 62  1  0  0  0
 60130  1  0  0  0
 60131  1  0  0  0
 60132  1  0  0  0
 61133  1  0  0  0
 61134  1  0  0  0
 61135  1  0  0  0
 62136  1  0  0  0
 62137  1  0  0  0
 62138  1  0  0  0
 63 65  1  0  0  0
 63139  1  0  0  0
 63140  1  0  0  0
 63141  1  0  0  0
 64142  1  0  0  0
 65143  1  0  0  0
 68 82  1  0  0  0
 71 72  2  0  0  0
 71 74  1  0  0  0
 71144  1  0  0  0
 72 76  1  0  0  0
 72145  1  0  0  0
 73 75  1  0  0  0
 73 76  2  0  0  0
 73146  1  0  0  0
 74 75  2  0  0  0
 74 77  1  0  0  0
 75 80  1  0  0  0
 76 84  1  0  0  0
 77 78  2  0  0  0
 77147  1  0  0  0
 78148  1  0  0  0
 79 83  1  0  0  0
 79 84  2  0  0  0
 79149  1  0  0  0
 80150  1  0  0  0
 80151  1  0  0  0
 80152  1  0  0  0
 81153  1  0  0  0
 81154  1  0  0  0
 81155  1  0  0  0
 81 83  1  0  0  0
 82 83  1  0  0  0
 82156  1  0  0  0
 82157  1  0  0  0
 83158  1  0  0  0
M  ISO  4   1 100  68 101  78 100  82 101
M  END
> <chiral flag>
0

> <version>
0

> <s_m_source_file>
/data/baiqing/PycharmProjects/Reinvent-master-3.2/result/LINK_invent/BTK/process_docking_weight1_custom_product_contain_oxygen_bond_distance_aromatic_linkinvent_7_9_3/rearranged_h_0117.sdf

> <i_m_source_file_index>
8

> <r_mmod_Potential_Energy-OPLS-2005>
-17.9474124908447

> <r_mmod_Stretch_Energy-OPLS-2005>
34.6466255187988

> <r_mmod_Bend_Energy-OPLS-2005>
108.594253540039

> <r_mmod_Torsional_Energy-OPLS-2005>
191.387100219727

> <r_mmod_Improper_Torsional_Energy-OPLS-2005>
4.18262147903442

> <r_mmod_Van_der_Waal_Energy-OPLS-2005>
181.292541503906

> <r_mmod_Electrostatic_Energy-OPLS-2005>
-362.009918212891

> <r_mmod_Solvation_Energy-OPLS-2005>
-197.369140625

> <b_mmod_Minimization_Converged-OPLS-2005>
0

> <r_mmod_RMS_Derivative-OPLS-2005>
2.12605404853821

$$$$
8
                    3D
 Structure written by MMmdl.
165173  0  0  1  0            999 V2000
  -30.6690  -14.4934   20.5623 C   0  0  0  0  0  0
  -30.4307  -12.3164   19.4240 C   0  0  0  0  0  0
  -29.4982  -12.5193   18.2107 C   0  0  0  0  0  0
  -28.0195  -12.3722   18.6218 C   0  0  0  0  0  0
  -27.6656  -13.2042   19.8832 C   0  0  2  0  0  0
  -28.7076  -12.9710   21.0011 C   0  0  0  0  0  0
  -25.2606  -13.8147   20.5693 C   0  0  0  0  0  0
  -24.1849  -13.0433   20.9170 C   0  0  0  0  0  0
  -24.6397  -11.6899   20.8734 C   0  0  0  0  0  0
  -23.9066  -10.4286   21.0399 C   0  0  0  0  0  0
  -24.3617   -9.4204   21.9181 C   0  0  0  0  0  0
  -23.6289   -8.2243   22.0755 C   0  0  0  0  0  0
  -22.4268   -8.0278   21.3549 C   0  0  0  0  0  0
  -21.9907   -9.0251   20.4652 C   0  0  0  0  0  0
  -22.7235  -10.2129   20.3055 C   0  0  0  0  0  0
  -21.6859   -6.0734   22.5281 C   0  0  0  0  0  0
  -21.4013   -6.5637   23.8212 C   0  0  0  0  0  0
  -21.3661   -5.6792   24.9175 C   0  0  0  0  0  0
  -21.6049   -4.3057   24.7230 C   0  0  0  0  0  0
  -21.8816   -3.8148   23.4350 C   0  0  0  0  0  0
  -21.9191   -4.6964   22.3404 C   0  0  0  0  0  0
  -22.7876  -13.5238   21.1839 C   0  0  0  0  0  0
  -22.1660   -4.2153   21.0982 F   0  0  0  0  0  0
  -21.5633   -3.4534   25.7740 F   0  0  0  0  0  0
  -30.0396  -13.2903   20.4554 N   0  0  0  0  0  0
  -26.3049  -12.9314   20.3411 N   0  0  0  0  0  0
  -25.9328  -11.6473   20.5784 N   0  0  0  0  0  0
  -22.0521  -12.8225   22.0397 N   0  0  0  0  0  0
  -25.4323  -15.1866   20.4112 N   0  0  0  0  0  0
  -31.7861  -14.7106   20.0817 O   0  0  0  0  0  0
  -21.6635   -6.8875   21.4240 O   0  0  0  0  0  0
  -22.3567  -14.5547   20.6696 O   0  0  0  0  0  0
  -24.6140  -31.8665   23.2078 C   0  0  0  0  0  0
  -25.9031  -32.4808   23.8386 C   0  0  1  0  0  0
  -27.2429  -27.4210   20.0871 C   0  0  0  0  0  0
  -25.5883  -33.8612   24.2309 N   0  0  0  0  0  0
  -23.4034  -30.4868   21.5489 C   0  0  2  0  0  0
  -24.8505  -28.9479   20.1138 C   0  0  0  0  0  0
  -22.7405  -29.4642   22.4992 C   0  0  0  0  0  0
  -18.0267  -28.1368   22.8505 C   0  0  0  0  0  0
  -24.1489  -36.7328   23.2638 C   0  0  0  0  0  0
  -25.9322  -30.8238   21.3642 C   0  0  0  0  0  0
  -26.0082  -29.4557   20.7133 C   0  0  0  0  0  0
  -27.2005  -28.6948   20.7053 C   0  0  0  0  0  0
  -26.0609  -26.9240   19.4928 C   0  0  0  0  0  0
  -24.8715  -27.6798   19.5059 C   0  0  0  0  0  0
  -23.6123  -29.8155   20.1644 C   0  0  0  0  0  0
  -25.4106  -36.3112   24.0336 C   0  0  1  0  0  0
  -20.5858  -28.3671   23.1317 C   0  0  2  0  0  0
  -20.6766  -26.9407   22.5427 C   0  0  0  0  0  0
  -19.5744  -26.6381   21.5226 C   0  0  0  0  0  0
  -18.1918  -26.7918   22.1627 C   0  0  0  0  0  0
  -19.1515  -28.8831   23.2911 C   0  0  0  0  0  0
  -18.9447  -30.1435   23.8931 C   0  0  0  0  0  0
  -17.6453  -30.6586   24.0567 C   0  0  0  0  0  0
  -25.9035  -34.9471   23.5122 C   0  0  0  0  0  0
  -16.5345  -29.9093   23.6315 C   0  0  0  0  0  0
  -16.7257  -28.6493   23.0361 C   0  0  0  0  0  0
  -26.4452  -31.6592   25.0725 C   0  0  0  0  0  0
  -25.3711  -31.3712   26.1472 C   0  0  0  0  0  0
  -27.0278  -30.3024   24.6117 C   0  0  0  0  0  0
  -27.6030  -32.4312   25.7489 C   0  0  0  0  0  0
  -27.5582  -37.1811   24.8454 C   0  0  0  0  0  0
  -21.4130  -29.3037   22.3730 N   0  0  0  0  0  0
  -26.4291  -37.3796   23.9406 N   0  0  0  0  0  0
  -24.6679  -31.0746   22.0987 N   0  0  0  0  0  0
  -23.4173  -28.8194   23.3044 O   0  0  0  0  0  0
  -28.4313  -26.7122   20.1143 O   0  0  0  0  0  0
  -26.5618  -34.8922   22.4697 O   0  0  0  0  0  0
  -23.5333  -32.1434   23.7458 O   0  0  0  0  0  0
  -29.7554  -17.7647   21.9813 C   0  0  0  0  0  0
  -29.8074  -18.7746   19.3721 C   0  0  0  0  0  0
  -29.6095  -19.1567   21.7640 C   0  0  0  0  0  0
  -29.9287  -16.8606   20.9099 C   0  0  0  0  0  0
  -29.6412  -19.6872   20.4475 C   0  0  0  0  0  0
  -29.9398  -17.3836   19.5935 C   0  0  0  0  0  0
  -27.6125  -22.6657   24.7105 C   0  0  0  0  0  0
  -29.4362  -20.0289   22.9400 C   0  0  0  0  0  0
  -28.4918  -21.7010   24.3890 C   0  0  0  0  0  0
  -28.4179  -20.8836   23.1869 C   0  0  0  0  0  0
  -27.2106  -20.9963   22.2648 C   0  0  0  0  0  0
  -28.4994  -24.1900   19.8041 C   0  0  0  0  0  0
  -29.1727  -23.1153   18.9018 C   0  0  0  0  0  0
  -28.6696  -25.6195   19.2100 C   0  0  0  0  0  0
  -28.8717  -21.6112   19.1571 C   0  0  0  0  0  0
  -29.9588  -15.4542   21.1875 N   0  0  0  0  0  0
  -29.5671  -21.0693   20.2883 O   0  0  0  0  0  0
  -30.0355  -16.5551   18.5252 F   0  0  0  0  0  0
  -31.4747  -12.4253   19.1251 H   0  0  0  0  0  0
  -30.3384  -11.3017   19.8135 H   0  0  0  0  0  0
  -29.7412  -11.8052   17.4229 H   0  0  0  0  0  0
  -29.6621  -13.5111   17.7857 H   0  0  0  0  0  0
  -27.8316  -11.3143   18.8104 H   0  0  0  0  0  0
  -27.3688  -12.6528   17.7931 H   0  0  0  0  0  0
  -27.7132  -14.2547   19.5962 H   0  0  0  0  0  0
  -28.6881  -11.9295   21.3251 H   0  0  0  0  0  0
  -28.4643  -13.5507   21.8925 H   0  0  0  0  0  0
  -25.2760   -9.5681   22.4757 H   0  0  0  0  0  0
  -24.0003   -7.4635   22.7470 H   0  0  0  0  0  0
  -21.0843   -8.8768   19.8955 H   0  0  0  0  0  0
  -22.3697  -10.9667   19.6166 H   0  0  0  0  0  0
  -21.1999   -7.6144   23.9721 H   0  0  0  0  0  0
  -21.1491   -6.0521   25.9082 H   0  0  0  0  0  0
  -22.0596   -2.7611   23.2851 H   0  0  0  0  0  0
  -22.4131  -11.9873   22.4761 H   0  0  0  0  0  0
  -21.1149  -13.1260   22.2621 H   0  0  0  0  0  0
  -24.6645  -15.8401   20.5179 H   0  0  0  0  0  0
  -26.2886  -15.6290   20.1034 H   0  0  0  0  0  0
  -26.7108  -32.5509   23.1158 H   0  0  0  0  0  0
  -24.9988  -33.9787   25.0421 H   0  0  0  0  0  0
  -22.6925  -31.3034   21.4070 H   0  0  0  0  0  0
  -23.3745  -35.9667   23.3291 H   0  0  0  0  0  0
  -24.3581  -36.8956   22.2055 H   0  0  0  0  0  0
  -23.7253  -37.6533   23.6663 H   0  0  0  0  0  0
  -26.0463  -31.5865   20.5930 H   0  0  0  0  0  0
  -26.8198  -30.8785   21.9835 H   0  0  0  0  0  0
  -28.0940  -29.0852   21.1722 H   0  0  0  0  0  0
  -26.0383  -25.9485   19.0296 H   0  0  0  0  0  0
  -23.9781  -27.2775   19.0486 H   0  0  0  0  0  0
  -23.7199  -30.5894   19.4035 H   0  0  0  0  0  0
  -22.7361  -29.2347   19.8701 H   0  0  0  0  0  0
  -25.1281  -36.1973   25.0831 H   0  0  0  0  0  0
  -20.9946  -28.3249   24.1437 H   0  0  0  0  0  0
  -20.5671  -26.2286   23.3619 H   0  0  0  0  0  0
  -21.6636  -26.7458   22.1213 H   0  0  0  0  0  0
  -19.6919  -25.6295   21.1238 H   0  0  0  0  0  0
  -19.6678  -27.3206   20.6764 H   0  0  0  0  0  0
  -17.4193  -26.6678   21.4020 H   0  0  0  0  0  0
  -18.0317  -26.0049   22.9006 H   0  0  0  0  0  0
  -19.7925  -30.7235   24.2325 H   0  0  0  0  0  0
  -17.5008  -31.6269   24.5169 H   0  0  0  0  0  0
  -15.5344  -30.3010   23.7615 H   0  0  0  0  0  0
  -15.8654  -28.0812   22.7085 H   0  0  0  0  0  0
  -24.5886  -30.7053   25.7804 H   0  0  0  0  0  0
  -24.8903  -32.2873   26.4911 H   0  0  0  0  0  0
  -25.8057  -30.8883   27.0232 H   0  0  0  0  0  0
  -26.2828  -29.6802   24.1139 H   0  0  0  0  0  0
  -27.3998  -29.7239   25.4583 H   0  0  0  0  0  0
  -27.8682  -30.4326   23.9296 H   0  0  0  0  0  0
  -27.2653  -33.3606   26.2089 H   0  0  0  0  0  0
  -28.3832  -32.6882   25.0313 H   0  0  0  0  0  0
  -28.0708  -31.8422   26.5390 H   0  0  0  0  0  0
  -28.2587  -38.0120   24.7509 H   0  0  0  0  0  0
  -28.1090  -36.2649   24.6259 H   0  0  0  0  0  0
  -27.2300  -37.1437   25.8857 H   0  0  0  0  0  0
  -20.9297  -29.8761   21.6953 H   0  0  0  0  0  0
  -26.0177  -38.2875   24.1400 H   0  0  0  0  0  0
  -29.7193  -17.3859   22.9927 H   0  0  0  0  0  0
  -29.8525  -19.1142   18.3500 H   0  0  0  0  0  0
  -27.7261  -23.2338   25.6233 H   0  0  0  0  0  0
  -26.7703  -22.9145   24.0820 H   0  0  0  0  0  0
  -30.2484  -19.9769   23.6524 H   0  0  0  0  0  0
  -29.3060  -21.5274   25.0798 H   0  0  0  0  0  0
  -27.1357  -20.1645   21.5654 H   0  0  0  0  0  0
  -27.2594  -21.9237   21.6939 H   0  0  0  0  0  0
  -26.2857  -21.0029   22.8419 H   0  0  0  0  0  0
  -28.9411  -24.1447   20.8003 H   0  0  0  0  0  0
  -27.4387  -23.9714   19.9282 H   0  0  0  0  0  0
  -30.2534  -23.2639   18.9062 H   0  0  0  0  0  0
  -28.8603  -23.3237   17.8771 H   0  0  0  0  0  0
  -28.1095  -25.7268   18.2799 H   0  0  0  0  0  0
  -29.7127  -25.7311   18.9122 H   0  0  0  0  0  0
  -29.1587  -21.0890   18.2465 H   0  0  0  0  0  0
  -27.7999  -21.4529   19.2762 H   0  0  0  0  0  0
  -29.1893  -15.1108   21.7409 H   0  0  0  0  0  0
  1 25  1  0  0  0
  1 30  2  0  0  0
  1 86  1  0  0  0
  2  3  1  0  0  0
  2 25  1  0  0  0
  2 89  1  0  0  0
  2 90  1  0  0  0
  3  4  1  0  0  0
  3 91  1  0  0  0
  3 92  1  0  0  0
  4  5  1  0  0  0
  4 93  1  0  0  0
  4 94  1  0  0  0
  5  6  1  0  0  0
  5 26  1  0  0  0
  5 95  1  0  0  0
  6 25  1  0  0  0
  6 96  1  0  0  0
  6 97  1  0  0  0
  7  8  2  0  0  0
  7 26  1  0  0  0
  7 29  1  0  0  0
  8  9  1  0  0  0
  8 22  1  0  0  0
  9 10  1  0  0  0
  9 27  2  0  0  0
 10 11  2  0  0  0
 10 15  1  0  0  0
 11 12  1  0  0  0
 11 98  1  0  0  0
 12 13  2  0  0  0
 12 99  1  0  0  0
 13 14  1  0  0  0
 13 31  1  0  0  0
 14 15  2  0  0  0
 14100  1  0  0  0
 15101  1  0  0  0
 16 17  2  0  0  0
 16 21  1  0  0  0
 16 31  1  0  0  0
 17 18  1  0  0  0
 17102  1  0  0  0
 18 19  2  0  0  0
 18103  1  0  0  0
 19 20  1  0  0  0
 19 24  1  0  0  0
 20 21  2  0  0  0
 20104  1  0  0  0
 21 23  1  0  0  0
 22 28  1  0  0  0
 22 32  2  0  0  0
 26 27  1  0  0  0
 28105  1  0  0  0
 28106  1  0  0  0
 29107  1  0  0  0
 29108  1  0  0  0
 33 34  1  0  0  0
 33 66  1  0  0  0
 33 70  2  0  0  0
 34 36  1  0  0  0
 34 59  1  0  0  0
 34109  1  0  0  0
 35 44  2  0  0  0
 35 45  1  0  0  0
 35 68  1  0  0  0
 36 56  1  0  0  0
 36110  1  0  0  0
 37 39  1  0  0  0
 37 47  1  0  0  0
 37 66  1  0  0  0
 37111  1  0  0  0
 38 43  2  0  0  0
 38 46  1  0  0  0
 38 47  1  0  0  0
 39 64  1  0  0  0
 39 67  2  0  0  0
 40 52  1  0  0  0
 40 53  2  0  0  0
 40 58  1  0  0  0
 41112  1  0  0  0
 41113  1  0  0  0
 41114  1  0  0  0
 41 48  1  0  0  0
 42 43  1  0  0  0
 42 66  1  0  0  0
 42115  1  0  0  0
 42116  1  0  0  0
 43 44  1  0  0  0
 44117  1  0  0  0
 45 46  2  0  0  0
 45118  1  0  0  0
 46119  1  0  0  0
 47120  1  0  0  0
 47121  1  0  0  0
 48 56  1  0  0  0
 48 65  1  0  0  0
 48122  1  0  0  0
 49 50  1  0  0  0
 49 53  1  0  0  0
 49 64  1  0  0  0
 49123  1  0  0  0
 50 51  1  0  0  0
 50124  1  0  0  0
 50125  1  0  0  0
 51 52  1  0  0  0
 51126  1  0  0  0
 51127  1  0  0  0
 52128  1  0  0  0
 52129  1  0  0  0
 53 54  1  0  0  0
 54 55  2  0  0  0
 54130  1  0  0  0
 55 57  1  0  0  0
 55131  1  0  0  0
 56 69  2  0  0  0
 57 58  2  0  0  0
 57132  1  0  0  0
 58133  1  0  0  0
 59 60  1  0  0  0
 59 61  1  0  0  0
 59 62  1  0  0  0
 60134  1  0  0  0
 60135  1  0  0  0
 60136  1  0  0  0
 61137  1  0  0  0
 61138  1  0  0  0
 61139  1  0  0  0
 62140  1  0  0  0
 62141  1  0  0  0
 62142  1  0  0  0
 63 65  1  0  0  0
 63143  1  0  0  0
 63144  1  0  0  0
 63145  1  0  0  0
 64146  1  0  0  0
 65147  1  0  0  0
 68 84  1  0  0  0
 71 73  2  0  0  0
 71 74  1  0  0  0
 71148  1  0  0  0
 72 75  2  0  0  0
 72 76  1  0  0  0
 72149  1  0  0  0
 73 75  1  0  0  0
 73 78  1  0  0  0
 74 76  2  0  0  0
 74 86  1  0  0  0
 75 87  1  0  0  0
 76 88  1  0  0  0
 77 79  2  0  0  0
 77150  1  0  0  0
 77151  1  0  0  0
 78 80  2  0  0  0
 78152  1  0  0  0
 79 80  1  0  0  0
 79153  1  0  0  0
 80 81  1  0  0  0
 81154  1  0  0  0
 81155  1  0  0  0
 81156  1  0  0  0
 82 83  1  0  0  0
 82 84  1  0  0  0
 82157  1  0  0  0
 82158  1  0  0  0
 83 85  1  0  0  0
 83159  1  0  0  0
 83160  1  0  0  0
 84161  1  0  0  0
 84162  1  0  0  0
 85 87  1  0  0  0
 85163  1  0  0  0
 85164  1  0  0  0
 86165  1  0  0  0
M  ISO  4   1 100  68 101  84 101  86 100
M  END
> <chiral flag>
0

> <version>
0

> <s_m_source_file>
/data/baiqing/PycharmProjects/Reinvent-master-3.2/result/LINK_invent/BTK/process_docking_weight1_custom_product_contain_oxygen_bond_distance_aromatic_linkinvent_7_9_3/rearranged_h_0117.sdf

> <i_m_source_file_index>
9

> <r_mmod_Potential_Energy-OPLS-2005>
-30.17551612854

> <r_mmod_Stretch_Energy-OPLS-2005>
42.8718185424805

> <r_mmod_Bend_Energy-OPLS-2005>
125.115829467773

> <r_mmod_Torsional_Energy-OPLS-2005>
259.725555419922

> <r_mmod_Improper_Torsional_Energy-OPLS-2005>
3.73749613761902

> <r_mmod_Van_der_Waal_Energy-OPLS-2005>
151.982147216797

> <r_mmod_Electrostatic_Energy-OPLS-2005>
-419.758392333984

> <r_mmod_Solvation_Energy-OPLS-2005>
-208.245330810547

> <b_mmod_Minimization_Converged-OPLS-2005>
0

> <r_mmod_RMS_Derivative-OPLS-2005>
1.22799003124237

$$$$
9
                    3D
 Structure written by MMmdl.
154162  0  0  1  0            999 V2000
  -30.6551  -14.5366   20.4612 C   0  0  0  0  0  0
  -30.4303  -12.2959   19.4611 C   0  0  0  0  0  0
  -29.5042  -12.3860   18.2283 C   0  0  0  0  0  0
  -28.0163  -12.3175   18.6282 C   0  0  0  0  0  0
  -27.6552  -13.2007   19.8540 C   0  0  2  0  0  0
  -28.6950  -13.0427   20.9861 C   0  0  0  0  0  0
  -25.2599  -13.8158   20.5657 C   0  0  0  0  0  0
  -24.1839  -13.0444   20.9161 C   0  0  0  0  0  0
  -24.6367  -11.6903   20.8719 C   0  0  0  0  0  0
  -23.9023  -10.4290   21.0390 C   0  0  0  0  0  0
  -24.3588   -9.4209   21.9168 C   0  0  0  0  0  0
  -23.6280   -8.2234   22.0740 C   0  0  0  0  0  0
  -22.4262   -8.0263   21.3532 C   0  0  0  0  0  0
  -21.9884   -9.0227   20.4632 C   0  0  0  0  0  0
  -22.7191  -10.2122   20.3039 C   0  0  0  0  0  0
  -21.6847   -6.0728   22.5275 C   0  0  0  0  0  0
  -21.4010   -6.5636   23.8210 C   0  0  0  0  0  0
  -21.3664   -5.6787   24.9170 C   0  0  0  0  0  0
  -21.6051   -4.3050   24.7212 C   0  0  0  0  0  0
  -21.8826   -3.8141   23.4331 C   0  0  0  0  0  0
  -21.9193   -4.6960   22.3391 C   0  0  0  0  0  0
  -22.7868  -13.5242   21.1842 C   0  0  0  0  0  0
  -22.1659   -4.2154   21.0967 F   0  0  0  0  0  0
  -21.5638   -3.4530   25.7721 F   0  0  0  0  0  0
  -30.0189  -13.3337   20.4213 N   0  0  0  0  0  0
  -26.2996  -12.9303   20.3272 N   0  0  0  0  0  0
  -25.9287  -11.6475   20.5752 N   0  0  0  0  0  0
  -22.0525  -12.8222   22.0403 N   0  0  0  0  0  0
  -25.4377  -15.1873   20.4098 N   0  0  0  0  0  0
  -31.8431  -14.6694   20.1557 O   0  0  0  0  0  0
  -21.6631   -6.8859   21.4231 O   0  0  0  0  0  0
  -22.3554  -14.5555   20.6712 O   0  0  0  0  0  0
  -24.6151  -31.8687   23.2105 C   0  0  0  0  0  0
  -25.9057  -32.4818   23.8397 C   0  0  1  0  0  0
  -27.2342  -27.4422   20.1047 C   0  0  0  0  0  0
  -25.5928  -33.8618   24.2344 N   0  0  0  0  0  0
  -23.4014  -30.4936   21.5491 C   0  0  2  0  0  0
  -24.8501  -28.9593   20.1144 C   0  0  0  0  0  0
  -22.7402  -29.4676   22.4976 C   0  0  0  0  0  0
  -18.0282  -28.1370   22.8495 C   0  0  0  0  0  0
  -24.1494  -36.7307   23.2638 C   0  0  0  0  0  0
  -25.9297  -30.8389   21.3615 C   0  0  0  0  0  0
  -26.0092  -29.4730   20.7104 C   0  0  0  0  0  0
  -27.2075  -28.7232   20.7009 C   0  0  0  0  0  0
  -26.0623  -26.9399   19.5003 C   0  0  0  0  0  0
  -24.8710  -27.6912   19.5054 C   0  0  0  0  0  0
  -23.6103  -29.8248   20.1638 C   0  0  0  0  0  0
  -25.4110  -36.3104   24.0346 C   0  0  1  0  0  0
  -20.5866  -28.3660   23.1312 C   0  0  2  0  0  0
  -20.6764  -26.9397   22.5410 C   0  0  0  0  0  0
  -19.5743  -26.6382   21.5204 C   0  0  0  0  0  0
  -18.1925  -26.7923   22.1618 C   0  0  0  0  0  0
  -19.1530  -28.8830   23.2905 C   0  0  0  0  0  0
  -18.9460  -30.1440   23.8909 C   0  0  0  0  0  0
  -17.6466  -30.6577   24.0561 C   0  0  0  0  0  0
  -25.9038  -34.9467   23.5138 C   0  0  0  0  0  0
  -16.5356  -29.9077   23.6320 C   0  0  0  0  0  0
  -16.7272  -28.6492   23.0348 C   0  0  0  0  0  0
  -26.4491  -31.6580   25.0709 C   0  0  0  0  0  0
  -25.3775  -31.3665   26.1464 C   0  0  0  0  0  0
  -27.0312  -30.3028   24.6064 C   0  0  0  0  0  0
  -27.6085  -32.4275   25.7468 C   0  0  0  0  0  0
  -27.5580  -37.1805   24.8467 C   0  0  0  0  0  0
  -21.4133  -29.3038   22.3712 N   0  0  0  0  0  0
  -26.4291  -37.3790   23.9414 N   0  0  0  0  0  0
  -24.6664  -31.0814   22.0985 N   0  0  0  0  0  0
  -23.4190  -28.8227   23.3014 O   0  0  0  0  0  0
  -28.3790  -26.6797   20.1038 O   0  0  0  0  0  0
  -26.5578  -34.8919   22.4685 O   0  0  0  0  0  0
  -23.5349  -32.1431   23.7514 O   0  0  0  0  0  0
  -30.1470  -19.4855   18.8100 C   0  0  0  0  0  0
  -30.3471  -18.3371   18.0392 C   0  0  0  0  0  0
  -29.7270  -18.0941   20.7596 C   0  0  0  0  0  0
  -29.7829  -19.3923   20.1695 C   0  0  0  0  0  0
  -30.2180  -17.0578   18.6045 C   0  0  0  0  0  0
  -29.9751  -16.9100   20.0029 C   0  0  0  0  0  0
  -29.4018  -20.6246   20.9165 C   0  0  0  0  0  0
  -29.2901  -21.8656   20.3736 C   0  0  0  0  0  0
  -28.9305  -24.3578   20.3641 C   0  0  0  0  0  0
  -28.3092  -25.4820   20.7809 C   0  0  0  0  0  0
  -28.8552  -23.0747   21.1093 C   0  0  0  0  0  0
  -30.2447  -15.8967   17.6325 C   0  0  0  0  0  0
  -29.8489  -15.6148   20.6314 N   0  0  0  0  0  0
  -28.4364  -23.0166   22.2703 O   0  0  0  0  0  0
  -31.4734  -12.3982   19.1566 H   0  0  0  0  0  0
  -30.3518  -11.3108   19.9234 H   0  0  0  0  0  0
  -29.7287  -11.5718   17.5385 H   0  0  0  0  0  0
  -29.7089  -13.2875   17.6646 H   0  0  0  0  0  0
  -27.7996  -11.2728   18.8534 H   0  0  0  0  0  0
  -27.3842  -12.5737   17.7770 H   0  0  0  0  0  0
  -27.6834  -14.2334   19.5065 H   0  0  0  0  0  0
  -28.6783  -12.0267   21.3836 H   0  0  0  0  0  0
  -28.4615  -13.6996   21.8264 H   0  0  0  0  0  0
  -25.2732   -9.5705   22.4742 H   0  0  0  0  0  0
  -24.0002   -7.4628   22.7463 H   0  0  0  0  0  0
  -21.0814   -8.8704   19.8948 H   0  0  0  0  0  0
  -22.3608  -10.9644   19.6147 H   0  0  0  0  0  0
  -21.1995   -7.6146   23.9713 H   0  0  0  0  0  0
  -21.1494   -6.0515   25.9079 H   0  0  0  0  0  0
  -22.0612   -2.7605   23.2816 H   0  0  0  0  0  0
  -22.4116  -11.9827   22.4697 H   0  0  0  0  0  0
  -21.1182  -13.1290   22.2705 H   0  0  0  0  0  0
  -24.6770  -15.8493   20.5199 H   0  0  0  0  0  0
  -26.2960  -15.6222   20.0966 H   0  0  0  0  0  0
  -26.7127  -32.5536   23.1161 H   0  0  0  0  0  0
  -25.0129  -33.9774   25.0526 H   0  0  0  0  0  0
  -22.6906  -31.3105   21.4091 H   0  0  0  0  0  0
  -23.3747  -35.9648   23.3304 H   0  0  0  0  0  0
  -24.3597  -36.8913   22.2050 H   0  0  0  0  0  0
  -23.7248  -37.6521   23.6636 H   0  0  0  0  0  0
  -26.0425  -31.6071   20.5952 H   0  0  0  0  0  0
  -26.8171  -30.8916   21.9798 H   0  0  0  0  0  0
  -28.1035  -29.1154   21.1612 H   0  0  0  0  0  0
  -26.0751  -25.9670   19.0285 H   0  0  0  0  0  0
  -23.9803  -27.2898   19.0409 H   0  0  0  0  0  0
  -23.7185  -30.5989   19.4038 H   0  0  0  0  0  0
  -22.7349  -29.2451   19.8655 H   0  0  0  0  0  0
  -25.1284  -36.1965   25.0839 H   0  0  0  0  0  0
  -20.9981  -28.3224   24.1422 H   0  0  0  0  0  0
  -20.5650  -26.2275   23.3600 H   0  0  0  0  0  0
  -21.6636  -26.7426   22.1210 H   0  0  0  0  0  0
  -19.6901  -25.6293   21.1223 H   0  0  0  0  0  0
  -19.6682  -27.3197   20.6737 H   0  0  0  0  0  0
  -17.4199  -26.6690   21.4013 H   0  0  0  0  0  0
  -18.0323  -26.0053   22.8999 H   0  0  0  0  0  0
  -19.7943  -30.7248   24.2282 H   0  0  0  0  0  0
  -17.5022  -31.6259   24.5157 H   0  0  0  0  0  0
  -15.5354  -30.2986   23.7625 H   0  0  0  0  0  0
  -15.8677  -28.0806   22.7060 H   0  0  0  0  0  0
  -24.5997  -30.6946   25.7811 H   0  0  0  0  0  0
  -24.8904  -32.2800   26.4885 H   0  0  0  0  0  0
  -25.8166  -30.8881   27.0228 H   0  0  0  0  0  0
  -26.2836  -29.6780   24.1166 H   0  0  0  0  0  0
  -27.4142  -29.7270   25.4497 H   0  0  0  0  0  0
  -27.8646  -30.4346   23.9162 H   0  0  0  0  0  0
  -27.2741  -33.3582   26.2065 H   0  0  0  0  0  0
  -28.3897  -32.6818   25.0289 H   0  0  0  0  0  0
  -28.0750  -31.8375   26.5369 H   0  0  0  0  0  0
  -28.2599  -38.0099   24.7515 H   0  0  0  0  0  0
  -28.1078  -36.2633   24.6291 H   0  0  0  0  0  0
  -27.2304  -37.1452   25.8872 H   0  0  0  0  0  0
  -20.9282  -29.8781   21.6952 H   0  0  0  0  0  0
  -26.0181  -38.2871   24.1413 H   0  0  0  0  0  0
  -30.2329  -20.4320   18.2997 H   0  0  0  0  0  0
  -30.5492  -18.4534   16.9833 H   0  0  0  0  0  0
  -29.4632  -18.0091   21.8049 H   0  0  0  0  0  0
  -29.1887  -20.4977   21.9689 H   0  0  0  0  0  0
  -29.5036  -22.0339   19.3317 H   0  0  0  0  0  0
  -29.5071  -24.3765   19.4509 H   0  0  0  0  0  0
  -27.7064  -25.5424   21.6784 H   0  0  0  0  0  0
  -30.2938  -16.2380   16.5983 H   0  0  0  0  0  0
  -29.3130  -15.3442   17.7327 H   0  0  0  0  0  0
  -31.1013  -15.2436   17.7886 H   0  0  0  0  0  0
  -28.9601  -15.4226   21.0684 H   0  0  0  0  0  0
  1 25  1  0  0  0
  1 30  2  0  0  0
  1 83  1  0  0  0
  2  3  1  0  0  0
  2 25  1  0  0  0
  2 85  1  0  0  0
  2 86  1  0  0  0
  3  4  1  0  0  0
  3 87  1  0  0  0
  3 88  1  0  0  0
  4  5  1  0  0  0
  4 89  1  0  0  0
  4 90  1  0  0  0
  5  6  1  0  0  0
  5 26  1  0  0  0
  5 91  1  0  0  0
  6 25  1  0  0  0
  6 92  1  0  0  0
  6 93  1  0  0  0
  7  8  2  0  0  0
  7 26  1  0  0  0
  7 29  1  0  0  0
  8  9  1  0  0  0
  8 22  1  0  0  0
  9 10  1  0  0  0
  9 27  2  0  0  0
 10 11  2  0  0  0
 10 15  1  0  0  0
 11 12  1  0  0  0
 11 94  1  0  0  0
 12 13  2  0  0  0
 12 95  1  0  0  0
 13 14  1  0  0  0
 13 31  1  0  0  0
 14 15  2  0  0  0
 14 96  1  0  0  0
 15 97  1  0  0  0
 16 17  2  0  0  0
 16 21  1  0  0  0
 16 31  1  0  0  0
 17 18  1  0  0  0
 17 98  1  0  0  0
 18 19  2  0  0  0
 18 99  1  0  0  0
 19 20  1  0  0  0
 19 24  1  0  0  0
 20 21  2  0  0  0
 20100  1  0  0  0
 21 23  1  0  0  0
 22 28  1  0  0  0
 22 32  2  0  0  0
 26 27  1  0  0  0
 28101  1  0  0  0
 28102  1  0  0  0
 29103  1  0  0  0
 29104  1  0  0  0
 33 34  1  0  0  0
 33 66  1  0  0  0
 33 70  2  0  0  0
 34 36  1  0  0  0
 34 59  1  0  0  0
 34105  1  0  0  0
 35 44  2  0  0  0
 35 45  1  0  0  0
 35 68  1  0  0  0
 36 56  1  0  0  0
 36106  1  0  0  0
 37 39  1  0  0  0
 37 47  1  0  0  0
 37 66  1  0  0  0
 37107  1  0  0  0
 38 43  2  0  0  0
 38 46  1  0  0  0
 38 47  1  0  0  0
 39 64  1  0  0  0
 39 67  2  0  0  0
 40 52  1  0  0  0
 40 53  2  0  0  0
 40 58  1  0  0  0
 41108  1  0  0  0
 41109  1  0  0  0
 41110  1  0  0  0
 41 48  1  0  0  0
 42 43  1  0  0  0
 42 66  1  0  0  0
 42111  1  0  0  0
 42112  1  0  0  0
 43 44  1  0  0  0
 44113  1  0  0  0
 45 46  2  0  0  0
 45114  1  0  0  0
 46115  1  0  0  0
 47116  1  0  0  0
 47117  1  0  0  0
 48 56  1  0  0  0
 48 65  1  0  0  0
 48118  1  0  0  0
 49 50  1  0  0  0
 49 53  1  0  0  0
 49 64  1  0  0  0
 49119  1  0  0  0
 50 51  1  0  0  0
 50120  1  0  0  0
 50121  1  0  0  0
 51 52  1  0  0  0
 51122  1  0  0  0
 51123  1  0  0  0
 52124  1  0  0  0
 52125  1  0  0  0
 53 54  1  0  0  0
 54 55  2  0  0  0
 54126  1  0  0  0
 55 57  1  0  0  0
 55127  1  0  0  0
 56 69  2  0  0  0
 57 58  2  0  0  0
 57128  1  0  0  0
 58129  1  0  0  0
 59 60  1  0  0  0
 59 61  1  0  0  0
 59 62  1  0  0  0
 60130  1  0  0  0
 60131  1  0  0  0
 60132  1  0  0  0
 61133  1  0  0  0
 61134  1  0  0  0
 61135  1  0  0  0
 62136  1  0  0  0
 62137  1  0  0  0
 62138  1  0  0  0
 63 65  1  0  0  0
 63139  1  0  0  0
 63140  1  0  0  0
 63141  1  0  0  0
 64142  1  0  0  0
 65143  1  0  0  0
 68 80  1  0  0  0
 71 72  2  0  0  0
 71 74  1  0  0  0
 71144  1  0  0  0
 72 75  1  0  0  0
 72145  1  0  0  0
 73 74  2  0  0  0
 73 76  1  0  0  0
 73146  1  0  0  0
 74 77  1  0  0  0
 75 76  2  0  0  0
 75 82  1  0  0  0
 76 83  1  0  0  0
 77 78  2  0  0  0
 77147  1  0  0  0
 78 81  1  0  0  0
 78148  1  0  0  0
 79 80  2  0  0  0
 79 81  1  0  0  0
 79149  1  0  0  0
 80150  1  0  0  0
 81 84  2  0  0  0
 82151  1  0  0  0
 82152  1  0  0  0
 82153  1  0  0  0
 83154  1  0  0  0
M  ISO  4   1 100  68 101  80 101  83 100
M  END
> <chiral flag>
0

> <version>
0

> <s_m_source_file>
/data/baiqing/PycharmProjects/Reinvent-master-3.2/result/LINK_invent/BTK/process_docking_weight1_custom_product_contain_oxygen_bond_distance_aromatic_linkinvent_7_9_3/rearranged_h_0117.sdf

> <i_m_source_file_index>
10

> <r_mmod_Potential_Energy-OPLS-2005>
-33.6961402893066

> <r_mmod_Stretch_Energy-OPLS-2005>
41.8297576904297

> <r_mmod_Bend_Energy-OPLS-2005>
95.9367980957031

> <r_mmod_Torsional_Energy-OPLS-2005>
254.94514465332

> <r_mmod_Improper_Torsional_Energy-OPLS-2005>
6.57529497146606

> <r_mmod_Van_der_Waal_Energy-OPLS-2005>
158.65869140625

> <r_mmod_Electrostatic_Energy-OPLS-2005>
-395.810211181641

> <r_mmod_Solvation_Energy-OPLS-2005>
-219.934844970703

> <b_mmod_Minimization_Converged-OPLS-2005>
0

> <r_mmod_RMS_Derivative-OPLS-2005>
1.62919664382935

$$$$
10
                    3D
 Structure written by MMmdl.
157165  0  0  1  0            999 V2000
  -30.6174  -14.6378   20.4918 C   0  0  0  0  0  0
  -30.4447  -12.3870   19.4459 C   0  0  0  0  0  0
  -29.5118  -12.5086   18.2187 C   0  0  0  0  0  0
  -28.0348  -12.3434   18.6324 C   0  0  0  0  0  0
  -27.6590  -13.2123   19.8627 C   0  0  2  0  0  0
  -28.7055  -13.0599   20.9908 C   0  0  0  0  0  0
  -25.2600  -13.8150   20.5671 C   0  0  0  0  0  0
  -24.1855  -13.0432   20.9182 C   0  0  0  0  0  0
  -24.6407  -11.6900   20.8723 C   0  0  0  0  0  0
  -23.9063  -10.4291   21.0390 C   0  0  0  0  0  0
  -24.3611   -9.4221   21.9181 C   0  0  0  0  0  0
  -23.6289   -8.2259   22.0764 C   0  0  0  0  0  0
  -22.4272   -8.0284   21.3547 C   0  0  0  0  0  0
  -21.9901   -9.0257   20.4653 C   0  0  0  0  0  0
  -22.7224  -10.2137   20.3054 C   0  0  0  0  0  0
  -21.6859   -6.0738   22.5279 C   0  0  0  0  0  0
  -21.4012   -6.5639   23.8214 C   0  0  0  0  0  0
  -21.3658   -5.6792   24.9173 C   0  0  0  0  0  0
  -21.6047   -4.3057   24.7222 C   0  0  0  0  0  0
  -21.8817   -3.8146   23.4347 C   0  0  0  0  0  0
  -21.9193   -4.6965   22.3402 C   0  0  0  0  0  0
  -22.7881  -13.5249   21.1843 C   0  0  0  0  0  0
  -22.1661   -4.2149   21.0982 F   0  0  0  0  0  0
  -21.5633   -3.4541   25.7739 F   0  0  0  0  0  0
  -30.0225  -13.4042   20.4302 N   0  0  0  0  0  0
  -26.3030  -12.9326   20.3310 N   0  0  0  0  0  0
  -25.9340  -11.6484   20.5747 N   0  0  0  0  0  0
  -22.0498  -12.8247   22.0387 N   0  0  0  0  0  0
  -25.4307  -15.1873   20.4069 N   0  0  0  0  0  0
  -31.7727  -14.8155   20.0940 O   0  0  0  0  0  0
  -21.6645   -6.8874   21.4238 O   0  0  0  0  0  0
  -22.3584  -14.5565   20.6697 O   0  0  0  0  0  0
  -24.6270  -31.8578   23.1994 C   0  0  0  0  0  0
  -25.9124  -32.4760   23.8318 C   0  0  1  0  0  0
  -27.2225  -27.3122   20.1243 C   0  0  0  0  0  0
  -25.5945  -33.8562   24.2249 N   0  0  0  0  0  0
  -23.4214  -30.4790   21.5416 C   0  0  2  0  0  0
  -24.8681  -28.9294   20.1108 C   0  0  0  0  0  0
  -22.7476  -29.4611   22.4929 C   0  0  0  0  0  0
  -18.0295  -28.1369   22.8481 C   0  0  0  0  0  0
  -24.1496  -36.7283   23.2639 C   0  0  0  0  0  0
  -25.9621  -30.7819   21.3722 C   0  0  0  0  0  0
  -26.0356  -29.4086   20.7181 C   0  0  0  0  0  0
  -27.2192  -28.6126   20.7151 C   0  0  0  0  0  0
  -26.0368  -26.8858   19.4885 C   0  0  0  0  0  0
  -24.8686  -27.6716   19.4871 C   0  0  0  0  0  0
  -23.6357  -29.8107   20.1582 C   0  0  0  0  0  0
  -25.4113  -36.3061   24.0332 C   0  0  1  0  0  0
  -20.5887  -28.3670   23.1273 C   0  0  2  0  0  0
  -20.6788  -26.9392   22.5387 C   0  0  0  0  0  0
  -19.5765  -26.6360   21.5197 C   0  0  0  0  0  0
  -18.1947  -26.7919   22.1610 C   0  0  0  0  0  0
  -19.1541  -28.8843   23.2881 C   0  0  0  0  0  0
  -18.9475  -30.1451   23.8888 C   0  0  0  0  0  0
  -17.6473  -30.6568   24.0554 C   0  0  0  0  0  0
  -25.9053  -34.9442   23.5083 C   0  0  0  0  0  0
  -16.5361  -29.9062   23.6330 C   0  0  0  0  0  0
  -16.7280  -28.6487   23.0336 C   0  0  0  0  0  0
  -26.4499  -31.6574   25.0701 C   0  0  0  0  0  0
  -25.3736  -31.3739   26.1435 C   0  0  0  0  0  0
  -27.0328  -30.2991   24.6141 C   0  0  0  0  0  0
  -27.6049  -32.4310   25.7480 C   0  0  0  0  0  0
  -27.5581  -37.1784   24.8466 C   0  0  0  0  0  0
  -21.4187  -29.3030   22.3670 N   0  0  0  0  0  0
  -26.4289  -37.3754   23.9419 N   0  0  0  0  0  0
  -24.6891  -31.0573   22.0943 N   0  0  0  0  0  0
  -23.4204  -28.8158   23.3007 O   0  0  0  0  0  0
  -28.3246  -26.4475   20.1468 O   0  0  0  0  0  0
  -26.5611  -34.8930   22.4642 O   0  0  0  0  0  0
  -23.5427  -32.1391   23.7298 O   0  0  0  0  0  0
  -28.5801  -17.8183   20.9027 C   0  0  0  0  0  0
  -30.8398  -17.8823   20.1104 C   0  0  0  0  0  0
  -28.4096  -19.2165   20.6519 C   0  0  0  0  0  0
  -30.6969  -19.2857   19.8724 C   0  0  0  0  0  0
  -29.7756  -17.1044   20.6296 C   0  0  0  0  0  0
  -29.4918  -20.0054   20.1434 C   0  0  0  0  0  0
  -26.2771  -19.4514   21.9372 C   0  0  0  0  0  0
  -27.0760  -19.7847   20.9092 C   0  0  0  0  0  0
  -28.9322  -23.8981   20.0303 C   0  0  0  0  0  0
  -31.8783  -20.0445   19.2957 C   0  0  0  0  0  0
  -28.0586  -25.0684   20.6340 C   0  0  0  0  0  0
  -28.6802  -22.4106   20.5202 C   0  0  0  0  0  0
  -29.7961  -15.6618   20.8833 N   0  0  0  0  0  0
  -29.7971  -24.1419   19.1802 O   0  0  0  0  0  0
  -29.4715  -21.3876   19.8169 O   0  0  0  0  0  0
  -31.4868  -12.5089   19.1462 H   0  0  0  0  0  0
  -30.3774  -11.3875   19.8798 H   0  0  0  0  0  0
  -29.7738  -11.7585   17.4701 H   0  0  0  0  0  0
  -29.6555  -13.4788   17.7397 H   0  0  0  0  0  0
  -27.8769  -11.2897   18.8645 H   0  0  0  0  0  0
  -27.3781  -12.5697   17.7920 H   0  0  0  0  0  0
  -27.6789  -14.2484   19.5249 H   0  0  0  0  0  0
  -28.7167  -12.0371   21.3710 H   0  0  0  0  0  0
  -28.4528  -13.6864   21.8474 H   0  0  0  0  0  0
  -25.2754   -9.5716   22.4758 H   0  0  0  0  0  0
  -24.0003   -7.4660   22.7493 H   0  0  0  0  0  0
  -21.0832   -8.8761   19.8966 H   0  0  0  0  0  0
  -22.3666  -10.9673   19.6171 H   0  0  0  0  0  0
  -21.1994   -7.6147   23.9715 H   0  0  0  0  0  0
  -21.1482   -6.0525   25.9078 H   0  0  0  0  0  0
  -22.0593   -2.7609   23.2848 H   0  0  0  0  0  0
  -22.4084  -11.9899   22.4780 H   0  0  0  0  0  0
  -21.1133  -13.1318   22.2572 H   0  0  0  0  0  0
  -24.6546  -15.8333   20.5013 H   0  0  0  0  0  0
  -26.2649  -15.6234   20.0354 H   0  0  0  0  0  0
  -26.7188  -32.5404   23.1048 H   0  0  0  0  0  0
  -25.0137  -33.9695   25.0436 H   0  0  0  0  0  0
  -22.7161  -31.2996   21.3941 H   0  0  0  0  0  0
  -23.3763  -35.9608   23.3276 H   0  0  0  0  0  0
  -24.3599  -36.8912   22.2056 H   0  0  0  0  0  0
  -23.7250  -37.6485   23.6669 H   0  0  0  0  0  0
  -26.0931  -31.5387   20.5982 H   0  0  0  0  0  0
  -26.8449  -30.8290   21.9984 H   0  0  0  0  0  0
  -28.1128  -28.9738   21.2032 H   0  0  0  0  0  0
  -25.9992  -25.9251   18.9964 H   0  0  0  0  0  0
  -23.9769  -27.2947   19.0054 H   0  0  0  0  0  0
  -23.7533  -30.5866   19.4005 H   0  0  0  0  0  0
  -22.7579  -29.2362   19.8582 H   0  0  0  0  0  0
  -25.1287  -36.1890   25.0823 H   0  0  0  0  0  0
  -20.9980  -28.3236   24.1397 H   0  0  0  0  0  0
  -20.5675  -26.2281   23.3584 H   0  0  0  0  0  0
  -21.6649  -26.7403   22.1185 H   0  0  0  0  0  0
  -19.6935  -25.6275   21.1218 H   0  0  0  0  0  0
  -19.6722  -27.3178   20.6743 H   0  0  0  0  0  0
  -17.4209  -26.6665   21.4021 H   0  0  0  0  0  0
  -18.0351  -26.0050   22.9004 H   0  0  0  0  0  0
  -19.7957  -30.7261   24.2238 H   0  0  0  0  0  0
  -17.5034  -31.6254   24.5137 H   0  0  0  0  0  0
  -15.5368  -30.2953   23.7671 H   0  0  0  0  0  0
  -15.8686  -28.0807   22.7026 H   0  0  0  0  0  0
  -24.5892  -30.7096   25.7785 H   0  0  0  0  0  0
  -24.8966  -32.2929   26.4854 H   0  0  0  0  0  0
  -25.8065  -30.8924   27.0217 H   0  0  0  0  0  0
  -26.2887  -29.6750   24.1167 H   0  0  0  0  0  0
  -27.4049  -29.7212   25.4619 H   0  0  0  0  0  0
  -27.8753  -30.4283   23.9341 H   0  0  0  0  0  0
  -27.2642  -33.3612   26.2036 H   0  0  0  0  0  0
  -28.3877  -32.6853   25.0326 H   0  0  0  0  0  0
  -28.0696  -31.8454   26.5420 H   0  0  0  0  0  0
  -28.2547  -38.0123   24.7505 H   0  0  0  0  0  0
  -28.1115  -36.2643   24.6262 H   0  0  0  0  0  0
  -27.2314  -37.1378   25.8873 H   0  0  0  0  0  0
  -20.9358  -29.8777   21.6905 H   0  0  0  0  0  0
  -26.0162  -38.2822   24.1430 H   0  0  0  0  0  0
  -27.7340  -17.2583   21.2763 H   0  0  0  0  0  0
  -31.7836  -17.4045   19.8857 H   0  0  0  0  0  0
  -25.2977  -19.8946   22.0452 H   0  0  0  0  0  0
  -26.5813  -18.7373   22.6880 H   0  0  0  0  0  0
  -26.6991  -20.4859   20.1804 H   0  0  0  0  0  0
  -32.7663  -19.4186   19.2056 H   0  0  0  0  0  0
  -32.1282  -20.8913   19.9348 H   0  0  0  0  0  0
  -31.6293  -20.4257   18.3048 H   0  0  0  0  0  0
  -28.2255  -25.0680   21.7121 H   0  0  0  0  0  0
  -27.0125  -24.7911   20.5049 H   0  0  0  0  0  0
  -27.6170  -22.2399   20.3881 H   0  0  0  0  0  0
  -28.8872  -22.3431   21.5883 H   0  0  0  0  0  0
  -28.9319  -15.3053   21.2587 H   0  0  0  0  0  0
  1 25  1  0  0  0
  1 30  2  0  0  0
  1 83  1  0  0  0
  2  3  1  0  0  0
  2 25  1  0  0  0
  2 86  1  0  0  0
  2 87  1  0  0  0
  3  4  1  0  0  0
  3 88  1  0  0  0
  3 89  1  0  0  0
  4  5  1  0  0  0
  4 90  1  0  0  0
  4 91  1  0  0  0
  5  6  1  0  0  0
  5 26  1  0  0  0
  5 92  1  0  0  0
  6 25  1  0  0  0
  6 93  1  0  0  0
  6 94  1  0  0  0
  7  8  2  0  0  0
  7 26  1  0  0  0
  7 29  1  0  0  0
  8  9  1  0  0  0
  8 22  1  0  0  0
  9 10  1  0  0  0
  9 27  2  0  0  0
 10 11  2  0  0  0
 10 15  1  0  0  0
 11 12  1  0  0  0
 11 95  1  0  0  0
 12 13  2  0  0  0
 12 96  1  0  0  0
 13 14  1  0  0  0
 13 31  1  0  0  0
 14 15  2  0  0  0
 14 97  1  0  0  0
 15 98  1  0  0  0
 16 17  2  0  0  0
 16 21  1  0  0  0
 16 31  1  0  0  0
 17 18  1  0  0  0
 17 99  1  0  0  0
 18 19  2  0  0  0
 18100  1  0  0  0
 19 20  1  0  0  0
 19 24  1  0  0  0
 20 21  2  0  0  0
 20101  1  0  0  0
 21 23  1  0  0  0
 22 28  1  0  0  0
 22 32  2  0  0  0
 26 27  1  0  0  0
 28102  1  0  0  0
 28103  1  0  0  0
 29104  1  0  0  0
 29105  1  0  0  0
 33 34  1  0  0  0
 33 66  1  0  0  0
 33 70  2  0  0  0
 34 36  1  0  0  0
 34 59  1  0  0  0
 34106  1  0  0  0
 35 44  2  0  0  0
 35 45  1  0  0  0
 35 68  1  0  0  0
 36 56  1  0  0  0
 36107  1  0  0  0
 37 39  1  0  0  0
 37 47  1  0  0  0
 37 66  1  0  0  0
 37108  1  0  0  0
 38 43  2  0  0  0
 38 46  1  0  0  0
 38 47  1  0  0  0
 39 64  1  0  0  0
 39 67  2  0  0  0
 40 52  1  0  0  0
 40 53  2  0  0  0
 40 58  1  0  0  0
 41109  1  0  0  0
 41110  1  0  0  0
 41111  1  0  0  0
 41 48  1  0  0  0
 42 43  1  0  0  0
 42 66  1  0  0  0
 42112  1  0  0  0
 42113  1  0  0  0
 43 44  1  0  0  0
 44114  1  0  0  0
 45 46  2  0  0  0
 45115  1  0  0  0
 46116  1  0  0  0
 47117  1  0  0  0
 47118  1  0  0  0
 48 56  1  0  0  0
 48 65  1  0  0  0
 48119  1  0  0  0
 49 50  1  0  0  0
 49 53  1  0  0  0
 49 64  1  0  0  0
 49120  1  0  0  0
 50 51  1  0  0  0
 50121  1  0  0  0
 50122  1  0  0  0
 51 52  1  0  0  0
 51123  1  0  0  0
 51124  1  0  0  0
 52125  1  0  0  0
 52126  1  0  0  0
 53 54  1  0  0  0
 54 55  2  0  0  0
 54127  1  0  0  0
 55 57  1  0  0  0
 55128  1  0  0  0
 56 69  2  0  0  0
 57 58  2  0  0  0
 57129  1  0  0  0
 58130  1  0  0  0
 59 60  1  0  0  0
 59 61  1  0  0  0
 59 62  1  0  0  0
 60131  1  0  0  0
 60132  1  0  0  0
 60133  1  0  0  0
 61134  1  0  0  0
 61135  1  0  0  0
 61136  1  0  0  0
 62137  1  0  0  0
 62138  1  0  0  0
 62139  1  0  0  0
 63 65  1  0  0  0
 63140  1  0  0  0
 63141  1  0  0  0
 63142  1  0  0  0
 64143  1  0  0  0
 65144  1  0  0  0
 68 81  1  0  0  0
 71 73  2  0  0  0
 71 75  1  0  0  0
 71145  1  0  0  0
 72 74  1  0  0  0
 72 75  2  0  0  0
 72146  1  0  0  0
 73 76  1  0  0  0
 73 78  1  0  0  0
 74 76  2  0  0  0
 74 80  1  0  0  0
 75 83  1  0  0  0
 76 85  1  0  0  0
 77 78  2  0  0  0
 77147  1  0  0  0
 77148  1  0  0  0
 78149  1  0  0  0
 79 81  1  0  0  0
 79 82  1  0  0  0
 79 84  2  0  0  0
 80150  1  0  0  0
 80151  1  0  0  0
 80152  1  0  0  0
 81153  1  0  0  0
 81154  1  0  0  0
 82 85  1  0  0  0
 82155  1  0  0  0
 82156  1  0  0  0
 83157  1  0  0  0
M  ISO  4   1 100  68 101  81 101  83 100
M  END
> <chiral flag>
0

> <version>
0

> <s_m_source_file>
/data/baiqing/PycharmProjects/Reinvent-master-3.2/result/LINK_invent/BTK/process_docking_weight1_custom_product_contain_oxygen_bond_distance_aromatic_linkinvent_7_9_3/rearranged_h_0117.sdf

> <i_m_source_file_index>
11

> <r_mmod_Potential_Energy-OPLS-2005>
110.615043640137

> <r_mmod_Stretch_Energy-OPLS-2005>
83.5659332275391

> <r_mmod_Bend_Energy-OPLS-2005>
152.202819824219

> <r_mmod_Torsional_Energy-OPLS-2005>
247.942779541016

> <r_mmod_Improper_Torsional_Energy-OPLS-2005>
4.69771671295166

> <r_mmod_Van_der_Waal_Energy-OPLS-2005>
144.087585449219

> <r_mmod_Electrostatic_Energy-OPLS-2005>
-335.089172363281

> <r_mmod_Solvation_Energy-OPLS-2005>
-237.059432983398

> <b_mmod_Minimization_Converged-OPLS-2005>
0

> <r_mmod_RMS_Derivative-OPLS-2005>
2.54109978675842

$$$$
11
                    3D
 Structure written by MMmdl.
158166  0  0  1  0            999 V2000
  -30.6320  -14.5763   20.5388 C   0  0  0  0  0  0
  -30.4383  -12.3572   19.4494 C   0  0  0  0  0  0
  -29.5103  -12.5021   18.2226 C   0  0  0  0  0  0
  -28.0281  -12.3554   18.6303 C   0  0  0  0  0  0
  -27.6567  -13.2084   19.8725 C   0  0  2  0  0  0
  -28.6971  -13.0200   20.9990 C   0  0  0  0  0  0
  -25.2561  -13.8149   20.5686 C   0  0  0  0  0  0
  -24.1811  -13.0423   20.9166 C   0  0  0  0  0  0
  -24.6377  -11.6893   20.8730 C   0  0  0  0  0  0
  -23.9052  -10.4283   21.0404 C   0  0  0  0  0  0
  -24.3600   -9.4193   21.9178 C   0  0  0  0  0  0
  -23.6264   -8.2236   22.0757 C   0  0  0  0  0  0
  -22.4250   -8.0281   21.3553 C   0  0  0  0  0  0
  -21.9885   -9.0254   20.4661 C   0  0  0  0  0  0
  -22.7224  -10.2123   20.3058 C   0  0  0  0  0  0
  -21.6854   -6.0718   22.5274 C   0  0  0  0  0  0
  -21.4021   -6.5626   23.8204 C   0  0  0  0  0  0
  -21.3663   -5.6782   24.9172 C   0  0  0  0  0  0
  -21.6042   -4.3040   24.7229 C   0  0  0  0  0  0
  -21.8814   -3.8132   23.4352 C   0  0  0  0  0  0
  -21.9185   -4.6945   22.3409 C   0  0  0  0  0  0
  -22.7836  -13.5234   21.1831 C   0  0  0  0  0  0
  -22.1648   -4.2127   21.0982 F   0  0  0  0  0  0
  -21.5635   -3.4526   25.7743 F   0  0  0  0  0  0
  -30.0193  -13.3577   20.4464 N   0  0  0  0  0  0
  -26.2989  -12.9315   20.3325 N   0  0  0  0  0  0
  -25.9300  -11.6477   20.5743 N   0  0  0  0  0  0
  -22.0476  -12.8251   22.0403 N   0  0  0  0  0  0
  -25.4270  -15.1878   20.4152 N   0  0  0  0  0  0
  -31.7816  -14.7575   20.1242 O   0  0  0  0  0  0
  -21.6638   -6.8862   21.4236 O   0  0  0  0  0  0
  -22.3527  -14.5557   20.6695 O   0  0  0  0  0  0
  -24.6202  -31.8639   23.2035 C   0  0  0  0  0  0
  -25.9065  -32.4807   23.8354 C   0  0  1  0  0  0
  -27.2318  -27.3720   20.1142 C   0  0  0  0  0  0
  -25.5895  -33.8607   24.2295 N   0  0  0  0  0  0
  -23.4122  -30.4842   21.5456 C   0  0  2  0  0  0
  -24.8596  -28.9419   20.1127 C   0  0  0  0  0  0
  -22.7442  -29.4634   22.4967 C   0  0  0  0  0  0
  -18.0273  -28.1368   22.8497 C   0  0  0  0  0  0
  -24.1490  -36.7309   23.2637 C   0  0  0  0  0  0
  -25.9454  -30.8102   21.3666 C   0  0  0  0  0  0
  -26.0224  -29.4385   20.7163 C   0  0  0  0  0  0
  -27.2117  -28.6618   20.7107 C   0  0  0  0  0  0
  -26.0524  -26.9118   19.4894 C   0  0  0  0  0  0
  -24.8726  -27.6801   19.4938 C   0  0  0  0  0  0
  -23.6247  -29.8149   20.1616 C   0  0  0  0  0  0
  -25.4112  -36.3101   24.0332 C   0  0  1  0  0  0
  -20.5869  -28.3672   23.1305 C   0  0  2  0  0  0
  -20.6764  -26.9402   22.5422 C   0  0  0  0  0  0
  -19.5743  -26.6379   21.5212 C   0  0  0  0  0  0
  -18.1920  -26.7914   22.1624 C   0  0  0  0  0  0
  -19.1524  -28.8832   23.2900 C   0  0  0  0  0  0
  -18.9453  -30.1438   23.8917 C   0  0  0  0  0  0
  -17.6454  -30.6576   24.0565 C   0  0  0  0  0  0
  -25.9041  -34.9466   23.5120 C   0  0  0  0  0  0
  -16.5346  -29.9082   23.6319 C   0  0  0  0  0  0
  -16.7263  -28.6491   23.0352 C   0  0  0  0  0  0
  -26.4468  -31.6588   25.0702 C   0  0  0  0  0  0
  -25.3722  -31.3711   26.1450 C   0  0  0  0  0  0
  -27.0285  -30.3011   24.6107 C   0  0  0  0  0  0
  -27.6039  -32.4309   25.7466 C   0  0  0  0  0  0
  -27.5580  -37.1815   24.8464 C   0  0  0  0  0  0
  -21.4158  -29.3030   22.3705 N   0  0  0  0  0  0
  -26.4294  -37.3788   23.9402 N   0  0  0  0  0  0
  -24.6776  -31.0679   22.0969 N   0  0  0  0  0  0
  -23.4175  -28.8183   23.3040 O   0  0  0  0  0  0
  -28.3783  -26.5850   20.1090 O   0  0  0  0  0  0
  -26.5626  -34.8918   22.4692 O   0  0  0  0  0  0
  -23.5383  -32.1411   23.7402 O   0  0  0  0  0  0
  -30.9314  -17.7387   20.1935 C   0  0  0  0  0  0
  -29.1136  -17.8209   21.7644 C   0  0  0  0  0  0
  -31.1049  -19.1539   20.2786 C   0  0  0  0  0  0
  -30.3098  -19.9169   21.2033 C   0  0  0  0  0  0
  -29.9828  -17.0334   20.9734 C   0  0  0  0  0  0
  -29.2780  -19.2247   21.8896 C   0  0  0  0  0  0
  -32.9013  -20.8109   19.4632 C   0  0  0  0  0  0
  -32.1922  -19.6690   19.4061 C   0  0  0  0  0  0
  -29.3442  -24.3645   20.3100 C   0  0  0  0  0  0
  -28.2876  -25.2175   20.3943 C   0  0  0  0  0  0
  -30.7767  -21.2519   21.7832 C   0  0  0  0  0  0
  -29.3097  -22.9146   20.6489 C   0  0  0  0  0  0
  -30.8592  -23.5913   22.4120 C   0  0  0  0  0  0
  -29.8320  -15.5890   20.9829 N   0  0  0  0  0  0
  -30.2670  -22.5228   21.5551 N   0  0  0  0  0  0
  -31.7381  -21.1104   22.5531 O   0  0  0  0  0  0
  -28.5367  -22.1239   20.1026 O   0  0  0  0  0  0
  -28.4874  -19.8908   22.7673 F   0  0  0  0  0  0
  -31.4824  -12.4778   19.1567 H   0  0  0  0  0  0
  -30.3617  -11.3539   19.8725 H   0  0  0  0  0  0
  -29.7642  -11.7558   17.4686 H   0  0  0  0  0  0
  -29.6688  -13.4745   17.7525 H   0  0  0  0  0  0
  -27.8486  -11.3003   18.8431 H   0  0  0  0  0  0
  -27.3786  -12.6140   17.7937 H   0  0  0  0  0  0
  -27.6903  -14.2500   19.5529 H   0  0  0  0  0  0
  -28.6932  -11.9863   21.3490 H   0  0  0  0  0  0
  -28.4483  -13.6227   21.8732 H   0  0  0  0  0  0
  -25.2736   -9.5663   22.4745 H   0  0  0  0  0  0
  -23.9967   -7.4633   22.7481 H   0  0  0  0  0  0
  -21.0800   -8.8790   19.8974 H   0  0  0  0  0  0
  -22.3688  -10.9663   19.6169 H   0  0  0  0  0  0
  -21.2030   -7.6134   23.9707 H   0  0  0  0  0  0
  -21.1486   -6.0513   25.9074 H   0  0  0  0  0  0
  -22.0591   -2.7593   23.2868 H   0  0  0  0  0  0
  -22.4077  -11.9920   22.4824 H   0  0  0  0  0  0
  -21.1115  -13.1319   22.2633 H   0  0  0  0  0  0
  -24.6568  -15.8388   20.5324 H   0  0  0  0  0  0
  -26.2739  -15.6338   20.0858 H   0  0  0  0  0  0
  -26.7140  -32.5505   23.1113 H   0  0  0  0  0  0
  -25.0025  -33.9764   25.0430 H   0  0  0  0  0  0
  -22.7025  -31.3012   21.4019 H   0  0  0  0  0  0
  -23.3741  -35.9653   23.3321 H   0  0  0  0  0  0
  -24.3582  -36.8913   22.2047 H   0  0  0  0  0  0
  -23.7248  -37.6520   23.6646 H   0  0  0  0  0  0
  -26.0641  -31.5750   20.5972 H   0  0  0  0  0  0
  -26.8300  -30.8626   21.9897 H   0  0  0  0  0  0
  -28.1116  -29.0405   21.1750 H   0  0  0  0  0  0
  -26.0418  -25.9495   18.9974 H   0  0  0  0  0  0
  -23.9832  -27.2958   19.0129 H   0  0  0  0  0  0
  -23.7345  -30.5874   19.3997 H   0  0  0  0  0  0
  -22.7471  -29.2369   19.8682 H   0  0  0  0  0  0
  -25.1291  -36.1961   25.0825 H   0  0  0  0  0  0
  -20.9954  -28.3241   24.1422 H   0  0  0  0  0  0
  -20.5648  -26.2280   23.3618 H   0  0  0  0  0  0
  -21.6642  -26.7435   22.1223 H   0  0  0  0  0  0
  -19.6909  -25.6288   21.1243 H   0  0  0  0  0  0
  -19.6673  -27.3194   20.6743 H   0  0  0  0  0  0
  -17.4191  -26.6663   21.4028 H   0  0  0  0  0  0
  -18.0319  -26.0050   22.9012 H   0  0  0  0  0  0
  -19.7930  -30.7251   24.2293 H   0  0  0  0  0  0
  -17.5008  -31.6259   24.5166 H   0  0  0  0  0  0
  -15.5348  -30.2994   23.7620 H   0  0  0  0  0  0
  -15.8662  -28.0816   22.7058 H   0  0  0  0  0  0
  -24.5902  -30.7048   25.7789 H   0  0  0  0  0  0
  -24.8908  -32.2873   26.4882 H   0  0  0  0  0  0
  -25.8077  -30.8896   27.0216 H   0  0  0  0  0  0
  -26.2829  -29.6788   24.1146 H   0  0  0  0  0  0
  -27.4002  -29.7236   25.4579 H   0  0  0  0  0  0
  -27.8692  -30.4294   23.9287 H   0  0  0  0  0  0
  -27.2645  -33.3603   26.2049 H   0  0  0  0  0  0
  -28.3834  -32.6884   25.0283 H   0  0  0  0  0  0
  -28.0705  -31.8427   26.5378 H   0  0  0  0  0  0
  -28.2619  -38.0093   24.7499 H   0  0  0  0  0  0
  -28.1058  -36.2631   24.6307 H   0  0  0  0  0  0
  -27.2308  -37.1487   25.8871 H   0  0  0  0  0  0
  -20.9314  -29.8753   21.6943 H   0  0  0  0  0  0
  -26.0188  -38.2873   24.1382 H   0  0  0  0  0  0
  -31.5768  -17.1782   19.5317 H   0  0  0  0  0  0
  -28.3399  -17.3440   22.3486 H   0  0  0  0  0  0
  -33.6438  -21.0057   18.7034 H   0  0  0  0  0  0
  -32.7976  -21.5665   20.2221 H   0  0  0  0  0  0
  -32.4367  -19.0219   18.5731 H   0  0  0  0  0  0
  -30.2892  -24.7729   19.9814 H   0  0  0  0  0  0
  -27.3018  -24.9062   20.7144 H   0  0  0  0  0  0
  -31.2402  -23.2465   23.3743 H   0  0  0  0  0  0
  -30.1312  -24.3505   22.7033 H   0  0  0  0  0  0
  -31.6840  -24.0855   21.8943 H   0  0  0  0  0  0
  -28.9554  -15.2593   21.3593 H   0  0  0  0  0  0
  1 25  1  0  0  0
  1 30  2  0  0  0
  1 84  1  0  0  0
  2  3  1  0  0  0
  2 25  1  0  0  0
  2 89  1  0  0  0
  2 90  1  0  0  0
  3  4  1  0  0  0
  3 91  1  0  0  0
  3 92  1  0  0  0
  4  5  1  0  0  0
  4 93  1  0  0  0
  4 94  1  0  0  0
  5  6  1  0  0  0
  5 26  1  0  0  0
  5 95  1  0  0  0
  6 25  1  0  0  0
  6 96  1  0  0  0
  6 97  1  0  0  0
  7  8  2  0  0  0
  7 26  1  0  0  0
  7 29  1  0  0  0
  8  9  1  0  0  0
  8 22  1  0  0  0
  9 10  1  0  0  0
  9 27  2  0  0  0
 10 11  2  0  0  0
 10 15  1  0  0  0
 11 12  1  0  0  0
 11 98  1  0  0  0
 12 13  2  0  0  0
 12 99  1  0  0  0
 13 14  1  0  0  0
 13 31  1  0  0  0
 14 15  2  0  0  0
 14100  1  0  0  0
 15101  1  0  0  0
 16 17  2  0  0  0
 16 21  1  0  0  0
 16 31  1  0  0  0
 17 18  1  0  0  0
 17102  1  0  0  0
 18 19  2  0  0  0
 18103  1  0  0  0
 19 20  1  0  0  0
 19 24  1  0  0  0
 20 21  2  0  0  0
 20104  1  0  0  0
 21 23  1  0  0  0
 22 28  1  0  0  0
 22 32  2  0  0  0
 26 27  1  0  0  0
 28105  1  0  0  0
 28106  1  0  0  0
 29107  1  0  0  0
 29108  1  0  0  0
 33 34  1  0  0  0
 33 66  1  0  0  0
 33 70  2  0  0  0
 34 36  1  0  0  0
 34 59  1  0  0  0
 34109  1  0  0  0
 35 44  2  0  0  0
 35 45  1  0  0  0
 35 68  1  0  0  0
 36 56  1  0  0  0
 36110  1  0  0  0
 37 39  1  0  0  0
 37 47  1  0  0  0
 37 66  1  0  0  0
 37111  1  0  0  0
 38 43  2  0  0  0
 38 46  1  0  0  0
 38 47  1  0  0  0
 39 64  1  0  0  0
 39 67  2  0  0  0
 40 52  1  0  0  0
 40 53  2  0  0  0
 40 58  1  0  0  0
 41112  1  0  0  0
 41113  1  0  0  0
 41114  1  0  0  0
 41 48  1  0  0  0
 42 43  1  0  0  0
 42 66  1  0  0  0
 42115  1  0  0  0
 42116  1  0  0  0
 43 44  1  0  0  0
 44117  1  0  0  0
 45 46  2  0  0  0
 45118  1  0  0  0
 46119  1  0  0  0
 47120  1  0  0  0
 47121  1  0  0  0
 48 56  1  0  0  0
 48 65  1  0  0  0
 48122  1  0  0  0
 49 50  1  0  0  0
 49 53  1  0  0  0
 49 64  1  0  0  0
 49123  1  0  0  0
 50 51  1  0  0  0
 50124  1  0  0  0
 50125  1  0  0  0
 51 52  1  0  0  0
 51126  1  0  0  0
 51127  1  0  0  0
 52128  1  0  0  0
 52129  1  0  0  0
 53 54  1  0  0  0
 54 55  2  0  0  0
 54130  1  0  0  0
 55 57  1  0  0  0
 55131  1  0  0  0
 56 69  2  0  0  0
 57 58  2  0  0  0
 57132  1  0  0  0
 58133  1  0  0  0
 59 60  1  0  0  0
 59 61  1  0  0  0
 59 62  1  0  0  0
 60134  1  0  0  0
 60135  1  0  0  0
 60136  1  0  0  0
 61137  1  0  0  0
 61138  1  0  0  0
 61139  1  0  0  0
 62140  1  0  0  0
 62141  1  0  0  0
 62142  1  0  0  0
 63 65  1  0  0  0
 63143  1  0  0  0
 63144  1  0  0  0
 63145  1  0  0  0
 64146  1  0  0  0
 65147  1  0  0  0
 68 80  1  0  0  0
 71 73  2  0  0  0
 71 75  1  0  0  0
 71148  1  0  0  0
 72 75  2  0  0  0
 72 76  1  0  0  0
 72149  1  0  0  0
 73 74  1  0  0  0
 73 78  1  0  0  0
 74 76  2  0  0  0
 74 81  1  0  0  0
 75 84  1  0  0  0
 76 88  1  0  0  0
 77 78  2  0  0  0
 77150  1  0  0  0
 77151  1  0  0  0
 78152  1  0  0  0
 79 80  2  0  0  0
 79 82  1  0  0  0
 79153  1  0  0  0
 80154  1  0  0  0
 81 85  1  0  0  0
 81 86  2  0  0  0
 82 85  1  0  0  0
 82 87  2  0  0  0
 83 85  1  0  0  0
 83155  1  0  0  0
 83156  1  0  0  0
 83157  1  0  0  0
 84158  1  0  0  0
M  ISO  4   1 100  68 101  80 101  84 100
M  END
> <chiral flag>
0

> <version>
0

> <s_m_source_file>
/data/baiqing/PycharmProjects/Reinvent-master-3.2/result/LINK_invent/BTK/process_docking_weight1_custom_product_contain_oxygen_bond_distance_aromatic_linkinvent_7_9_3/rearranged_h_0117.sdf

> <i_m_source_file_index>
12

> <r_mmod_Potential_Energy-OPLS-2005>
170.063430786133

> <r_mmod_Stretch_Energy-OPLS-2005>
68.1958618164062

> <r_mmod_Bend_Energy-OPLS-2005>
165.072082519531

> <r_mmod_Torsional_Energy-OPLS-2005>
298.552856445312

> <r_mmod_Improper_Torsional_Energy-OPLS-2005>
8.07758903503418

> <r_mmod_Van_der_Waal_Energy-OPLS-2005>
180.648498535156

> <r_mmod_Electrostatic_Energy-OPLS-2005>
-360.715026855469

> <r_mmod_Solvation_Energy-OPLS-2005>
-217.641525268555

> <b_mmod_Minimization_Converged-OPLS-2005>
0

> <r_mmod_RMS_Derivative-OPLS-2005>
2.31253862380981

$$$$
12
                    3D
 Structure written by MMmdl.
158166  0  0  1  0            999 V2000
  -30.6818  -14.4713   20.5903 C   0  0  0  0  0  0
  -30.4246  -12.3015   19.4293 C   0  0  0  0  0  0
  -29.4972  -12.5043   18.2121 C   0  0  0  0  0  0
  -28.0189  -12.3562   18.6233 C   0  0  0  0  0  0
  -27.6643  -13.1980   19.8788 C   0  0  2  0  0  0
  -28.7008  -12.9615   20.9999 C   0  0  0  0  0  0
  -25.2589  -13.8128   20.5622 C   0  0  0  0  0  0
  -24.1837  -13.0425   20.9147 C   0  0  0  0  0  0
  -24.6373  -11.6889   20.8716 C   0  0  0  0  0  0
  -23.9030  -10.4283   21.0393 C   0  0  0  0  0  0
  -24.3587   -9.4202   21.9174 C   0  0  0  0  0  0
  -23.6278   -8.2233   22.0750 C   0  0  0  0  0  0
  -22.4264   -8.0261   21.3541 C   0  0  0  0  0  0
  -21.9887   -9.0225   20.4639 C   0  0  0  0  0  0
  -22.7200  -10.2116   20.3041 C   0  0  0  0  0  0
  -21.6856   -6.0718   22.5281 C   0  0  0  0  0  0
  -21.4015   -6.5622   23.8212 C   0  0  0  0  0  0
  -21.3664   -5.6782   24.9179 C   0  0  0  0  0  0
  -21.6040   -4.3044   24.7231 C   0  0  0  0  0  0
  -21.8819   -3.8133   23.4354 C   0  0  0  0  0  0
  -21.9193   -4.6946   22.3408 C   0  0  0  0  0  0
  -22.7864  -13.5234   21.1822 C   0  0  0  0  0  0
  -22.1664   -4.2130   21.0990 F   0  0  0  0  0  0
  -21.5628   -3.4529   25.7747 F   0  0  0  0  0  0
  -30.0369  -13.2783   20.4617 N   0  0  0  0  0  0
  -26.3031  -12.9285   20.3371 N   0  0  0  0  0  0
  -25.9298  -11.6453   20.5762 N   0  0  0  0  0  0
  -22.0510  -12.8243   22.0396 N   0  0  0  0  0  0
  -25.4292  -15.1826   20.3942 N   0  0  0  0  0  0
  -31.7811  -14.6895   20.0695 O   0  0  0  0  0  0
  -21.6637   -6.8855   21.4242 O   0  0  0  0  0  0
  -22.3539  -14.5532   20.6656 O   0  0  0  0  0  0
  -24.6123  -31.8712   23.2098 C   0  0  0  0  0  0
  -25.9019  -32.4846   23.8413 C   0  0  1  0  0  0
  -27.2338  -27.4506   20.0880 C   0  0  0  0  0  0
  -25.5885  -33.8641   24.2329 N   0  0  0  0  0  0
  -23.4014  -30.4951   21.5486 C   0  0  2  0  0  0
  -24.8498  -28.9589   20.1170 C   0  0  0  0  0  0
  -22.7409  -29.4711   22.4983 C   0  0  0  0  0  0
  -18.0281  -28.1404   22.8526 C   0  0  0  0  0  0
  -24.1481  -36.7309   23.2645 C   0  0  0  0  0  0
  -25.9322  -30.8369   21.3658 C   0  0  0  0  0  0
  -26.0102  -29.4738   20.7096 C   0  0  0  0  0  0
  -27.2104  -28.7289   20.6920 C   0  0  0  0  0  0
  -26.0600  -26.9441   19.4972 C   0  0  0  0  0  0
  -24.8681  -27.6913   19.5072 C   0  0  0  0  0  0
  -23.6102  -29.8237   20.1642 C   0  0  0  0  0  0
  -25.4099  -36.3132   24.0355 C   0  0  1  0  0  0
  -20.5891  -28.3686   23.1329 C   0  0  2  0  0  0
  -20.6798  -26.9425   22.5421 C   0  0  0  0  0  0
  -19.5759  -26.6425   21.5231 C   0  0  0  0  0  0
  -18.1935  -26.7964   22.1643 C   0  0  0  0  0  0
  -19.1533  -28.8863   23.2943 C   0  0  0  0  0  0
  -18.9467  -30.1484   23.8935 C   0  0  0  0  0  0
  -17.6470  -30.6624   24.0589 C   0  0  0  0  0  0
  -25.9028  -34.9493   23.5148 C   0  0  0  0  0  0
  -16.5360  -29.9124   23.6346 C   0  0  0  0  0  0
  -16.7276  -28.6541   23.0369 C   0  0  0  0  0  0
  -26.4439  -31.6629   25.0747 C   0  0  0  0  0  0
  -25.3703  -31.3746   26.1502 C   0  0  0  0  0  0
  -27.0271  -30.3068   24.6149 C   0  0  0  0  0  0
  -27.6029  -32.4350   25.7488 C   0  0  0  0  0  0
  -27.5585  -37.1811   24.8468 C   0  0  0  0  0  0
  -21.4134  -29.3055   22.3716 N   0  0  0  0  0  0
  -26.4282  -37.3816   23.9423 N   0  0  0  0  0  0
  -24.6660  -31.0841   22.0978 N   0  0  0  0  0  0
  -23.4183  -28.8260   23.3019 O   0  0  0  0  0  0
  -28.3765  -26.6933   20.0343 O   0  0  0  0  0  0
  -26.5611  -34.8949   22.4723 O   0  0  0  0  0  0
  -23.5313  -32.1454   23.7509 O   0  0  0  0  0  0
  -29.0211  -19.0060   21.8676 C   0  0  0  0  0  0
  -30.8857  -17.5648   20.3507 C   0  0  0  0  0  0
  -29.0632  -17.5853   21.9695 C   0  0  0  0  0  0
  -29.9408  -19.7231   21.0593 C   0  0  0  0  0  0
  -30.0031  -16.8466   21.1955 C   0  0  0  0  0  0
  -30.8597  -18.9745   20.2906 C   0  0  0  0  0  0
  -26.9918  -17.3807   23.3955 C   0  0  0  0  0  0
  -28.1322  -16.8859   22.8835 C   0  0  0  0  0  0
  -29.1562  -24.5150   20.6750 C   0  0  0  0  0  0
  -28.4507  -25.6402   20.9119 C   0  0  0  0  0  0
  -29.1441  -21.9612   21.2397 C   0  0  0  0  0  0
  -30.7149  -23.6237   22.3995 C   0  0  0  0  0  0
  -29.3484  -23.4146   21.7185 C   0  0  1  0  0  0
  -30.1061  -21.1257   21.1224 N   0  0  0  0  0  0
  -30.0035  -15.4073   21.2893 N   0  0  0  0  0  0
  -31.7542  -19.6153   19.4989 F   0  0  0  0  0  0
  -31.4714  -12.3958   19.1349 H   0  0  0  0  0  0
  -30.3203  -11.2878   19.8191 H   0  0  0  0  0  0
  -29.7402  -11.7824   17.4311 H   0  0  0  0  0  0
  -29.6618  -13.4923   17.7793 H   0  0  0  0  0  0
  -27.8414  -11.2999   18.8290 H   0  0  0  0  0  0
  -27.3622  -12.6173   17.7916 H   0  0  0  0  0  0
  -27.7138  -14.2472   19.5867 H   0  0  0  0  0  0
  -28.6770  -11.9181   21.3166 H   0  0  0  0  0  0
  -28.4487  -13.5327   21.8929 H   0  0  0  0  0  0
  -25.2735   -9.5686   22.4738 H   0  0  0  0  0  0
  -23.9996   -7.4627   22.7468 H   0  0  0  0  0  0
  -21.0816   -8.8711   19.8947 H   0  0  0  0  0  0
  -22.3637  -10.9635   19.6133 H   0  0  0  0  0  0
  -21.2004   -7.6132   23.9707 H   0  0  0  0  0  0
  -21.1490   -6.0519   25.9082 H   0  0  0  0  0  0
  -22.0591   -2.7592   23.2862 H   0  0  0  0  0  0
  -22.4148  -11.9919   22.4806 H   0  0  0  0  0  0
  -21.1121  -13.1267   22.2600 H   0  0  0  0  0  0
  -24.6540  -15.8321   20.4643 H   0  0  0  0  0  0
  -26.2877  -15.6211   20.0856 H   0  0  0  0  0  0
  -26.7095  -32.5540   23.1184 H   0  0  0  0  0  0
  -25.0049  -33.9792   25.0489 H   0  0  0  0  0  0
  -22.6900  -31.3133   21.4099 H   0  0  0  0  0  0
  -23.3769  -35.9620   23.3309 H   0  0  0  0  0  0
  -24.3581  -36.8903   22.2063 H   0  0  0  0  0  0
  -23.7203  -37.6508   23.6633 H   0  0  0  0  0  0
  -26.0660  -31.6069   20.6044 H   0  0  0  0  0  0
  -26.8110  -30.8753   21.9975 H   0  0  0  0  0  0
  -28.1100  -29.1267   21.1424 H   0  0  0  0  0  0
  -26.0734  -25.9731   19.0246 H   0  0  0  0  0  0
  -23.9774  -27.2883   19.0469 H   0  0  0  0  0  0
  -23.7145  -30.5975   19.4018 H   0  0  0  0  0  0
  -22.7334  -29.2441   19.8709 H   0  0  0  0  0  0
  -25.1273  -36.1992   25.0849 H   0  0  0  0  0  0
  -21.0013  -28.3245   24.1444 H   0  0  0  0  0  0
  -20.5767  -26.2268   23.3601 H   0  0  0  0  0  0
  -21.6653  -26.7533   22.1156 H   0  0  0  0  0  0
  -19.6908  -25.6342   21.1251 H   0  0  0  0  0  0
  -19.6689  -27.3269   20.6790 H   0  0  0  0  0  0
  -17.4214  -26.6773   21.4025 H   0  0  0  0  0  0
  -18.0317  -26.0090   22.9031 H   0  0  0  0  0  0
  -19.7928  -30.7332   24.2282 H   0  0  0  0  0  0
  -17.5008  -31.6290   24.5232 H   0  0  0  0  0  0
  -15.5356  -30.3054   23.7639 H   0  0  0  0  0  0
  -15.8681  -28.0883   22.7039 H   0  0  0  0  0  0
  -24.5858  -30.7100   25.7845 H   0  0  0  0  0  0
  -24.8924  -32.2917   26.4969 H   0  0  0  0  0  0
  -25.8074  -30.8911   27.0249 H   0  0  0  0  0  0
  -26.2823  -29.6842   24.1177 H   0  0  0  0  0  0
  -27.4001  -29.7282   25.4612 H   0  0  0  0  0  0
  -27.8679  -30.4401   23.9333 H   0  0  0  0  0  0
  -27.2658  -33.3642   26.2097 H   0  0  0  0  0  0
  -28.3802  -32.6931   25.0276 H   0  0  0  0  0  0
  -28.0743  -31.8471   26.5376 H   0  0  0  0  0  0
  -28.2612  -38.0109   24.7567 H   0  0  0  0  0  0
  -28.1085  -36.2663   24.6226 H   0  0  0  0  0  0
  -27.2334  -37.1365   25.8878 H   0  0  0  0  0  0
  -20.9297  -29.8700   21.6879 H   0  0  0  0  0  0
  -26.0183  -38.2893   24.1438 H   0  0  0  0  0  0
  -28.3240  -19.5558   22.4812 H   0  0  0  0  0  0
  -31.6197  -17.0611   19.7438 H   0  0  0  0  0  0
  -26.3986  -16.7904   24.0801 H   0  0  0  0  0  0
  -26.6187  -18.3645   23.1509 H   0  0  0  0  0  0
  -28.4089  -15.8900   23.2003 H   0  0  0  0  0  0
  -29.6623  -24.3857   19.7285 H   0  0  0  0  0  0
  -27.9168  -25.8303   21.8361 H   0  0  0  0  0  0
  -28.0993  -21.6791   21.0831 H   0  0  0  0  0  0
  -30.7624  -24.6070   22.8681 H   0  0  0  0  0  0
  -31.5355  -23.5627   21.6826 H   0  0  0  0  0  0
  -30.8934  -22.8820   23.1783 H   0  0  0  0  0  0
  -28.5829  -23.5805   22.4769 H   0  0  0  0  0  0
  -29.2342  -15.0218   21.8137 H   0  0  0  0  0  0
  1 25  1  0  0  0
  1 30  2  0  0  0
  1 85  1  0  0  0
  2  3  1  0  0  0
  2 25  1  0  0  0
  2 87  1  0  0  0
  2 88  1  0  0  0
  3  4  1  0  0  0
  3 89  1  0  0  0
  3 90  1  0  0  0
  4  5  1  0  0  0
  4 91  1  0  0  0
  4 92  1  0  0  0
  5  6  1  0  0  0
  5 26  1  0  0  0
  5 93  1  0  0  0
  6 25  1  0  0  0
  6 94  1  0  0  0
  6 95  1  0  0  0
  7  8  2  0  0  0
  7 26  1  0  0  0
  7 29  1  0  0  0
  8  9  1  0  0  0
  8 22  1  0  0  0
  9 10  1  0  0  0
  9 27  2  0  0  0
 10 11  2  0  0  0
 10 15  1  0  0  0
 11 12  1  0  0  0
 11 96  1  0  0  0
 12 13  2  0  0  0
 12 97  1  0  0  0
 13 14  1  0  0  0
 13 31  1  0  0  0
 14 15  2  0  0  0
 14 98  1  0  0  0
 15 99  1  0  0  0
 16 17  2  0  0  0
 16 21  1  0  0  0
 16 31  1  0  0  0
 17 18  1  0  0  0
 17100  1  0  0  0
 18 19  2  0  0  0
 18101  1  0  0  0
 19 20  1  0  0  0
 19 24  1  0  0  0
 20 21  2  0  0  0
 20102  1  0  0  0
 21 23  1  0  0  0
 22 28  1  0  0  0
 22 32  2  0  0  0
 26 27  1  0  0  0
 28103  1  0  0  0
 28104  1  0  0  0
 29105  1  0  0  0
 29106  1  0  0  0
 33 34  1  0  0  0
 33 66  1  0  0  0
 33 70  2  0  0  0
 34 36  1  0  0  0
 34 59  1  0  0  0
 34107  1  0  0  0
 35 44  2  0  0  0
 35 45  1  0  0  0
 35 68  1  0  0  0
 36 56  1  0  0  0
 36108  1  0  0  0
 37 39  1  0  0  0
 37 47  1  0  0  0
 37 66  1  0  0  0
 37109  1  0  0  0
 38 43  2  0  0  0
 38 46  1  0  0  0
 38 47  1  0  0  0
 39 64  1  0  0  0
 39 67  2  0  0  0
 40 52  1  0  0  0
 40 53  2  0  0  0
 40 58  1  0  0  0
 41110  1  0  0  0
 41111  1  0  0  0
 41112  1  0  0  0
 41 48  1  0  0  0
 42 43  1  0  0  0
 42 66  1  0  0  0
 42113  1  0  0  0
 42114  1  0  0  0
 43 44  1  0  0  0
 44115  1  0  0  0
 45 46  2  0  0  0
 45116  1  0  0  0
 46117  1  0  0  0
 47118  1  0  0  0
 47119  1  0  0  0
 48 56  1  0  0  0
 48 65  1  0  0  0
 48120  1  0  0  0
 49 50  1  0  0  0
 49 53  1  0  0  0
 49 64  1  0  0  0
 49121  1  0  0  0
 50 51  1  0  0  0
 50122  1  0  0  0
 50123  1  0  0  0
 51 52  1  0  0  0
 51124  1  0  0  0
 51125  1  0  0  0
 52126  1  0  0  0
 52127  1  0  0  0
 53 54  1  0  0  0
 54 55  2  0  0  0
 54128  1  0  0  0
 55 57  1  0  0  0
 55129  1  0  0  0
 56 69  2  0  0  0
 57 58  2  0  0  0
 57130  1  0  0  0
 58131  1  0  0  0
 59 60  1  0  0  0
 59 61  1  0  0  0
 59 62  1  0  0  0
 60132  1  0  0  0
 60133  1  0  0  0
 60134  1  0  0  0
 61135  1  0  0  0
 61136  1  0  0  0
 61137  1  0  0  0
 62138  1  0  0  0
 62139  1  0  0  0
 62140  1  0  0  0
 63 65  1  0  0  0
 63141  1  0  0  0
 63142  1  0  0  0
 63143  1  0  0  0
 64144  1  0  0  0
 65145  1  0  0  0
 68 80  1  0  0  0
 71 73  2  0  0  0
 71 74  1  0  0  0
 71146  1  0  0  0
 72 75  2  0  0  0
 72 76  1  0  0  0
 72147  1  0  0  0
 73 75  1  0  0  0
 73 78  1  0  0  0
 74 76  2  0  0  0
 74 84  1  0  0  0
 75 85  1  0  0  0
 76 86  1  0  0  0
 77 78  2  0  0  0
 77148  1  0  0  0
 77149  1  0  0  0
 78150  1  0  0  0
 79 80  2  0  0  0
 79 83  1  0  0  0
 79151  1  0  0  0
 80152  1  0  0  0
 81 83  1  0  0  0
 81 84  2  0  0  0
 81153  1  0  0  0
 82154  1  0  0  0
 82155  1  0  0  0
 82156  1  0  0  0
 82 83  1  0  0  0
 83157  1  0  0  0
 85158  1  0  0  0
M  ISO  4   1 100  68 101  80 101  85 100
M  END
> <chiral flag>
0

> <version>
0

> <s_m_source_file>
/data/baiqing/PycharmProjects/Reinvent-master-3.2/result/LINK_invent/BTK/process_docking_weight1_custom_product_contain_oxygen_bond_distance_aromatic_linkinvent_7_9_3/rearranged_h_0117.sdf

> <i_m_source_file_index>
13

> <r_mmod_Potential_Energy-OPLS-2005>
-2.84752655029297

> <r_mmod_Stretch_Energy-OPLS-2005>
42.0141448974609

> <r_mmod_Bend_Energy-OPLS-2005>
111.87890625

> <r_mmod_Torsional_Energy-OPLS-2005>
234.903060913086

> <r_mmod_Improper_Torsional_Energy-OPLS-2005>
5.09183168411255

> <r_mmod_Van_der_Waal_Energy-OPLS-2005>
159.323440551758

> <r_mmod_Electrostatic_Energy-OPLS-2005>
-366.336975097656

> <r_mmod_Solvation_Energy-OPLS-2005>
-200.786743164062

> <b_mmod_Minimization_Converged-OPLS-2005>
0

> <r_mmod_RMS_Derivative-OPLS-2005>
3.81681942939758

$$$$
13
                    3D
 Structure written by MMmdl.
152160  0  0  1  0            999 V2000
  -30.5105  -14.9574   20.4482 C   0  0  0  0  0  0
  -30.4558  -12.5975   19.5060 C   0  0  0  0  0  0
  -29.5315  -12.5350   18.2647 C   0  0  0  0  0  0
  -28.0636  -12.3125   18.6800 C   0  0  0  0  0  0
  -27.6354  -13.2405   19.8459 C   0  0  2  0  0  0
  -28.6763  -13.2502   20.9871 C   0  0  0  0  0  0
  -25.2491  -13.8208   20.5696 C   0  0  0  0  0  0
  -24.1776  -13.0444   20.9220 C   0  0  0  0  0  0
  -24.6359  -11.6925   20.8713 C   0  0  0  0  0  0
  -23.9033  -10.4309   21.0373 C   0  0  0  0  0  0
  -24.3586   -9.4240   21.9157 C   0  0  0  0  0  0
  -23.6280   -8.2270   22.0739 C   0  0  0  0  0  0
  -22.4261   -8.0288   21.3539 C   0  0  0  0  0  0
  -21.9881   -9.0255   20.4642 C   0  0  0  0  0  0
  -22.7186  -10.2150   20.3043 C   0  0  0  0  0  0
  -21.6860   -6.0721   22.5264 C   0  0  0  0  0  0
  -21.4016   -6.5623   23.8202 C   0  0  0  0  0  0
  -21.3663   -5.6778   24.9157 C   0  0  0  0  0  0
  -21.6051   -4.3042   24.7219 C   0  0  0  0  0  0
  -21.8816   -3.8127   23.4335 C   0  0  0  0  0  0
  -21.9206   -4.6949   22.3396 C   0  0  0  0  0  0
  -22.7806  -13.5256   21.1908 C   0  0  0  0  0  0
  -22.1666   -4.2127   21.0975 F   0  0  0  0  0  0
  -21.5644   -3.4525   25.7734 F   0  0  0  0  0  0
  -29.9561  -13.6781   20.4025 N   0  0  0  0  0  0
  -26.2890  -12.9407   20.3235 N   0  0  0  0  0  0
  -25.9291  -11.6539   20.5710 N   0  0  0  0  0  0
  -22.0435  -12.8214   22.0447 N   0  0  0  0  0  0
  -25.4159  -15.1933   20.4102 N   0  0  0  0  0  0
  -31.7069  -15.0759   20.1558 O   0  0  0  0  0  0
  -21.6650   -6.8859   21.4229 O   0  0  0  0  0  0
  -22.3488  -14.5572   20.6786 O   0  0  0  0  0  0
  -24.6413  -31.8459   23.1883 C   0  0  0  0  0  0
  -25.9190  -32.4723   23.8240 C   0  0  1  0  0  0
  -27.2184  -27.1386   20.1667 C   0  0  0  0  0  0
  -25.5956  -33.8529   24.2191 N   0  0  0  0  0  0
  -23.4428  -30.4676   21.5324 C   0  0  2  0  0  0
  -24.8933  -28.8853   20.1200 C   0  0  0  0  0  0
  -22.7534  -29.4614   22.4861 C   0  0  0  0  0  0
  -18.0322  -28.1405   22.8482 C   0  0  0  0  0  0
  -24.1488  -36.7255   23.2633 C   0  0  0  0  0  0
  -25.9990  -30.7219   21.3840 C   0  0  0  0  0  0
  -26.0724  -29.3286   20.7358 C   0  0  0  0  0  0
  -27.2375  -28.4697   20.7487 C   0  0  0  0  0  0
  -26.0198  -26.8008   19.5030 C   0  0  0  0  0  0
  -24.8783  -27.6300   19.4913 C   0  0  0  0  0  0
  -23.6696  -29.7893   20.1551 C   0  0  0  0  0  0
  -25.4112  -36.3051   24.0328 C   0  0  1  0  0  0
  -20.5927  -28.3763   23.1230 C   0  0  2  0  0  0
  -20.6814  -26.9462   22.5404 C   0  0  0  0  0  0
  -19.5783  -26.6398   21.5217 C   0  0  0  0  0  0
  -18.1968  -26.7939   22.1623 C   0  0  0  0  0  0
  -19.1577  -28.8887   23.2859 C   0  0  0  0  0  0
  -18.9491  -30.1481   23.8884 C   0  0  0  0  0  0
  -17.6487  -30.6606   24.0573 C   0  0  0  0  0  0
  -25.9062  -34.9434   23.5062 C   0  0  0  0  0  0
  -16.5379  -29.9105   23.6339 C   0  0  0  0  0  0
  -16.7302  -28.6519   23.0360 C   0  0  0  0  0  0
  -26.4528  -31.6562   25.0650 C   0  0  0  0  0  0
  -25.3720  -31.3725   26.1342 C   0  0  0  0  0  0
  -27.0390  -30.2976   24.6170 C   0  0  0  0  0  0
  -27.6050  -32.4312   25.7446 C   0  0  0  0  0  0
  -27.5589  -37.1767   24.8449 C   0  0  0  0  0  0
  -21.4228  -29.3088   22.3585 N   0  0  0  0  0  0
  -26.4266  -37.3781   23.9449 N   0  0  0  0  0  0
  -24.7142  -31.0347   22.0898 N   0  0  0  0  0  0
  -23.4185  -28.8202   23.3039 O   0  0  0  0  0  0
  -28.2320  -26.1117   20.2047 O   0  0  0  0  0  0
  -26.5645  -34.8937   22.4638 O   0  0  0  0  0  0
  -23.5548  -32.1299   23.7149 O   0  0  0  0  0  0
  -30.4293  -18.5497   21.2585 C   0  0  0  0  0  0
  -28.5115  -19.7342   19.6649 C   0  0  0  0  0  0
  -30.2418  -20.0086   21.2385 C   0  0  0  0  0  0
  -29.2710  -20.7051   20.4032 C   0  0  0  0  0  0
  -29.6584  -17.6002   20.5072 C   0  0  0  0  0  0
  -28.6638  -18.2884   19.7352 C   0  0  0  0  0  0
  -31.7198  -20.3560   23.2545 C   0  0  0  0  0  0
  -31.0312  -20.8134   22.1935 C   0  0  0  0  0  0
  -28.2503  -23.4398   20.8253 C   0  0  0  0  0  0
  -27.9120  -24.8334   20.8354 C   0  0  0  0  0  0
  -29.1419  -22.3179   20.1328 C   0  0  0  0  0  0
  -29.8497  -22.7618   19.1842 N   0  0  0  0  0  0
  -29.6489  -16.0669   20.6501 N   0  0  0  0  0  0
  -27.7908  -17.5243   19.0356 F   0  0  0  0  0  0
  -31.4830  -12.7786   19.1885 H   0  0  0  0  0  0
  -30.4706  -11.6403   20.0319 H   0  0  0  0  0  0
  -29.8552  -11.7390   17.5929 H   0  0  0  0  0  0
  -29.6138  -13.4637   17.6963 H   0  0  0  0  0  0
  -27.9653  -11.2703   18.9888 H   0  0  0  0  0  0
  -27.4002  -12.4397   17.8238 H   0  0  0  0  0  0
  -27.6034  -14.2453   19.4239 H   0  0  0  0  0  0
  -28.7639  -12.2667   21.4495 H   0  0  0  0  0  0
  -28.3646  -13.9297   21.7816 H   0  0  0  0  0  0
  -25.2732   -9.5744   22.4715 H   0  0  0  0  0  0
  -24.0012   -7.4660   22.7441 H   0  0  0  0  0  0
  -21.0828   -8.8754   19.8936 H   0  0  0  0  0  0
  -22.3621  -10.9680   19.6158 H   0  0  0  0  0  0
  -21.1986   -7.6124   23.9693 H   0  0  0  0  0  0
  -21.1489   -6.0506   25.9072 H   0  0  0  0  0  0
  -22.0591   -2.7588   23.2841 H   0  0  0  0  0  0
  -22.4083  -11.9905   22.4871 H   0  0  0  0  0  0
  -21.1041  -13.1229   22.2630 H   0  0  0  0  0  0
  -24.6416  -15.8373   20.5327 H   0  0  0  0  0  0
  -26.2349  -15.6341   20.0095 H   0  0  0  0  0  0
  -26.7233  -32.5337   23.0954 H   0  0  0  0  0  0
  -25.0117  -33.9640   25.0336 H   0  0  0  0  0  0
  -22.7442  -31.2936   21.3782 H   0  0  0  0  0  0
  -23.3756  -35.9580   23.3278 H   0  0  0  0  0  0
  -24.3578  -36.8866   22.2047 H   0  0  0  0  0  0
  -23.7227  -37.6449   23.6646 H   0  0  0  0  0  0
  -26.1437  -31.4708   20.6044 H   0  0  0  0  0  0
  -26.8750  -30.7832   22.0179 H   0  0  0  0  0  0
  -28.1336  -28.8029   21.2519 H   0  0  0  0  0  0
  -25.9513  -25.8378   19.0163 H   0  0  0  0  0  0
  -23.9763  -27.2776   19.0059 H   0  0  0  0  0  0
  -23.8119  -30.5597   19.3964 H   0  0  0  0  0  0
  -22.7796  -29.2370   19.8434 H   0  0  0  0  0  0
  -25.1301  -36.1857   25.0820 H   0  0  0  0  0  0
  -21.0054  -28.3372   24.1338 H   0  0  0  0  0  0
  -20.5730  -26.2379   23.3633 H   0  0  0  0  0  0
  -21.6685  -26.7479   22.1203 H   0  0  0  0  0  0
  -19.6952  -25.6302   21.1265 H   0  0  0  0  0  0
  -19.6716  -27.3183   20.6725 H   0  0  0  0  0  0
  -17.4243  -26.6685   21.4026 H   0  0  0  0  0  0
  -18.0387  -26.0086   22.9026 H   0  0  0  0  0  0
  -19.7969  -30.7326   24.2223 H   0  0  0  0  0  0
  -17.5045  -31.6284   24.5184 H   0  0  0  0  0  0
  -15.5383  -30.3017   23.7660 H   0  0  0  0  0  0
  -15.8701  -28.0846   22.7064 H   0  0  0  0  0  0
  -24.5926  -30.7049   25.7654 H   0  0  0  0  0  0
  -24.8881  -32.2897   26.4699 H   0  0  0  0  0  0
  -25.8033  -30.8936   27.0145 H   0  0  0  0  0  0
  -26.3003  -29.6708   24.1164 H   0  0  0  0  0  0
  -27.4022  -29.7255   25.4717 H   0  0  0  0  0  0
  -27.8907  -30.4235   23.9477 H   0  0  0  0  0  0
  -27.2616  -33.3574   26.2067 H   0  0  0  0  0  0
  -28.3863  -32.6922   25.0291 H   0  0  0  0  0  0
  -28.0729  -31.8395   26.5318 H   0  0  0  0  0  0
  -28.2558  -38.0126   24.7643 H   0  0  0  0  0  0
  -28.1153  -36.2677   24.6100 H   0  0  0  0  0  0
  -27.2344  -37.1204   25.8857 H   0  0  0  0  0  0
  -20.9421  -29.8752   21.6729 H   0  0  0  0  0  0
  -26.0116  -38.2830   24.1513 H   0  0  0  0  0  0
  -31.1725  -18.1231   21.9143 H   0  0  0  0  0  0
  -27.7493  -20.1176   19.0020 H   0  0  0  0  0  0
  -32.2618  -21.0459   23.8835 H   0  0  0  0  0  0
  -31.7645  -19.3129   23.5364 H   0  0  0  0  0  0
  -31.0546  -21.8785   22.0217 H   0  0  0  0  0  0
  -27.6751  -22.9263   21.5835 H   0  0  0  0  0  0
  -27.1586  -25.0644   21.5780 H   0  0  0  0  0  0
  -30.3875  -22.0252   18.7400 H   0  0  0  0  0  0
  -28.7127  -15.7210   20.7972 H   0  0  0  0  0  0
  1 25  1  0  0  0
  1 30  2  0  0  0
  1 83  1  0  0  0
  2  3  1  0  0  0
  2 25  1  0  0  0
  2 85  1  0  0  0
  2 86  1  0  0  0
  3  4  1  0  0  0
  3 87  1  0  0  0
  3 88  1  0  0  0
  4  5  1  0  0  0
  4 89  1  0  0  0
  4 90  1  0  0  0
  5  6  1  0  0  0
  5 26  1  0  0  0
  5 91  1  0  0  0
  6 25  1  0  0  0
  6 92  1  0  0  0
  6 93  1  0  0  0
  7  8  2  0  0  0
  7 26  1  0  0  0
  7 29  1  0  0  0
  8  9  1  0  0  0
  8 22  1  0  0  0
  9 10  1  0  0  0
  9 27  2  0  0  0
 10 11  2  0  0  0
 10 15  1  0  0  0
 11 12  1  0  0  0
 11 94  1  0  0  0
 12 13  2  0  0  0
 12 95  1  0  0  0
 13 14  1  0  0  0
 13 31  1  0  0  0
 14 15  2  0  0  0
 14 96  1  0  0  0
 15 97  1  0  0  0
 16 17  2  0  0  0
 16 21  1  0  0  0
 16 31  1  0  0  0
 17 18  1  0  0  0
 17 98  1  0  0  0
 18 19  2  0  0  0
 18 99  1  0  0  0
 19 20  1  0  0  0
 19 24  1  0  0  0
 20 21  2  0  0  0
 20100  1  0  0  0
 21 23  1  0  0  0
 22 28  1  0  0  0
 22 32  2  0  0  0
 26 27  1  0  0  0
 28101  1  0  0  0
 28102  1  0  0  0
 29103  1  0  0  0
 29104  1  0  0  0
 33 34  1  0  0  0
 33 66  1  0  0  0
 33 70  2  0  0  0
 34 36  1  0  0  0
 34 59  1  0  0  0
 34105  1  0  0  0
 35 44  2  0  0  0
 35 45  1  0  0  0
 35 68  1  0  0  0
 36 56  1  0  0  0
 36106  1  0  0  0
 37 39  1  0  0  0
 37 47  1  0  0  0
 37 66  1  0  0  0
 37107  1  0  0  0
 38 43  2  0  0  0
 38 46  1  0  0  0
 38 47  1  0  0  0
 39 64  1  0  0  0
 39 67  2  0  0  0
 40 52  1  0  0  0
 40 53  2  0  0  0
 40 58  1  0  0  0
 41108  1  0  0  0
 41109  1  0  0  0
 41110  1  0  0  0
 41 48  1  0  0  0
 42 43  1  0  0  0
 42 66  1  0  0  0
 42111  1  0  0  0
 42112  1  0  0  0
 43 44  1  0  0  0
 44113  1  0  0  0
 45 46  2  0  0  0
 45114  1  0  0  0
 46115  1  0  0  0
 47116  1  0  0  0
 47117  1  0  0  0
 48 56  1  0  0  0
 48 65  1  0  0  0
 48118  1  0  0  0
 49 50  1  0  0  0
 49 53  1  0  0  0
 49 64  1  0  0  0
 49119  1  0  0  0
 50 51  1  0  0  0
 50120  1  0  0  0
 50121  1  0  0  0
 51 52  1  0  0  0
 51122  1  0  0  0
 51123  1  0  0  0
 52124  1  0  0  0
 52125  1  0  0  0
 53 54  1  0  0  0
 54 55  2  0  0  0
 54126  1  0  0  0
 55 57  1  0  0  0
 55127  1  0  0  0
 56 69  2  0  0  0
 57 58  2  0  0  0
 57128  1  0  0  0
 58129  1  0  0  0
 59 60  1  0  0  0
 59 61  1  0  0  0
 59 62  1  0  0  0
 60130  1  0  0  0
 60131  1  0  0  0
 60132  1  0  0  0
 61133  1  0  0  0
 61134  1  0  0  0
 61135  1  0  0  0
 62136  1  0  0  0
 62137  1  0  0  0
 62138  1  0  0  0
 63 65  1  0  0  0
 63139  1  0  0  0
 63140  1  0  0  0
 63141  1  0  0  0
 64142  1  0  0  0
 65143  1  0  0  0
 68 80  1  0  0  0
 71 73  2  0  0  0
 71 75  1  0  0  0
 71144  1  0  0  0
 72 74  2  0  0  0
 72 76  1  0  0  0
 72145  1  0  0  0
 73 74  1  0  0  0
 73 78  1  0  0  0
 74 81  1  0  0  0
 75 76  2  0  0  0
 75 83  1  0  0  0
 76 84  1  0  0  0
 77 78  2  0  0  0
 77146  1  0  0  0
 77147  1  0  0  0
 78148  1  0  0  0
 79 80  2  0  0  0
 79 81  1  0  0  0
 79149  1  0  0  0
 80150  1  0  0  0
 81 82  2  0  0  0
 82151  1  0  0  0
 83152  1  0  0  0
M  ISO  4   1 100  68 101  80 101  83 100
M  END
> <chiral flag>
0

> <version>
0

> <s_m_source_file>
/data/baiqing/PycharmProjects/Reinvent-master-3.2/result/LINK_invent/BTK/process_docking_weight1_custom_product_contain_oxygen_bond_distance_aromatic_linkinvent_7_9_3/rearranged_h_0117.sdf

> <i_m_source_file_index>
14

> <r_mmod_Potential_Energy-OPLS-2005>
575.076965332031

> <r_mmod_Stretch_Energy-OPLS-2005>
234.793060302734

> <r_mmod_Bend_Energy-OPLS-2005>
315.730010986328

> <r_mmod_Torsional_Energy-OPLS-2005>
302.469665527344

> <r_mmod_Improper_Torsional_Energy-OPLS-2005>
6.95004224777222

> <r_mmod_Van_der_Waal_Energy-OPLS-2005>
133.033767700195

> <r_mmod_Electrostatic_Energy-OPLS-2005>
-404.47998046875

> <r_mmod_Solvation_Energy-OPLS-2005>
-215.103576660156

> <b_mmod_Minimization_Converged-OPLS-2005>
0

> <r_mmod_RMS_Derivative-OPLS-2005>
3.86783027648926

$$$$
14
                    3D
 Structure written by MMmdl.
153161  0  0  1  0            999 V2000
  -30.6328  -14.6376   20.4986 C   0  0  0  0  0  0
  -30.4368  -12.3886   19.4557 C   0  0  0  0  0  0
  -29.5078  -12.5074   18.2270 C   0  0  0  0  0  0
  -28.0308  -12.3461   18.6387 C   0  0  0  0  0  0
  -27.6538  -13.2181   19.8660 C   0  0  2  0  0  0
  -28.6992  -13.0755   20.9956 C   0  0  0  0  0  0
  -25.2550  -13.8166   20.5673 C   0  0  0  0  0  0
  -24.1815  -13.0432   20.9165 C   0  0  0  0  0  0
  -24.6393  -11.6907   20.8733 C   0  0  0  0  0  0
  -23.9064  -10.4290   21.0403 C   0  0  0  0  0  0
  -24.3615   -9.4207   21.9182 C   0  0  0  0  0  0
  -23.6289   -8.2243   22.0754 C   0  0  0  0  0  0
  -22.4270   -8.0281   21.3544 C   0  0  0  0  0  0
  -21.9903   -9.0256   20.4648 C   0  0  0  0  0  0
  -22.7233  -10.2134   20.3057 C   0  0  0  0  0  0
  -21.6852   -6.0735   22.5279 C   0  0  0  0  0  0
  -21.4016   -6.5639   23.8212 C   0  0  0  0  0  0
  -21.3659   -5.6792   24.9174 C   0  0  0  0  0  0
  -21.6043   -4.3055   24.7224 C   0  0  0  0  0  0
  -21.8820   -3.8145   23.4346 C   0  0  0  0  0  0
  -21.9192   -4.6962   22.3401 C   0  0  0  0  0  0
  -22.7841  -13.5232   21.1838 C   0  0  0  0  0  0
  -22.1660   -4.2147   21.0978 F   0  0  0  0  0  0
  -21.5626   -3.4539   25.7738 F   0  0  0  0  0  0
  -30.0169  -13.4132   20.4329 N   0  0  0  0  0  0
  -26.2995  -12.9358   20.3345 N   0  0  0  0  0  0
  -25.9330  -11.6511   20.5776 N   0  0  0  0  0  0
  -22.0484  -12.8234   22.0402 N   0  0  0  0  0  0
  -25.4245  -15.1882   20.4100 N   0  0  0  0  0  0
  -31.7962  -14.7806   20.1071 O   0  0  0  0  0  0
  -21.6636   -6.8878   21.4241 O   0  0  0  0  0  0
  -22.3529  -14.5544   20.6697 O   0  0  0  0  0  0
  -24.6259  -31.8609   23.2042 C   0  0  0  0  0  0
  -25.9108  -32.4785   23.8368 C   0  0  1  0  0  0
  -27.2207  -27.3232   20.1166 C   0  0  0  0  0  0
  -25.5927  -33.8585   24.2294 N   0  0  0  0  0  0
  -23.4194  -30.4858   21.5468 C   0  0  2  0  0  0
  -24.8657  -28.9444   20.1121 C   0  0  0  0  0  0
  -22.7476  -29.4630   22.4937 C   0  0  0  0  0  0
  -18.0290  -28.1381   22.8485 C   0  0  0  0  0  0
  -24.1490  -36.7299   23.2637 C   0  0  0  0  0  0
  -25.9612  -30.7926   21.3764 C   0  0  0  0  0  0
  -26.0352  -29.4210   20.7180 C   0  0  0  0  0  0
  -27.2174  -28.6223   20.7111 C   0  0  0  0  0  0
  -26.0313  -26.9073   19.4744 C   0  0  0  0  0  0
  -24.8656  -27.6930   19.4804 C   0  0  0  0  0  0
  -23.6340  -29.8238   20.1613 C   0  0  0  0  0  0
  -25.4112  -36.3086   24.0330 C   0  0  1  0  0  0
  -20.5889  -28.3687   23.1281 C   0  0  2  0  0  0
  -20.6778  -26.9411   22.5409 C   0  0  0  0  0  0
  -19.5754  -26.6382   21.5209 C   0  0  0  0  0  0
  -18.1934  -26.7926   22.1622 C   0  0  0  0  0  0
  -19.1541  -28.8851   23.2880 C   0  0  0  0  0  0
  -18.9463  -30.1451   23.8899 C   0  0  0  0  0  0
  -17.6462  -30.6584   24.0561 C   0  0  0  0  0  0
  -25.9048  -34.9453   23.5112 C   0  0  0  0  0  0
  -16.5354  -29.9082   23.6326 C   0  0  0  0  0  0
  -16.7276  -28.6498   23.0351 C   0  0  0  0  0  0
  -26.4493  -31.6588   25.0732 C   0  0  0  0  0  0
  -25.3730  -31.3728   26.1464 C   0  0  0  0  0  0
  -27.0330  -30.3011   24.6182 C   0  0  0  0  0  0
  -27.6063  -32.4315   25.7493 C   0  0  0  0  0  0
  -27.5582  -37.1800   24.8461 C   0  0  0  0  0  0
  -21.4191  -29.3043   22.3677 N   0  0  0  0  0  0
  -26.4291  -37.3778   23.9408 N   0  0  0  0  0  0
  -24.6876  -31.0625   22.0995 N   0  0  0  0  0  0
  -23.4202  -28.8164   23.3011 O   0  0  0  0  0  0
  -28.3271  -26.4622   20.1554 O   0  0  0  0  0  0
  -26.5614  -34.8914   22.4677 O   0  0  0  0  0  0
  -23.5424  -32.1406   23.7372 O   0  0  0  0  0  0
  -28.7379  -19.2880   21.0264 C   0  0  0  0  0  0
  -30.8876  -19.1749   20.0233 C   0  0  0  0  0  0
  -29.8115  -20.0013   20.4414 C   0  0  0  0  0  0
  -28.7809  -17.8592   21.1683 C   0  0  0  0  0  0
  -29.9148  -17.1301   20.7091 C   0  0  0  0  0  0
  -29.8694  -21.5157   20.2442 C   0  0  0  0  0  0
  -28.9512  -22.5089   20.4880 C   0  0  0  0  0  0
  -29.1939  -23.9954   20.2335 C   0  0  0  0  0  0
  -26.6472  -17.8128   22.2850 C   0  0  0  0  0  0
  -28.0259  -25.0334   20.4290 C   0  0  0  0  0  0
  -30.9441  -17.8145   20.1456 N   0  0  0  0  0  0
  -29.8377  -15.6837   20.8794 N   0  0  0  0  0  0
  -30.2956  -24.4165   19.8645 O   0  0  0  0  0  0
  -27.7610  -17.1185   21.7352 O   0  0  0  0  0  0
  -31.4791  -12.5055   19.1535 H   0  0  0  0  0  0
  -30.3654  -11.3940   19.8985 H   0  0  0  0  0  0
  -29.7713  -11.7570   17.4805 H   0  0  0  0  0  0
  -29.6513  -13.4782   17.7490 H   0  0  0  0  0  0
  -27.8679  -11.2930   18.8708 H   0  0  0  0  0  0
  -27.3765  -12.5757   17.7970 H   0  0  0  0  0  0
  -27.6704  -14.2533   19.5241 H   0  0  0  0  0  0
  -28.7083  -12.0552   21.3818 H   0  0  0  0  0  0
  -28.4440  -13.7104   21.8455 H   0  0  0  0  0  0
  -25.2762   -9.5680   22.4756 H   0  0  0  0  0  0
  -23.9998   -7.4634   22.7474 H   0  0  0  0  0  0
  -21.0831   -8.8777   19.8956 H   0  0  0  0  0  0
  -22.3693  -10.9673   19.6167 H   0  0  0  0  0  0
  -21.2014   -7.6150   23.9716 H   0  0  0  0  0  0
  -21.1478   -6.0522   25.9076 H   0  0  0  0  0  0
  -22.0600   -2.7607   23.2848 H   0  0  0  0  0  0
  -22.4093  -11.9893   22.4790 H   0  0  0  0  0  0
  -21.1107  -13.1275   22.2614 H   0  0  0  0  0  0
  -24.6602  -15.8419   20.5360 H   0  0  0  0  0  0
  -26.2971  -15.6413   20.1702 H   0  0  0  0  0  0
  -26.7176  -32.5459   23.1117 H   0  0  0  0  0  0
  -25.0071  -33.9731   25.0438 H   0  0  0  0  0  0
  -22.7129  -31.3064   21.4057 H   0  0  0  0  0  0
  -23.3746  -35.9638   23.3299 H   0  0  0  0  0  0
  -24.3588  -36.8919   22.2053 H   0  0  0  0  0  0
  -23.7247  -37.6502   23.6659 H   0  0  0  0  0  0
  -26.0933  -31.5568   20.6091 H   0  0  0  0  0  0
  -26.8414  -30.8399   22.0058 H   0  0  0  0  0  0
  -28.1138  -28.9817   21.1968 H   0  0  0  0  0  0
  -25.9742  -25.9662   18.9500 H   0  0  0  0  0  0
  -23.9730  -27.3283   18.9907 H   0  0  0  0  0  0
  -23.7538  -30.6019   19.4066 H   0  0  0  0  0  0
  -22.7539  -29.2543   19.8571 H   0  0  0  0  0  0
  -25.1289  -36.1941   25.0821 H   0  0  0  0  0  0
  -20.9982  -28.3261   24.1401 H   0  0  0  0  0  0
  -20.5678  -26.2297   23.3607 H   0  0  0  0  0  0
  -21.6648  -26.7440   22.1204 H   0  0  0  0  0  0
  -19.6916  -25.6293   21.1239 H   0  0  0  0  0  0
  -19.6688  -27.3191   20.6739 H   0  0  0  0  0  0
  -17.4203  -26.6672   21.4025 H   0  0  0  0  0  0
  -18.0336  -26.0067   22.9017 H   0  0  0  0  0  0
  -19.7938  -30.7268   24.2269 H   0  0  0  0  0  0
  -17.5016  -31.6263   24.5163 H   0  0  0  0  0  0
  -15.5354  -30.2984   23.7645 H   0  0  0  0  0  0
  -15.8679  -28.0815   22.7066 H   0  0  0  0  0  0
  -24.5906  -30.7072   25.7799 H   0  0  0  0  0  0
  -24.8920  -32.2895   26.4886 H   0  0  0  0  0  0
  -25.8058  -30.8912   27.0241 H   0  0  0  0  0  0
  -26.2899  -29.6763   24.1212 H   0  0  0  0  0  0
  -27.4034  -29.7263   25.4681 H   0  0  0  0  0  0
  -27.8769  -30.4296   23.9399 H   0  0  0  0  0  0
  -27.2686  -33.3616   26.2076 H   0  0  0  0  0  0
  -28.3865  -32.6871   25.0310 H   0  0  0  0  0  0
  -28.0739  -31.8435   26.5401 H   0  0  0  0  0  0
  -28.2595  -38.0102   24.7513 H   0  0  0  0  0  0
  -28.1081  -36.2634   24.6276 H   0  0  0  0  0  0
  -27.2305  -37.1435   25.8865 H   0  0  0  0  0  0
  -20.9367  -29.8775   21.6897 H   0  0  0  0  0  0
  -26.0174  -38.2853   24.1410 H   0  0  0  0  0  0
  -27.8838  -19.8532   21.3655 H   0  0  0  0  0  0
  -31.7544  -19.6246   19.5613 H   0  0  0  0  0  0
  -30.8162  -21.8517   19.8415 H   0  0  0  0  0  0
  -27.9814  -22.2504   20.8872 H   0  0  0  0  0  0
  -25.9600  -17.0946   22.7328 H   0  0  0  0  0  0
  -26.0962  -18.3569   21.5166 H   0  0  0  0  0  0
  -26.9517  -18.5061   23.0705 H   0  0  0  0  0  0
  -27.6753  -24.9523   21.4581 H   0  0  0  0  0  0
  -27.2180  -24.6658   19.8025 H   0  0  0  0  0  0
  -28.9448  -15.3958   21.2469 H   0  0  0  0  0  0
  1 25  1  0  0  0
  1 30  2  0  0  0
  1 82  1  0  0  0
  2  3  1  0  0  0
  2 25  1  0  0  0
  2 85  1  0  0  0
  2 86  1  0  0  0
  3  4  1  0  0  0
  3 87  1  0  0  0
  3 88  1  0  0  0
  4  5  1  0  0  0
  4 89  1  0  0  0
  4 90  1  0  0  0
  5  6  1  0  0  0
  5 26  1  0  0  0
  5 91  1  0  0  0
  6 25  1  0  0  0
  6 92  1  0  0  0
  6 93  1  0  0  0
  7  8  2  0  0  0
  7 26  1  0  0  0
  7 29  1  0  0  0
  8  9  1  0  0  0
  8 22  1  0  0  0
  9 10  1  0  0  0
  9 27  2  0  0  0
 10 11  2  0  0  0
 10 15  1  0  0  0
 11 12  1  0  0  0
 11 94  1  0  0  0
 12 13  2  0  0  0
 12 95  1  0  0  0
 13 14  1  0  0  0
 13 31  1  0  0  0
 14 15  2  0  0  0
 14 96  1  0  0  0
 15 97  1  0  0  0
 16 17  2  0  0  0
 16 21  1  0  0  0
 16 31  1  0  0  0
 17 18  1  0  0  0
 17 98  1  0  0  0
 18 19  2  0  0  0
 18 99  1  0  0  0
 19 20  1  0  0  0
 19 24  1  0  0  0
 20 21  2  0  0  0
 20100  1  0  0  0
 21 23  1  0  0  0
 22 28  1  0  0  0
 22 32  2  0  0  0
 26 27  1  0  0  0
 28101  1  0  0  0
 28102  1  0  0  0
 29103  1  0  0  0
 29104  1  0  0  0
 33 34  1  0  0  0
 33 66  1  0  0  0
 33 70  2  0  0  0
 34 36  1  0  0  0
 34 59  1  0  0  0
 34105  1  0  0  0
 35 44  2  0  0  0
 35 45  1  0  0  0
 35 68  1  0  0  0
 36 56  1  0  0  0
 36106  1  0  0  0
 37 39  1  0  0  0
 37 47  1  0  0  0
 37 66  1  0  0  0
 37107  1  0  0  0
 38 43  2  0  0  0
 38 46  1  0  0  0
 38 47  1  0  0  0
 39 64  1  0  0  0
 39 67  2  0  0  0
 40 52  1  0  0  0
 40 53  2  0  0  0
 40 58  1  0  0  0
 41108  1  0  0  0
 41109  1  0  0  0
 41110  1  0  0  0
 41 48  1  0  0  0
 42 43  1  0  0  0
 42 66  1  0  0  0
 42111  1  0  0  0
 42112  1  0  0  0
 43 44  1  0  0  0
 44113  1  0  0  0
 45 46  2  0  0  0
 45114  1  0  0  0
 46115  1  0  0  0
 47116  1  0  0  0
 47117  1  0  0  0
 48 56  1  0  0  0
 48 65  1  0  0  0
 48118  1  0  0  0
 49 50  1  0  0  0
 49 53  1  0  0  0
 49 64  1  0  0  0
 49119  1  0  0  0
 50 51  1  0  0  0
 50120  1  0  0  0
 50121  1  0  0  0
 51 52  1  0  0  0
 51122  1  0  0  0
 51123  1  0  0  0
 52124  1  0  0  0
 52125  1  0  0  0
 53 54  1  0  0  0
 54 55  2  0  0  0
 54126  1  0  0  0
 55 57  1  0  0  0
 55127  1  0  0  0
 56 69  2  0  0  0
 57 58  2  0  0  0
 57128  1  0  0  0
 58129  1  0  0  0
 59 60  1  0  0  0
 59 61  1  0  0  0
 59 62  1  0  0  0
 60130  1  0  0  0
 60131  1  0  0  0
 60132  1  0  0  0
 61133  1  0  0  0
 61134  1  0  0  0
 61135  1  0  0  0
 62136  1  0  0  0
 62137  1  0  0  0
 62138  1  0  0  0
 63 65  1  0  0  0
 63139  1  0  0  0
 63140  1  0  0  0
 63141  1  0  0  0
 64142  1  0  0  0
 65143  1  0  0  0
 68 80  1  0  0  0
 71 73  2  0  0  0
 71 74  1  0  0  0
 71144  1  0  0  0
 72 73  1  0  0  0
 72 81  2  0  0  0
 72145  1  0  0  0
 73 76  1  0  0  0
 74 75  2  0  0  0
 74 84  1  0  0  0
 75 81  1  0  0  0
 75 82  1  0  0  0
 76 77  2  0  0  0
 76146  1  0  0  0
 77 78  1  0  0  0
 77147  1  0  0  0
 78 80  1  0  0  0
 78 83  2  0  0  0
 79 84  1  0  0  0
 79148  1  0  0  0
 79149  1  0  0  0
 79150  1  0  0  0
 80151  1  0  0  0
 80152  1  0  0  0
 82153  1  0  0  0
M  ISO  4   1 100  68 101  80 101  82 100
M  END
> <chiral flag>
0

> <version>
0

> <s_m_source_file>
/data/baiqing/PycharmProjects/Reinvent-master-3.2/result/LINK_invent/BTK/process_docking_weight1_custom_product_contain_oxygen_bond_distance_aromatic_linkinvent_7_9_3/rearranged_h_0117.sdf

> <i_m_source_file_index>
15

> <r_mmod_Potential_Energy-OPLS-2005>
-52.5535774230957

> <r_mmod_Stretch_Energy-OPLS-2005>
78.2259902954102

> <r_mmod_Bend_Energy-OPLS-2005>
139.360412597656

> <r_mmod_Torsional_Energy-OPLS-2005>
209.318664550781

> <r_mmod_Improper_Torsional_Energy-OPLS-2005>
3.41271495819092

> <r_mmod_Van_der_Waal_Energy-OPLS-2005>
150.651138305664

> <r_mmod_Electrostatic_Energy-OPLS-2005>
-427.188171386719

> <r_mmod_Solvation_Energy-OPLS-2005>
-253.889099121094

> <b_mmod_Minimization_Converged-OPLS-2005>
0

> <r_mmod_RMS_Derivative-OPLS-2005>
0.49375182390213

$$$$
15
                    3D
 Structure written by MMmdl.
157165  0  0  1  0            999 V2000
  -30.5597  -14.8420   20.4532 C   0  0  0  0  0  0
  -30.4460  -12.5119   19.5006 C   0  0  0  0  0  0
  -29.5261  -12.5204   18.2582 C   0  0  0  0  0  0
  -28.0534  -12.3244   18.6709 C   0  0  0  0  0  0
  -27.6408  -13.2397   19.8537 C   0  0  2  0  0  0
  -28.6815  -13.2044   20.9918 C   0  0  0  0  0  0
  -25.2525  -13.8224   20.5738 C   0  0  0  0  0  0
  -24.1800  -13.0455   20.9227 C   0  0  0  0  0  0
  -24.6383  -11.6930   20.8745 C   0  0  0  0  0  0
  -23.9059  -10.4299   21.0407 C   0  0  0  0  0  0
  -24.3600   -9.4224   21.9192 C   0  0  0  0  0  0
  -23.6287   -8.2251   22.0752 C   0  0  0  0  0  0
  -22.4273   -8.0282   21.3539 C   0  0  0  0  0  0
  -21.9903   -9.0259   20.4650 C   0  0  0  0  0  0
  -22.7227  -10.2145   20.3070 C   0  0  0  0  0  0
  -21.6846   -6.0738   22.5282 C   0  0  0  0  0  0
  -21.4012   -6.5645   23.8214 C   0  0  0  0  0  0
  -21.3664   -5.6796   24.9176 C   0  0  0  0  0  0
  -21.6034   -4.3058   24.7222 C   0  0  0  0  0  0
  -21.8829   -3.8151   23.4350 C   0  0  0  0  0  0
  -21.9196   -4.6966   22.3404 C   0  0  0  0  0  0
  -22.7832  -13.5243   21.1896 C   0  0  0  0  0  0
  -22.1672   -4.2155   21.0980 F   0  0  0  0  0  0
  -21.5619   -3.4540   25.7736 F   0  0  0  0  0  0
  -29.9801  -13.5833   20.4203 N   0  0  0  0  0  0
  -26.2935  -12.9421   20.3316 N   0  0  0  0  0  0
  -25.9317  -11.6552   20.5750 N   0  0  0  0  0  0
  -22.0475  -12.8199   22.0435 N   0  0  0  0  0  0
  -25.4284  -15.1942   20.4191 N   0  0  0  0  0  0
  -31.7382  -14.9235   20.0978 O   0  0  0  0  0  0
  -21.6640   -6.8881   21.4244 O   0  0  0  0  0  0
  -22.3518  -14.5546   20.6761 O   0  0  0  0  0  0
  -24.6319  -31.8528   23.1916 C   0  0  0  0  0  0
  -25.9129  -32.4749   23.8289 C   0  0  1  0  0  0
  -27.2310  -27.2208   20.1638 C   0  0  0  0  0  0
  -25.5900  -33.8545   24.2229 N   0  0  0  0  0  0
  -23.4332  -30.4670   21.5358 C   0  0  2  0  0  0
  -24.8857  -28.8964   20.1190 C   0  0  0  0  0  0
  -22.7530  -29.4558   22.4912 C   0  0  0  0  0  0
  -18.0303  -28.1371   22.8482 C   0  0  0  0  0  0
  -24.1486  -36.7293   23.2646 C   0  0  0  0  0  0
  -25.9772  -30.7568   21.3730 C   0  0  0  0  0  0
  -26.0562  -29.3693   20.7271 C   0  0  0  0  0  0
  -27.2321  -28.5466   20.7298 C   0  0  0  0  0  0
  -26.0386  -26.8134   19.5348 C   0  0  0  0  0  0
  -24.8852  -27.6293   19.5088 C   0  0  0  0  0  0
  -23.6577  -29.7912   20.1567 C   0  0  0  0  0  0
  -25.4110  -36.3075   24.0337 C   0  0  1  0  0  0
  -20.5910  -28.3681   23.1278 C   0  0  2  0  0  0
  -20.6805  -26.9401   22.5419 C   0  0  0  0  0  0
  -19.5777  -26.6371   21.5228 C   0  0  0  0  0  0
  -18.1944  -26.7906   22.1627 C   0  0  0  0  0  0
  -19.1559  -28.8850   23.2855 C   0  0  0  0  0  0
  -18.9478  -30.1451   23.8867 C   0  0  0  0  0  0
  -17.6477  -30.6570   24.0561 C   0  0  0  0  0  0
  -25.9052  -34.9445   23.5097 C   0  0  0  0  0  0
  -16.5368  -29.9070   23.6331 C   0  0  0  0  0  0
  -16.7290  -28.6497   23.0334 C   0  0  0  0  0  0
  -26.4491  -31.6573   25.0686 C   0  0  0  0  0  0
  -25.3691  -31.3762   26.1403 C   0  0  0  0  0  0
  -27.0352  -30.2994   24.6173 C   0  0  0  0  0  0
  -27.6026  -32.4345   25.7453 C   0  0  0  0  0  0
  -27.5586  -37.1787   24.8465 C   0  0  0  0  0  0
  -21.4237  -29.3025   22.3670 N   0  0  0  0  0  0
  -26.4286  -37.3781   23.9425 N   0  0  0  0  0  0
  -24.6996  -31.0444   22.0906 N   0  0  0  0  0  0
  -23.4220  -28.8112   23.3031 O   0  0  0  0  0  0
  -28.3562  -26.3551   20.1279 O   0  0  0  0  0  0
  -26.5641  -34.8933   22.4677 O   0  0  0  0  0  0
  -23.5461  -32.1372   23.7192 O   0  0  0  0  0  0
  -28.0836  -18.9034   21.2679 C   0  0  0  0  0  0
  -27.8853  -20.3351   21.2395 C   0  0  0  0  0  0
  -29.2674  -18.5781   20.6426 C   0  0  0  0  0  0
  -28.9288  -20.9097   20.5578 C   0  0  0  0  0  0
  -26.8229  -21.0545   21.9614 C   0  0  0  0  0  0
  -30.0273  -17.2427   20.4070 C   0  0  0  0  0  0
  -25.9879  -20.4901   22.8533 C   0  0  0  0  0  0
  -24.9180  -21.2314   23.6253 C   0  0  0  0  0  0
  -27.6208  -24.9198   22.0481 C   0  0  0  0  0  0
  -28.3734  -23.5136   19.9693 C   0  0  0  0  0  0
  -28.4417  -24.9644   20.7512 C   0  0  2  0  0  0
  -29.7116  -15.9906   20.7484 N   0  0  0  0  0  0
  -29.2581  -22.3368   20.4229 N   0  0  0  0  0  0
  -29.8014  -19.8374   20.2097 O   0  0  0  0  0  0
  -31.4846  -12.6531   19.1969 H   0  0  0  0  0  0
  -30.4131  -11.5415   19.9989 H   0  0  0  0  0  0
  -29.8256  -11.7362   17.5614 H   0  0  0  0  0  0
  -29.6374  -13.4650   17.7236 H   0  0  0  0  0  0
  -27.9331  -11.2797   18.9585 H   0  0  0  0  0  0
  -27.3950  -12.4811   17.8160 H   0  0  0  0  0  0
  -27.6254  -14.2573   19.4618 H   0  0  0  0  0  0
  -28.7357  -12.2147   21.4485 H   0  0  0  0  0  0
  -28.3986  -13.8935   21.7904 H   0  0  0  0  0  0
  -25.2745   -9.5695   22.4761 H   0  0  0  0  0  0
  -24.0003   -7.4638   22.7460 H   0  0  0  0  0  0
  -21.0838   -8.8776   19.8951 H   0  0  0  0  0  0
  -22.3689  -10.9678   19.6174 H   0  0  0  0  0  0
  -21.2007   -7.6152   23.9716 H   0  0  0  0  0  0
  -21.1474   -6.0525   25.9076 H   0  0  0  0  0  0
  -22.0600   -2.7613   23.2846 H   0  0  0  0  0  0
  -22.4083  -11.9845   22.4785 H   0  0  0  0  0  0
  -21.1116  -13.1253   22.2679 H   0  0  0  0  0  0
  -24.6773  -15.8651   20.5381 H   0  0  0  0  0  0
  -26.3018  -15.6191   20.1304 H   0  0  0  0  0  0
  -26.7175  -32.5404   23.1007 H   0  0  0  0  0  0
  -25.0020  -33.9683   25.0361 H   0  0  0  0  0  0
  -22.7298  -31.2874   21.3818 H   0  0  0  0  0  0
  -23.3765  -35.9610   23.3291 H   0  0  0  0  0  0
  -24.3582  -36.8939   22.2066 H   0  0  0  0  0  0
  -23.7220  -37.6479   23.6682 H   0  0  0  0  0  0
  -26.1073  -31.5110   20.5955 H   0  0  0  0  0  0
  -26.8559  -30.8195   22.0037 H   0  0  0  0  0  0
  -28.1340  -28.9149   21.2003 H   0  0  0  0  0  0
  -26.0006  -25.8415   19.0631 H   0  0  0  0  0  0
  -23.9913  -27.2640   19.0216 H   0  0  0  0  0  0
  -23.7916  -30.5645   19.3986 H   0  0  0  0  0  0
  -22.7764  -29.2281   19.8472 H   0  0  0  0  0  0
  -25.1278  -36.1925   25.0828 H   0  0  0  0  0  0
  -20.9980  -28.3242   24.1409 H   0  0  0  0  0  0
  -20.5750  -26.2274   23.3613 H   0  0  0  0  0  0
  -21.6653  -26.7439   22.1177 H   0  0  0  0  0  0
  -19.6947  -25.6289   21.1240 H   0  0  0  0  0  0
  -19.6710  -27.3198   20.6768 H   0  0  0  0  0  0
  -17.4229  -26.6684   21.4005 H   0  0  0  0  0  0
  -18.0305  -26.0034   22.9007 H   0  0  0  0  0  0
  -19.7955  -30.7276   24.2212 H   0  0  0  0  0  0
  -17.5034  -31.6250   24.5165 H   0  0  0  0  0  0
  -15.5365  -30.2965   23.7675 H   0  0  0  0  0  0
  -15.8687  -28.0825   22.7032 H   0  0  0  0  0  0
  -24.5851  -30.7131   25.7736 H   0  0  0  0  0  0
  -24.8897  -32.2952   26.4780 H   0  0  0  0  0  0
  -25.7975  -30.8968   27.0208 H   0  0  0  0  0  0
  -26.2946  -29.6724   24.1195 H   0  0  0  0  0  0
  -27.4049  -29.7272   25.4684 H   0  0  0  0  0  0
  -27.8798  -30.4296   23.9406 H   0  0  0  0  0  0
  -27.2608  -33.3662   26.1976 H   0  0  0  0  0  0
  -28.3832  -32.6885   25.0273 H   0  0  0  0  0  0
  -28.0683  -31.8515   26.5410 H   0  0  0  0  0  0
  -28.2564  -38.0119   24.7533 H   0  0  0  0  0  0
  -28.1113  -36.2641   24.6241 H   0  0  0  0  0  0
  -27.2312  -37.1374   25.8872 H   0  0  0  0  0  0
  -20.9454  -29.8743   21.6849 H   0  0  0  0  0  0
  -26.0178  -38.2859   24.1444 H   0  0  0  0  0  0
  -27.4428  -18.1754   21.7434 H   0  0  0  0  0  0
  -26.7262  -22.1078   21.7490 H   0  0  0  0  0  0
  -30.9654  -17.4020   19.8669 H   0  0  0  0  0  0
  -26.0637  -19.4373   23.0768 H   0  0  0  0  0  0
  -24.8267  -22.2697   23.3036 H   0  0  0  0  0  0
  -25.1601  -21.2243   24.6899 H   0  0  0  0  0  0
  -23.9499  -20.7449   23.4957 H   0  0  0  0  0  0
  -26.5508  -24.9204   21.8422 H   0  0  0  0  0  0
  -27.8450  -25.7741   22.6873 H   0  0  0  0  0  0
  -27.8512  -24.0203   22.6191 H   0  0  0  0  0  0
  -28.6964  -23.7157   18.9474 H   0  0  0  0  0  0
  -27.3369  -23.1889   19.8684 H   0  0  0  0  0  0
  -29.4788  -24.9922   21.0857 H   0  0  0  0  0  0
  -30.2292  -22.4733   20.1524 H   0  0  0  0  0  0
  1 25  1  0  0  0
  1 30  2  0  0  0
  1 82  1  0  0  0
  2  3  1  0  0  0
  2 25  1  0  0  0
  2 85  1  0  0  0
  2 86  1  0  0  0
  3  4  1  0  0  0
  3 87  1  0  0  0
  3 88  1  0  0  0
  4  5  1  0  0  0
  4 89  1  0  0  0
  4 90  1  0  0  0
  5  6  1  0  0  0
  5 26  1  0  0  0
  5 91  1  0  0  0
  6 25  1  0  0  0
  6 92  1  0  0  0
  6 93  1  0  0  0
  7  8  2  0  0  0
  7 26  1  0  0  0
  7 29  1  0  0  0
  8  9  1  0  0  0
  8 22  1  0  0  0
  9 10  1  0  0  0
  9 27  2  0  0  0
 10 11  2  0  0  0
 10 15  1  0  0  0
 11 12  1  0  0  0
 11 94  1  0  0  0
 12 13  2  0  0  0
 12 95  1  0  0  0
 13 14  1  0  0  0
 13 31  1  0  0  0
 14 15  2  0  0  0
 14 96  1  0  0  0
 15 97  1  0  0  0
 16 17  2  0  0  0
 16 21  1  0  0  0
 16 31  1  0  0  0
 17 18  1  0  0  0
 17 98  1  0  0  0
 18 19  2  0  0  0
 18 99  1  0  0  0
 19 20  1  0  0  0
 19 24  1  0  0  0
 20 21  2  0  0  0
 20100  1  0  0  0
 21 23  1  0  0  0
 22 28  1  0  0  0
 22 32  2  0  0  0
 26 27  1  0  0  0
 28101  1  0  0  0
 28102  1  0  0  0
 29103  1  0  0  0
 29104  1  0  0  0
 33 34  1  0  0  0
 33 66  1  0  0  0
 33 70  2  0  0  0
 34 36  1  0  0  0
 34 59  1  0  0  0
 34105  1  0  0  0
 35 44  2  0  0  0
 35 45  1  0  0  0
 35 68  1  0  0  0
 36 56  1  0  0  0
 36106  1  0  0  0
 37 39  1  0  0  0
 37 47  1  0  0  0
 37 66  1  0  0  0
 37107  1  0  0  0
 38 43  2  0  0  0
 38 46  1  0  0  0
 38 47  1  0  0  0
 39 64  1  0  0  0
 39 67  2  0  0  0
 40 52  1  0  0  0
 40 53  2  0  0  0
 40 58  1  0  0  0
 41108  1  0  0  0
 41109  1  0  0  0
 41110  1  0  0  0
 41 48  1  0  0  0
 42 43  1  0  0  0
 42 66  1  0  0  0
 42111  1  0  0  0
 42112  1  0  0  0
 43 44  1  0  0  0
 44113  1  0  0  0
 45 46  2  0  0  0
 45114  1  0  0  0
 46115  1  0  0  0
 47116  1  0  0  0
 47117  1  0  0  0
 48 56  1  0  0  0
 48 65  1  0  0  0
 48118  1  0  0  0
 49 50  1  0  0  0
 49 53  1  0  0  0
 49 64  1  0  0  0
 49119  1  0  0  0
 50 51  1  0  0  0
 50120  1  0  0  0
 50121  1  0  0  0
 51 52  1  0  0  0
 51122  1  0  0  0
 51123  1  0  0  0
 52124  1  0  0  0
 52125  1  0  0  0
 53 54  1  0  0  0
 54 55  2  0  0  0
 54126  1  0  0  0
 55 57  1  0  0  0
 55127  1  0  0  0
 56 69  2  0  0  0
 57 58  2  0  0  0
 57128  1  0  0  0
 58129  1  0  0  0
 59 60  1  0  0  0
 59 61  1  0  0  0
 59 62  1  0  0  0
 60130  1  0  0  0
 60131  1  0  0  0
 60132  1  0  0  0
 61133  1  0  0  0
 61134  1  0  0  0
 61135  1  0  0  0
 62136  1  0  0  0
 62137  1  0  0  0
 62138  1  0  0  0
 63 65  1  0  0  0
 63139  1  0  0  0
 63140  1  0  0  0
 63141  1  0  0  0
 64142  1  0  0  0
 65143  1  0  0  0
 68 81  1  0  0  0
 71 72  1  0  0  0
 71 73  2  0  0  0
 71144  1  0  0  0
 72 74  2  0  0  0
 72 75  1  0  0  0
 73 76  1  0  0  0
 73 84  1  0  0  0
 74 83  1  0  0  0
 74 84  1  0  0  0
 75 77  2  0  0  0
 75145  1  0  0  0
 76 82  2  0  0  0
 76146  1  0  0  0
 77 78  1  0  0  0
 77147  1  0  0  0
 78148  1  0  0  0
 78149  1  0  0  0
 78150  1  0  0  0
 79151  1  0  0  0
 79152  1  0  0  0
 79153  1  0  0  0
 79 81  1  0  0  0
 80 81  1  0  0  0
 80 83  1  0  0  0
 80154  1  0  0  0
 80155  1  0  0  0
 81156  1  0  0  0
 83157  1  0  0  0
M  ISO  4   1 100  68 101  81 101  82 100
M  END
> <chiral flag>
0

> <version>
0

> <s_m_source_file>
/data/baiqing/PycharmProjects/Reinvent-master-3.2/result/LINK_invent/BTK/process_docking_weight1_custom_product_contain_oxygen_bond_distance_aromatic_linkinvent_7_9_3/rearranged_h_0117.sdf

> <i_m_source_file_index>
16

> <r_mmod_Potential_Energy-OPLS-2005>
241.338500976562

> <r_mmod_Stretch_Energy-OPLS-2005>
167.015640258789

> <r_mmod_Bend_Energy-OPLS-2005>
225.695098876953

> <r_mmod_Torsional_Energy-OPLS-2005>
206.829223632812

> <r_mmod_Improper_Torsional_Energy-OPLS-2005>
7.6410813331604

> <r_mmod_Van_der_Waal_Energy-OPLS-2005>
110.536552429199

> <r_mmod_Electrostatic_Energy-OPLS-2005>
-398.335266113281

> <r_mmod_Solvation_Energy-OPLS-2005>
-192.68196105957

> <b_mmod_Minimization_Converged-OPLS-2005>
0

> <r_mmod_RMS_Derivative-OPLS-2005>
2.56282043457031

$$$$
16
                    3D
 Structure written by MMmdl.
164172  0  0  1  0            999 V2000
  -30.7077  -14.5505   20.5185 C   0  0  0  0  0  0
  -30.4146  -12.3371   19.4564 C   0  0  0  0  0  0
  -29.4955  -12.4869   18.2259 C   0  0  0  0  0  0
  -28.0178  -12.3480   18.6357 C   0  0  0  0  0  0
  -27.6549  -13.2193   19.8697 C   0  0  2  0  0  0
  -28.6976  -13.0573   20.9985 C   0  0  0  0  0  0
  -25.2558  -13.8202   20.5696 C   0  0  0  0  0  0
  -24.1819  -13.0455   20.9179 C   0  0  0  0  0  0
  -24.6389  -11.6929   20.8750 C   0  0  0  0  0  0
  -23.9065  -10.4299   21.0413 C   0  0  0  0  0  0
  -24.3614   -9.4212   21.9187 C   0  0  0  0  0  0
  -23.6279   -8.2253   22.0755 C   0  0  0  0  0  0
  -22.4268   -8.0285   21.3545 C   0  0  0  0  0  0
  -21.9912   -9.0264   20.4651 C   0  0  0  0  0  0
  -22.7239  -10.2145   20.3053 C   0  0  0  0  0  0
  -21.6843   -6.0738   22.5275 C   0  0  0  0  0  0
  -21.4012   -6.5637   23.8213 C   0  0  0  0  0  0
  -21.3653   -5.6784   24.9174 C   0  0  0  0  0  0
  -21.6047   -4.3052   24.7222 C   0  0  0  0  0  0
  -21.8822   -3.8149   23.4342 C   0  0  0  0  0  0
  -21.9193   -4.6968   22.3399 C   0  0  0  0  0  0
  -22.7846  -13.5244   21.1835 C   0  0  0  0  0  0
  -22.1656   -4.2159   21.0976 F   0  0  0  0  0  0
  -21.5632   -3.4531   25.7730 F   0  0  0  0  0  0
  -30.0224  -13.3665   20.4416 N   0  0  0  0  0  0
  -26.2999  -12.9389   20.3370 N   0  0  0  0  0  0
  -25.9324  -11.6547   20.5796 N   0  0  0  0  0  0
  -22.0497  -12.8241   22.0410 N   0  0  0  0  0  0
  -25.4269  -15.1920   20.4123 N   0  0  0  0  0  0
  -31.8382  -14.6414   20.0335 O   0  0  0  0  0  0
  -21.6628   -6.8883   21.4241 O   0  0  0  0  0  0
  -22.3531  -14.5547   20.6671 O   0  0  0  0  0  0
  -24.6197  -31.8652   23.2087 C   0  0  0  0  0  0
  -25.9083  -32.4795   23.8391 C   0  0  1  0  0  0
  -27.2156  -27.3776   20.0813 C   0  0  0  0  0  0
  -25.5915  -33.8588   24.2314 N   0  0  0  0  0  0
  -23.4085  -30.4897   21.5524 C   0  0  2  0  0  0
  -24.8486  -28.9550   20.1091 C   0  0  0  0  0  0
  -22.7441  -29.4626   22.4982 C   0  0  0  0  0  0
  -18.0285  -28.1358   22.8488 C   0  0  0  0  0  0
  -24.1479  -36.7290   23.2645 C   0  0  0  0  0  0
  -25.9445  -30.8093   21.3725 C   0  0  0  0  0  0
  -26.0150  -29.4425   20.7114 C   0  0  0  0  0  0
  -27.2002  -28.6600   20.6964 C   0  0  0  0  0  0
  -26.0282  -26.9303   19.4568 C   0  0  0  0  0  0
  -24.8531  -27.7021   19.4776 C   0  0  0  0  0  0
  -23.6155  -29.8302   20.1649 C   0  0  0  0  0  0
  -25.4104  -36.3079   24.0335 C   0  0  1  0  0  0
  -20.5872  -28.3639   23.1302 C   0  0  2  0  0  0
  -20.6772  -26.9368   22.5406 C   0  0  0  0  0  0
  -19.5738  -26.6364   21.5200 C   0  0  0  0  0  0
  -18.1918  -26.7911   22.1614 C   0  0  0  0  0  0
  -19.1535  -28.8819   23.2895 C   0  0  0  0  0  0
  -18.9465  -30.1432   23.8890 C   0  0  0  0  0  0
  -17.6468  -30.6574   24.0535 C   0  0  0  0  0  0
  -25.9040  -34.9449   23.5119 C   0  0  0  0  0  0
  -16.5355  -29.9062   23.6321 C   0  0  0  0  0  0
  -16.7273  -28.6471   23.0351 C   0  0  0  0  0  0
  -26.4505  -31.6587   25.0733 C   0  0  0  0  0  0
  -25.3752  -31.3641   26.1456 C   0  0  0  0  0  0
  -27.0401  -30.3041   24.6143 C   0  0  0  0  0  0
  -27.6066  -32.4332   25.7491 C   0  0  0  0  0  0
  -27.5580  -37.1784   24.8467 C   0  0  0  0  0  0
  -21.4167  -29.3019   22.3720 N   0  0  0  0  0  0
  -26.4282  -37.3775   23.9419 N   0  0  0  0  0  0
  -24.6761  -31.0693   22.1025 N   0  0  0  0  0  0
  -23.4196  -28.8159   23.3032 O   0  0  0  0  0  0
  -28.3678  -26.5964   20.1127 O   0  0  0  0  0  0
  -26.5608  -34.8912   22.4691 O   0  0  0  0  0  0
  -23.5371  -32.1445   23.7432 O   0  0  0  0  0  0
  -30.4662  -19.9934   23.0741 C   0  0  0  0  0  0
  -29.5847  -19.4124   20.5017 C   0  0  0  0  0  0
  -30.5422  -18.6589   22.6165 C   0  0  0  0  0  0
  -30.1176  -18.3459   21.2945 C   0  0  0  0  0  0
  -29.9609  -21.0460   22.2780 C   0  0  0  0  0  0
  -29.5012  -20.7605   20.9727 C   0  0  0  0  0  0
  -32.0413  -17.8983   24.4916 C   0  0  0  0  0  0
  -31.1655  -17.6501   23.5019 C   0  0  0  0  0  0
  -30.4136  -16.9932   20.7021 C   0  0  0  0  0  0
  -30.0574  -15.7380   21.1179 C   0  0  0  0  0  0
  -30.3118  -24.2047   24.1780 C   0  0  0  0  0  0
  -29.4138  -24.3393   20.4005 C   0  0  0  0  0  0
  -30.5514  -22.7159   23.9199 C   0  0  0  0  0  0
  -28.2962  -25.1893   19.7296 C   0  0  0  0  0  0
  -29.7564  -22.9131   19.8279 C   0  0  0  0  0  0
  -29.8642  -22.3450   22.7299 O   0  0  0  0  0  0
  -28.9368  -21.7693   20.1874 O   0  0  0  0  0  0
  -31.4592  -12.4117   19.1529 H   0  0  0  0  0  0
  -30.3134  -11.3420   19.8939 H   0  0  0  0  0  0
  -29.7463  -11.7336   17.4771 H   0  0  0  0  0  0
  -29.6588  -13.4569   17.7549 H   0  0  0  0  0  0
  -27.8383  -11.2962   18.8613 H   0  0  0  0  0  0
  -27.3658  -12.5926   17.7964 H   0  0  0  0  0  0
  -27.6860  -14.2588   19.5425 H   0  0  0  0  0  0
  -28.6890  -12.0337   21.3756 H   0  0  0  0  0  0
  -28.4463  -13.6818   21.8532 H   0  0  0  0  0  0
  -25.2756   -9.5697   22.4773 H   0  0  0  0  0  0
  -23.9984   -7.4658   22.7486 H   0  0  0  0  0  0
  -21.0835   -8.8792   19.8962 H   0  0  0  0  0  0
  -22.3686  -10.9690   19.6170 H   0  0  0  0  0  0
  -21.1994   -7.6146   23.9718 H   0  0  0  0  0  0
  -21.1469   -6.0511   25.9073 H   0  0  0  0  0  0
  -22.0610   -2.7612   23.2832 H   0  0  0  0  0  0
  -22.4091  -11.9875   22.4761 H   0  0  0  0  0  0
  -21.1143  -13.1319   22.2671 H   0  0  0  0  0  0
  -24.6677  -15.8526   20.5345 H   0  0  0  0  0  0
  -26.2916  -15.6334   20.1224 H   0  0  0  0  0  0
  -26.7148  -32.5477   23.1137 H   0  0  0  0  0  0
  -25.0013  -33.9718   25.0430 H   0  0  0  0  0  0
  -22.6984  -31.3081   21.4193 H   0  0  0  0  0  0
  -23.3739  -35.9626   23.3292 H   0  0  0  0  0  0
  -24.3562  -36.8935   22.2064 H   0  0  0  0  0  0
  -23.7229  -37.6485   23.6685 H   0  0  0  0  0  0
  -26.0706  -31.5769   20.6083 H   0  0  0  0  0  0
  -26.8274  -30.8548   21.9969 H   0  0  0  0  0  0
  -28.1003  -29.0254   21.1707 H   0  0  0  0  0  0
  -25.9780  -25.9829   18.9412 H   0  0  0  0  0  0
  -23.9580  -27.3298   18.9980 H   0  0  0  0  0  0
  -23.7260  -30.6111   19.4113 H   0  0  0  0  0  0
  -22.7349  -29.2572   19.8671 H   0  0  0  0  0  0
  -25.1282  -36.1934   25.0826 H   0  0  0  0  0  0
  -20.9970  -28.3223   24.1418 H   0  0  0  0  0  0
  -20.5662  -26.2248   23.3599 H   0  0  0  0  0  0
  -21.6645  -26.7405   22.1202 H   0  0  0  0  0  0
  -19.6880  -25.6279   21.1222 H   0  0  0  0  0  0
  -19.6677  -27.3176   20.6731 H   0  0  0  0  0  0
  -17.4197  -26.6658   21.4013 H   0  0  0  0  0  0
  -18.0299  -26.0049   22.8997 H   0  0  0  0  0  0
  -19.7947  -30.7234   24.2253 H   0  0  0  0  0  0
  -17.5032  -31.6248   24.5151 H   0  0  0  0  0  0
  -15.5349  -30.2953   23.7671 H   0  0  0  0  0  0
  -15.8668  -28.0787   22.7071 H   0  0  0  0  0  0
  -24.5956  -30.6973   25.7741 H   0  0  0  0  0  0
  -24.8898  -32.2763   26.4927 H   0  0  0  0  0  0
  -25.8105  -30.8774   27.0193 H   0  0  0  0  0  0
  -26.2973  -29.6697   24.1288 H   0  0  0  0  0  0
  -27.4290  -29.7366   25.4613 H   0  0  0  0  0  0
  -27.8747  -30.4377   23.9254 H   0  0  0  0  0  0
  -27.2701  -33.3644   26.2047 H   0  0  0  0  0  0
  -28.3875  -32.6866   25.0313 H   0  0  0  0  0  0
  -28.0744  -31.8477   26.5408 H   0  0  0  0  0  0
  -28.2566  -38.0114   24.7569 H   0  0  0  0  0  0
  -28.1110  -36.2646   24.6245 H   0  0  0  0  0  0
  -27.2288  -37.1372   25.8864 H   0  0  0  0  0  0
  -20.9322  -29.8754   21.6951 H   0  0  0  0  0  0
  -26.0160  -38.2835   24.1471 H   0  0  0  0  0  0
  -30.8025  -20.1993   24.0763 H   0  0  0  0  0  0
  -29.2626  -19.2031   19.4909 H   0  0  0  0  0  0
  -32.4237  -17.0893   25.0987 H   0  0  0  0  0  0
  -32.4000  -18.8917   24.7182 H   0  0  0  0  0  0
  -30.8711  -16.6221   23.3656 H   0  0  0  0  0  0
  -31.0934  -17.0525   19.8622 H   0  0  0  0  0  0
  -29.3523  -15.6290   21.9268 H   0  0  0  0  0  0
  -30.8410  -24.5354   25.0720 H   0  0  0  0  0  0
  -29.2513  -24.4076   24.3243 H   0  0  0  0  0  0
  -30.6617  -24.8130   23.3441 H   0  0  0  0  0  0
  -29.2088  -24.2904   21.4664 H   0  0  0  0  0  0
  -30.3262  -24.9284   20.3112 H   0  0  0  0  0  0
  -30.1843  -22.1480   24.7750 H   0  0  0  0  0  0
  -31.6220  -22.5273   23.8100 H   0  0  0  0  0  0
  -27.3469  -24.7329   20.0134 H   0  0  0  0  0  0
  -28.3757  -25.1240   18.6426 H   0  0  0  0  0  0
  -30.7926  -22.6930   20.0905 H   0  0  0  0  0  0
  -29.7600  -22.9724   18.7385 H   0  0  0  0  0  0
  1 25  1  0  0  0
  1 30  2  0  0  0
  1 80  1  0  0  0
  2  3  1  0  0  0
  2 25  1  0  0  0
  2 88  1  0  0  0
  2 89  1  0  0  0
  3  4  1  0  0  0
  3 90  1  0  0  0
  3 91  1  0  0  0
  4  5  1  0  0  0
  4 92  1  0  0  0
  4 93  1  0  0  0
  5  6  1  0  0  0
  5 26  1  0  0  0
  5 94  1  0  0  0
  6 25  1  0  0  0
  6 95  1  0  0  0
  6 96  1  0  0  0
  7  8  2  0  0  0
  7 26  1  0  0  0
  7 29  1  0  0  0
  8  9  1  0  0  0
  8 22  1  0  0  0
  9 10  1  0  0  0
  9 27  2  0  0  0
 10 11  2  0  0  0
 10 15  1  0  0  0
 11 12  1  0  0  0
 11 97  1  0  0  0
 12 13  2  0  0  0
 12 98  1  0  0  0
 13 14  1  0  0  0
 13 31  1  0  0  0
 14 15  2  0  0  0
 14 99  1  0  0  0
 15100  1  0  0  0
 16 17  2  0  0  0
 16 21  1  0  0  0
 16 31  1  0  0  0
 17 18  1  0  0  0
 17101  1  0  0  0
 18 19  2  0  0  0
 18102  1  0  0  0
 19 20  1  0  0  0
 19 24  1  0  0  0
 20 21  2  0  0  0
 20103  1  0  0  0
 21 23  1  0  0  0
 22 28  1  0  0  0
 22 32  2  0  0  0
 26 27  1  0  0  0
 28104  1  0  0  0
 28105  1  0  0  0
 29106  1  0  0  0
 29107  1  0  0  0
 33 34  1  0  0  0
 33 66  1  0  0  0
 33 70  2  0  0  0
 34 36  1  0  0  0
 34 59  1  0  0  0
 34108  1  0  0  0
 35 44  2  0  0  0
 35 45  1  0  0  0
 35 68  1  0  0  0
 36 56  1  0  0  0
 36109  1  0  0  0
 37 39  1  0  0  0
 37 47  1  0  0  0
 37 66  1  0  0  0
 37110  1  0  0  0
 38 43  2  0  0  0
 38 46  1  0  0  0
 38 47  1  0  0  0
 39 64  1  0  0  0
 39 67  2  0  0  0
 40 52  1  0  0  0
 40 53  2  0  0  0
 40 58  1  0  0  0
 41111  1  0  0  0
 41112  1  0  0  0
 41113  1  0  0  0
 41 48  1  0  0  0
 42 43  1  0  0  0
 42 66  1  0  0  0
 42114  1  0  0  0
 42115  1  0  0  0
 43 44  1  0  0  0
 44116  1  0  0  0
 45 46  2  0  0  0
 45117  1  0  0  0
 46118  1  0  0  0
 47119  1  0  0  0
 47120  1  0  0  0
 48 56  1  0  0  0
 48 65  1  0  0  0
 48121  1  0  0  0
 49 50  1  0  0  0
 49 53  1  0  0  0
 49 64  1  0  0  0
 49122  1  0  0  0
 50 51  1  0  0  0
 50123  1  0  0  0
 50124  1  0  0  0
 51 52  1  0  0  0
 51125  1  0  0  0
 51126  1  0  0  0
 52127  1  0  0  0
 52128  1  0  0  0
 53 54  1  0  0  0
 54 55  2  0  0  0
 54129  1  0  0  0
 55 57  1  0  0  0
 55130  1  0  0  0
 56 69  2  0  0  0
 57 58  2  0  0  0
 57131  1  0  0  0
 58132  1  0  0  0
 59 60  1  0  0  0
 59 61  1  0  0  0
 59 62  1  0  0  0
 60133  1  0  0  0
 60134  1  0  0  0
 60135  1  0  0  0
 61136  1  0  0  0
 61137  1  0  0  0
 61138  1  0  0  0
 62139  1  0  0  0
 62140  1  0  0  0
 62141  1  0  0  0
 63 65  1  0  0  0
 63142  1  0  0  0
 63143  1  0  0  0
 63144  1  0  0  0
 64145  1  0  0  0
 65146  1  0  0  0
 68 84  1  0  0  0
 71 73  2  0  0  0
 71 75  1  0  0  0
 71147  1  0  0  0
 72 74  2  0  0  0
 72 76  1  0  0  0
 72148  1  0  0  0
 73 74  1  0  0  0
 73 78  1  0  0  0
 74 79  1  0  0  0
 75 76  2  0  0  0
 75 86  1  0  0  0
 76 87  1  0  0  0
 77 78  2  0  0  0
 77149  1  0  0  0
 77150  1  0  0  0
 78151  1  0  0  0
 79 80  2  0  0  0
 79152  1  0  0  0
 80153  1  0  0  0
 81 83  1  0  0  0
 81154  1  0  0  0
 81155  1  0  0  0
 81156  1  0  0  0
 82 84  1  0  0  0
 82 85  1  0  0  0
 82157  1  0  0  0
 82158  1  0  0  0
 83 86  1  0  0  0
 83159  1  0  0  0
 83160  1  0  0  0
 84161  1  0  0  0
 84162  1  0  0  0
 85 87  1  0  0  0
 85163  1  0  0  0
 85164  1  0  0  0
M  ISO  4   1 100  68 101  80 100  84 101
M  END
> <chiral flag>
0

> <version>
0

> <s_m_source_file>
/data/baiqing/PycharmProjects/Reinvent-master-3.2/result/LINK_invent/BTK/process_docking_weight1_custom_product_contain_oxygen_bond_distance_aromatic_linkinvent_7_9_3/rearranged_h_0117.sdf

> <i_m_source_file_index>
17

> <r_mmod_Potential_Energy-OPLS-2005>
77.9261322021484

> <r_mmod_Stretch_Energy-OPLS-2005>
58.9253005981445

> <r_mmod_Bend_Energy-OPLS-2005>
136.555862426758

> <r_mmod_Torsional_Energy-OPLS-2005>
238.647262573242

> <r_mmod_Improper_Torsional_Energy-OPLS-2005>
5.05164813995361

> <r_mmod_Van_der_Waal_Energy-OPLS-2005>
167.294952392578

> <r_mmod_Electrostatic_Energy-OPLS-2005>
-354.591094970703

> <r_mmod_Solvation_Energy-OPLS-2005>
-200.242736816406

> <b_mmod_Minimization_Converged-OPLS-2005>
0

> <r_mmod_RMS_Derivative-OPLS-2005>
2.36396789550781

$$$$
17
                    3D
 Structure written by MMmdl.
154162  0  0  1  0            999 V2000
  -30.5574  -14.8239   20.4694 C   0  0  0  0  0  0
  -30.4432  -12.5099   19.4834 C   0  0  0  0  0  0
  -29.5233  -12.5276   18.2418 C   0  0  0  0  0  0
  -28.0453  -12.3381   18.6465 C   0  0  0  0  0  0
  -27.6384  -13.2366   19.8461 C   0  0  2  0  0  0
  -28.6800  -13.1774   20.9834 C   0  0  0  0  0  0
  -25.2479  -13.8207   20.5669 C   0  0  0  0  0  0
  -24.1791  -13.0437   20.9215 C   0  0  0  0  0  0
  -24.6393  -11.6924   20.8720 C   0  0  0  0  0  0
  -23.9071  -10.4299   21.0381 C   0  0  0  0  0  0
  -24.3630   -9.4223   21.9155 C   0  0  0  0  0  0
  -23.6314   -8.2247   22.0716 C   0  0  0  0  0  0
  -22.4294   -8.0281   21.3520 C   0  0  0  0  0  0
  -21.9929   -9.0247   20.4615 C   0  0  0  0  0  0
  -22.7247  -10.2138   20.3025 C   0  0  0  0  0  0
  -21.6862   -6.0744   22.5280 C   0  0  0  0  0  0
  -21.4019   -6.5645   23.8213 C   0  0  0  0  0  0
  -21.3660   -5.6787   24.9171 C   0  0  0  0  0  0
  -21.6057   -4.3052   24.7214 C   0  0  0  0  0  0
  -21.8822   -3.8146   23.4335 C   0  0  0  0  0  0
  -21.9192   -4.6966   22.3391 C   0  0  0  0  0  0
  -22.7812  -13.5202   21.1899 C   0  0  0  0  0  0
  -22.1659   -4.2155   21.0965 F   0  0  0  0  0  0
  -21.5627   -3.4525   25.7722 F   0  0  0  0  0  0
  -29.9707  -13.5716   20.4056 N   0  0  0  0  0  0
  -26.2906  -12.9419   20.3217 N   0  0  0  0  0  0
  -25.9321  -11.6568   20.5711 N   0  0  0  0  0  0
  -22.0462  -12.8180   22.0451 N   0  0  0  0  0  0
  -25.4134  -15.1936   20.4072 N   0  0  0  0  0  0
  -31.7547  -14.9321   20.1842 O   0  0  0  0  0  0
  -21.6650   -6.8883   21.4235 O   0  0  0  0  0  0
  -22.3488  -14.5505   20.6741 O   0  0  0  0  0  0
  -24.6383  -31.8524   23.1956 C   0  0  0  0  0  0
  -25.9189  -32.4727   23.8335 C   0  0  1  0  0  0
  -27.2159  -27.2017   20.1326 C   0  0  0  0  0  0
  -25.5967  -33.8536   24.2240 N   0  0  0  0  0  0
  -23.4376  -30.4769   21.5397 C   0  0  2  0  0  0
  -24.8843  -28.9187   20.1071 C   0  0  0  0  0  0
  -22.7548  -29.4603   22.4881 C   0  0  0  0  0  0
  -18.0307  -28.1409   22.8460 C   0  0  0  0  0  0
  -24.1497  -36.7255   23.2640 C   0  0  0  0  0  0
  -25.9914  -30.7427   21.3891 C   0  0  0  0  0  0
  -26.0609  -29.3635   20.7229 C   0  0  0  0  0  0
  -27.2275  -28.5190   20.7268 C   0  0  0  0  0  0
  -26.0022  -26.8370   19.5016 C   0  0  0  0  0  0
  -24.8623  -27.6637   19.4843 C   0  0  0  0  0  0
  -23.6603  -29.8158   20.1550 C   0  0  0  0  0  0
  -25.4131  -36.3046   24.0314 C   0  0  1  0  0  0
  -20.5914  -28.3738   23.1232 C   0  0  2  0  0  0
  -20.6803  -26.9453   22.5385 C   0  0  0  0  0  0
  -19.5789  -26.6384   21.5193 C   0  0  0  0  0  0
  -18.1966  -26.7946   22.1600 C   0  0  0  0  0  0
  -19.1560  -28.8891   23.2841 C   0  0  0  0  0  0
  -18.9481  -30.1479   23.8871 C   0  0  0  0  0  0
  -17.6484  -30.6602   24.0562 C   0  0  0  0  0  0
  -25.9074  -34.9421   23.5073 C   0  0  0  0  0  0
  -16.5375  -29.9089   23.6340 C   0  0  0  0  0  0
  -16.7291  -28.6509   23.0357 C   0  0  0  0  0  0
  -26.4511  -31.6588   25.0771 C   0  0  0  0  0  0
  -25.3680  -31.3760   26.1449 C   0  0  0  0  0  0
  -27.0376  -30.2996   24.6321 C   0  0  0  0  0  0
  -27.6062  -32.4346   25.7532 C   0  0  0  0  0  0
  -27.5587  -37.1789   24.8461 C   0  0  0  0  0  0
  -21.4246  -29.3062   22.3601 N   0  0  0  0  0  0
  -26.4291  -37.3763   23.9406 N   0  0  0  0  0  0
  -24.7081  -31.0456   22.0952 N   0  0  0  0  0  0
  -23.4228  -28.8160   23.3012 O   0  0  0  0  0  0
  -28.2595  -26.2242   20.2279 O   0  0  0  0  0  0
  -26.5659  -34.8900   22.4653 O   0  0  0  0  0  0
  -23.5519  -32.1374   23.7226 O   0  0  0  0  0  0
  -31.0188  -18.1126   21.2043 C   0  0  0  0  0  0
  -30.7489  -19.4713   21.0940 C   0  0  0  0  0  0
  -29.9059  -17.4219   20.6410 C   0  0  0  0  0  0
  -28.2702  -25.0999   19.3410 C   0  0  0  0  0  0
  -28.5573  -23.7140   19.3190 C   0  0  0  0  0  0
  -31.6020  -20.6145   21.5291 C   0  0  0  0  0  0
  -28.3725  -23.1070   17.9321 C   0  0  0  0  0  0
  -29.0634  -22.5490   20.3315 C   0  0  0  0  0  0
  -28.7856  -20.9410   19.9510 C   0  0  0  0  0  0
  -29.0107  -18.3758   20.2309 N   0  0  0  0  0  0
  -29.5088  -19.6686   20.4816 N   0  0  0  0  0  0
  -29.7149  -15.9338   20.6217 N   0  0  0  0  0  0
  -31.4830  -12.6605   19.1890 H   0  0  0  0  0  0
  -30.4100  -11.5361   19.9738 H   0  0  0  0  0  0
  -29.8264  -11.7511   17.5376 H   0  0  0  0  0  0
  -29.6397  -13.4770   17.7148 H   0  0  0  0  0  0
  -27.9069  -11.2898   18.9123 H   0  0  0  0  0  0
  -27.3917  -12.5244   17.7937 H   0  0  0  0  0  0
  -27.6265  -14.2581   19.4642 H   0  0  0  0  0  0
  -28.7358  -12.1726   21.4051 H   0  0  0  0  0  0
  -28.3984  -13.8350   21.8080 H   0  0  0  0  0  0
  -25.2770   -9.5737   22.4724 H   0  0  0  0  0  0
  -24.0047   -7.4649   22.7436 H   0  0  0  0  0  0
  -21.0851   -8.8777   19.8932 H   0  0  0  0  0  0
  -22.3687  -10.9677   19.6137 H   0  0  0  0  0  0
  -21.2023   -7.6148   23.9739 H   0  0  0  0  0  0
  -21.1476   -6.0495   25.9084 H   0  0  0  0  0  0
  -22.0603   -2.7610   23.2821 H   0  0  0  0  0  0
  -22.4084  -11.9864   22.4886 H   0  0  0  0  0  0
  -21.1054  -13.1174   22.2612 H   0  0  0  0  0  0
  -24.6405  -15.8405   20.5222 H   0  0  0  0  0  0
  -26.2466  -15.6399   20.0494 H   0  0  0  0  0  0
  -26.7262  -32.5350   23.1079 H   0  0  0  0  0  0
  -25.0137  -33.9671   25.0394 H   0  0  0  0  0  0
  -22.7364  -31.3016   21.3940 H   0  0  0  0  0  0
  -23.3771  -35.9576   23.3290 H   0  0  0  0  0  0
  -24.3592  -36.8901   22.2059 H   0  0  0  0  0  0
  -23.7223  -37.6434   23.6682 H   0  0  0  0  0  0
  -26.1574  -31.5073   20.6303 H   0  0  0  0  0  0
  -26.8575  -30.7782   22.0372 H   0  0  0  0  0  0
  -28.1201  -28.8531   21.2357 H   0  0  0  0  0  0
  -25.8882  -25.8638   19.0467 H   0  0  0  0  0  0
  -23.9584  -27.3111   19.0059 H   0  0  0  0  0  0
  -23.7977  -30.5949   19.4042 H   0  0  0  0  0  0
  -22.7735  -29.2620   19.8430 H   0  0  0  0  0  0
  -25.1317  -36.1884   25.0804 H   0  0  0  0  0  0
  -21.0015  -28.3324   24.1355 H   0  0  0  0  0  0
  -20.5705  -26.2371   23.3604 H   0  0  0  0  0  0
  -21.6676  -26.7479   22.1193 H   0  0  0  0  0  0
  -19.6965  -25.6274   21.1274 H   0  0  0  0  0  0
  -19.6725  -27.3146   20.6686 H   0  0  0  0  0  0
  -17.4240  -26.6676   21.3998 H   0  0  0  0  0  0
  -18.0379  -26.0088   22.9003 H   0  0  0  0  0  0
  -19.7957  -30.7292   24.2241 H   0  0  0  0  0  0
  -17.5038  -31.6274   24.5176 H   0  0  0  0  0  0
  -15.5376  -30.3004   23.7655 H   0  0  0  0  0  0
  -15.8688  -28.0814   22.7107 H   0  0  0  0  0  0
  -24.5856  -30.7130   25.7730 H   0  0  0  0  0  0
  -24.8862  -32.2935   26.4846 H   0  0  0  0  0  0
  -25.7939  -30.8921   27.0245 H   0  0  0  0  0  0
  -26.2990  -29.6732   24.1300 H   0  0  0  0  0  0
  -27.3979  -29.7293   25.4891 H   0  0  0  0  0  0
  -27.8909  -30.4275   23.9657 H   0  0  0  0  0  0
  -27.2683  -33.3660   26.2090 H   0  0  0  0  0  0
  -28.3867  -32.6884   25.0347 H   0  0  0  0  0  0
  -28.0738  -31.8484   26.5452 H   0  0  0  0  0  0
  -28.2582  -38.0110   24.7546 H   0  0  0  0  0  0
  -28.1106  -36.2641   24.6240 H   0  0  0  0  0  0
  -27.2319  -37.1387   25.8868 H   0  0  0  0  0  0
  -20.9467  -29.8752   21.6748 H   0  0  0  0  0  0
  -26.0160  -38.2827   24.1419 H   0  0  0  0  0  0
  -31.9004  -17.6756   21.6497 H   0  0  0  0  0  0
  -27.9808  -25.5111   18.3846 H   0  0  0  0  0  0
  -32.3963  -20.2794   22.1945 H   0  0  0  0  0  0
  -31.0156  -21.3517   22.0785 H   0  0  0  0  0  0
  -32.0658  -21.1053   20.6740 H   0  0  0  0  0  0
  -29.3014  -22.6507   17.5891 H   0  0  0  0  0  0
  -28.0807  -23.8258   17.1652 H   0  0  0  0  0  0
  -27.5890  -22.3492   17.9472 H   0  0  0  0  0  0
  -28.6869  -22.7646   21.3321 H   0  0  0  0  0  0
  -30.1421  -22.6905   20.3844 H   0  0  0  0  0  0
  -28.9225  -20.8335   18.8788 H   0  0  0  0  0  0
  -27.7204  -20.7661   20.1074 H   0  0  0  0  0  0
  -28.7485  -15.6616   20.6922 H   0  0  0  0  0  0
  1 25  1  0  0  0
  1 30  2  0  0  0
  1 82  1  0  0  0
  2  3  1  0  0  0
  2 25  1  0  0  0
  2 83  1  0  0  0
  2 84  1  0  0  0
  3  4  1  0  0  0
  3 85  1  0  0  0
  3 86  1  0  0  0
  4  5  1  0  0  0
  4 87  1  0  0  0
  4 88  1  0  0  0
  5  6  1  0  0  0
  5 26  1  0  0  0
  5 89  1  0  0  0
  6 25  1  0  0  0
  6 90  1  0  0  0
  6 91  1  0  0  0
  7  8  2  0  0  0
  7 26  1  0  0  0
  7 29  1  0  0  0
  8  9  1  0  0  0
  8 22  1  0  0  0
  9 10  1  0  0  0
  9 27  2  0  0  0
 10 11  2  0  0  0
 10 15  1  0  0  0
 11 12  1  0  0  0
 11 92  1  0  0  0
 12 13  2  0  0  0
 12 93  1  0  0  0
 13 14  1  0  0  0
 13 31  1  0  0  0
 14 15  2  0  0  0
 14 94  1  0  0  0
 15 95  1  0  0  0
 16 17  2  0  0  0
 16 21  1  0  0  0
 16 31  1  0  0  0
 17 18  1  0  0  0
 17 96  1  0  0  0
 18 19  2  0  0  0
 18 97  1  0  0  0
 19 20  1  0  0  0
 19 24  1  0  0  0
 20 21  2  0  0  0
 20 98  1  0  0  0
 21 23  1  0  0  0
 22 28  1  0  0  0
 22 32  2  0  0  0
 26 27  1  0  0  0
 28 99  1  0  0  0
 28100  1  0  0  0
 29101  1  0  0  0
 29102  1  0  0  0
 33 34  1  0  0  0
 33 66  1  0  0  0
 33 70  2  0  0  0
 34 36  1  0  0  0
 34 59  1  0  0  0
 34103  1  0  0  0
 35 44  2  0  0  0
 35 45  1  0  0  0
 35 68  1  0  0  0
 36 56  1  0  0  0
 36104  1  0  0  0
 37 39  1  0  0  0
 37 47  1  0  0  0
 37 66  1  0  0  0
 37105  1  0  0  0
 38 43  2  0  0  0
 38 46  1  0  0  0
 38 47  1  0  0  0
 39 64  1  0  0  0
 39 67  2  0  0  0
 40 52  1  0  0  0
 40 53  2  0  0  0
 40 58  1  0  0  0
 41106  1  0  0  0
 41107  1  0  0  0
 41108  1  0  0  0
 41 48  1  0  0  0
 42 43  1  0  0  0
 42 66  1  0  0  0
 42109  1  0  0  0
 42110  1  0  0  0
 43 44  1  0  0  0
 44111  1  0  0  0
 45 46  2  0  0  0
 45112  1  0  0  0
 46113  1  0  0  0
 47114  1  0  0  0
 47115  1  0  0  0
 48 56  1  0  0  0
 48 65  1  0  0  0
 48116  1  0  0  0
 49 50  1  0  0  0
 49 53  1  0  0  0
 49 64  1  0  0  0
 49117  1  0  0  0
 50 51  1  0  0  0
 50118  1  0  0  0
 50119  1  0  0  0
 51 52  1  0  0  0
 51120  1  0  0  0
 51121  1  0  0  0
 52122  1  0  0  0
 52123  1  0  0  0
 53 54  1  0  0  0
 54 55  2  0  0  0
 54124  1  0  0  0
 55 57  1  0  0  0
 55125  1  0  0  0
 56 69  2  0  0  0
 57 58  2  0  0  0
 57126  1  0  0  0
 58127  1  0  0  0
 59 60  1  0  0  0
 59 61  1  0  0  0
 59 62  1  0  0  0
 60128  1  0  0  0
 60129  1  0  0  0
 60130  1  0  0  0
 61131  1  0  0  0
 61132  1  0  0  0
 61133  1  0  0  0
 62134  1  0  0  0
 62135  1  0  0  0
 62136  1  0  0  0
 63 65  1  0  0  0
 63137  1  0  0  0
 63138  1  0  0  0
 63139  1  0  0  0
 64140  1  0  0  0
 65141  1  0  0  0
 68 74  1  0  0  0
 71 72  2  0  0  0
 71 73  1  0  0  0
 71142  1  0  0  0
 72 76  1  0  0  0
 72 81  1  0  0  0
 73 80  2  0  0  0
 73 82  1  0  0  0
 74 75  2  0  0  0
 74143  1  0  0  0
 75 77  1  0  0  0
 75 78  1  0  0  0
 76144  1  0  0  0
 76145  1  0  0  0
 76146  1  0  0  0
 77147  1  0  0  0
 77148  1  0  0  0
 77149  1  0  0  0
 78 79  1  0  0  0
 78150  1  0  0  0
 78151  1  0  0  0
 79 81  1  0  0  0
 79152  1  0  0  0
 79153  1  0  0  0
 80 81  1  0  0  0
 82154  1  0  0  0
M  ISO  4   1 100  68 101  74 101  82 100
M  END
> <chiral flag>
0

> <version>
0

> <s_m_source_file>
/data/baiqing/PycharmProjects/Reinvent-master-3.2/result/LINK_invent/BTK/process_docking_weight1_custom_product_contain_oxygen_bond_distance_aromatic_linkinvent_7_9_3/rearranged_h_0117.sdf

> <i_m_source_file_index>
18

> <r_mmod_Potential_Energy-OPLS-2005>
330.946044921875

> <r_mmod_Stretch_Energy-OPLS-2005>
169.018890380859

> <r_mmod_Bend_Energy-OPLS-2005>
271.977203369141

> <r_mmod_Torsional_Energy-OPLS-2005>
238.806701660156

> <r_mmod_Improper_Torsional_Energy-OPLS-2005>
6.7301287651062

> <r_mmod_Van_der_Waal_Energy-OPLS-2005>
128.567504882812

> <r_mmod_Electrostatic_Energy-OPLS-2005>
-409.826263427734

> <r_mmod_Solvation_Energy-OPLS-2005>
-205.313125610352

> <b_mmod_Minimization_Converged-OPLS-2005>
0

> <r_mmod_RMS_Derivative-OPLS-2005>
2.69226455688477

$$$$
18
                    3D
 Structure written by MMmdl.
155163  0  0  1  0            999 V2000
  -30.6175  -14.7104   20.4713 C   0  0  0  0  0  0
  -30.4488  -12.4312   19.4661 C   0  0  0  0  0  0
  -29.5192  -12.5087   18.2320 C   0  0  0  0  0  0
  -28.0298  -12.3629   18.6224 C   0  0  0  0  0  0
  -27.6498  -13.2178   19.8621 C   0  0  2  0  0  0
  -28.7017  -13.0357   20.9752 C   0  0  0  0  0  0
  -25.2554  -13.8154   20.5730 C   0  0  0  0  0  0
  -24.1801  -13.0407   20.9151 C   0  0  0  0  0  0
  -24.6386  -11.6886   20.8707 C   0  0  0  0  0  0
  -23.9060  -10.4276   21.0405 C   0  0  0  0  0  0
  -24.3624   -9.4177   21.9165 C   0  0  0  0  0  0
  -23.6294   -8.2218   22.0727 C   0  0  0  0  0  0
  -22.4264   -8.0269   21.3535 C   0  0  0  0  0  0
  -21.9919   -9.0240   20.4638 C   0  0  0  0  0  0
  -22.7251  -10.2115   20.3042 C   0  0  0  0  0  0
  -21.6841   -6.0740   22.5285 C   0  0  0  0  0  0
  -21.4023   -6.5636   23.8224 C   0  0  0  0  0  0
  -21.3669   -5.6790   24.9181 C   0  0  0  0  0  0
  -21.6036   -4.3046   24.7228 C   0  0  0  0  0  0
  -21.8819   -3.8145   23.4339 C   0  0  0  0  0  0
  -21.9188   -4.6976   22.3397 C   0  0  0  0  0  0
  -22.7834  -13.5226   21.1822 C   0  0  0  0  0  0
  -22.1649   -4.2158   21.0982 F   0  0  0  0  0  0
  -21.5628   -3.4527   25.7737 F   0  0  0  0  0  0
  -30.0002  -13.4669   20.4264 N   0  0  0  0  0  0
  -26.2978  -12.9342   20.3352 N   0  0  0  0  0  0
  -25.9305  -11.6485   20.5722 N   0  0  0  0  0  0
  -22.0475  -12.8233   22.0403 N   0  0  0  0  0  0
  -25.4347  -15.1891   20.4307 N   0  0  0  0  0  0
  -31.7982  -14.7823   20.1258 O   0  0  0  0  0  0
  -21.6612   -6.8878   21.4247 O   0  0  0  0  0  0
  -22.3500  -14.5503   20.6647 O   0  0  0  0  0  0
  -24.6293  -31.8582   23.2008 C   0  0  0  0  0  0
  -25.9150  -32.4756   23.8316 C   0  0  1  0  0  0
  -27.2130  -27.3000   20.1140 C   0  0  0  0  0  0
  -25.5978  -33.8553   24.2263 N   0  0  0  0  0  0
  -23.4212  -30.4897   21.5386 C   0  0  2  0  0  0
  -24.8638  -28.9413   20.1029 C   0  0  0  0  0  0
  -22.7474  -29.4659   22.4859 C   0  0  0  0  0  0
  -18.0294  -28.1394   22.8488 C   0  0  0  0  0  0
  -24.1494  -36.7284   23.2633 C   0  0  0  0  0  0
  -25.9639  -30.7820   21.3768 C   0  0  0  0  0  0
  -26.0324  -29.4093   20.7178 C   0  0  0  0  0  0
  -27.2064  -28.5966   20.7216 C   0  0  0  0  0  0
  -26.0275  -26.9026   19.4529 C   0  0  0  0  0  0
  -24.8646  -27.6945   19.4625 C   0  0  0  0  0  0
  -23.6369  -29.8289   20.1518 C   0  0  0  0  0  0
  -25.4114  -36.3054   24.0322 C   0  0  1  0  0  0
  -20.5897  -28.3712   23.1257 C   0  0  2  0  0  0
  -20.6783  -26.9426   22.5402 C   0  0  0  0  0  0
  -19.5753  -26.6393   21.5215 C   0  0  0  0  0  0
  -18.1934  -26.7942   22.1623 C   0  0  0  0  0  0
  -19.1551  -28.8860   23.2879 C   0  0  0  0  0  0
  -18.9472  -30.1462   23.8904 C   0  0  0  0  0  0
  -17.6473  -30.6587   24.0580 C   0  0  0  0  0  0
  -25.9060  -34.9436   23.5088 C   0  0  0  0  0  0
  -16.5361  -29.9100   23.6324 C   0  0  0  0  0  0
  -16.7287  -28.6518   23.0347 C   0  0  0  0  0  0
  -26.4523  -31.6565   25.0692 C   0  0  0  0  0  0
  -25.3776  -31.3728   26.1441 C   0  0  0  0  0  0
  -27.0377  -30.2979   24.6170 C   0  0  0  0  0  0
  -27.6072  -32.4301   25.7482 C   0  0  0  0  0  0
  -27.5567  -37.1793   24.8461 C   0  0  0  0  0  0
  -21.4177  -29.3078   22.3626 N   0  0  0  0  0  0
  -26.4276  -37.3760   23.9421 N   0  0  0  0  0  0
  -24.6895  -31.0607   22.0948 N   0  0  0  0  0  0
  -23.4201  -28.8163   23.2902 O   0  0  0  0  0  0
  -28.3140  -26.4268   20.1884 O   0  0  0  0  0  0
  -26.5604  -34.8909   22.4635 O   0  0  0  0  0  0
  -23.5460  -32.1378   23.7358 O   0  0  0  0  0  0
  -31.2979  -18.0982   19.8577 C   0  0  0  0  0  0
  -31.2799  -19.5587   19.8915 C   0  0  0  0  0  0
  -30.2085  -17.4884   20.4821 C   0  0  0  0  0  0
  -30.1369  -20.1377   20.4059 C   0  0  0  0  0  0
  -29.7808  -16.0453   20.8295 C   0  0  0  0  0  0
  -28.9248  -22.3599   20.2736 C   0  0  0  0  0  0
  -32.4426  -17.3819   19.1882 C   0  0  0  0  0  0
  -32.4258  -20.4082   19.3898 C   0  0  0  0  0  0
  -29.1176  -23.9094   20.5682 C   0  0  0  0  0  0
  -28.1036  -24.9707   19.9376 C   0  0  0  0  0  0
  -28.6856  -15.9373   21.4585 N   0  0  0  0  0  0
  -29.9436  -21.5032   20.5957 N   0  0  0  0  0  0
  -27.8739  -21.9560   19.7744 O   0  0  0  0  0  0
  -29.0816  -18.8197   20.9261 S   0  0  0  0  0  0
  -31.4887  -12.5658   19.1595 H   0  0  0  0  0  0
  -30.4138  -11.4400   19.9234 H   0  0  0  0  0  0
  -29.7929  -11.7408   17.5065 H   0  0  0  0  0  0
  -29.6689  -13.4664   17.7340 H   0  0  0  0  0  0
  -27.8442  -11.3088   18.8306 H   0  0  0  0  0  0
  -27.3943  -12.6241   17.7744 H   0  0  0  0  0  0
  -27.6697  -14.2586   19.5376 H   0  0  0  0  0  0
  -28.7407  -11.9826   21.2606 H   0  0  0  0  0  0
  -28.4384  -13.5417   21.9008 H   0  0  0  0  0  0
  -25.2784   -9.5634   22.4718 H   0  0  0  0  0  0
  -24.0006   -7.4603   22.7431 H   0  0  0  0  0  0
  -21.0840   -8.8759   19.8949 H   0  0  0  0  0  0
  -22.3716  -10.9640   19.6125 H   0  0  0  0  0  0
  -21.2021   -7.6147   23.9744 H   0  0  0  0  0  0
  -21.1495   -6.0505   25.9089 H   0  0  0  0  0  0
  -22.0593   -2.7605   23.2833 H   0  0  0  0  0  0
  -22.4126  -11.9924   22.4851 H   0  0  0  0  0  0
  -21.1082  -13.1219   22.2592 H   0  0  0  0  0  0
  -24.7052  -15.8636   20.6316 H   0  0  0  0  0  0
  -26.3519  -15.6080   20.3279 H   0  0  0  0  0  0
  -26.7202  -32.5402   23.1043 H   0  0  0  0  0  0
  -25.0204  -33.9689   25.0460 H   0  0  0  0  0  0
  -22.7169  -31.3135   21.3996 H   0  0  0  0  0  0
  -23.3744  -35.9631   23.3287 H   0  0  0  0  0  0
  -24.3578  -36.8905   22.2047 H   0  0  0  0  0  0
  -23.7275  -37.6491   23.6660 H   0  0  0  0  0  0
  -26.1068  -31.5437   20.6090 H   0  0  0  0  0  0
  -26.8420  -30.8236   22.0087 H   0  0  0  0  0  0
  -28.0957  -28.9433   21.2310 H   0  0  0  0  0  0
  -25.9727  -25.9640   18.9215 H   0  0  0  0  0  0
  -23.9706  -27.3400   18.9680 H   0  0  0  0  0  0
  -23.7652  -30.6110   19.4034 H   0  0  0  0  0  0
  -22.7527  -29.2716   19.8393 H   0  0  0  0  0  0
  -25.1298  -36.1872   25.0811 H   0  0  0  0  0  0
  -21.0029  -28.3307   24.1364 H   0  0  0  0  0  0
  -20.5691  -26.2323   23.3616 H   0  0  0  0  0  0
  -21.6651  -26.7447   22.1192 H   0  0  0  0  0  0
  -19.6919  -25.6312   21.1233 H   0  0  0  0  0  0
  -19.6688  -27.3214   20.6760 H   0  0  0  0  0  0
  -17.4207  -26.6706   21.4019 H   0  0  0  0  0  0
  -18.0319  -26.0075   22.9009 H   0  0  0  0  0  0
  -19.7952  -30.7285   24.2259 H   0  0  0  0  0  0
  -17.5032  -31.6269   24.5199 H   0  0  0  0  0  0
  -15.5367  -30.3021   23.7644 H   0  0  0  0  0  0
  -15.8680  -28.0862   22.7042 H   0  0  0  0  0  0
  -24.5923  -30.7100   25.7789 H   0  0  0  0  0  0
  -24.9027  -32.2921   26.4873 H   0  0  0  0  0  0
  -25.8128  -30.8894   27.0199 H   0  0  0  0  0  0
  -26.2953  -29.6705   24.1220 H   0  0  0  0  0  0
  -27.4093  -29.7254   25.4677 H   0  0  0  0  0  0
  -27.8815  -30.4248   23.9392 H   0  0  0  0  0  0
  -27.2653  -33.3590   26.2056 H   0  0  0  0  0  0
  -28.3896  -32.6866   25.0334 H   0  0  0  0  0  0
  -28.0719  -31.8427   26.5405 H   0  0  0  0  0  0
  -28.2578  -38.0090   24.7489 H   0  0  0  0  0  0
  -28.1057  -36.2618   24.6296 H   0  0  0  0  0  0
  -27.2282  -37.1457   25.8860 H   0  0  0  0  0  0
  -20.9328  -29.8823   21.6877 H   0  0  0  0  0  0
  -26.0135  -38.2825   24.1423 H   0  0  0  0  0  0
  -32.0781  -16.6149   18.5060 H   0  0  0  0  0  0
  -33.1193  -16.9307   19.9144 H   0  0  0  0  0  0
  -33.0534  -18.0374   18.5698 H   0  0  0  0  0  0
  -32.2649  -21.4768   19.5310 H   0  0  0  0  0  0
  -32.5853  -20.2698   18.3213 H   0  0  0  0  0  0
  -33.3547  -20.1634   19.9066 H   0  0  0  0  0  0
  -30.1341  -24.1774   20.2789 H   0  0  0  0  0  0
  -29.0812  -24.0192   21.6514 H   0  0  0  0  0  0
  -27.1170  -24.6816   20.3026 H   0  0  0  0  0  0
  -28.0758  -24.8236   18.8583 H   0  0  0  0  0  0
  -28.2746  -16.8439   21.6456 H   0  0  0  0  0  0
  -30.7614  -21.9884   20.9389 H   0  0  0  0  0  0
  1 25  1  0  0  0
  1 30  2  0  0  0
  1 75  1  0  0  0
  2  3  1  0  0  0
  2 25  1  0  0  0
  2 85  1  0  0  0
  2 86  1  0  0  0
  3  4  1  0  0  0
  3 87  1  0  0  0
  3 88  1  0  0  0
  4  5  1  0  0  0
  4 89  1  0  0  0
  4 90  1  0  0  0
  5  6  1  0  0  0
  5 26  1  0  0  0
  5 91  1  0  0  0
  6 25  1  0  0  0
  6 92  1  0  0  0
  6 93  1  0  0  0
  7  8  2  0  0  0
  7 26  1  0  0  0
  7 29  1  0  0  0
  8  9  1  0  0  0
  8 22  1  0  0  0
  9 10  1  0  0  0
  9 27  2  0  0  0
 10 11  2  0  0  0
 10 15  1  0  0  0
 11 12  1  0  0  0
 11 94  1  0  0  0
 12 13  2  0  0  0
 12 95  1  0  0  0
 13 14  1  0  0  0
 13 31  1  0  0  0
 14 15  2  0  0  0
 14 96  1  0  0  0
 15 97  1  0  0  0
 16 17  2  0  0  0
 16 21  1  0  0  0
 16 31  1  0  0  0
 17 18  1  0  0  0
 17 98  1  0  0  0
 18 19  2  0  0  0
 18 99  1  0  0  0
 19 20  1  0  0  0
 19 24  1  0  0  0
 20 21  2  0  0  0
 20100  1  0  0  0
 21 23  1  0  0  0
 22 28  1  0  0  0
 22 32  2  0  0  0
 26 27  1  0  0  0
 28101  1  0  0  0
 28102  1  0  0  0
 29103  1  0  0  0
 29104  1  0  0  0
 33 34  1  0  0  0
 33 66  1  0  0  0
 33 70  2  0  0  0
 34 36  1  0  0  0
 34 59  1  0  0  0
 34105  1  0  0  0
 35 44  2  0  0  0
 35 45  1  0  0  0
 35 68  1  0  0  0
 36 56  1  0  0  0
 36106  1  0  0  0
 37 39  1  0  0  0
 37 47  1  0  0  0
 37 66  1  0  0  0
 37107  1  0  0  0
 38 43  2  0  0  0
 38 46  1  0  0  0
 38 47  1  0  0  0
 39 64  1  0  0  0
 39 67  2  0  0  0
 40 52  1  0  0  0
 40 53  2  0  0  0
 40 58  1  0  0  0
 41108  1  0  0  0
 41109  1  0  0  0
 41110  1  0  0  0
 41 48  1  0  0  0
 42 43  1  0  0  0
 42 66  1  0  0  0
 42111  1  0  0  0
 42112  1  0  0  0
 43 44  1  0  0  0
 44113  1  0  0  0
 45 46  2  0  0  0
 45114  1  0  0  0
 46115  1  0  0  0
 47116  1  0  0  0
 47117  1  0  0  0
 48 56  1  0  0  0
 48 65  1  0  0  0
 48118  1  0  0  0
 49 50  1  0  0  0
 49 53  1  0  0  0
 49 64  1  0  0  0
 49119  1  0  0  0
 50 51  1  0  0  0
 50120  1  0  0  0
 50121  1  0  0  0
 51 52  1  0  0  0
 51122  1  0  0  0
 51123  1  0  0  0
 52124  1  0  0  0
 52125  1  0  0  0
 53 54  1  0  0  0
 54 55  2  0  0  0
 54126  1  0  0  0
 55 57  1  0  0  0
 55127  1  0  0  0
 56 69  2  0  0  0
 57 58  2  0  0  0
 57128  1  0  0  0
 58129  1  0  0  0
 59 60  1  0  0  0
 59 61  1  0  0  0
 59 62  1  0  0  0
 60130  1  0  0  0
 60131  1  0  0  0
 60132  1  0  0  0
 61133  1  0  0  0
 61134  1  0  0  0
 61135  1  0  0  0
 62136  1  0  0  0
 62137  1  0  0  0
 62138  1  0  0  0
 63 65  1  0  0  0
 63139  1  0  0  0
 63140  1  0  0  0
 63141  1  0  0  0
 64142  1  0  0  0
 65143  1  0  0  0
 68 80  1  0  0  0
 71 72  1  0  0  0
 71 73  2  0  0  0
 71 77  1  0  0  0
 72 74  2  0  0  0
 72 78  1  0  0  0
 73 75  1  0  0  0
 73 84  1  0  0  0
 74 82  1  0  0  0
 74 84  1  0  0  0
 75 81  2  0  0  0
 76 79  1  0  0  0
 76 82  1  0  0  0
 76 83  2  0  0  0
 77144  1  0  0  0
 77145  1  0  0  0
 77146  1  0  0  0
 78147  1  0  0  0
 78148  1  0  0  0
 78149  1  0  0  0
 79 80  1  0  0  0
 79150  1  0  0  0
 79151  1  0  0  0
 80152  1  0  0  0
 80153  1  0  0  0
 81154  1  0  0  0
 82155  1  0  0  0
M  ISO  4   1 100  68 101  75 100  80 101
M  END
> <chiral flag>
0

> <version>
0

> <s_m_source_file>
/data/baiqing/PycharmProjects/Reinvent-master-3.2/result/LINK_invent/BTK/process_docking_weight1_custom_product_contain_oxygen_bond_distance_aromatic_linkinvent_7_9_3/rearranged_h_0117.sdf

> <i_m_source_file_index>
19

> <r_mmod_Potential_Energy-OPLS-2005>
206.597229003906

> <r_mmod_Stretch_Energy-OPLS-2005>
110.813491821289

> <r_mmod_Bend_Energy-OPLS-2005>
187.875701904297

> <r_mmod_Torsional_Energy-OPLS-2005>
201.228805541992

> <r_mmod_Improper_Torsional_Energy-OPLS-2005>
3.7732515335083

> <r_mmod_Van_der_Waal_Energy-OPLS-2005>
149.266250610352

> <r_mmod_Electrostatic_Energy-OPLS-2005>
-296.280059814453

> <r_mmod_Solvation_Energy-OPLS-2005>
-213.857711791992

> <b_mmod_Minimization_Converged-OPLS-2005>
0

> <r_mmod_RMS_Derivative-OPLS-2005>
3.85096263885498

$$$$
19
                    3D
 Structure written by MMmdl.
159167  0  0  1  0            999 V2000
  -30.5174  -15.0517   20.3932 C   0  0  0  0  0  0
  -30.4385  -12.6511   19.5242 C   0  0  0  0  0  0
  -29.5281  -12.5528   18.2774 C   0  0  0  0  0  0
  -28.0652  -12.3193   18.6968 C   0  0  0  0  0  0
  -27.6278  -13.2627   19.8472 C   0  0  2  0  0  0
  -28.6681  -13.3409   20.9855 C   0  0  0  0  0  0
  -25.2448  -13.8251   20.5775 C   0  0  0  0  0  0
  -24.1770  -13.0454   20.9229 C   0  0  0  0  0  0
  -24.6405  -11.6941   20.8768 C   0  0  0  0  0  0
  -23.9089  -10.4308   21.0407 C   0  0  0  0  0  0
  -24.3621   -9.4229   21.9197 C   0  0  0  0  0  0
  -23.6291   -8.2267   22.0771 C   0  0  0  0  0  0
  -22.4283   -8.0298   21.3550 C   0  0  0  0  0  0
  -21.9922   -9.0276   20.4655 C   0  0  0  0  0  0
  -22.7258  -10.2151   20.3063 C   0  0  0  0  0  0
  -21.6853   -6.0734   22.5272 C   0  0  0  0  0  0
  -21.4011   -6.5637   23.8203 C   0  0  0  0  0  0
  -21.3655   -5.6792   24.9167 C   0  0  0  0  0  0
  -21.6034   -4.3056   24.7219 C   0  0  0  0  0  0
  -21.8824   -3.8148   23.4348 C   0  0  0  0  0  0
  -21.9194   -4.6959   22.3403 C   0  0  0  0  0  0
  -22.7790  -13.5221   21.1879 C   0  0  0  0  0  0
  -22.1667   -4.2141   21.0978 F   0  0  0  0  0  0
  -21.5622   -3.4549   25.7738 F   0  0  0  0  0  0
  -29.9351  -13.7747   20.3802 N   0  0  0  0  0  0
  -26.2889  -12.9506   20.3336 N   0  0  0  0  0  0
  -25.9352  -11.6618   20.5794 N   0  0  0  0  0  0
  -22.0434  -12.8221   22.0432 N   0  0  0  0  0  0
  -25.4105  -15.1992   20.4248 N   0  0  0  0  0  0
  -31.7219  -15.0802   20.1115 O   0  0  0  0  0  0
  -21.6649   -6.8892   21.4241 O   0  0  0  0  0  0
  -22.3478  -14.5520   20.6707 O   0  0  0  0  0  0
  -24.6470  -31.8337   23.1727 C   0  0  0  0  0  0
  -25.9178  -32.4646   23.8153 C   0  0  1  0  0  0
  -27.2265  -27.0502   20.1691 C   0  0  0  0  0  0
  -25.5861  -33.8446   24.2066 N   0  0  0  0  0  0
  -23.4568  -30.4460   21.5216 C   0  0  2  0  0  0
  -24.9125  -28.8543   20.1012 C   0  0  0  0  0  0
  -22.7590  -29.4465   22.4803 C   0  0  0  0  0  0
  -18.0298  -28.1400   22.8504 C   0  0  0  0  0  0
  -24.1455  -36.7235   23.2664 C   0  0  0  0  0  0
  -26.0161  -30.6785   21.3856 C   0  0  0  0  0  0
  -26.0868  -29.2787   20.7338 C   0  0  0  0  0  0
  -27.2329  -28.3903   20.7576 C   0  0  0  0  0  0
  -26.0321  -26.7455   19.4821 C   0  0  0  0  0  0
  -24.9041  -27.6044   19.4567 C   0  0  0  0  0  0
  -23.6875  -29.7627   20.1441 C   0  0  0  0  0  0
  -25.4100  -36.3009   24.0314 C   0  0  1  0  0  0
  -20.5929  -28.3703   23.1246 C   0  0  2  0  0  0
  -20.6786  -26.9400   22.5449 C   0  0  0  0  0  0
  -19.5746  -26.6364   21.5265 C   0  0  0  0  0  0
  -18.1915  -26.7935   22.1657 C   0  0  0  0  0  0
  -19.1575  -28.8876   23.2842 C   0  0  0  0  0  0
  -18.9495  -30.1481   23.8857 C   0  0  0  0  0  0
  -17.6496  -30.6606   24.0567 C   0  0  0  0  0  0
  -25.9076  -34.9393   23.5033 C   0  0  0  0  0  0
  -16.5378  -29.9100   23.6379 C   0  0  0  0  0  0
  -16.7286  -28.6522   23.0395 C   0  0  0  0  0  0
  -26.4461  -31.6553   25.0636 C   0  0  0  0  0  0
  -25.3578  -31.3760   26.1287 C   0  0  0  0  0  0
  -27.0362  -30.2949   24.6257 C   0  0  0  0  0  0
  -27.5973  -32.4354   25.7430 C   0  0  0  0  0  0
  -27.5547  -37.1759   24.8473 C   0  0  0  0  0  0
  -21.4282  -29.2983   22.3555 N   0  0  0  0  0  0
  -26.4255  -37.3741   23.9431 N   0  0  0  0  0  0
  -24.7273  -31.0107   22.0814 N   0  0  0  0  0  0
  -23.4200  -28.8056   23.3009 O   0  0  0  0  0  0
  -28.2775  -26.0471   20.3131 O   0  0  0  0  0  0
  -26.5754  -34.8919   22.4675 O   0  0  0  0  0  0
  -23.5573  -32.1280   23.6880 O   0  0  0  0  0  0
  -29.1616  -19.0035   20.6210 C   0  0  0  0  0  0
  -31.0639  -18.1433   19.4294 C   0  0  0  0  0  0
  -29.4053  -20.4531   20.2645 C   0  0  0  0  0  0
  -30.5691  -20.6084   19.4561 C   0  0  0  0  0  0
  -31.3595  -19.4803   19.0458 C   0  0  0  0  0  0
  -29.9699  -17.7895   20.2449 C   0  0  0  0  0  0
  -28.5272  -21.7383   20.7776 C   0  0  0  0  0  0
  -31.0010  -21.9736   19.0562 C   0  0  0  0  0  0
  -28.1410  -23.1464   20.7057 C   0  0  0  0  0  0
  -32.6088  -19.6707   18.1870 C   0  0  0  0  0  0
  -31.7646  -22.7607   20.1145 C   0  0  0  0  0  0
  -27.1377  -23.5758   21.7729 C   0  0  0  0  0  0
  -28.3744  -24.5364   19.8020 C   0  0  0  0  0  0
  -29.7518  -16.2690   20.5660 N   0  0  0  0  0  0
  -30.8152  -22.4543   17.9359 O   0  0  0  0  0  0
  -31.4731  -12.8048   19.2138 H   0  0  0  0  0  0
  -30.4359  -11.7122   20.0806 H   0  0  0  0  0  0
  -29.8655  -11.7496   17.6200 H   0  0  0  0  0  0
  -29.5990  -13.4762   17.6995 H   0  0  0  0  0  0
  -27.9795  -11.2816   19.0217 H   0  0  0  0  0  0
  -27.3982  -12.4282   17.8399 H   0  0  0  0  0  0
  -27.5773  -14.2564   19.3998 H   0  0  0  0  0  0
  -28.7775  -12.3845   21.4975 H   0  0  0  0  0  0
  -28.3537  -14.0611   21.7415 H   0  0  0  0  0  0
  -25.2755   -9.5703   22.4793 H   0  0  0  0  0  0
  -23.9977   -7.4670   22.7511 H   0  0  0  0  0  0
  -21.0847   -8.8810   19.8968 H   0  0  0  0  0  0
  -22.3723  -10.9690   19.6181 H   0  0  0  0  0  0
  -21.2007   -7.6145   23.9697 H   0  0  0  0  0  0
  -21.1461   -6.0528   25.9059 H   0  0  0  0  0  0
  -22.0600   -2.7608   23.2853 H   0  0  0  0  0  0
  -22.4038  -11.9878   22.4814 H   0  0  0  0  0  0
  -21.1071  -13.1286   22.2667 H   0  0  0  0  0  0
  -24.6386  -15.8486   20.5306 H   0  0  0  0  0  0
  -26.2644  -15.6481   20.1190 H   0  0  0  0  0  0
  -26.7244  -32.5203   23.0882 H   0  0  0  0  0  0
  -24.9763  -33.9529   25.0039 H   0  0  0  0  0  0
  -22.7626  -31.2712   21.3547 H   0  0  0  0  0  0
  -23.3747  -35.9530   23.3301 H   0  0  0  0  0  0
  -24.3526  -36.8929   22.2089 H   0  0  0  0  0  0
  -23.7189  -37.6396   23.6758 H   0  0  0  0  0  0
  -26.1712  -31.4193   20.6008 H   0  0  0  0  0  0
  -26.8883  -30.7424   22.0246 H   0  0  0  0  0  0
  -28.1164  -28.7026   21.2976 H   0  0  0  0  0  0
  -25.9315  -25.7882   18.9954 H   0  0  0  0  0  0
  -24.0084  -27.2737   18.9468 H   0  0  0  0  0  0
  -23.8104  -30.5305   19.3779 H   0  0  0  0  0  0
  -22.8044  -29.1955   19.8444 H   0  0  0  0  0  0
  -25.1282  -36.1826   25.0812 H   0  0  0  0  0  0
  -21.0024  -28.3320   24.1357 H   0  0  0  0  0  0
  -20.5734  -26.2287   23.3657 H   0  0  0  0  0  0
  -21.6626  -26.7405   22.1188 H   0  0  0  0  0  0
  -19.6894  -25.6268   21.1295 H   0  0  0  0  0  0
  -19.6707  -27.3170   20.6796 H   0  0  0  0  0  0
  -17.4197  -26.6723   21.4042 H   0  0  0  0  0  0
  -18.0258  -26.0072   22.9054 H   0  0  0  0  0  0
  -19.7985  -30.7306   24.2184 H   0  0  0  0  0  0
  -17.5065  -31.6297   24.5150 H   0  0  0  0  0  0
  -15.5384  -30.2994   23.7744 H   0  0  0  0  0  0
  -15.8678  -28.0839   22.7146 H   0  0  0  0  0  0
  -24.5769  -30.7136   25.7540 H   0  0  0  0  0  0
  -24.8741  -32.2941   26.4624 H   0  0  0  0  0  0
  -25.7766  -30.8949   27.0130 H   0  0  0  0  0  0
  -26.2994  -29.6620   24.1300 H   0  0  0  0  0  0
  -27.4031  -29.7298   25.4831 H   0  0  0  0  0  0
  -27.8850  -30.4196   23.9535 H   0  0  0  0  0  0
  -27.2568  -33.3726   26.1839 H   0  0  0  0  0  0
  -28.3836  -32.6804   25.0280 H   0  0  0  0  0  0
  -28.0534  -31.8567   26.5474 H   0  0  0  0  0  0
  -28.2548  -38.0070   24.7537 H   0  0  0  0  0  0
  -28.1068  -36.2608   24.6284 H   0  0  0  0  0  0
  -27.2262  -37.1363   25.8871 H   0  0  0  0  0  0
  -20.9509  -29.8615   21.6655 H   0  0  0  0  0  0
  -26.0120  -38.2798   24.1493 H   0  0  0  0  0  0
  -28.2989  -18.8156   21.2456 H   0  0  0  0  0  0
  -31.7165  -17.3595   19.0732 H   0  0  0  0  0  0
  -27.9922  -21.2969   21.6031 H   0  0  0  0  0  0
  -33.0816  -18.7207   17.9324 H   0  0  0  0  0  0
  -33.3533  -20.2579   18.7248 H   0  0  0  0  0  0
  -32.3750  -20.1749   17.2479 H   0  0  0  0  0  0
  -32.4840  -22.1160   20.6204 H   0  0  0  0  0  0
  -31.0780  -23.1622   20.8591 H   0  0  0  0  0  0
  -32.3069  -23.5867   19.6561 H   0  0  0  0  0  0
  -27.5298  -24.4189   22.3451 H   0  0  0  0  0  0
  -26.8774  -22.7968   22.4896 H   0  0  0  0  0  0
  -26.2083  -23.8940   21.2987 H   0  0  0  0  0  0
  -27.6967  -24.4480   18.9533 H   0  0  0  0  0  0
  -29.3655  -24.4459   19.3581 H   0  0  0  0  0  0
  -28.8275  -16.0674   20.9161 H   0  0  0  0  0  0
  1 25  1  0  0  0
  1 30  2  0  0  0
  1 84  1  0  0  0
  2  3  1  0  0  0
  2 25  1  0  0  0
  2 86  1  0  0  0
  2 87  1  0  0  0
  3  4  1  0  0  0
  3 88  1  0  0  0
  3 89  1  0  0  0
  4  5  1  0  0  0
  4 90  1  0  0  0
  4 91  1  0  0  0
  5  6  1  0  0  0
  5 26  1  0  0  0
  5 92  1  0  0  0
  6 25  1  0  0  0
  6 93  1  0  0  0
  6 94  1  0  0  0
  7  8  2  0  0  0
  7 26  1  0  0  0
  7 29  1  0  0  0
  8  9  1  0  0  0
  8 22  1  0  0  0
  9 10  1  0  0  0
  9 27  2  0  0  0
 10 11  2  0  0  0
 10 15  1  0  0  0
 11 12  1  0  0  0
 11 95  1  0  0  0
 12 13  2  0  0  0
 12 96  1  0  0  0
 13 14  1  0  0  0
 13 31  1  0  0  0
 14 15  2  0  0  0
 14 97  1  0  0  0
 15 98  1  0  0  0
 16 17  2  0  0  0
 16 21  1  0  0  0
 16 31  1  0  0  0
 17 18  1  0  0  0
 17 99  1  0  0  0
 18 19  2  0  0  0
 18100  1  0  0  0
 19 20  1  0  0  0
 19 24  1  0  0  0
 20 21  2  0  0  0
 20101  1  0  0  0
 21 23  1  0  0  0
 22 28  1  0  0  0
 22 32  2  0  0  0
 26 27  1  0  0  0
 28102  1  0  0  0
 28103  1  0  0  0
 29104  1  0  0  0
 29105  1  0  0  0
 33 34  1  0  0  0
 33 66  1  0  0  0
 33 70  2  0  0  0
 34 36  1  0  0  0
 34 59  1  0  0  0
 34106  1  0  0  0
 35 44  2  0  0  0
 35 45  1  0  0  0
 35 68  1  0  0  0
 36 56  1  0  0  0
 36107  1  0  0  0
 37 39  1  0  0  0
 37 47  1  0  0  0
 37 66  1  0  0  0
 37108  1  0  0  0
 38 43  2  0  0  0
 38 46  1  0  0  0
 38 47  1  0  0  0
 39 64  1  0  0  0
 39 67  2  0  0  0
 40 52  1  0  0  0
 40 53  2  0  0  0
 40 58  1  0  0  0
 41109  1  0  0  0
 41110  1  0  0  0
 41111  1  0  0  0
 41 48  1  0  0  0
 42 43  1  0  0  0
 42 66  1  0  0  0
 42112  1  0  0  0
 42113  1  0  0  0
 43 44  1  0  0  0
 44114  1  0  0  0
 45 46  2  0  0  0
 45115  1  0  0  0
 46116  1  0  0  0
 47117  1  0  0  0
 47118  1  0  0  0
 48 56  1  0  0  0
 48 65  1  0  0  0
 48119  1  0  0  0
 49 50  1  0  0  0
 49 53  1  0  0  0
 49 64  1  0  0  0
 49120  1  0  0  0
 50 51  1  0  0  0
 50121  1  0  0  0
 50122  1  0  0  0
 51 52  1  0  0  0
 51123  1  0  0  0
 51124  1  0  0  0
 52125  1  0  0  0
 52126  1  0  0  0
 53 54  1  0  0  0
 54 55  2  0  0  0
 54127  1  0  0  0
 55 57  1  0  0  0
 55128  1  0  0  0
 56 69  2  0  0  0
 57 58  2  0  0  0
 57129  1  0  0  0
 58130  1  0  0  0
 59 60  1  0  0  0
 59 61  1  0  0  0
 59 62  1  0  0  0
 60131  1  0  0  0
 60132  1  0  0  0
 60133  1  0  0  0
 61134  1  0  0  0
 61135  1  0  0  0
 61136  1  0  0  0
 62137  1  0  0  0
 62138  1  0  0  0
 62139  1  0  0  0
 63 65  1  0  0  0
 63140  1  0  0  0
 63141  1  0  0  0
 63142  1  0  0  0
 64143  1  0  0  0
 65144  1  0  0  0
 68 83  1  0  0  0
 71 73  2  0  0  0
 71 76  1  0  0  0
 71145  1  0  0  0
 72 75  1  0  0  0
 72 76  2  0  0  0
 72146  1  0  0  0
 73 74  1  0  0  0
 73 77  1  0  0  0
 74 75  2  0  0  0
 74 78  1  0  0  0
 75 80  1  0  0  0
 76 84  1  0  0  0
 77 79  2  0  0  0
 77147  1  0  0  0
 78 81  1  0  0  0
 78 85  2  0  0  0
 79 82  1  0  0  0
 79 83  1  0  0  0
 80148  1  0  0  0
 80149  1  0  0  0
 80150  1  0  0  0
 81151  1  0  0  0
 81152  1  0  0  0
 81153  1  0  0  0
 82154  1  0  0  0
 82155  1  0  0  0
 82156  1  0  0  0
 83157  1  0  0  0
 83158  1  0  0  0
 84159  1  0  0  0
M  ISO  4   1 100  68 101  83 101  84 100
M  END
> <chiral flag>
0

> <version>
0

> <s_m_source_file>
/data/baiqing/PycharmProjects/Reinvent-master-3.2/result/LINK_invent/BTK/process_docking_weight1_custom_product_contain_oxygen_bond_distance_aromatic_linkinvent_7_9_3/rearranged_h_0117.sdf

> <i_m_source_file_index>
20

> <r_mmod_Potential_Energy-OPLS-2005>
875.9482421875

> <r_mmod_Stretch_Energy-OPLS-2005>
357.073089599609

> <r_mmod_Bend_Energy-OPLS-2005>
386.766265869141

> <r_mmod_Torsional_Energy-OPLS-2005>
263.487152099609

> <r_mmod_Improper_Torsional_Energy-OPLS-2005>
3.96504354476929

> <r_mmod_Van_der_Waal_Energy-OPLS-2005>
134.020217895508

> <r_mmod_Electrostatic_Energy-OPLS-2005>
-329.896270751953

> <r_mmod_Solvation_Energy-OPLS-2005>
-212.494003295898

> <b_mmod_Minimization_Converged-OPLS-2005>
0

> <r_mmod_RMS_Derivative-OPLS-2005>
3.15106344223022

$$$$
20
                    3D
 Structure written by MMmdl.
161169  0  0  1  0            999 V2000
  -30.6967  -14.5930   20.4645 C   0  0  0  0  0  0
  -30.4238  -12.3536   19.4488 C   0  0  0  0  0  0
  -29.4932  -12.4551   18.2209 C   0  0  0  0  0  0
  -28.0200  -12.2735   18.6389 C   0  0  0  0  0  0
  -27.6292  -13.1672   19.8397 C   0  0  2  0  0  0
  -28.6876  -13.1188   20.9675 C   0  0  0  0  0  0
  -25.2564  -13.8029   20.5702 C   0  0  0  0  0  0
  -24.1789  -13.0363   20.9233 C   0  0  0  0  0  0
  -24.6295  -11.6821   20.8794 C   0  0  0  0  0  0
  -23.8969  -10.4244   21.0452 C   0  0  0  0  0  0
  -24.3557   -9.4172   21.9213 C   0  0  0  0  0  0
  -23.6260   -8.2203   22.0759 C   0  0  0  0  0  0
  -22.4243   -8.0253   21.3546 C   0  0  0  0  0  0
  -21.9862   -9.0217   20.4647 C   0  0  0  0  0  0
  -22.7168  -10.2104   20.3076 C   0  0  0  0  0  0
  -21.6836   -6.0719   22.5281 C   0  0  0  0  0  0
  -21.3998   -6.5631   23.8208 C   0  0  0  0  0  0
  -21.3653   -5.6791   24.9176 C   0  0  0  0  0  0
  -21.6044   -4.3056   24.7233 C   0  0  0  0  0  0
  -21.8820   -3.8145   23.4357 C   0  0  0  0  0  0
  -21.9187   -4.6953   22.3410 C   0  0  0  0  0  0
  -22.7839  -13.5220   21.1898 C   0  0  0  0  0  0
  -22.1667   -4.2138   21.0986 F   0  0  0  0  0  0
  -21.5634   -3.4537   25.7750 F   0  0  0  0  0  0
  -30.0122  -13.4074   20.3922 N   0  0  0  0  0  0
  -26.2868  -12.9063   20.3294 N   0  0  0  0  0  0
  -25.9192  -11.6288   20.5810 N   0  0  0  0  0  0
  -22.0463  -12.8221   22.0449 N   0  0  0  0  0  0
  -25.4407  -15.1739   20.4122 N   0  0  0  0  0  0
  -31.9027  -14.6732   20.2272 O   0  0  0  0  0  0
  -21.6621   -6.8852   21.4237 O   0  0  0  0  0  0
  -22.3553  -14.5538   20.6746 O   0  0  0  0  0  0
  -24.6158  -31.8660   23.2071 C   0  0  0  0  0  0
  -25.9052  -32.4804   23.8384 C   0  0  1  0  0  0
  -27.2429  -27.4134   20.0909 C   0  0  0  0  0  0
  -25.5898  -33.8601   24.2322 N   0  0  0  0  0  0
  -23.4046  -30.4904   21.5444 C   0  0  2  0  0  0
  -24.8518  -28.9506   20.1147 C   0  0  0  0  0  0
  -22.7408  -29.4668   22.4935 C   0  0  0  0  0  0
  -18.0283  -28.1388   22.8488 C   0  0  0  0  0  0
  -24.1484  -36.7306   23.2638 C   0  0  0  0  0  0
  -25.9351  -30.8251   21.3630 C   0  0  0  0  0  0
  -26.0118  -29.4569   20.7110 C   0  0  0  0  0  0
  -27.2029  -28.6945   20.6982 C   0  0  0  0  0  0
  -26.0521  -26.9164   19.5096 C   0  0  0  0  0  0
  -24.8668  -27.6792   19.5170 C   0  0  0  0  0  0
  -23.6152  -29.8198   20.1602 C   0  0  0  0  0  0
  -25.4105  -36.3096   24.0335 C   0  0  1  0  0  0
  -20.5870  -28.3682   23.1294 C   0  0  2  0  0  0
  -20.6765  -26.9409   22.5412 C   0  0  0  0  0  0
  -19.5749  -26.6392   21.5201 C   0  0  0  0  0  0
  -18.1931  -26.7936   22.1618 C   0  0  0  0  0  0
  -19.1531  -28.8847   23.2895 C   0  0  0  0  0  0
  -18.9461  -30.1447   23.8915 C   0  0  0  0  0  0
  -17.6465  -30.6587   24.0570 C   0  0  0  0  0  0
  -25.9030  -34.9462   23.5123 C   0  0  0  0  0  0
  -16.5357  -29.9093   23.6322 C   0  0  0  0  0  0
  -16.7275  -28.6510   23.0344 C   0  0  0  0  0  0
  -26.4483  -31.6585   25.0713 C   0  0  0  0  0  0
  -25.3767  -31.3700   26.1472 C   0  0  0  0  0  0
  -27.0308  -30.3021   24.6103 C   0  0  0  0  0  0
  -27.6058  -32.4303   25.7486 C   0  0  0  0  0  0
  -27.5575  -37.1807   24.8468 C   0  0  0  0  0  0
  -21.4132  -29.3050   22.3682 N   0  0  0  0  0  0
  -26.4290  -37.3781   23.9403 N   0  0  0  0  0  0
  -24.6696  -31.0762   22.0966 N   0  0  0  0  0  0
  -23.4172  -28.8211   23.2986 O   0  0  0  0  0  0
  -28.4441  -26.7190   20.1161 O   0  0  0  0  0  0
  -26.5591  -34.8916   22.4683 O   0  0  0  0  0  0
  -23.5349  -32.1418   23.7462 O   0  0  0  0  0  0
  -30.6515  -18.3343   23.2606 C   0  0  0  0  0  0
  -30.0137  -18.4107   20.5693 C   0  0  0  0  0  0
  -30.4516  -17.1098   22.5814 C   0  0  0  0  0  0
  -30.1551  -17.1276   21.1888 C   0  0  0  0  0  0
  -30.5050  -19.5962   22.6323 C   0  0  0  0  0  0
  -30.1328  -19.6396   21.2663 C   0  0  0  0  0  0
  -31.4188  -15.6775   24.3909 C   0  0  0  0  0  0
  -30.5735  -15.8639   23.3631 C   0  0  0  0  0  0
  -28.9291  -24.2998   20.4183 C   0  0  0  0  0  0
  -28.7591  -22.9788   20.1636 C   0  0  0  0  0  0
  -29.8560  -15.9013   20.3479 C   0  0  0  0  0  0
  -31.2118  -20.7426   24.6346 C   0  0  0  0  0  0
  -28.6371  -25.4532   19.4492 C   0  0  0  0  0  0
  -29.0639  -21.8280   21.1343 C   0  0  0  0  0  0
  -28.9917  -16.0213   19.4306 N   0  0  0  0  0  0
  -30.7376  -20.7840   23.2937 O   0  0  0  0  0  0
  -29.9304  -20.8255   20.5625 O   0  0  0  0  0  0
  -31.4657  -12.4538   19.1399 H   0  0  0  0  0  0
  -30.3427  -11.3708   19.9179 H   0  0  0  0  0  0
  -29.7626  -11.6976   17.4834 H   0  0  0  0  0  0
  -29.6268  -13.4190   17.7297 H   0  0  0  0  0  0
  -27.8767  -11.2247   18.9008 H   0  0  0  0  0  0
  -27.3576  -12.4673   17.7949 H   0  0  0  0  0  0
  -27.5669  -14.1551   19.4179 H   0  0  0  0  0  0
  -28.6955  -12.1354   21.4405 H   0  0  0  0  0  0
  -28.4335  -13.8298   21.7555 H   0  0  0  0  0  0
  -25.2692   -9.5670   22.4792 H   0  0  0  0  0  0
  -23.9979   -7.4586   22.7455 H   0  0  0  0  0  0
  -21.0808   -8.8717   19.8943 H   0  0  0  0  0  0
  -22.3616  -10.9655   19.6198 H   0  0  0  0  0  0
  -21.1979   -7.6139   23.9705 H   0  0  0  0  0  0
  -21.1479   -6.0528   25.9075 H   0  0  0  0  0  0
  -22.0604   -2.7607   23.2857 H   0  0  0  0  0  0
  -22.4042  -11.9860   22.4823 H   0  0  0  0  0  0
  -21.1087  -13.1279   22.2659 H   0  0  0  0  0  0
  -24.6904  -15.8445   20.5368 H   0  0  0  0  0  0
  -26.3114  -15.6022   20.1144 H   0  0  0  0  0  0
  -26.7119  -32.5521   23.1142 H   0  0  0  0  0  0
  -25.0057  -33.9761   25.0471 H   0  0  0  0  0  0
  -22.6950  -31.3080   21.4010 H   0  0  0  0  0  0
  -23.3731  -35.9655   23.3326 H   0  0  0  0  0  0
  -24.3575  -36.8894   22.2047 H   0  0  0  0  0  0
  -23.7261  -37.6527   23.6638 H   0  0  0  0  0  0
  -26.0490  -31.5918   20.5947 H   0  0  0  0  0  0
  -26.8215  -30.8804   21.9823 H   0  0  0  0  0  0
  -28.0986  -29.0845   21.1613 H   0  0  0  0  0  0
  -25.9971  -25.9382   19.0599 H   0  0  0  0  0  0
  -23.9689  -27.2774   19.0671 H   0  0  0  0  0  0
  -23.7244  -30.5914   19.3966 H   0  0  0  0  0  0
  -22.7408  -29.2373   19.8653 H   0  0  0  0  0  0
  -25.1281  -36.1955   25.0829 H   0  0  0  0  0  0
  -20.9989  -28.3269   24.1404 H   0  0  0  0  0  0
  -20.5643  -26.2296   23.3605 H   0  0  0  0  0  0
  -21.6641  -26.7430   22.1224 H   0  0  0  0  0  0
  -19.6906  -25.6302   21.1227 H   0  0  0  0  0  0
  -19.6697  -27.3202   20.6729 H   0  0  0  0  0  0
  -17.4194  -26.6680   21.4025 H   0  0  0  0  0  0
  -18.0345  -26.0078   22.9017 H   0  0  0  0  0  0
  -19.7940  -30.7253   24.2298 H   0  0  0  0  0  0
  -17.5025  -31.6272   24.5173 H   0  0  0  0  0  0
  -15.5359  -30.3006   23.7631 H   0  0  0  0  0  0
  -15.8676  -28.0834   22.7048 H   0  0  0  0  0  0
  -24.5935  -30.7037   25.7829 H   0  0  0  0  0  0
  -24.8965  -32.2862   26.4929 H   0  0  0  0  0  0
  -25.8143  -30.8878   27.0225 H   0  0  0  0  0  0
  -26.2849  -29.6781   24.1159 H   0  0  0  0  0  0
  -27.4067  -29.7255   25.4566 H   0  0  0  0  0  0
  -27.8695  -30.4317   23.9254 H   0  0  0  0  0  0
  -27.2671  -33.3589   26.2097 H   0  0  0  0  0  0
  -28.3868  -32.6887   25.0319 H   0  0  0  0  0  0
  -28.0729  -31.8406   26.5385 H   0  0  0  0  0  0
  -28.2604  -38.0088   24.7480 H   0  0  0  0  0  0
  -28.1053  -36.2617   24.6330 H   0  0  0  0  0  0
  -27.2290  -37.1509   25.8870 H   0  0  0  0  0  0
  -20.9271  -29.8785   21.6924 H   0  0  0  0  0  0
  -26.0175  -38.2854   24.1402 H   0  0  0  0  0  0
  -30.8872  -18.2820   24.3113 H   0  0  0  0  0  0
  -29.7692  -18.4639   19.5169 H   0  0  0  0  0  0
  -31.4356  -14.7434   24.9344 H   0  0  0  0  0  0
  -32.1108  -16.4437   24.7089 H   0  0  0  0  0  0
  -29.9029  -15.0564   23.1106 H   0  0  0  0  0  0
  -29.3248  -24.5997   21.3789 H   0  0  0  0  0  0
  -28.3700  -22.6770   19.2009 H   0  0  0  0  0  0
  -31.3699  -21.7600   24.9926 H   0  0  0  0  0  0
  -32.1645  -20.2140   24.7054 H   0  0  0  0  0  0
  -30.4891  -20.2735   25.3034 H   0  0  0  0  0  0
  -27.8704  -25.1757   18.7301 H   0  0  0  0  0  0
  -29.5357  -25.5827   18.8450 H   0  0  0  0  0  0
  -28.1187  -21.3584   21.4103 H   0  0  0  0  0  0
  -29.4770  -22.2687   22.0382 H   0  0  0  0  0  0
  -28.9431  -15.1648   18.8926 H   0  0  0  0  0  0
  1 25  1  0  0  0
  1 30  2  0  0  0
  1 81  1  0  0  0
  2  3  1  0  0  0
  2 25  1  0  0  0
  2 88  1  0  0  0
  2 89  1  0  0  0
  3  4  1  0  0  0
  3 90  1  0  0  0
  3 91  1  0  0  0
  4  5  1  0  0  0
  4 92  1  0  0  0
  4 93  1  0  0  0
  5  6  1  0  0  0
  5 26  1  0  0  0
  5 94  1  0  0  0
  6 25  1  0  0  0
  6 95  1  0  0  0
  6 96  1  0  0  0
  7  8  2  0  0  0
  7 26  1  0  0  0
  7 29  1  0  0  0
  8  9  1  0  0  0
  8 22  1  0  0  0
  9 10  1  0  0  0
  9 27  2  0  0  0
 10 11  2  0  0  0
 10 15  1  0  0  0
 11 12  1  0  0  0
 11 97  1  0  0  0
 12 13  2  0  0  0
 12 98  1  0  0  0
 13 14  1  0  0  0
 13 31  1  0  0  0
 14 15  2  0  0  0
 14 99  1  0  0  0
 15100  1  0  0  0
 16 17  2  0  0  0
 16 21  1  0  0  0
 16 31  1  0  0  0
 17 18  1  0  0  0
 17101  1  0  0  0
 18 19  2  0  0  0
 18102  1  0  0  0
 19 20  1  0  0  0
 19 24  1  0  0  0
 20 21  2  0  0  0
 20103  1  0  0  0
 21 23  1  0  0  0
 22 28  1  0  0  0
 22 32  2  0  0  0
 26 27  1  0  0  0
 28104  1  0  0  0
 28105  1  0  0  0
 29106  1  0  0  0
 29107  1  0  0  0
 33 34  1  0  0  0
 33 66  1  0  0  0
 33 70  2  0  0  0
 34 36  1  0  0  0
 34 59  1  0  0  0
 34108  1  0  0  0
 35 44  2  0  0  0
 35 45  1  0  0  0
 35 68  1  0  0  0
 36 56  1  0  0  0
 36109  1  0  0  0
 37 39  1  0  0  0
 37 47  1  0  0  0
 37 66  1  0  0  0
 37110  1  0  0  0
 38 43  2  0  0  0
 38 46  1  0  0  0
 38 47  1  0  0  0
 39 64  1  0  0  0
 39 67  2  0  0  0
 40 52  1  0  0  0
 40 53  2  0  0  0
 40 58  1  0  0  0
 41111  1  0  0  0
 41112  1  0  0  0
 41113  1  0  0  0
 41 48  1  0  0  0
 42 43  1  0  0  0
 42 66  1  0  0  0
 42114  1  0  0  0
 42115  1  0  0  0
 43 44  1  0  0  0
 44116  1  0  0  0
 45 46  2  0  0  0
 45117  1  0  0  0
 46118  1  0  0  0
 47119  1  0  0  0
 47120  1  0  0  0
 48 56  1  0  0  0
 48 65  1  0  0  0
 48121  1  0  0  0
 49 50  1  0  0  0
 49 53  1  0  0  0
 49 64  1  0  0  0
 49122  1  0  0  0
 50 51  1  0  0  0
 50123  1  0  0  0
 50124  1  0  0  0
 51 52  1  0  0  0
 51125  1  0  0  0
 51126  1  0  0  0
 52127  1  0  0  0
 52128  1  0  0  0
 53 54  1  0  0  0
 54 55  2  0  0  0
 54129  1  0  0  0
 55 57  1  0  0  0
 55130  1  0  0  0
 56 69  2  0  0  0
 57 58  2  0  0  0
 57131  1  0  0  0
 58132  1  0  0  0
 59 60  1  0  0  0
 59 61  1  0  0  0
 59 62  1  0  0  0
 60133  1  0  0  0
 60134  1  0  0  0
 60135  1  0  0  0
 61136  1  0  0  0
 61137  1  0  0  0
 61138  1  0  0  0
 62139  1  0  0  0
 62140  1  0  0  0
 62141  1  0  0  0
 63 65  1  0  0  0
 63142  1  0  0  0
 63143  1  0  0  0
 63144  1  0  0  0
 64145  1  0  0  0
 65146  1  0  0  0
 68 83  1  0  0  0
 71 73  2  0  0  0
 71 75  1  0  0  0
 71147  1  0  0  0
 72 74  2  0  0  0
 72 76  1  0  0  0
 72148  1  0  0  0
 73 74  1  0  0  0
 73 78  1  0  0  0
 74 81  1  0  0  0
 75 76  2  0  0  0
 75 86  1  0  0  0
 76 87  1  0  0  0
 77 78  2  0  0  0
 77149  1  0  0  0
 77150  1  0  0  0
 78151  1  0  0  0
 79 80  2  0  0  0
 79 83  1  0  0  0
 79152  1  0  0  0
 80 84  1  0  0  0
 80153  1  0  0  0
 81 85  2  0  0  0
 82 86  1  0  0  0
 82154  1  0  0  0
 82155  1  0  0  0
 82156  1  0  0  0
 83157  1  0  0  0
 83158  1  0  0  0
 84 87  1  0  0  0
 84159  1  0  0  0
 84160  1  0  0  0
 85161  1  0  0  0
M  ISO  4   1 100  68 101  81 100  83 101
M  END
> <chiral flag>
0

> <version>
0

> <s_m_source_file>
/data/baiqing/PycharmProjects/Reinvent-master-3.2/result/LINK_invent/BTK/process_docking_weight1_custom_product_contain_oxygen_bond_distance_aromatic_linkinvent_7_9_3/rearranged_h_0117.sdf

> <i_m_source_file_index>
21

> <r_mmod_Potential_Energy-OPLS-2005>
217.301910400391

> <r_mmod_Stretch_Energy-OPLS-2005>
54.4771347045898

> <r_mmod_Bend_Energy-OPLS-2005>
139.03694152832

> <r_mmod_Torsional_Energy-OPLS-2005>
243.568084716797

> <r_mmod_Improper_Torsional_Energy-OPLS-2005>
14.7135591506958

> <r_mmod_Van_der_Waal_Energy-OPLS-2005>
176.669967651367

> <r_mmod_Electrostatic_Energy-OPLS-2005>
-248.234390258789

> <r_mmod_Solvation_Energy-OPLS-2005>
-198.838638305664

> <b_mmod_Minimization_Converged-OPLS-2005>
0

> <r_mmod_RMS_Derivative-OPLS-2005>
2.02522754669189

$$$$
21
                    3D
 Structure written by MMmdl.
166175  0  0  1  0            999 V2000
  -30.6206  -14.6802   20.3486 C   0  0  0  0  0  0
  -30.4072  -12.3553   19.4259 C   0  0  0  0  0  0
  -29.4842  -12.4086   18.1945 C   0  0  0  0  0  0
  -27.9965  -12.3421   18.6036 C   0  0  0  0  0  0
  -27.6330  -13.2116   19.8382 C   0  0  2  0  0  0
  -28.7065  -13.1362   20.9430 C   0  0  0  0  0  0
  -25.2544  -13.7943   20.5938 C   0  0  0  0  0  0
  -24.1788  -13.0295   20.9263 C   0  0  0  0  0  0
  -24.6276  -11.6724   20.8674 C   0  0  0  0  0  0
  -23.8891  -10.4148   21.0257 C   0  0  0  0  0  0
  -24.3462   -9.4145   21.9094 C   0  0  0  0  0  0
  -23.6133   -8.2189   22.0712 C   0  0  0  0  0  0
  -22.4153   -8.0129   21.3492 C   0  0  0  0  0  0
  -21.9732   -9.0044   20.4558 C   0  0  0  0  0  0
  -22.7052  -10.1919   20.2893 C   0  0  0  0  0  0
  -21.6738   -6.0604   22.5271 C   0  0  0  0  0  0
  -21.3984   -6.5547   23.8188 C   0  0  0  0  0  0
  -21.3697   -5.6751   24.9163 C   0  0  0  0  0  0
  -21.6048   -4.3003   24.7258 C   0  0  0  0  0  0
  -21.8837   -3.8068   23.4394 C   0  0  0  0  0  0
  -21.9164   -4.6837   22.3438 C   0  0  0  0  0  0
  -22.7848  -13.5166   21.1950 C   0  0  0  0  0  0
  -22.1613   -4.2029   21.1015 F   0  0  0  0  0  0
  -21.5637   -3.4499   25.7811 F   0  0  0  0  0  0
  -30.0079  -13.4467   20.3396 N   0  0  0  0  0  0
  -26.2935  -12.9175   20.3357 N   0  0  0  0  0  0
  -25.9239  -11.6323   20.5663 N   0  0  0  0  0  0
  -22.0517  -12.8147   22.0467 N   0  0  0  0  0  0
  -25.4359  -15.1663   20.4661 N   0  0  0  0  0  0
  -31.8204  -14.8093   20.1036 O   0  0  0  0  0  0
  -21.6557   -6.8692   21.4213 O   0  0  0  0  0  0
  -22.3626  -14.5549   20.6756 O   0  0  0  0  0  0
  -24.6179  -31.8605   23.2015 C   0  0  0  0  0  0
  -25.9020  -32.4790   23.8388 C   0  0  1  0  0  0
  -27.2332  -27.3492   20.1362 C   0  0  0  0  0  0
  -25.5879  -33.8610   24.2258 N   0  0  0  0  0  0
  -23.4127  -30.4778   21.5443 C   0  0  2  0  0  0
  -24.8651  -28.9414   20.0927 C   0  0  0  0  0  0
  -22.7521  -29.4537   22.4993 C   0  0  0  0  0  0
  -18.0300  -28.1337   22.8412 C   0  0  0  0  0  0
  -24.1491  -36.7336   23.2637 C   0  0  0  0  0  0
  -25.9435  -30.8045   21.3583 C   0  0  0  0  0  0
  -26.0234  -29.4345   20.7044 C   0  0  0  0  0  0
  -27.2070  -28.6472   20.7180 C   0  0  0  0  0  0
  -26.0592  -26.8911   19.4976 C   0  0  0  0  0  0
  -24.8862  -27.6789   19.4691 C   0  0  0  0  0  0
  -23.6253  -29.8109   20.1561 C   0  0  0  0  0  0
  -25.4113  -36.3077   24.0300 C   0  0  1  0  0  0
  -20.5887  -28.3643   23.1276 C   0  0  2  0  0  0
  -20.6810  -26.9395   22.5369 C   0  0  0  0  0  0
  -19.5786  -26.6326   21.5167 C   0  0  0  0  0  0
  -18.1947  -26.7876   22.1556 C   0  0  0  0  0  0
  -19.1549  -28.8832   23.2811 C   0  0  0  0  0  0
  -18.9500  -30.1438   23.8790 C   0  0  0  0  0  0
  -17.6499  -30.6550   24.0547 C   0  0  0  0  0  0
  -25.9020  -34.9449   23.5058 C   0  0  0  0  0  0
  -16.5389  -29.9006   23.6351 C   0  0  0  0  0  0
  -16.7288  -28.6468   23.0283 C   0  0  0  0  0  0
  -26.4389  -31.6624   25.0789 C   0  0  0  0  0  0
  -25.3726  -31.3711   26.1606 C   0  0  0  0  0  0
  -27.0265  -30.3125   24.6108 C   0  0  0  0  0  0
  -27.5990  -32.4405   25.7511 C   0  0  0  0  0  0
  -27.5567  -37.1794   24.8468 C   0  0  0  0  0  0
  -21.4258  -29.2978   22.3735 N   0  0  0  0  0  0
  -26.4256  -37.3798   23.9427 N   0  0  0  0  0  0
  -24.6778  -31.0663   22.0907 N   0  0  0  0  0  0
  -23.4297  -28.8135   23.3068 O   0  0  0  0  0  0
  -28.3033  -26.4794   20.3671 O   0  0  0  0  0  0
  -26.5637  -34.8892   22.4631 O   0  0  0  0  0  0
  -23.5350  -32.1388   23.7354 O   0  0  0  0  0  0
  -28.6707  -18.2607   17.8935 C   0  0  0  0  0  0
  -29.8396  -18.3438   20.4123 C   0  0  0  0  0  0
  -29.1945  -17.0745   18.4490 C   0  0  0  0  0  0
  -29.4151  -19.5958   19.8141 C   0  0  0  0  0  0
  -28.7477  -19.5133   18.5469 C   0  0  0  0  0  0
  -29.6986  -17.0550   19.7758 C   0  0  0  0  0  0
  -29.5952  -24.5788   19.3914 C   0  0  0  0  0  0
  -30.0754  -15.6260   16.6797 C   0  0  0  0  0  0
  -29.1474  -15.8704   17.6196 C   0  0  0  0  0  0
  -28.9651  -25.8035   19.3616 C   0  0  0  0  0  0
  -29.4918  -20.9286   20.5990 C   0  0  0  0  0  0
  -30.5465  -24.3285   18.2142 C   0  0  0  0  0  0
  -29.5656  -23.4664   20.4964 C   0  0  0  0  0  0
  -31.1149  -22.9099   17.9984 C   0  0  0  0  0  0
  -31.2237  -22.0823   19.2839 C   0  0  0  0  0  0
  -28.0754  -20.6937   17.8243 C   0  0  0  0  0  0
  -29.9520  -22.0881   20.0191 N   0  0  0  0  0  0
  -29.7763  -15.7562   20.4794 N   0  0  0  0  0  0
  -29.0608  -20.9447   21.7555 O   0  0  0  0  0  0
  -31.4578  -12.4052   19.1362 H   0  0  0  0  0  0
  -30.2556  -11.3852   19.9034 H   0  0  0  0  0  0
  -29.6929  -11.5879   17.5045 H   0  0  0  0  0  0
  -29.7048  -13.2998   17.6303 H   0  0  0  0  0  0
  -27.7679  -11.2900   18.7918 H   0  0  0  0  0  0
  -27.3590  -12.6350   17.7677 H   0  0  0  0  0  0
  -27.5963  -14.2317   19.4749 H   0  0  0  0  0  0
  -28.7151  -12.1306   21.3645 H   0  0  0  0  0  0
  -28.4991  -13.8270   21.7664 H   0  0  0  0  0  0
  -25.2570   -9.5734   22.4675 H   0  0  0  0  0  0
  -23.9766   -7.4643   22.7524 H   0  0  0  0  0  0
  -21.0638   -8.8492   19.8922 H   0  0  0  0  0  0
  -22.3438  -10.9332   19.5938 H   0  0  0  0  0  0
  -21.1952   -7.6041   23.9695 H   0  0  0  0  0  0
  -21.1485   -6.0449   25.9087 H   0  0  0  0  0  0
  -22.0589   -2.7515   23.2940 H   0  0  0  0  0  0
  -22.4123  -11.9735   22.4751 H   0  0  0  0  0  0
  -21.1182  -13.1182   22.2874 H   0  0  0  0  0  0
  -24.6920  -15.8247   20.6681 H   0  0  0  0  0  0
  -26.3140  -15.6058   20.2331 H   0  0  0  0  0  0
  -26.7139  -32.5463   23.1190 H   0  0  0  0  0  0
  -25.0233  -33.9858   25.0530 H   0  0  0  0  0  0
  -22.6955  -31.2906   21.4069 H   0  0  0  0  0  0
  -23.3751  -35.9665   23.3235 H   0  0  0  0  0  0
  -24.3652  -36.9018   22.2079 H   0  0  0  0  0  0
  -23.7199  -37.6474   23.6753 H   0  0  0  0  0  0
  -26.0600  -31.5571   20.5751 H   0  0  0  0  0  0
  -26.8274  -30.8637   21.9806 H   0  0  0  0  0  0
  -28.0873  -29.0040   21.2278 H   0  0  0  0  0  0
  -26.0248  -25.8908   19.0889 H   0  0  0  0  0  0
  -23.9967  -27.2945   18.9878 H   0  0  0  0  0  0
  -23.7429  -30.5932   19.4091 H   0  0  0  0  0  0
  -22.7463  -29.2430   19.8485 H   0  0  0  0  0  0
  -25.1244  -36.1904   25.0788 H   0  0  0  0  0  0
  -20.9891  -28.3132   24.1419 H   0  0  0  0  0  0
  -20.5690  -26.2276   23.3559 H   0  0  0  0  0  0
  -21.6688  -26.7403   22.1176 H   0  0  0  0  0  0
  -19.6992  -25.6200   21.1248 H   0  0  0  0  0  0
  -19.6715  -27.3112   20.6670 H   0  0  0  0  0  0
  -17.4251  -26.6616   21.3926 H   0  0  0  0  0  0
  -18.0348  -25.9965   22.8917 H   0  0  0  0  0  0
  -19.8007  -30.7288   24.2041 H   0  0  0  0  0  0
  -17.5072  -31.6209   24.5171 H   0  0  0  0  0  0
  -15.5376  -30.2882   23.7722 H   0  0  0  0  0  0
  -15.8704  -28.0780   22.6927 H   0  0  0  0  0  0
  -24.5946  -30.6905   25.8054 H   0  0  0  0  0  0
  -24.8849  -32.2851   26.5063 H   0  0  0  0  0  0
  -25.8148  -30.9014   27.0398 H   0  0  0  0  0  0
  -26.2795  -29.6901   24.1152 H   0  0  0  0  0  0
  -27.4132  -29.7276   25.4442 H   0  0  0  0  0  0
  -27.8539  -30.4566   23.9164 H   0  0  0  0  0  0
  -27.2631  -33.3807   26.1902 H   0  0  0  0  0  0
  -28.3816  -32.6779   25.0308 H   0  0  0  0  0  0
  -28.0616  -31.8691   26.5551 H   0  0  0  0  0  0
  -28.2473  -38.0192   24.7602 H   0  0  0  0  0  0
  -28.1117  -36.2714   24.6100 H   0  0  0  0  0  0
  -27.2392  -37.1221   25.8898 H   0  0  0  0  0  0
  -20.9540  -29.8727   21.6913 H   0  0  0  0  0  0
  -26.0086  -38.2815   24.1530 H   0  0  0  0  0  0
  -28.1686  -18.1948   16.9345 H   0  0  0  0  0  0
  -30.2562  -18.3914   21.4111 H   0  0  0  0  0  0
  -30.0631  -14.7319   16.0743 H   0  0  0  0  0  0
  -30.8835  -16.3228   16.5120 H   0  0  0  0  0  0
  -28.3333  -15.1816   17.7710 H   0  0  0  0  0  0
  -29.1167  -26.4787   18.5303 H   0  0  0  0  0  0
  -31.3872  -25.0206   18.3228 H   0  0  0  0  0  0
  -30.0410  -24.6317   17.3002 H   0  0  0  0  0  0
  -28.5744  -23.4397   20.9544 H   0  0  0  0  0  0
  -30.2536  -23.7313   21.3102 H   0  0  0  0  0  0
  -32.0924  -22.9851   17.5163 H   0  0  0  0  0  0
  -30.5245  -22.3737   17.2599 H   0  0  0  0  0  0
  -32.0142  -22.4898   19.9229 H   0  0  0  0  0  0
  -31.5443  -21.0710   19.0286 H   0  0  0  0  0  0
  -27.1585  -20.3607   17.3258 H   0  0  0  0  0  0
  -28.7243  -21.0986   17.0463 H   0  0  0  0  0  0
  -27.7696  -21.5312   18.4552 H   0  0  0  0  0  0
  -28.8620  -15.3688   20.6364 H   0  0  0  0  0  0
  1 25  1  0  0  0
  1 30  2  0  0  0
  1 88  1  0  0  0
  2  3  1  0  0  0
  2 25  1  0  0  0
  2 90  1  0  0  0
  2 91  1  0  0  0
  3  4  1  0  0  0
  3 92  1  0  0  0
  3 93  1  0  0  0
  4  5  1  0  0  0
  4 94  1  0  0  0
  4 95  1  0  0  0
  5  6  1  0  0  0
  5 26  1  0  0  0
  5 96  1  0  0  0
  6 25  1  0  0  0
  6 97  1  0  0  0
  6 98  1  0  0  0
  7  8  2  0  0  0
  7 26  1  0  0  0
  7 29  1  0  0  0
  8  9  1  0  0  0
  8 22  1  0  0  0
  9 10  1  0  0  0
  9 27  2  0  0  0
 10 11  2  0  0  0
 10 15  1  0  0  0
 11 12  1  0  0  0
 11 99  1  0  0  0
 12 13  2  0  0  0
 12100  1  0  0  0
 13 14  1  0  0  0
 13 31  1  0  0  0
 14 15  2  0  0  0
 14101  1  0  0  0
 15102  1  0  0  0
 16 17  2  0  0  0
 16 21  1  0  0  0
 16 31  1  0  0  0
 17 18  1  0  0  0
 17103  1  0  0  0
 18 19  2  0  0  0
 18104  1  0  0  0
 19 20  1  0  0  0
 19 24  1  0  0  0
 20 21  2  0  0  0
 20105  1  0  0  0
 21 23  1  0  0  0
 22 28  1  0  0  0
 22 32  2  0  0  0
 26 27  1  0  0  0
 28106  1  0  0  0
 28107  1  0  0  0
 29108  1  0  0  0
 29109  1  0  0  0
 33 34  1  0  0  0
 33 66  1  0  0  0
 33 70  2  0  0  0
 34 36  1  0  0  0
 34 59  1  0  0  0
 34110  1  0  0  0
 35 44  2  0  0  0
 35 45  1  0  0  0
 35 68  1  0  0  0
 36 56  1  0  0  0
 36111  1  0  0  0
 37 39  1  0  0  0
 37 47  1  0  0  0
 37 66  1  0  0  0
 37112  1  0  0  0
 38 43  2  0  0  0
 38 46  1  0  0  0
 38 47  1  0  0  0
 39 64  1  0  0  0
 39 67  2  0  0  0
 40 52  1  0  0  0
 40 53  2  0  0  0
 40 58  1  0  0  0
 41113  1  0  0  0
 41114  1  0  0  0
 41115  1  0  0  0
 41 48  1  0  0  0
 42 43  1  0  0  0
 42 66  1  0  0  0
 42116  1  0  0  0
 42117  1  0  0  0
 43 44  1  0  0  0
 44118  1  0  0  0
 45 46  2  0  0  0
 45119  1  0  0  0
 46120  1  0  0  0
 47121  1  0  0  0
 47122  1  0  0  0
 48 56  1  0  0  0
 48 65  1  0  0  0
 48123  1  0  0  0
 49 50  1  0  0  0
 49 53  1  0  0  0
 49 64  1  0  0  0
 49124  1  0  0  0
 50 51  1  0  0  0
 50125  1  0  0  0
 50126  1  0  0  0
 51 52  1  0  0  0
 51127  1  0  0  0
 51128  1  0  0  0
 52129  1  0  0  0
 52130  1  0  0  0
 53 54  1  0  0  0
 54 55  2  0  0  0
 54131  1  0  0  0
 55 57  1  0  0  0
 55132  1  0  0  0
 56 69  2  0  0  0
 57 58  2  0  0  0
 57133  1  0  0  0
 58134  1  0  0  0
 59 60  1  0  0  0
 59 61  1  0  0  0
 59 62  1  0  0  0
 60135  1  0  0  0
 60136  1  0  0  0
 60137  1  0  0  0
 61138  1  0  0  0
 61139  1  0  0  0
 61140  1  0  0  0
 62141  1  0  0  0
 62142  1  0  0  0
 62143  1  0  0  0
 63 65  1  0  0  0
 63144  1  0  0  0
 63145  1  0  0  0
 63146  1  0  0  0
 64147  1  0  0  0
 65148  1  0  0  0
 68 80  1  0  0  0
 71 73  2  0  0  0
 71 75  1  0  0  0
 71149  1  0  0  0
 72 74  1  0  0  0
 72 76  2  0  0  0
 72150  1  0  0  0
 73 76  1  0  0  0
 73 79  1  0  0  0
 74 75  2  0  0  0
 74 81  1  0  0  0
 75 86  1  0  0  0
 76 88  1  0  0  0
 77 80  2  0  0  0
 77 82  1  0  0  0
 77 83  1  0  0  0
 78 79  2  0  0  0
 78151  1  0  0  0
 78152  1  0  0  0
 79153  1  0  0  0
 80154  1  0  0  0
 81 87  1  0  0  0
 81 89  2  0  0  0
 82 84  1  0  0  0
 82155  1  0  0  0
 82156  1  0  0  0
 83 87  1  0  0  0
 83157  1  0  0  0
 83158  1  0  0  0
 84 85  1  0  0  0
 84159  1  0  0  0
 84160  1  0  0  0
 85 87  1  0  0  0
 85161  1  0  0  0
 85162  1  0  0  0
 86163  1  0  0  0
 86164  1  0  0  0
 86165  1  0  0  0
 88166  1  0  0  0
M  ISO  4   1 100  68 101  80 101  88 100
M  END
> <chiral flag>
0

> <version>
0

> <s_m_source_file>
/data/baiqing/PycharmProjects/Reinvent-master-3.2/result/LINK_invent/BTK/process_docking_weight1_custom_product_contain_oxygen_bond_distance_aromatic_linkinvent_7_9_3/rearranged_h_0117.sdf

> <i_m_source_file_index>
22

> <r_mmod_Potential_Energy-OPLS-2005>
314.422790527344

> <r_mmod_Stretch_Energy-OPLS-2005>
87.1518936157227

> <r_mmod_Bend_Energy-OPLS-2005>
167.985916137695

> <r_mmod_Torsional_Energy-OPLS-2005>
408.007110595703

> <r_mmod_Improper_Torsional_Energy-OPLS-2005>
12.7687587738037

> <r_mmod_Van_der_Waal_Energy-OPLS-2005>
138.778335571289

> <r_mmod_Electrostatic_Energy-OPLS-2005>
-355.629547119141

> <r_mmod_Solvation_Energy-OPLS-2005>
-217.829147338867

> <b_mmod_Minimization_Converged-OPLS-2005>
0

> <r_mmod_RMS_Derivative-OPLS-2005>
11.1272096633911

$$$$
22
                    3D
 Structure written by MMmdl.
153161  0  0  1  0            999 V2000
  -30.6542  -14.6958   20.3552 C   0  0  0  0  0  0
  -30.4339  -12.3948   19.4516 C   0  0  0  0  0  0
  -29.4989  -12.4374   18.2230 C   0  0  0  0  0  0
  -28.0268  -12.2666   18.6522 C   0  0  0  0  0  0
  -27.6280  -13.1858   19.8361 C   0  0  2  0  0  0
  -28.6978  -13.1858   20.9528 C   0  0  0  0  0  0
  -25.2552  -13.8051   20.5731 C   0  0  0  0  0  0
  -24.1796  -13.0391   20.9231 C   0  0  0  0  0  0
  -24.6332  -11.6848   20.8809 C   0  0  0  0  0  0
  -23.9009  -10.4261   21.0442 C   0  0  0  0  0  0
  -24.3572   -9.4176   21.9203 C   0  0  0  0  0  0
  -23.6249   -8.2223   22.0767 C   0  0  0  0  0  0
  -22.4249   -8.0261   21.3540 C   0  0  0  0  0  0
  -21.9873   -9.0243   20.4654 C   0  0  0  0  0  0
  -22.7197  -10.2119   20.3072 C   0  0  0  0  0  0
  -21.6843   -6.0723   22.5280 C   0  0  0  0  0  0
  -21.3997   -6.5629   23.8206 C   0  0  0  0  0  0
  -21.3640   -5.6788   24.9172 C   0  0  0  0  0  0
  -21.6038   -4.3050   24.7231 C   0  0  0  0  0  0
  -21.8822   -3.8141   23.4353 C   0  0  0  0  0  0
  -21.9183   -4.6955   22.3403 C   0  0  0  0  0  0
  -22.7822  -13.5214   21.1847 C   0  0  0  0  0  0
  -22.1658   -4.2149   21.0982 F   0  0  0  0  0  0
  -21.5624   -3.4521   25.7733 F   0  0  0  0  0  0
  -30.0086  -13.4812   20.3536 N   0  0  0  0  0  0
  -26.2905  -12.9147   20.3344 N   0  0  0  0  0  0
  -25.9249  -11.6361   20.5857 N   0  0  0  0  0  0
  -22.0448  -12.8249   22.0414 N   0  0  0  0  0  0
  -25.4330  -15.1772   20.4074 N   0  0  0  0  0  0
  -31.8828  -14.7669   20.2894 O   0  0  0  0  0  0
  -21.6625   -6.8866   21.4240 O   0  0  0  0  0  0
  -22.3538  -14.5525   20.6662 O   0  0  0  0  0  0
  -24.6231  -31.8608   23.2091 C   0  0  0  0  0  0
  -25.9091  -32.4794   23.8375 C   0  0  1  0  0  0
  -27.2205  -27.3428   20.1049 C   0  0  0  0  0  0
  -25.5924  -33.8590   24.2305 N   0  0  0  0  0  0
  -23.4124  -30.4897   21.5511 C   0  0  2  0  0  0
  -24.8591  -28.9545   20.1065 C   0  0  0  0  0  0
  -22.7454  -29.4601   22.4928 C   0  0  0  0  0  0
  -18.0261  -28.1359   22.8450 C   0  0  0  0  0  0
  -24.1495  -36.7287   23.2634 C   0  0  0  0  0  0
  -25.9538  -30.7932   21.3837 C   0  0  0  0  0  0
  -26.0273  -29.4256   20.7217 C   0  0  0  0  0  0
  -27.2091  -28.6299   20.7184 C   0  0  0  0  0  0
  -26.0331  -26.9235   19.4585 C   0  0  0  0  0  0
  -24.8637  -27.7044   19.4695 C   0  0  0  0  0  0
  -23.6281  -29.8378   20.1600 C   0  0  0  0  0  0
  -25.4128  -36.3091   24.0334 C   0  0  1  0  0  0
  -20.5864  -28.3653   23.1266 C   0  0  2  0  0  0
  -20.6770  -26.9363   22.5414 C   0  0  0  0  0  0
  -19.5759  -26.6357   21.5193 C   0  0  0  0  0  0
  -18.1918  -26.7899   22.1585 C   0  0  0  0  0  0
  -19.1521  -28.8817   23.2851 C   0  0  0  0  0  0
  -18.9461  -30.1409   23.8874 C   0  0  0  0  0  0
  -17.6473  -30.6571   24.0529 C   0  0  0  0  0  0
  -25.9065  -34.9453   23.5120 C   0  0  0  0  0  0
  -16.5348  -29.9072   23.6319 C   0  0  0  0  0  0
  -16.7253  -28.6487   23.0337 C   0  0  0  0  0  0
  -26.4486  -31.6612   25.0742 C   0  0  0  0  0  0
  -25.3737  -31.3744   26.1488 C   0  0  0  0  0  0
  -27.0332  -30.3049   24.6169 C   0  0  0  0  0  0
  -27.6038  -32.4356   25.7507 C   0  0  0  0  0  0
  -27.5582  -37.1799   24.8468 C   0  0  0  0  0  0
  -21.4166  -29.3033   22.3693 N   0  0  0  0  0  0
  -26.4305  -37.3796   23.9407 N   0  0  0  0  0  0
  -24.6810  -31.0622   22.1053 N   0  0  0  0  0  0
  -23.4202  -28.8110   23.2959 O   0  0  0  0  0  0
  -28.3386  -26.4977   20.1241 O   0  0  0  0  0  0
  -26.5619  -34.8915   22.4672 O   0  0  0  0  0  0
  -23.5409  -32.1390   23.7465 O   0  0  0  0  0  0
  -30.5888  -18.3112   19.3440 C   0  0  0  0  0  0
  -29.0653  -19.3700   21.4037 C   0  0  0  0  0  0
  -29.9694  -17.3787   20.2229 C   0  0  0  0  0  0
  -29.2068  -17.9526   21.2805 C   0  0  0  0  0  0
  -29.6384  -20.2964   20.4929 C   0  0  0  0  0  0
  -30.4225  -19.7207   19.4523 C   0  0  0  0  0  0
  -29.0571  -24.1365   19.8927 C   0  0  0  0  0  0
  -28.1337  -25.1078   20.2152 C   0  0  0  0  0  0
  -29.8428  -15.9235   19.7680 C   0  0  0  0  0  0
  -28.4481  -17.0578   22.2483 C   0  0  0  0  0  0
  -29.4454  -22.6334   19.6073 C   0  0  0  0  0  0
  -29.1174  -15.7951   18.7414 N   0  0  0  0  0  0
  -29.3948  -21.6725   20.7047 O   0  0  0  0  0  0
  -31.0170  -20.4983   18.5184 F   0  0  0  0  0  0
  -31.4743  -12.5011   19.1396 H   0  0  0  0  0  0
  -30.3635  -11.4301   19.9582 H   0  0  0  0  0  0
  -29.7729  -11.6527   17.5169 H   0  0  0  0  0  0
  -29.6251  -13.3777   17.6866 H   0  0  0  0  0  0
  -27.8965  -11.2224   18.9412 H   0  0  0  0  0  0
  -27.3611  -12.4285   17.8045 H   0  0  0  0  0  0
  -27.5468  -14.1740   19.4147 H   0  0  0  0  0  0
  -28.7311  -12.2205   21.4574 H   0  0  0  0  0  0
  -28.4537  -13.9255   21.7171 H   0  0  0  0  0  0
  -25.2715   -9.5654   22.4779 H   0  0  0  0  0  0
  -23.9955   -7.4615   22.7480 H   0  0  0  0  0  0
  -21.0803   -8.8746   19.8964 H   0  0  0  0  0  0
  -22.3642  -10.9658   19.6180 H   0  0  0  0  0  0
  -21.1996   -7.6140   23.9697 H   0  0  0  0  0  0
  -21.1444   -6.0526   25.9067 H   0  0  0  0  0  0
  -22.0621   -2.7612   23.2845 H   0  0  0  0  0  0
  -22.4048  -11.9894   22.4796 H   0  0  0  0  0  0
  -21.1063  -13.1288   22.2616 H   0  0  0  0  0  0
  -24.6727  -15.8406   20.5098 H   0  0  0  0  0  0
  -26.2877  -15.5980   20.0647 H   0  0  0  0  0  0
  -26.7129  -32.5448   23.1097 H   0  0  0  0  0  0
  -25.0084  -33.9760   25.0451 H   0  0  0  0  0  0
  -22.7043  -31.3111   21.4247 H   0  0  0  0  0  0
  -23.3771  -35.9601   23.3329 H   0  0  0  0  0  0
  -24.3566  -36.8882   22.2035 H   0  0  0  0  0  0
  -23.7243  -37.6495   23.6649 H   0  0  0  0  0  0
  -26.0937  -31.5596   20.6197 H   0  0  0  0  0  0
  -26.8283  -30.8291   22.0203 H   0  0  0  0  0  0
  -28.1020  -28.9856   21.2141 H   0  0  0  0  0  0
  -25.9866  -25.9693   18.9534 H   0  0  0  0  0  0
  -23.9721  -27.3343   18.9812 H   0  0  0  0  0  0
  -23.7535  -30.6288   19.4186 H   0  0  0  0  0  0
  -22.7443  -29.2826   19.8442 H   0  0  0  0  0  0
  -25.1309  -36.1954   25.0834 H   0  0  0  0  0  0
  -20.9920  -28.3208   24.1393 H   0  0  0  0  0  0
  -20.5661  -26.2220   23.3588 H   0  0  0  0  0  0
  -21.6634  -26.7388   22.1194 H   0  0  0  0  0  0
  -19.6913  -25.6272   21.1200 H   0  0  0  0  0  0
  -19.6735  -27.3171   20.6718 H   0  0  0  0  0  0
  -17.4192  -26.6604   21.3988 H   0  0  0  0  0  0
  -18.0338  -26.0065   22.9007 H   0  0  0  0  0  0
  -19.7958  -30.7202   24.2249 H   0  0  0  0  0  0
  -17.5052  -31.6259   24.5108 H   0  0  0  0  0  0
  -15.5351  -30.2964   23.7719 H   0  0  0  0  0  0
  -15.8636  -28.0815   22.7075 H   0  0  0  0  0  0
  -24.5912  -30.7097   25.7826 H   0  0  0  0  0  0
  -24.8930  -32.2920   26.4894 H   0  0  0  0  0  0
  -25.8073  -30.8940   27.0267 H   0  0  0  0  0  0
  -26.2887  -29.6816   24.1204 H   0  0  0  0  0  0
  -27.4080  -29.7299   25.4639 H   0  0  0  0  0  0
  -27.8755  -30.4385   23.9370 H   0  0  0  0  0  0
  -27.2638  -33.3665   26.2069 H   0  0  0  0  0  0
  -28.3854  -32.6900   25.0329 H   0  0  0  0  0  0
  -28.0703  -31.8491   26.5436 H   0  0  0  0  0  0
  -28.2602  -38.0089   24.7510 H   0  0  0  0  0  0
  -28.1082  -36.2618   24.6328 H   0  0  0  0  0  0
  -27.2292  -37.1485   25.8870 H   0  0  0  0  0  0
  -20.9310  -29.8828   21.6989 H   0  0  0  0  0  0
  -26.0198  -38.2868   24.1437 H   0  0  0  0  0  0
  -31.1473  -17.9389   18.4973 H   0  0  0  0  0  0
  -28.4393  -19.7726   22.1883 H   0  0  0  0  0  0
  -28.2438  -23.5214   20.2457 H   0  0  0  0  0  0
  -27.1186  -24.9085   20.5573 H   0  0  0  0  0  0
  -27.9919  -17.6292   23.0589 H   0  0  0  0  0  0
  -29.1193  -16.3263   22.6991 H   0  0  0  0  0  0
  -27.6552  -16.5162   21.7274 H   0  0  0  0  0  0
  -30.4660  -22.6694   19.2260 H   0  0  0  0  0  0
  -28.8309  -22.2485   18.7873 H   0  0  0  0  0  0
  -28.7296  -16.6930   18.4813 H   0  0  0  0  0  0
  1 25  1  0  0  0
  1 30  2  0  0  0
  1 79  1  0  0  0
  2  3  1  0  0  0
  2 25  1  0  0  0
  2 85  1  0  0  0
  2 86  1  0  0  0
  3  4  1  0  0  0
  3 87  1  0  0  0
  3 88  1  0  0  0
  4  5  1  0  0  0
  4 89  1  0  0  0
  4 90  1  0  0  0
  5  6  1  0  0  0
  5 26  1  0  0  0
  5 91  1  0  0  0
  6 25  1  0  0  0
  6 92  1  0  0  0
  6 93  1  0  0  0
  7  8  2  0  0  0
  7 26  1  0  0  0
  7 29  1  0  0  0
  8  9  1  0  0  0
  8 22  1  0  0  0
  9 10  1  0  0  0
  9 27  2  0  0  0
 10 11  2  0  0  0
 10 15  1  0  0  0
 11 12  1  0  0  0
 11 94  1  0  0  0
 12 13  2  0  0  0
 12 95  1  0  0  0
 13 14  1  0  0  0
 13 31  1  0  0  0
 14 15  2  0  0  0
 14 96  1  0  0  0
 15 97  1  0  0  0
 16 17  2  0  0  0
 16 21  1  0  0  0
 16 31  1  0  0  0
 17 18  1  0  0  0
 17 98  1  0  0  0
 18 19  2  0  0  0
 18 99  1  0  0  0
 19 20  1  0  0  0
 19 24  1  0  0  0
 20 21  2  0  0  0
 20100  1  0  0  0
 21 23  1  0  0  0
 22 28  1  0  0  0
 22 32  2  0  0  0
 26 27  1  0  0  0
 28101  1  0  0  0
 28102  1  0  0  0
 29103  1  0  0  0
 29104  1  0  0  0
 33 34  1  0  0  0
 33 66  1  0  0  0
 33 70  2  0  0  0
 34 36  1  0  0  0
 34 59  1  0  0  0
 34105  1  0  0  0
 35 44  2  0  0  0
 35 45  1  0  0  0
 35 68  1  0  0  0
 36 56  1  0  0  0
 36106  1  0  0  0
 37 39  1  0  0  0
 37 47  1  0  0  0
 37 66  1  0  0  0
 37107  1  0  0  0
 38 43  2  0  0  0
 38 46  1  0  0  0
 38 47  1  0  0  0
 39 64  1  0  0  0
 39 67  2  0  0  0
 40 52  1  0  0  0
 40 53  2  0  0  0
 40 58  1  0  0  0
 41108  1  0  0  0
 41109  1  0  0  0
 41110  1  0  0  0
 41 48  1  0  0  0
 42 43  1  0  0  0
 42 66  1  0  0  0
 42111  1  0  0  0
 42112  1  0  0  0
 43 44  1  0  0  0
 44113  1  0  0  0
 45 46  2  0  0  0
 45114  1  0  0  0
 46115  1  0  0  0
 47116  1  0  0  0
 47117  1  0  0  0
 48 56  1  0  0  0
 48 65  1  0  0  0
 48118  1  0  0  0
 49 50  1  0  0  0
 49 53  1  0  0  0
 49 64  1  0  0  0
 49119  1  0  0  0
 50 51  1  0  0  0
 50120  1  0  0  0
 50121  1  0  0  0
 51 52  1  0  0  0
 51122  1  0  0  0
 51123  1  0  0  0
 52124  1  0  0  0
 52125  1  0  0  0
 53 54  1  0  0  0
 54 55  2  0  0  0
 54126  1  0  0  0
 55 57  1  0  0  0
 55127  1  0  0  0
 56 69  2  0  0  0
 57 58  2  0  0  0
 57128  1  0  0  0
 58129  1  0  0  0
 59 60  1  0  0  0
 59 61  1  0  0  0
 59 62  1  0  0  0
 60130  1  0  0  0
 60131  1  0  0  0
 60132  1  0  0  0
 61133  1  0  0  0
 61134  1  0  0  0
 61135  1  0  0  0
 62136  1  0  0  0
 62137  1  0  0  0
 62138  1  0  0  0
 63 65  1  0  0  0
 63139  1  0  0  0
 63140  1  0  0  0
 63141  1  0  0  0
 64142  1  0  0  0
 65143  1  0  0  0
 68 78  1  0  0  0
 71 73  2  0  0  0
 71 76  1  0  0  0
 71144  1  0  0  0
 72 74  2  0  0  0
 72 75  1  0  0  0
 72145  1  0  0  0
 73 74  1  0  0  0
 73 79  1  0  0  0
 74 80  1  0  0  0
 75 76  2  0  0  0
 75 83  1  0  0  0
 76 84  1  0  0  0
 77 78  2  0  0  0
 77 81  1  0  0  0
 77146  1  0  0  0
 78147  1  0  0  0
 79 82  2  0  0  0
 80148  1  0  0  0
 80149  1  0  0  0
 80150  1  0  0  0
 81 83  1  0  0  0
 81151  1  0  0  0
 81152  1  0  0  0
 82153  1  0  0  0
M  ISO  4   1 100  68 101  78 101  79 100
M  END
> <chiral flag>
0

> <version>
0

> <s_m_source_file>
/data/baiqing/PycharmProjects/Reinvent-master-3.2/result/LINK_invent/BTK/process_docking_weight1_custom_product_contain_oxygen_bond_distance_aromatic_linkinvent_7_9_3/rearranged_h_0117.sdf

> <i_m_source_file_index>
23

> <r_mmod_Potential_Energy-OPLS-2005>
564.504516601562

> <r_mmod_Stretch_Energy-OPLS-2005>
81.2699966430664

> <r_mmod_Bend_Energy-OPLS-2005>
374.285583496094

> <r_mmod_Torsional_Energy-OPLS-2005>
265.620056152344

> <r_mmod_Improper_Torsional_Energy-OPLS-2005>
26.6844692230225

> <r_mmod_Van_der_Waal_Energy-OPLS-2005>
164.206832885742

> <r_mmod_Electrostatic_Energy-OPLS-2005>
-224.751174926758

> <r_mmod_Solvation_Energy-OPLS-2005>
-193.830184936523

> <b_mmod_Minimization_Converged-OPLS-2005>
0

> <r_mmod_RMS_Derivative-OPLS-2005>
3.81262397766113

$$$$
23
                    3D
 Structure written by MMmdl.
157165  0  0  1  0            999 V2000
  -30.5963  -14.7413   20.4670 C   0  0  0  0  0  0
  -30.4390  -12.4517   19.4901 C   0  0  0  0  0  0
  -29.5221  -12.5191   18.2475 C   0  0  0  0  0  0
  -28.0451  -12.3454   18.6489 C   0  0  0  0  0  0
  -27.6493  -13.2313   19.8617 C   0  0  2  0  0  0
  -28.6874  -13.1445   21.0025 C   0  0  0  0  0  0
  -25.2540  -13.8186   20.5677 C   0  0  0  0  0  0
  -24.1821  -13.0431   20.9152 C   0  0  0  0  0  0
  -24.6402  -11.6907   20.8691 C   0  0  0  0  0  0
  -23.9073  -10.4287   21.0375 C   0  0  0  0  0  0
  -24.3625   -9.4209   21.9162 C   0  0  0  0  0  0
  -23.6293   -8.2251   22.0753 C   0  0  0  0  0  0
  -22.4267   -8.0296   21.3547 C   0  0  0  0  0  0
  -21.9898   -9.0262   20.4642 C   0  0  0  0  0  0
  -22.7242  -10.2135   20.3034 C   0  0  0  0  0  0
  -21.6860   -6.0727   22.5261 C   0  0  0  0  0  0
  -21.4026   -6.5624   23.8204 C   0  0  0  0  0  0
  -21.3658   -5.6781   24.9165 C   0  0  0  0  0  0
  -21.6043   -4.3040   24.7215 C   0  0  0  0  0  0
  -21.8823   -3.8146   23.4333 C   0  0  0  0  0  0
  -21.9197   -4.6958   22.3386 C   0  0  0  0  0  0
  -22.7844  -13.5218   21.1828 C   0  0  0  0  0  0
  -22.1676   -4.2146   21.0964 F   0  0  0  0  0  0
  -21.5619   -3.4531   25.7729 F   0  0  0  0  0  0
  -29.9969  -13.5009   20.4405 N   0  0  0  0  0  0
  -26.2974  -12.9392   20.3287 N   0  0  0  0  0  0
  -25.9336  -11.6528   20.5702 N   0  0  0  0  0  0
  -22.0488  -12.8224   22.0392 N   0  0  0  0  0  0
  -25.4259  -15.1910   20.4122 N   0  0  0  0  0  0
  -31.7440  -14.8749   20.0329 O   0  0  0  0  0  0
  -21.6651   -6.8879   21.4229 O   0  0  0  0  0  0
  -22.3526  -14.5532   20.6699 O   0  0  0  0  0  0
  -24.6326  -31.8542   23.1980 C   0  0  0  0  0  0
  -25.9163  -32.4748   23.8316 C   0  0  1  0  0  0
  -27.2118  -27.2407   20.1272 C   0  0  0  0  0  0
  -25.5953  -33.8544   24.2251 N   0  0  0  0  0  0
  -23.4299  -30.4783   21.5401 C   0  0  2  0  0  0
  -24.8777  -28.9296   20.1037 C   0  0  0  0  0  0
  -22.7532  -29.4591   22.4880 C   0  0  0  0  0  0
  -18.0296  -28.1415   22.8497 C   0  0  0  0  0  0
  -24.1484  -36.7257   23.2633 C   0  0  0  0  0  0
  -25.9788  -30.7617   21.3823 C   0  0  0  0  0  0
  -26.0490  -29.3841   20.7211 C   0  0  0  0  0  0
  -27.2192  -28.5514   20.7236 C   0  0  0  0  0  0
  -26.0202  -26.8737   19.4607 C   0  0  0  0  0  0
  -24.8702  -27.6860   19.4588 C   0  0  0  0  0  0
  -23.6497  -29.8187   20.1536 C   0  0  0  0  0  0
  -25.4113  -36.3049   24.0318 C   0  0  1  0  0  0
  -20.5908  -28.3715   23.1266 C   0  0  2  0  0  0
  -20.6783  -26.9426   22.5417 C   0  0  0  0  0  0
  -19.5743  -26.6398   21.5232 C   0  0  0  0  0  0
  -18.1925  -26.7960   22.1645 C   0  0  0  0  0  0
  -19.1561  -28.8888   23.2870 C   0  0  0  0  0  0
  -18.9477  -30.1485   23.8891 C   0  0  0  0  0  0
  -17.6474  -30.6603   24.0568 C   0  0  0  0  0  0
  -25.9062  -34.9430   23.5080 C   0  0  0  0  0  0
  -16.5363  -29.9099   23.6329 C   0  0  0  0  0  0
  -16.7280  -28.6517   23.0349 C   0  0  0  0  0  0
  -26.4527  -31.6580   25.0713 C   0  0  0  0  0  0
  -25.3747  -31.3763   26.1431 C   0  0  0  0  0  0
  -27.0378  -30.2986   24.6229 C   0  0  0  0  0  0
  -27.6073  -32.4327   25.7493 C   0  0  0  0  0  0
  -27.5580  -37.1769   24.8453 C   0  0  0  0  0  0
  -21.4238  -29.3044   22.3657 N   0  0  0  0  0  0
  -26.4275  -37.3769   23.9428 N   0  0  0  0  0  0
  -24.6994  -31.0510   22.0957 N   0  0  0  0  0  0
  -23.4247  -28.8101   23.2956 O   0  0  0  0  0  0
  -28.2865  -26.3160   20.2159 O   0  0  0  0  0  0
  -26.5621  -34.8922   22.4640 O   0  0  0  0  0  0
  -23.5475  -32.1355   23.7272 O   0  0  0  0  0  0
  -28.9502  -16.9047   18.8930 C   0  0  0  0  0  0
  -29.5064  -18.4482   20.6801 C   0  0  0  0  0  0
  -28.3083  -19.2909   18.7289 C   0  0  0  0  0  0
  -28.3344  -17.9653   18.2054 C   0  0  0  0  0  0
  -28.9606  -19.6099   19.9723 C   0  0  0  0  0  0
  -29.5137  -17.0819   20.1663 C   0  0  0  0  0  0
  -26.3995  -20.8412   18.3239 C   0  0  0  0  0  0
  -27.5434  -20.2630   17.9251 C   0  0  0  0  0  0
  -28.8837  -22.1460   19.9568 C   0  0  0  0  0  0
  -27.6119  -17.6164   16.9076 C   0  0  0  0  0  0
  -28.9515  -23.6388   20.5635 C   0  0  0  0  0  0
  -28.0644  -24.8438   19.9190 C   0  0  0  0  0  0
  -29.0252  -20.9678   20.5561 N   0  0  0  0  0  0
  -29.8702  -15.8416   20.8999 N   0  0  0  0  0  0
  -31.4824  -12.5707   19.1928 H   0  0  0  0  0  0
  -30.3818  -11.4700   19.9622 H   0  0  0  0  0  0
  -29.8053  -11.7514   17.5267 H   0  0  0  0  0  0
  -29.6538  -13.4749   17.7389 H   0  0  0  0  0  0
  -27.8912  -11.2934   18.8932 H   0  0  0  0  0  0
  -27.4001  -12.5569   17.7947 H   0  0  0  0  0  0
  -27.6462  -14.2578   19.4978 H   0  0  0  0  0  0
  -28.7164  -12.1365   21.4197 H   0  0  0  0  0  0
  -28.4128  -13.8053   21.8258 H   0  0  0  0  0  0
  -25.2762   -9.5700   22.4741 H   0  0  0  0  0  0
  -24.0002   -7.4643   22.7475 H   0  0  0  0  0  0
  -21.0833   -8.8797   19.8935 H   0  0  0  0  0  0
  -22.3699  -10.9686   19.6158 H   0  0  0  0  0  0
  -21.2031   -7.6131   23.9704 H   0  0  0  0  0  0
  -21.1473   -6.0508   25.9068 H   0  0  0  0  0  0
  -22.0600   -2.7605   23.2836 H   0  0  0  0  0  0
  -22.4103  -11.9894   22.4793 H   0  0  0  0  0  0
  -21.1106  -13.1283   22.2562 H   0  0  0  0  0  0
  -24.6649  -15.8502   20.5332 H   0  0  0  0  0  0
  -26.2814  -15.6337   20.1002 H   0  0  0  0  0  0
  -26.7228  -32.5406   23.1058 H   0  0  0  0  0  0
  -25.0144  -33.9674   25.0427 H   0  0  0  0  0  0
  -22.7247  -31.2997   21.3964 H   0  0  0  0  0  0
  -23.3759  -35.9567   23.3256 H   0  0  0  0  0  0
  -24.3571  -36.8925   22.2054 H   0  0  0  0  0  0
  -23.7241  -37.6448   23.6679 H   0  0  0  0  0  0
  -26.1234  -31.5238   20.6151 H   0  0  0  0  0  0
  -26.8546  -30.8080   22.0181 H   0  0  0  0  0  0
  -28.1127  -28.8902   21.2289 H   0  0  0  0  0  0
  -25.9384  -25.9305   18.9436 H   0  0  0  0  0  0
  -23.9786  -27.3435   18.9533 H   0  0  0  0  0  0
  -23.7812  -30.5965   19.4004 H   0  0  0  0  0  0
  -22.7676  -29.2557   19.8429 H   0  0  0  0  0  0
  -25.1290  -36.1867   25.0805 H   0  0  0  0  0  0
  -21.0005  -28.3304   24.1383 H   0  0  0  0  0  0
  -20.5715  -26.2312   23.3619 H   0  0  0  0  0  0
  -21.6637  -26.7449   22.1189 H   0  0  0  0  0  0
  -19.6872  -25.6305   21.1257 H   0  0  0  0  0  0
  -19.6674  -27.3206   20.6757 H   0  0  0  0  0  0
  -17.4199  -26.6735   21.4041 H   0  0  0  0  0  0
  -18.0281  -26.0114   22.9044 H   0  0  0  0  0  0
  -19.7953  -30.7311   24.2265 H   0  0  0  0  0  0
  -17.5017  -31.6282   24.5178 H   0  0  0  0  0  0
  -15.5362  -30.2988   23.7656 H   0  0  0  0  0  0
  -15.8684  -28.0824   22.7062 H   0  0  0  0  0  0
  -24.5904  -30.7122   25.7778 H   0  0  0  0  0  0
  -24.8964  -32.2952   26.4822 H   0  0  0  0  0  0
  -25.8062  -30.8977   27.0229 H   0  0  0  0  0  0
  -26.2971  -29.6724   24.1245 H   0  0  0  0  0  0
  -27.4033  -29.7264   25.4770 H   0  0  0  0  0  0
  -27.8851  -30.4233   23.9485 H   0  0  0  0  0  0
  -27.2672  -33.3638   26.2028 H   0  0  0  0  0  0
  -28.3907  -32.6878   25.0344 H   0  0  0  0  0  0
  -28.0695  -31.8484   26.5461 H   0  0  0  0  0  0
  -28.2550  -38.0114   24.7562 H   0  0  0  0  0  0
  -28.1135  -36.2650   24.6189 H   0  0  0  0  0  0
  -27.2302  -37.1309   25.8857 H   0  0  0  0  0  0
  -20.9432  -29.8793   21.6879 H   0  0  0  0  0  0
  -26.0130  -38.2817   24.1503 H   0  0  0  0  0  0
  -28.9078  -15.9133   18.4629 H   0  0  0  0  0  0
  -29.9150  -18.6097   21.6670 H   0  0  0  0  0  0
  -25.8851  -21.5520   17.6943 H   0  0  0  0  0  0
  -25.9629  -20.6115   19.2855 H   0  0  0  0  0  0
  -27.9551  -20.5158   16.9573 H   0  0  0  0  0  0
  -28.7494  -22.2026   18.8773 H   0  0  0  0  0  0
  -27.7658  -16.5751   16.6231 H   0  0  0  0  0  0
  -27.9594  -18.2354   16.0819 H   0  0  0  0  0  0
  -26.5379  -17.7638   17.0242 H   0  0  0  0  0  0
  -29.9969  -23.9391   20.5107 H   0  0  0  0  0  0
  -28.7186  -23.5741   21.6260 H   0  0  0  0  0  0
  -27.0429  -24.5901   20.1998 H   0  0  0  0  0  0
  -28.1082  -24.7475   18.8337 H   0  0  0  0  0  0
  -29.1671  -15.5800   21.5759 H   0  0  0  0  0  0
  1 25  1  0  0  0
  1 30  2  0  0  0
  1 84  1  0  0  0
  2  3  1  0  0  0
  2 25  1  0  0  0
  2 85  1  0  0  0
  2 86  1  0  0  0
  3  4  1  0  0  0
  3 87  1  0  0  0
  3 88  1  0  0  0
  4  5  1  0  0  0
  4 89  1  0  0  0
  4 90  1  0  0  0
  5  6  1  0  0  0
  5 26  1  0  0  0
  5 91  1  0  0  0
  6 25  1  0  0  0
  6 92  1  0  0  0
  6 93  1  0  0  0
  7  8  2  0  0  0
  7 26  1  0  0  0
  7 29  1  0  0  0
  8  9  1  0  0  0
  8 22  1  0  0  0
  9 10  1  0  0  0
  9 27  2  0  0  0
 10 11  2  0  0  0
 10 15  1  0  0  0
 11 12  1  0  0  0
 11 94  1  0  0  0
 12 13  2  0  0  0
 12 95  1  0  0  0
 13 14  1  0  0  0
 13 31  1  0  0  0
 14 15  2  0  0  0
 14 96  1  0  0  0
 15 97  1  0  0  0
 16 17  2  0  0  0
 16 21  1  0  0  0
 16 31  1  0  0  0
 17 18  1  0  0  0
 17 98  1  0  0  0
 18 19  2  0  0  0
 18 99  1  0  0  0
 19 20  1  0  0  0
 19 24  1  0  0  0
 20 21  2  0  0  0
 20100  1  0  0  0
 21 23  1  0  0  0
 22 28  1  0  0  0
 22 32  2  0  0  0
 26 27  1  0  0  0
 28101  1  0  0  0
 28102  1  0  0  0
 29103  1  0  0  0
 29104  1  0  0  0
 33 34  1  0  0  0
 33 66  1  0  0  0
 33 70  2  0  0  0
 34 36  1  0  0  0
 34 59  1  0  0  0
 34105  1  0  0  0
 35 44  2  0  0  0
 35 45  1  0  0  0
 35 68  1  0  0  0
 36 56  1  0  0  0
 36106  1  0  0  0
 37 39  1  0  0  0
 37 47  1  0  0  0
 37 66  1  0  0  0
 37107  1  0  0  0
 38 43  2  0  0  0
 38 46  1  0  0  0
 38 47  1  0  0  0
 39 64  1  0  0  0
 39 67  2  0  0  0
 40 52  1  0  0  0
 40 53  2  0  0  0
 40 58  1  0  0  0
 41108  1  0  0  0
 41109  1  0  0  0
 41110  1  0  0  0
 41 48  1  0  0  0
 42 43  1  0  0  0
 42 66  1  0  0  0
 42111  1  0  0  0
 42112  1  0  0  0
 43 44  1  0  0  0
 44113  1  0  0  0
 45 46  2  0  0  0
 45114  1  0  0  0
 46115  1  0  0  0
 47116  1  0  0  0
 47117  1  0  0  0
 48 56  1  0  0  0
 48 65  1  0  0  0
 48118  1  0  0  0
 49 50  1  0  0  0
 49 53  1  0  0  0
 49 64  1  0  0  0
 49119  1  0  0  0
 50 51  1  0  0  0
 50120  1  0  0  0
 50121  1  0  0  0
 51 52  1  0  0  0
 51122  1  0  0  0
 51123  1  0  0  0
 52124  1  0  0  0
 52125  1  0  0  0
 53 54  1  0  0  0
 54 55  2  0  0  0
 54126  1  0  0  0
 55 57  1  0  0  0
 55127  1  0  0  0
 56 69  2  0  0  0
 57 58  2  0  0  0
 57128  1  0  0  0
 58129  1  0  0  0
 59 60  1  0  0  0
 59 61  1  0  0  0
 59 62  1  0  0  0
 60130  1  0  0  0
 60131  1  0  0  0
 60132  1  0  0  0
 61133  1  0  0  0
 61134  1  0  0  0
 61135  1  0  0  0
 62136  1  0  0  0
 62137  1  0  0  0
 62138  1  0  0  0
 63 65  1  0  0  0
 63139  1  0  0  0
 63140  1  0  0  0
 63141  1  0  0  0
 64142  1  0  0  0
 65143  1  0  0  0
 68 82  1  0  0  0
 71 74  2  0  0  0
 71 76  1  0  0  0
 71144  1  0  0  0
 72 75  1  0  0  0
 72 76  2  0  0  0
 72145  1  0  0  0
 73 74  1  0  0  0
 73 75  2  0  0  0
 73 78  1  0  0  0
 74 80  1  0  0  0
 75 83  1  0  0  0
 76 84  1  0  0  0
 77 78  2  0  0  0
 77146  1  0  0  0
 77147  1  0  0  0
 78148  1  0  0  0
 79 81  1  0  0  0
 79 83  2  0  0  0
 79149  1  0  0  0
 80150  1  0  0  0
 80151  1  0  0  0
 80152  1  0  0  0
 81 82  1  0  0  0
 81153  1  0  0  0
 81154  1  0  0  0
 82155  1  0  0  0
 82156  1  0  0  0
 84157  1  0  0  0
M  ISO  4   1 100  68 101  82 101  84 100
M  END
> <chiral flag>
0

> <version>
0

> <s_m_source_file>
/data/baiqing/PycharmProjects/Reinvent-master-3.2/result/LINK_invent/BTK/process_docking_weight1_custom_product_contain_oxygen_bond_distance_aromatic_linkinvent_7_9_3/rearranged_h_0117.sdf

> <i_m_source_file_index>
24

> <r_mmod_Potential_Energy-OPLS-2005>
271.657501220703

> <r_mmod_Stretch_Energy-OPLS-2005>
145.851547241211

> <r_mmod_Bend_Energy-OPLS-2005>
181.987548828125

> <r_mmod_Torsional_Energy-OPLS-2005>
282.705078125

> <r_mmod_Improper_Torsional_Energy-OPLS-2005>
6.30879306793213

> <r_mmod_Van_der_Waal_Energy-OPLS-2005>
151.655029296875

> <r_mmod_Electrostatic_Energy-OPLS-2005>
-371.955108642578

> <r_mmod_Solvation_Energy-OPLS-2005>
-217.503509521484

> <b_mmod_Minimization_Converged-OPLS-2005>
0

> <r_mmod_RMS_Derivative-OPLS-2005>
2.92654228210449

$$$$
24
                    3D
 Structure written by MMmdl.
157165  0  0  1  0            999 V2000
  -30.6131  -14.7650   20.4830 C   0  0  0  0  0  0
  -30.4435  -12.4763   19.4689 C   0  0  0  0  0  0
  -29.5193  -12.5218   18.2329 C   0  0  0  0  0  0
  -28.0460  -12.3283   18.6489 C   0  0  0  0  0  0
  -27.6425  -13.2305   19.8469 C   0  0  2  0  0  0
  -28.6901  -13.1730   20.9813 C   0  0  0  0  0  0
  -25.2498  -13.8171   20.5682 C   0  0  0  0  0  0
  -24.1780  -13.0425   20.9176 C   0  0  0  0  0  0
  -24.6382  -11.6905   20.8705 C   0  0  0  0  0  0
  -23.9059  -10.4289   21.0387 C   0  0  0  0  0  0
  -24.3602   -9.4200   21.9168 C   0  0  0  0  0  0
  -23.6272   -8.2244   22.0763 C   0  0  0  0  0  0
  -22.4261   -8.0280   21.3545 C   0  0  0  0  0  0
  -21.9883   -9.0255   20.4660 C   0  0  0  0  0  0
  -22.7224  -10.2129   20.3049 C   0  0  0  0  0  0
  -21.6848   -6.0724   22.5270 C   0  0  0  0  0  0
  -21.4022   -6.5625   23.8206 C   0  0  0  0  0  0
  -21.3665   -5.6773   24.9162 C   0  0  0  0  0  0
  -21.6050   -4.3031   24.7214 C   0  0  0  0  0  0
  -21.8819   -3.8129   23.4330 C   0  0  0  0  0  0
  -21.9183   -4.6946   22.3387 C   0  0  0  0  0  0
  -22.7804  -13.5222   21.1820 C   0  0  0  0  0  0
  -22.1648   -4.2137   21.0955 F   0  0  0  0  0  0
  -21.5635   -3.4519   25.7724 F   0  0  0  0  0  0
  -29.9871  -13.5399   20.3931 N   0  0  0  0  0  0
  -26.2940  -12.9396   20.3249 N   0  0  0  0  0  0
  -25.9309  -11.6538   20.5700 N   0  0  0  0  0  0
  -22.0431  -12.8266   22.0400 N   0  0  0  0  0  0
  -25.4153  -15.1911   20.4135 N   0  0  0  0  0  0
  -31.8098  -14.8556   20.1958 O   0  0  0  0  0  0
  -21.6634   -6.8867   21.4240 O   0  0  0  0  0  0
  -22.3495  -14.5521   20.6655 O   0  0  0  0  0  0
  -24.6331  -31.8528   23.1954 C   0  0  0  0  0  0
  -25.9154  -32.4734   23.8315 C   0  0  1  0  0  0
  -27.2384  -27.2477   20.1426 C   0  0  0  0  0  0
  -25.5941  -33.8532   24.2254 N   0  0  0  0  0  0
  -23.4324  -30.4686   21.5395 C   0  0  2  0  0  0
  -24.8846  -28.9054   20.1185 C   0  0  0  0  0  0
  -22.7511  -29.4575   22.4931 C   0  0  0  0  0  0
  -18.0288  -28.1381   22.8477 C   0  0  0  0  0  0
  -24.1491  -36.7262   23.2639 C   0  0  0  0  0  0
  -25.9790  -30.7577   21.3796 C   0  0  0  0  0  0
  -26.0554  -29.3759   20.7291 C   0  0  0  0  0  0
  -27.2336  -28.5598   20.7288 C   0  0  0  0  0  0
  -26.0468  -26.8436   19.5047 C   0  0  0  0  0  0
  -24.8855  -27.6453   19.4967 C   0  0  0  0  0  0
  -23.6533  -29.7912   20.1610 C   0  0  0  0  0  0
  -25.4111  -36.3053   24.0327 C   0  0  1  0  0  0
  -20.5893  -28.3694   23.1261 C   0  0  2  0  0  0
  -20.6786  -26.9409   22.5405 C   0  0  0  0  0  0
  -19.5775  -26.6374   21.5203 C   0  0  0  0  0  0
  -18.1945  -26.7924   22.1606 C   0  0  0  0  0  0
  -19.1541  -28.8851   23.2863 C   0  0  0  0  0  0
  -18.9461  -30.1448   23.8882 C   0  0  0  0  0  0
  -17.6462  -30.6589   24.0539 C   0  0  0  0  0  0
  -25.9054  -34.9425   23.5094 C   0  0  0  0  0  0
  -16.5349  -29.9070   23.6342 C   0  0  0  0  0  0
  -16.7268  -28.6484   23.0362 C   0  0  0  0  0  0
  -26.4529  -31.6565   25.0701 C   0  0  0  0  0  0
  -25.3747  -31.3709   26.1409 C   0  0  0  0  0  0
  -27.0385  -30.2984   24.6205 C   0  0  0  0  0  0
  -27.6082  -32.4312   25.7461 C   0  0  0  0  0  0
  -27.5590  -37.1773   24.8464 C   0  0  0  0  0  0
  -21.4218  -29.3033   22.3656 N   0  0  0  0  0  0
  -26.4293  -37.3753   23.9416 N   0  0  0  0  0  0
  -24.7000  -31.0460   22.0941 N   0  0  0  0  0  0
  -23.4185  -28.8142   23.3074 O   0  0  0  0  0  0
  -28.3404  -26.3580   20.1450 O   0  0  0  0  0  0
  -26.5621  -34.8917   22.4659 O   0  0  0  0  0  0
  -23.5473  -32.1355   23.7240 O   0  0  0  0  0  0
  -29.6213  -18.4432   20.4468 C   0  0  0  0  0  0
  -30.2057  -17.2856   20.9751 C   0  0  0  0  0  0
  -31.1774  -17.4807   22.0630 C   0  0  0  0  0  0
  -30.9603  -19.9702   21.7583 C   0  0  0  0  0  0
  -28.1867  -24.9811   20.5181 C   0  0  0  0  0  0
  -29.0689  -23.9210   20.3136 C   0  0  0  0  0  0
  -30.3626  -24.1556   19.5538 C   0  0  0  0  0  0
  -32.4254  -19.0545   23.4852 C   0  0  0  0  0  0
  -28.9179  -22.4242   20.8860 C   0  0  0  0  0  0
  -29.4618  -21.0815   20.1063 C   0  0  0  0  0  0
  -29.9348  -19.7999   20.8025 N   0  0  0  0  0  0
  -31.4830  -18.8223   22.3975 N   0  0  0  0  0  0
  -29.8275  -15.9023   20.6642 N   0  0  0  0  0  0
  -31.6959  -16.5469   22.6867 O   0  0  0  0  0  0
  -31.4060  -21.0882   22.0233 O   0  0  0  0  0  0
  -31.4854  -12.6087   19.1684 H   0  0  0  0  0  0
  -30.3946  -11.5013   19.9568 H   0  0  0  0  0  0
  -29.8156  -11.7610   17.5101 H   0  0  0  0  0  0
  -29.6307  -13.4836   17.7296 H   0  0  0  0  0  0
  -27.9156  -11.2806   18.9185 H   0  0  0  0  0  0
  -27.3856  -12.5063   17.7997 H   0  0  0  0  0  0
  -27.6362  -14.2497   19.4614 H   0  0  0  0  0  0
  -28.7335  -12.1757   21.4205 H   0  0  0  0  0  0
  -28.4225  -13.8495   21.7943 H   0  0  0  0  0  0
  -25.2762   -9.5674   22.4735 H   0  0  0  0  0  0
  -23.9976   -7.4637   22.7486 H   0  0  0  0  0  0
  -21.0814   -8.8778   19.8970 H   0  0  0  0  0  0
  -22.3678  -10.9665   19.6154 H   0  0  0  0  0  0
  -21.2041   -7.6140   23.9707 H   0  0  0  0  0  0
  -21.1483   -6.0500   25.9063 H   0  0  0  0  0  0
  -22.0596   -2.7608   23.2819 H   0  0  0  0  0  0
  -22.4005  -11.9971   22.4878 H   0  0  0  0  0  0
  -21.1061  -13.1343   22.2571 H   0  0  0  0  0  0
  -24.6437  -15.8365   20.5396 H   0  0  0  0  0  0
  -26.2582  -15.6448   20.0888 H   0  0  0  0  0  0
  -26.7208  -32.5390   23.1044 H   0  0  0  0  0  0
  -25.0141  -33.9665   25.0439 H   0  0  0  0  0  0
  -22.7306  -31.2908   21.3874 H   0  0  0  0  0  0
  -23.3776  -35.9581   23.3284 H   0  0  0  0  0  0
  -24.3599  -36.8896   22.2067 H   0  0  0  0  0  0
  -23.7239  -37.6452   23.6667 H   0  0  0  0  0  0
  -26.1219  -31.5147   20.6072 H   0  0  0  0  0  0
  -26.8547  -30.8076   22.0147 H   0  0  0  0  0  0
  -28.1324  -28.9199   21.2106 H   0  0  0  0  0  0
  -26.0107  -25.8782   19.0212 H   0  0  0  0  0  0
  -23.9919  -27.2752   19.0127 H   0  0  0  0  0  0
  -23.7726  -30.5593   19.3975 H   0  0  0  0  0  0
  -22.7745  -29.2161   19.8656 H   0  0  0  0  0  0
  -25.1306  -36.1899   25.0824 H   0  0  0  0  0  0
  -20.9964  -28.3273   24.1391 H   0  0  0  0  0  0
  -20.5687  -26.2297   23.3604 H   0  0  0  0  0  0
  -21.6655  -26.7454   22.1197 H   0  0  0  0  0  0
  -19.6940  -25.6280   21.1247 H   0  0  0  0  0  0
  -19.6725  -27.3169   20.6719 H   0  0  0  0  0  0
  -17.4222  -26.6659   21.3998 H   0  0  0  0  0  0
  -18.0345  -26.0066   22.9002 H   0  0  0  0  0  0
  -19.7924  -30.7262   24.2259 H   0  0  0  0  0  0
  -17.5009  -31.6269   24.5126 H   0  0  0  0  0  0
  -15.5349  -30.2954   23.7688 H   0  0  0  0  0  0
  -15.8663  -28.0783   22.7114 H   0  0  0  0  0  0
  -24.5924  -30.7066   25.7731 H   0  0  0  0  0  0
  -24.8927  -32.2864   26.4841 H   0  0  0  0  0  0
  -25.8050  -30.8879   27.0187 H   0  0  0  0  0  0
  -26.2971  -29.6694   24.1264 H   0  0  0  0  0  0
  -27.4113  -29.7291   25.4732 H   0  0  0  0  0  0
  -27.8833  -30.4268   23.9432 H   0  0  0  0  0  0
  -27.2712  -33.3634   26.2010 H   0  0  0  0  0  0
  -28.3895  -32.6834   25.0276 H   0  0  0  0  0  0
  -28.0748  -31.8450   26.5389 H   0  0  0  0  0  0
  -28.2589  -38.0091   24.7544 H   0  0  0  0  0  0
  -28.1110  -36.2622   24.6251 H   0  0  0  0  0  0
  -27.2307  -37.1378   25.8866 H   0  0  0  0  0  0
  -20.9419  -29.8693   21.6799 H   0  0  0  0  0  0
  -26.0175  -38.2834   24.1409 H   0  0  0  0  0  0
  -28.8676  -18.3055   19.6859 H   0  0  0  0  0  0
  -27.2616  -24.8298   21.0578 H   0  0  0  0  0  0
  -30.5044  -25.2118   19.3204 H   0  0  0  0  0  0
  -30.3637  -23.6032   18.6144 H   0  0  0  0  0  0
  -31.2165  -23.8281   20.1469 H   0  0  0  0  0  0
  -32.4293  -18.2125   24.1792 H   0  0  0  0  0  0
  -32.1138  -19.9376   24.0474 H   0  0  0  0  0  0
  -33.4102  -19.2018   23.0382 H   0  0  0  0  0  0
  -27.8705  -22.2670   21.1476 H   0  0  0  0  0  0
  -29.4202  -22.4866   21.8496 H   0  0  0  0  0  0
  -30.3163  -21.3497   19.4853 H   0  0  0  0  0  0
  -28.6920  -20.7407   19.4139 H   0  0  0  0  0  0
  -28.8335  -15.7373   20.6494 H   0  0  0  0  0  0
  1 25  1  0  0  0
  1 30  2  0  0  0
  1 83  1  0  0  0
  2  3  1  0  0  0
  2 25  1  0  0  0
  2 86  1  0  0  0
  2 87  1  0  0  0
  3  4  1  0  0  0
  3 88  1  0  0  0
  3 89  1  0  0  0
  4  5  1  0  0  0
  4 90  1  0  0  0
  4 91  1  0  0  0
  5  6  1  0  0  0
  5 26  1  0  0  0
  5 92  1  0  0  0
  6 25  1  0  0  0
  6 93  1  0  0  0
  6 94  1  0  0  0
  7  8  2  0  0  0
  7 26  1  0  0  0
  7 29  1  0  0  0
  8  9  1  0  0  0
  8 22  1  0  0  0
  9 10  1  0  0  0
  9 27  2  0  0  0
 10 11  2  0  0  0
 10 15  1  0  0  0
 11 12  1  0  0  0
 11 95  1  0  0  0
 12 13  2  0  0  0
 12 96  1  0  0  0
 13 14  1  0  0  0
 13 31  1  0  0  0
 14 15  2  0  0  0
 14 97  1  0  0  0
 15 98  1  0  0  0
 16 17  2  0  0  0
 16 21  1  0  0  0
 16 31  1  0  0  0
 17 18  1  0  0  0
 17 99  1  0  0  0
 18 19  2  0  0  0
 18100  1  0  0  0
 19 20  1  0  0  0
 19 24  1  0  0  0
 20 21  2  0  0  0
 20101  1  0  0  0
 21 23  1  0  0  0
 22 28  1  0  0  0
 22 32  2  0  0  0
 26 27  1  0  0  0
 28102  1  0  0  0
 28103  1  0  0  0
 29104  1  0  0  0
 29105  1  0  0  0
 33 34  1  0  0  0
 33 66  1  0  0  0
 33 70  2  0  0  0
 34 36  1  0  0  0
 34 59  1  0  0  0
 34106  1  0  0  0
 35 44  2  0  0  0
 35 45  1  0  0  0
 35 68  1  0  0  0
 36 56  1  0  0  0
 36107  1  0  0  0
 37 39  1  0  0  0
 37 47  1  0  0  0
 37 66  1  0  0  0
 37108  1  0  0  0
 38 43  2  0  0  0
 38 46  1  0  0  0
 38 47  1  0  0  0
 39 64  1  0  0  0
 39 67  2  0  0  0
 40 52  1  0  0  0
 40 53  2  0  0  0
 40 58  1  0  0  0
 41109  1  0  0  0
 41110  1  0  0  0
 41111  1  0  0  0
 41 48  1  0  0  0
 42 43  1  0  0  0
 42 66  1  0  0  0
 42112  1  0  0  0
 42113  1  0  0  0
 43 44  1  0  0  0
 44114  1  0  0  0
 45 46  2  0  0  0
 45115  1  0  0  0
 46116  1  0  0  0
 47117  1  0  0  0
 47118  1  0  0  0
 48 56  1  0  0  0
 48 65  1  0  0  0
 48119  1  0  0  0
 49 50  1  0  0  0
 49 53  1  0  0  0
 49 64  1  0  0  0
 49120  1  0  0  0
 50 51  1  0  0  0
 50121  1  0  0  0
 50122  1  0  0  0
 51 52  1  0  0  0
 51123  1  0  0  0
 51124  1  0  0  0
 52125  1  0  0  0
 52126  1  0  0  0
 53 54  1  0  0  0
 54 55  2  0  0  0
 54127  1  0  0  0
 55 57  1  0  0  0
 55128  1  0  0  0
 56 69  2  0  0  0
 57 58  2  0  0  0
 57129  1  0  0  0
 58130  1  0  0  0
 59 60  1  0  0  0
 59 61  1  0  0  0
 59 62  1  0  0  0
 60131  1  0  0  0
 60132  1  0  0  0
 60133  1  0  0  0
 61134  1  0  0  0
 61135  1  0  0  0
 61136  1  0  0  0
 62137  1  0  0  0
 62138  1  0  0  0
 62139  1  0  0  0
 63 65  1  0  0  0
 63140  1  0  0  0
 63141  1  0  0  0
 63142  1  0  0  0
 64143  1  0  0  0
 65144  1  0  0  0
 68 75  1  0  0  0
 71 72  2  0  0  0
 71 81  1  0  0  0
 71145  1  0  0  0
 72 73  1  0  0  0
 72 83  1  0  0  0
 73 82  1  0  0  0
 73 84  2  0  0  0
 74 81  1  0  0  0
 74 82  1  0  0  0
 74 85  2  0  0  0
 75 76  2  0  0  0
 75146  1  0  0  0
 76 77  1  0  0  0
 76 79  1  0  0  0
 77147  1  0  0  0
 77148  1  0  0  0
 77149  1  0  0  0
 78 82  1  0  0  0
 78150  1  0  0  0
 78151  1  0  0  0
 78152  1  0  0  0
 79 80  1  0  0  0
 79153  1  0  0  0
 79154  1  0  0  0
 80 81  1  0  0  0
 80155  1  0  0  0
 80156  1  0  0  0
 83157  1  0  0  0
M  ISO  4   1 100  68 101  75 101  83 100
M  END
> <chiral flag>
0

> <version>
0

> <s_m_source_file>
/data/baiqing/PycharmProjects/Reinvent-master-3.2/result/LINK_invent/BTK/process_docking_weight1_custom_product_contain_oxygen_bond_distance_aromatic_linkinvent_7_9_3/rearranged_h_0117.sdf

> <i_m_source_file_index>
25

> <r_mmod_Potential_Energy-OPLS-2005>
71.9781723022461

> <r_mmod_Stretch_Energy-OPLS-2005>
152.248413085938

> <r_mmod_Bend_Energy-OPLS-2005>
170.166381835938

> <r_mmod_Torsional_Energy-OPLS-2005>
222.329940795898

> <r_mmod_Improper_Torsional_Energy-OPLS-2005>
6.30155372619629

> <r_mmod_Van_der_Waal_Energy-OPLS-2005>
165.988662719727

> <r_mmod_Electrostatic_Energy-OPLS-2005>
-509.706237792969

> <r_mmod_Solvation_Energy-OPLS-2005>
-227.877029418945

> <b_mmod_Minimization_Converged-OPLS-2005>
0

> <r_mmod_RMS_Derivative-OPLS-2005>
3.19935846328735

$$$$
25
                    3D
 Structure written by MMmdl.
165173  0  0  1  0            999 V2000
  -27.1997  -17.6933   21.1177 C   0  0  0  0  0  0
  -29.1990  -15.1077   19.9584 C   0  0  0  0  0  0
  -29.2425  -13.7693   18.8938 C   0  0  0  0  0  0
  -28.2526  -12.6568   19.2111 C   0  0  0  0  0  0
  -27.2764  -13.5083   19.9924 C   0  0  2  0  0  0
  -27.7141  -14.4476   21.2107 C   0  0  0  0  0  0
  -24.9897  -13.8097   20.5264 C   0  0  0  0  0  0
  -24.0101  -12.9921   20.9280 C   0  0  0  0  0  0
  -24.5476  -11.6655   20.8892 C   0  0  0  0  0  0
  -23.8634  -10.3966   21.0496 C   0  0  0  0  0  0
  -24.3390   -9.3999   21.9245 C   0  0  0  0  0  0
  -23.6161   -8.2004   22.0754 C   0  0  0  0  0  0
  -22.4159   -8.0033   21.3520 C   0  0  0  0  0  0
  -21.9706   -8.9919   20.4602 C   0  0  0  0  0  0
  -22.6918  -10.1810   20.3042 C   0  0  0  0  0  0
  -21.6778   -6.0610   22.5299 C   0  0  0  0  0  0
  -21.3962   -6.5563   23.8216 C   0  0  0  0  0  0
  -21.3654   -5.6746   24.9200 C   0  0  0  0  0  0
  -21.6051   -4.3007   24.7264 C   0  0  0  0  0  0
  -21.8826   -3.8066   23.4394 C   0  0  0  0  0  0
  -21.9167   -4.6858   22.3436 C   0  0  0  0  0  0
  -22.6301  -13.4592   21.2135 C   0  0  0  0  0  0
  -22.1649   -4.2052   21.1012 F   0  0  0  0  0  0
  -21.5649   -3.4514   25.7789 F   0  0  0  0  0  0
  -27.8249  -15.9703   20.7521 N   0  0  0  0  0  0
  -26.0528  -12.9742   20.3282 N   0  0  0  0  0  0
  -25.8389  -11.6703   20.5840 N   0  0  0  0  0  0
  -21.9322  -12.7618   22.0935 N   0  0  0  0  0  0
  -25.0637  -15.1898   20.3162 N   0  0  0  0  0  0
  -28.5590  -17.6393   20.9128 O   0  0  0  0  0  0
  -21.6529   -6.8674   21.4237 O   0  0  0  0  0  0
  -22.1977  -14.4951   20.7074 O   0  0  0  0  0  0
  -24.6649  -32.0817   23.0177 C   0  0  0  0  0  0
  -25.9450  -32.5564   23.7910 C   0  0  1  0  0  0
  -26.7406  -27.4543   20.7926 C   0  0  0  0  0  0
  -25.6252  -33.9106   24.2249 N   0  0  0  0  0  0
  -23.5436  -30.7323   21.1716 C   0  0  2  0  0  0
  -25.0269  -29.2523   19.7290 C   0  0  0  0  0  0
  -23.5266  -29.4668   21.9333 C   0  0  0  0  0  0
  -19.0218  -25.6603   22.3706 C   0  0  0  0  0  0
  -24.1473  -36.7574   23.2582 C   0  0  0  0  0  0
  -26.0357  -31.1324   21.1024 C   0  0  0  0  0  0
  -26.1056  -29.7168   20.5083 C   0  0  0  0  0  0
  -27.0791  -28.8049   20.9353 C   0  0  0  0  0  0
  -25.9874  -27.0268   19.6837 C   0  0  0  0  0  0
  -25.0126  -27.9282   19.2311 C   0  0  0  0  0  0
  -23.7974  -30.1670   19.7395 C   0  0  0  0  0  0
  -25.4095  -36.3447   24.0337 C   0  0  1  0  0  0
  -22.6705  -26.9045   22.3085 C   0  0  2  0  0  0
  -22.0586  -26.7905   20.4996 C   0  0  0  0  0  0
  -20.3200  -26.4624   19.9373 C   0  0  0  0  0  0
  -18.9357  -25.9135   20.8166 C   0  0  0  0  0  0
  -21.1575  -26.3088   23.8641 C   0  0  0  0  0  0
  -20.2924  -27.3980   25.2958 C   0  0  0  0  0  0
  -18.6327  -27.9755   25.3233 C   0  0  0  0  0  0
  -25.9161  -34.9951   23.5043 C   0  0  0  0  0  0
  -17.3944  -27.5348   24.3079 C   0  0  0  0  0  0
  -17.5096  -26.4434   23.0334 C   0  0  0  0  0  0
  -26.4300  -31.7002   25.0423 C   0  0  0  0  0  0
  -25.3287  -31.4215   26.0917 C   0  0  0  0  0  0
  -27.0353  -30.3444   24.6221 C   0  0  0  0  0  0
  -27.5850  -32.4500   25.7533 C   0  0  0  0  0  0
  -27.5617  -37.1930   24.8445 C   0  0  0  0  0  0
  -22.9071  -28.3267   21.6056 N   0  0  0  0  0  0
  -26.4261  -37.4136   23.9532 N   0  0  0  0  0  0
  -24.7421  -31.4775   21.7642 N   0  0  0  0  0  0
  -24.2573  -29.4708   22.8694 O   0  0  0  0  0  0
  -26.4107  -26.7706   21.9696 O   0  0  0  0  0  0
  -26.5556  -34.9439   22.4498 O   0  0  0  0  0  0
  -23.5741  -32.2219   23.6000 O   0  0  0  0  0  0
  -21.2704  -25.0627   21.9276 C   0  0  0  0  0  0
  -19.5104  -27.5823   23.1893 C   0  0  0  0  0  0
  -21.9825  -23.3773   22.6177 C   0  0  0  0  0  0
  -20.5774  -23.9432   23.8478 C   0  0  0  0  0  0
  -20.4831  -27.4049   22.1210 C   0  0  0  0  0  0
  -19.3085  -25.3917   24.4899 C   0  0  0  0  0  0
  -23.8695  -21.0954   22.1162 C   0  0  0  0  0  0
  -25.4977  -19.6599   21.5928 C   0  0  0  0  0  0
  -22.3021  -28.6497   24.2012 C   0  0  0  0  0  0
  -20.2756  -23.0872   26.3242 C   0  0  0  0  0  0
  -23.8427  -26.3114   25.2078 C   0  0  0  0  0  0
  -17.3091  -24.4088   25.3069 C   0  0  0  0  0  0
  -20.5287  -22.7650   24.8356 C   0  0  0  0  0  0
  -25.5660  -27.3709   23.3086 C   0  0  0  0  0  0
  -23.9505  -27.6028   24.3560 C   0  0  1  0  0  0
  -21.1317  -28.6488   23.2074 N   0  0  0  0  0  0
  -18.4688  -25.1883   25.5701 O   0  0  0  0  0  0
  -29.6337  -15.8978   19.3462 H   0  0  0  0  0  0
  -30.0002  -14.9643   20.6924 H   0  0  0  0  0  0
  -30.2529  -13.3656   18.8132 H   0  0  0  0  0  0
  -29.0107  -14.1460   17.8958 H   0  0  0  0  0  0
  -28.6889  -11.8799   19.8421 H   0  0  0  0  0  0
  -27.8187  -12.1982   18.3213 H   0  0  0  0  0  0
  -26.9753  -14.1848   19.1830 H   0  0  0  0  0  0
  -28.5276  -14.0094   21.8096 H   0  0  0  0  0  0
  -26.9468  -14.4717   21.9880 H   0  0  0  0  0  0
  -25.2507   -9.5593   22.4846 H   0  0  0  0  0  0
  -23.9897   -7.4387   22.7461 H   0  0  0  0  0  0
  -21.0656   -8.8349   19.8888 H   0  0  0  0  0  0
  -22.3336  -10.9343   19.6154 H   0  0  0  0  0  0
  -21.1934   -7.6073   23.9684 H   0  0  0  0  0  0
  -21.1493   -6.0495   25.9098 H   0  0  0  0  0  0
  -22.0623   -2.7530   23.2918 H   0  0  0  0  0  0
  -22.3143  -11.9312   22.5213 H   0  0  0  0  0  0
  -21.0004  -13.0587   22.3473 H   0  0  0  0  0  0
  -24.2598  -15.8078   20.3595 H   0  0  0  0  0  0
  -25.8894  -15.6100   19.9091 H   0  0  0  0  0  0
  -26.8017  -32.6379   23.1292 H   0  0  0  0  0  0
  -25.0420  -34.0042   25.0420 H   0  0  0  0  0  0
  -22.6049  -31.2843   21.2624 H   0  0  0  0  0  0
  -23.3801  -35.9828   23.3155 H   0  0  0  0  0  0
  -24.3612  -36.9277   22.2017 H   0  0  0  0  0  0
  -23.7095  -37.6725   23.6593 H   0  0  0  0  0  0
  -26.1899  -31.8479   20.2914 H   0  0  0  0  0  0
  -26.9224  -31.2495   21.7084 H   0  0  0  0  0  0
  -27.7567  -29.1170   21.7166 H   0  0  0  0  0  0
  -25.8375  -25.9760   19.4807 H   0  0  0  0  0  0
  -24.2212  -27.5740   18.5888 H   0  0  0  0  0  0
  -23.9666  -30.9854   19.0420 H   0  0  0  0  0  0
  -22.9257  -29.6421   19.3435 H   0  0  0  0  0  0
  -25.1205  -36.2246   25.0809 H   0  0  0  0  0  0
  -23.5558  -26.2640   22.3377 H   0  0  0  0  0  0
  -22.6620  -25.9733   20.0892 H   0  0  0  0  0  0
  -22.4214  -27.4787   19.7264 H   0  0  0  0  0  0
  -20.3723  -25.8352   19.0458 H   0  0  0  0  0  0
  -19.9945  -27.4303   19.5227 H   0  0  0  0  0  0
  -18.1547  -26.6575   20.6669 H   0  0  0  0  0  0
  -18.5223  -25.0187   20.3423 H   0  0  0  0  0  0
  -20.9010  -27.7681   26.1055 H   0  0  0  0  0  0
  -18.3695  -28.6352   26.1434 H   0  0  0  0  0  0
  -16.4157  -27.9474   24.5171 H   0  0  0  0  0  0
  -16.6070  -26.3282   22.4524 H   0  0  0  0  0  0
  -25.7030  -30.8105   26.9144 H   0  0  0  0  0  0
  -24.4858  -30.8844   25.6581 H   0  0  0  0  0  0
  -24.9421  -32.3443   26.5257 H   0  0  0  0  0  0
  -26.4877  -29.5145   25.0640 H   0  0  0  0  0  0
  -28.0635  -30.2171   24.9631 H   0  0  0  0  0  0
  -27.0541  -30.2156   23.5489 H   0  0  0  0  0  0
  -27.2798  -33.4121   26.1624 H   0  0  0  0  0  0
  -28.4135  -32.6398   25.0679 H   0  0  0  0  0  0
  -27.9802  -31.8726   26.5904 H   0  0  0  0  0  0
  -28.2536  -38.0335   24.7792 H   0  0  0  0  0  0
  -28.1204  -36.2927   24.5854 H   0  0  0  0  0  0
  -27.2397  -37.1109   25.8837 H   0  0  0  0  0  0
  -22.3078  -28.4393   20.8068 H   0  0  0  0  0  0
  -26.0185  -38.3176   24.1757 H   0  0  0  0  0  0
  -21.4098  -24.6571   20.9338 H   0  0  0  0  0  0
  -19.0103  -28.5682   23.1578 H   0  0  0  0  0  0
  -23.2030  -20.3401   22.5061 H   0  0  0  0  0  0
  -26.1781  -20.4042   21.2048 H   0  0  0  0  0  0
  -22.3441  -29.4805   24.9127 H   0  0  0  0  0  0
  -20.6662  -22.3076   26.9815 H   0  0  0  0  0  0
  -19.2137  -23.1220   26.5520 H   0  0  0  0  0  0
  -20.7281  -24.0321   26.6367 H   0  0  0  0  0  0
  -24.1527  -25.4417   24.6273 H   0  0  0  0  0  0
  -22.8671  -26.0883   25.6356 H   0  0  0  0  0  0
  -24.5372  -26.3521   26.0482 H   0  0  0  0  0  0
  -17.0847  -23.7654   26.1572 H   0  0  0  0  0  0
  -17.4094  -23.7824   24.4207 H   0  0  0  0  0  0
  -16.4426  -25.0576   25.1742 H   0  0  0  0  0  0
  -21.4941  -22.2622   24.7958 H   0  0  0  0  0  0
  -19.7975  -22.0326   24.4931 H   0  0  0  0  0  0
  -26.1119  -26.7736   24.0338 H   0  0  0  0  0  0
  -26.1288  -28.2799   23.4042 H   0  0  0  0  0  0
  -24.4024  -28.2398   25.1179 H   0  0  0  0  0  0
  1 25  1  0  0  0
  1 30  2  0  0  0
  1 78  1  0  0  0
  2  3  1  0  0  0
  2 25  1  0  0  0
  2 88  1  0  0  0
  2 89  1  0  0  0
  3  4  1  0  0  0
  3 90  1  0  0  0
  3 91  1  0  0  0
  4  5  1  0  0  0
  4 92  1  0  0  0
  4 93  1  0  0  0
  5  6  1  0  0  0
  5 26  1  0  0  0
  5 94  1  0  0  0
  6 25  1  0  0  0
  6 95  1  0  0  0
  6 96  1  0  0  0
  7  8  2  0  0  0
  7 26  1  0  0  0
  7 29  1  0  0  0
  8  9  1  0  0  0
  8 22  1  0  0  0
  9 10  1  0  0  0
  9 27  2  0  0  0
 10 11  2  0  0  0
 10 15  1  0  0  0
 11 12  1  0  0  0
 11 97  1  0  0  0
 12 13  2  0  0  0
 12 98  1  0  0  0
 13 14  1  0  0  0
 13 31  1  0  0  0
 14 15  2  0  0  0
 14 99  1  0  0  0
 15100  1  0  0  0
 16 17  2  0  0  0
 16 21  1  0  0  0
 16 31  1  0  0  0
 17 18  1  0  0  0
 17101  1  0  0  0
 18 19  2  0  0  0
 18102  1  0  0  0
 19 20  1  0  0  0
 19 24  1  0  0  0
 20 21  2  0  0  0
 20103  1  0  0  0
 21 23  1  0  0  0
 22 28  1  0  0  0
 22 32  2  0  0  0
 26 27  1  0  0  0
 28104  1  0  0  0
 28105  1  0  0  0
 29106  1  0  0  0
 29107  1  0  0  0
 33 34  1  0  0  0
 33 66  1  0  0  0
 33 70  2  0  0  0
 34 36  1  0  0  0
 34 59  1  0  0  0
 34108  1  0  0  0
 35 44  2  0  0  0
 35 45  1  0  0  0
 35 68  1  0  0  0
 36 56  1  0  0  0
 36109  1  0  0  0
 37 39  1  0  0  0
 37 47  1  0  0  0
 37 66  1  0  0  0
 37110  1  0  0  0
 38 43  2  0  0  0
 38 46  1  0  0  0
 38 47  1  0  0  0
 39 64  1  0  0  0
 39 67  2  0  0  0
 40 52  1  0  0  0
 40 53  2  0  0  0
 40 58  1  0  0  0
 41111  1  0  0  0
 41112  1  0  0  0
 41113  1  0  0  0
 41 48  1  0  0  0
 42 43  1  0  0  0
 42 66  1  0  0  0
 42114  1  0  0  0
 42115  1  0  0  0
 43 44  1  0  0  0
 44116  1  0  0  0
 45 46  2  0  0  0
 45117  1  0  0  0
 46118  1  0  0  0
 47119  1  0  0  0
 47120  1  0  0  0
 48 56  1  0  0  0
 48 65  1  0  0  0
 48121  1  0  0  0
 49 50  1  0  0  0
 49 53  1  0  0  0
 49 64  1  0  0  0
 49122  1  0  0  0
 50 51  1  0  0  0
 50123  1  0  0  0
 50124  1  0  0  0
 51 52  1  0  0  0
 51125  1  0  0  0
 51126  1  0  0  0
 52127  1  0  0  0
 52128  1  0  0  0
 53 54  1  0  0  0
 54 55  2  0  0  0
 54129  1  0  0  0
 55 57  1  0  0  0
 55130  1  0  0  0
 56 69  2  0  0  0
 57 58  2  0  0  0
 57131  1  0  0  0
 58132  1  0  0  0
 59 60  1  0  0  0
 59 61  1  0  0  0
 59 62  1  0  0  0
 60133  1  0  0  0
 60134  1  0  0  0
 60135  1  0  0  0
 61136  1  0  0  0
 61137  1  0  0  0
 61138  1  0  0  0
 62139  1  0  0  0
 62140  1  0  0  0
 62141  1  0  0  0
 63 65  1  0  0  0
 63142  1  0  0  0
 63143  1  0  0  0
 63144  1  0  0  0
 64145  1  0  0  0
 65146  1  0  0  0
 68 84  1  0  0  0
 71 73  2  0  0  0
 71 75  1  0  0  0
 71147  1  0  0  0
 72 75  2  0  0  0
 72 76  1  0  0  0
 72148  1  0  0  0
 73 74  1  0  0  0
 73 77  1  0  0  0
 74 76  2  0  0  0
 74 83  1  0  0  0
 75 86  1  0  0  0
 76 87  1  0  0  0
 77 78  2  0  0  0
 77149  1  0  0  0
 78150  1  0  0  0
 79 85  1  0  0  0
 79 86  2  0  0  0
 79151  1  0  0  0
 80 83  1  0  0  0
 80152  1  0  0  0
 80153  1  0  0  0
 80154  1  0  0  0
 81155  1  0  0  0
 81156  1  0  0  0
 81157  1  0  0  0
 81 85  1  0  0  0
 82 87  1  0  0  0
 82158  1  0  0  0
 82159  1  0  0  0
 82160  1  0  0  0
 83161  1  0  0  0
 83162  1  0  0  0
 84 85  1  0  0  0
 84163  1  0  0  0
 84164  1  0  0  0
 85165  1  0  0  0
M  ISO  4   1 100  68 101  78 100  84 101
M  END
> <chiral flag>
0

> <version>
0

> <s_m_source_file>
/data/baiqing/PycharmProjects/Reinvent-master-3.2/result/LINK_invent/BTK/process_docking_weight1_custom_product_contain_oxygen_bond_distance_aromatic_linkinvent_7_9_3/rearranged_h_0117.sdf

> <i_m_source_file_index>
26

> <r_mmod_Potential_Energy-OPLS-2005>
47448.66796875

> <r_mmod_Stretch_Energy-OPLS-2005>
22199.787109375

> <r_mmod_Bend_Energy-OPLS-2005>
2958.34252929688

> <r_mmod_Torsional_Energy-OPLS-2005>
764.610656738281

> <r_mmod_Improper_Torsional_Energy-OPLS-2005>
104.09024810791

> <r_mmod_Van_der_Waal_Energy-OPLS-2005>
5841.80126953125

> <r_mmod_Electrostatic_Energy-OPLS-2005>
-325.520812988281

> <r_mmod_Solvation_Energy-OPLS-2005>
-187.168930053711

> <b_mmod_Minimization_Converged-OPLS-2005>
0

> <r_mmod_RMS_Derivative-OPLS-2005>
17.5718402862549

$$$$
26
                    3D
 Structure written by MMmdl.
152160  0  0  1  0            999 V2000
  -30.6855  -14.7395   20.5412 C   0  0  0  0  0  0
  -30.4409  -12.4666   19.5013 C   0  0  0  0  0  0
  -29.5162  -12.4999   18.2640 C   0  0  0  0  0  0
  -28.0496  -12.3130   18.6847 C   0  0  0  0  0  0
  -27.6554  -13.2332   19.8698 C   0  0  2  0  0  0
  -28.6981  -13.1731   21.0139 C   0  0  0  0  0  0
  -25.2458  -13.8151   20.5453 C   0  0  0  0  0  0
  -24.1792  -13.0409   20.9132 C   0  0  0  0  0  0
  -24.6424  -11.6907   20.8782 C   0  0  0  0  0  0
  -23.9085  -10.4279   21.0427 C   0  0  0  0  0  0
  -24.3621   -9.4190   21.9208 C   0  0  0  0  0  0
  -23.6278   -8.2235   22.0777 C   0  0  0  0  0  0
  -22.4268   -8.0280   21.3553 C   0  0  0  0  0  0
  -21.9916   -9.0251   20.4654 C   0  0  0  0  0  0
  -22.7259  -10.2125   20.3066 C   0  0  0  0  0  0
  -21.6844   -6.0718   22.5265 C   0  0  0  0  0  0
  -21.4009   -6.5627   23.8196 C   0  0  0  0  0  0
  -21.3647   -5.6785   24.9164 C   0  0  0  0  0  0
  -21.6033   -4.3044   24.7216 C   0  0  0  0  0  0
  -21.8828   -3.8134   23.4342 C   0  0  0  0  0  0
  -21.9197   -4.6948   22.3397 C   0  0  0  0  0  0
  -22.7811  -13.5211   21.1757 C   0  0  0  0  0  0
  -22.1665   -4.2134   21.0976 F   0  0  0  0  0  0
  -21.5624   -3.4534   25.7736 F   0  0  0  0  0  0
  -30.0141  -13.5272   20.4553 N   0  0  0  0  0  0
  -26.3006  -12.9418   20.3373 N   0  0  0  0  0  0
  -25.9392  -11.6562   20.5911 N   0  0  0  0  0  0
  -22.0472  -12.8218   22.0346 N   0  0  0  0  0  0
  -25.3918  -15.1798   20.3378 N   0  0  0  0  0  0
  -31.7564  -14.8749   19.9400 O   0  0  0  0  0  0
  -21.6641   -6.8869   21.4232 O   0  0  0  0  0  0
  -22.3478  -14.5507   20.6610 O   0  0  0  0  0  0
  -24.6336  -31.8543   23.1956 C   0  0  0  0  0  0
  -25.9143  -32.4759   23.8304 C   0  0  1  0  0  0
  -27.2123  -27.2308   20.1389 C   0  0  0  0  0  0
  -25.5930  -33.8552   24.2245 N   0  0  0  0  0  0
  -23.4301  -30.4773   21.5412 C   0  0  2  0  0  0
  -24.8793  -28.9243   20.1093 C   0  0  0  0  0  0
  -22.7513  -29.4590   22.4893 C   0  0  0  0  0  0
  -18.0297  -28.1367   22.8483 C   0  0  0  0  0  0
  -24.1494  -36.7267   23.2640 C   0  0  0  0  0  0
  -25.9787  -30.7600   21.3779 C   0  0  0  0  0  0
  -26.0542  -29.3807   20.7206 C   0  0  0  0  0  0
  -27.2244  -28.5471   20.7230 C   0  0  0  0  0  0
  -26.0088  -26.8540   19.4961 C   0  0  0  0  0  0
  -24.8633  -27.6715   19.4855 C   0  0  0  0  0  0
  -23.6487  -29.8098   20.1581 C   0  0  0  0  0  0
  -25.4121  -36.3068   24.0329 C   0  0  1  0  0  0
  -20.5906  -28.3677   23.1247 C   0  0  2  0  0  0
  -20.6779  -26.9384   22.5384 C   0  0  0  0  0  0
  -19.5757  -26.6380   21.5184 C   0  0  0  0  0  0
  -18.1938  -26.7914   22.1604 C   0  0  0  0  0  0
  -19.1552  -28.8834   23.2870 C   0  0  0  0  0  0
  -18.9475  -30.1436   23.8886 C   0  0  0  0  0  0
  -17.6474  -30.6573   24.0547 C   0  0  0  0  0  0
  -25.9057  -34.9437   23.5091 C   0  0  0  0  0  0
  -16.5364  -29.9065   23.6336 C   0  0  0  0  0  0
  -16.7283  -28.6485   23.0362 C   0  0  0  0  0  0
  -26.4507  -31.6585   25.0690 C   0  0  0  0  0  0
  -25.3697  -31.3697   26.1377 C   0  0  0  0  0  0
  -27.0377  -30.3015   24.6158 C   0  0  0  0  0  0
  -27.6080  -32.4313   25.7449 C   0  0  0  0  0  0
  -27.5589  -37.1768   24.8464 C   0  0  0  0  0  0
  -21.4216  -29.3034   22.3642 N   0  0  0  0  0  0
  -26.4296  -37.3766   23.9425 N   0  0  0  0  0  0
  -24.7003  -31.0473   22.0960 N   0  0  0  0  0  0
  -23.4190  -28.8124   23.2995 O   0  0  0  0  0  0
  -28.2836  -26.2961   20.2091 O   0  0  0  0  0  0
  -26.5637  -34.8921   22.4664 O   0  0  0  0  0  0
  -23.5479  -32.1390   23.7230 O   0  0  0  0  0  0
  -30.2747  -18.5465   20.7493 C   0  0  0  0  0  0
  -29.6091  -17.2903   21.1663 C   0  0  0  0  0  0
  -28.2838  -17.5856   21.4570 C   0  0  0  0  0  0
  -29.4762  -19.7154   20.6941 C   0  0  0  0  0  0
  -27.3142  -15.9613   23.1476 C   0  0  0  0  0  0
  -27.2613  -16.8791   22.1684 C   0  0  0  0  0  0
  -30.2688  -15.9096   21.5464 C   0  0  0  0  0  0
  -29.0511  -23.6823   20.3766 C   0  0  0  0  0  0
  -27.9276  -24.8188   20.1766 C   0  0  0  0  0  0
  -28.6416  -22.1326   20.5835 C   0  0  0  0  0  0
  -30.5904  -15.7332   22.7611 N   0  0  0  0  0  0
  -30.2464  -23.9998   20.3673 O   0  0  0  0  0  0
  -29.7171  -21.0854   20.4438 O   0  0  0  0  0  0
  -27.8402  -19.2446   21.0631 S   0  0  0  0  0  0
  -31.4797  -12.5792   19.1868 H   0  0  0  0  0  0
  -30.3981  -11.4926   19.9912 H   0  0  0  0  0  0
  -29.8035  -11.7134   17.5638 H   0  0  0  0  0  0
  -29.6366  -13.4462   17.7366 H   0  0  0  0  0  0
  -27.9291  -11.2702   18.9817 H   0  0  0  0  0  0
  -27.3811  -12.4649   17.8370 H   0  0  0  0  0  0
  -27.6558  -14.2523   19.4825 H   0  0  0  0  0  0
  -28.7329  -12.1751   21.4525 H   0  0  0  0  0  0
  -28.4173  -13.8473   21.8201 H   0  0  0  0  0  0
  -25.2762   -9.5655   22.4799 H   0  0  0  0  0  0
  -23.9958   -7.4636   22.7524 H   0  0  0  0  0  0
  -21.0838   -8.8772   19.8973 H   0  0  0  0  0  0
  -22.3717  -10.9659   19.6173 H   0  0  0  0  0  0
  -21.2008   -7.6137   23.9688 H   0  0  0  0  0  0
  -21.1448   -6.0522   25.9060 H   0  0  0  0  0  0
  -22.0622   -2.7597   23.2854 H   0  0  0  0  0  0
  -22.4095  -11.9872   22.4705 H   0  0  0  0  0  0
  -21.1101  -13.1260   22.2571 H   0  0  0  0  0  0
  -24.6143  -15.8253   20.4232 H   0  0  0  0  0  0
  -26.2470  -15.6251   20.0302 H   0  0  0  0  0  0
  -26.7193  -32.5411   23.1037 H   0  0  0  0  0  0
  -25.0041  -33.9670   25.0360 H   0  0  0  0  0  0
  -22.7281  -31.3011   21.3931 H   0  0  0  0  0  0
  -23.3776  -35.9570   23.3289 H   0  0  0  0  0  0
  -24.3589  -36.8910   22.2054 H   0  0  0  0  0  0
  -23.7225  -37.6454   23.6671 H   0  0  0  0  0  0
  -26.1117  -31.5188   20.6058 H   0  0  0  0  0  0
  -26.8583  -30.8179   22.0068 H   0  0  0  0  0  0
  -28.1201  -28.8840   21.2285 H   0  0  0  0  0  0
  -25.9078  -25.8966   19.0102 H   0  0  0  0  0  0
  -23.9627  -27.3171   19.0044 H   0  0  0  0  0  0
  -23.7607  -30.5830   19.3984 H   0  0  0  0  0  0
  -22.7676  -29.2376   19.8626 H   0  0  0  0  0  0
  -25.1300  -36.1911   25.0817 H   0  0  0  0  0  0
  -21.0007  -28.3257   24.1370 H   0  0  0  0  0  0
  -20.5673  -26.2268   23.3582 H   0  0  0  0  0  0
  -21.6643  -26.7411   22.1170 H   0  0  0  0  0  0
  -19.6912  -25.6303   21.1196 H   0  0  0  0  0  0
  -19.6702  -27.3201   20.6720 H   0  0  0  0  0  0
  -17.4200  -26.6672   21.4012 H   0  0  0  0  0  0
  -18.0346  -26.0044   22.8986 H   0  0  0  0  0  0
  -19.7954  -30.7241   24.2264 H   0  0  0  0  0  0
  -17.5035  -31.6259   24.5129 H   0  0  0  0  0  0
  -15.5366  -30.2946   23.7677 H   0  0  0  0  0  0
  -15.8691  -28.0791   22.7086 H   0  0  0  0  0  0
  -24.5908  -30.7045   25.7644 H   0  0  0  0  0  0
  -24.8830  -32.2833   26.4785 H   0  0  0  0  0  0
  -25.7966  -30.8855   27.0170 H   0  0  0  0  0  0
  -26.2965  -29.6722   24.1217 H   0  0  0  0  0  0
  -27.4140  -29.7317   25.4670 H   0  0  0  0  0  0
  -27.8802  -30.4338   23.9366 H   0  0  0  0  0  0
  -27.2754  -33.3658   26.1983 H   0  0  0  0  0  0
  -28.3895  -32.6802   25.0255 H   0  0  0  0  0  0
  -28.0738  -31.8447   26.5382 H   0  0  0  0  0  0
  -28.2572  -38.0100   24.7583 H   0  0  0  0  0  0
  -28.1131  -36.2636   24.6225 H   0  0  0  0  0  0
  -27.2301  -37.1330   25.8862 H   0  0  0  0  0  0
  -20.9388  -29.8774   21.6871 H   0  0  0  0  0  0
  -26.0184  -38.2832   24.1467 H   0  0  0  0  0  0
  -31.3411  -18.5589   20.5739 H   0  0  0  0  0  0
  -26.4012  -15.5462   23.5495 H   0  0  0  0  0  0
  -28.2333  -15.6063   23.5826 H   0  0  0  0  0  0
  -26.2633  -17.1494   21.8537 H   0  0  0  0  0  0
  -27.1500  -24.6384   20.9195 H   0  0  0  0  0  0
  -27.4857  -24.5953   19.2058 H   0  0  0  0  0  0
  -27.8319  -21.8992   19.8911 H   0  0  0  0  0  0
  -28.2168  -22.0519   21.5853 H   0  0  0  0  0  0
  -30.3373  -16.5343   23.3251 H   0  0  0  0  0  0
  1 25  1  0  0  0
  1 30  2  0  0  0
  1 77  1  0  0  0
  2  3  1  0  0  0
  2 25  1  0  0  0
  2 85  1  0  0  0
  2 86  1  0  0  0
  3  4  1  0  0  0
  3 87  1  0  0  0
  3 88  1  0  0  0
  4  5  1  0  0  0
  4 89  1  0  0  0
  4 90  1  0  0  0
  5  6  1  0  0  0
  5 26  1  0  0  0
  5 91  1  0  0  0
  6 25  1  0  0  0
  6 92  1  0  0  0
  6 93  1  0  0  0
  7  8  2  0  0  0
  7 26  1  0  0  0
  7 29  1  0  0  0
  8  9  1  0  0  0
  8 22  1  0  0  0
  9 10  1  0  0  0
  9 27  2  0  0  0
 10 11  2  0  0  0
 10 15  1  0  0  0
 11 12  1  0  0  0
 11 94  1  0  0  0
 12 13  2  0  0  0
 12 95  1  0  0  0
 13 14  1  0  0  0
 13 31  1  0  0  0
 14 15  2  0  0  0
 14 96  1  0  0  0
 15 97  1  0  0  0
 16 17  2  0  0  0
 16 21  1  0  0  0
 16 31  1  0  0  0
 17 18  1  0  0  0
 17 98  1  0  0  0
 18 19  2  0  0  0
 18 99  1  0  0  0
 19 20  1  0  0  0
 19 24  1  0  0  0
 20 21  2  0  0  0
 20100  1  0  0  0
 21 23  1  0  0  0
 22 28  1  0  0  0
 22 32  2  0  0  0
 26 27  1  0  0  0
 28101  1  0  0  0
 28102  1  0  0  0
 29103  1  0  0  0
 29104  1  0  0  0
 33 34  1  0  0  0
 33 66  1  0  0  0
 33 70  2  0  0  0
 34 36  1  0  0  0
 34 59  1  0  0  0
 34105  1  0  0  0
 35 44  2  0  0  0
 35 45  1  0  0  0
 35 68  1  0  0  0
 36 56  1  0  0  0
 36106  1  0  0  0
 37 39  1  0  0  0
 37 47  1  0  0  0
 37 66  1  0  0  0
 37107  1  0  0  0
 38 43  2  0  0  0
 38 46  1  0  0  0
 38 47  1  0  0  0
 39 64  1  0  0  0
 39 67  2  0  0  0
 40 52  1  0  0  0
 40 53  2  0  0  0
 40 58  1  0  0  0
 41108  1  0  0  0
 41109  1  0  0  0
 41110  1  0  0  0
 41 48  1  0  0  0
 42 43  1  0  0  0
 42 66  1  0  0  0
 42111  1  0  0  0
 42112  1  0  0  0
 43 44  1  0  0  0
 44113  1  0  0  0
 45 46  2  0  0  0
 45114  1  0  0  0
 46115  1  0  0  0
 47116  1  0  0  0
 47117  1  0  0  0
 48 56  1  0  0  0
 48 65  1  0  0  0
 48118  1  0  0  0
 49 50  1  0  0  0
 49 53  1  0  0  0
 49 64  1  0  0  0
 49119  1  0  0  0
 50 51  1  0  0  0
 50120  1  0  0  0
 50121  1  0  0  0
 51 52  1  0  0  0
 51122  1  0  0  0
 51123  1  0  0  0
 52124  1  0  0  0
 52125  1  0  0  0
 53 54  1  0  0  0
 54 55  2  0  0  0
 54126  1  0  0  0
 55 57  1  0  0  0
 55127  1  0  0  0
 56 69  2  0  0  0
 57 58  2  0  0  0
 57128  1  0  0  0
 58129  1  0  0  0
 59 60  1  0  0  0
 59 61  1  0  0  0
 59 62  1  0  0  0
 60130  1  0  0  0
 60131  1  0  0  0
 60132  1  0  0  0
 61133  1  0  0  0
 61134  1  0  0  0
 61135  1  0  0  0
 62136  1  0  0  0
 62137  1  0  0  0
 62138  1  0  0  0
 63 65  1  0  0  0
 63139  1  0  0  0
 63140  1  0  0  0
 63141  1  0  0  0
 64142  1  0  0  0
 65143  1  0  0  0
 68 79  1  0  0  0
 71 72  1  0  0  0
 71 74  2  0  0  0
 71144  1  0  0  0
 72 73  2  0  0  0
 72 77  1  0  0  0
 73 76  1  0  0  0
 73 84  1  0  0  0
 74 83  1  0  0  0
 74 84  1  0  0  0
 75 76  2  0  0  0
 75145  1  0  0  0
 75146  1  0  0  0
 76147  1  0  0  0
 77 81  2  0  0  0
 78 79  1  0  0  0
 78 80  1  0  0  0
 78 82  2  0  0  0
 79148  1  0  0  0
 79149  1  0  0  0
 80 83  1  0  0  0
 80150  1  0  0  0
 80151  1  0  0  0
 81152  1  0  0  0
M  ISO  4   1 100  68 101  77 100  79 101
M  END
> <chiral flag>
0

> <version>
0

> <s_m_source_file>
/data/baiqing/PycharmProjects/Reinvent-master-3.2/result/LINK_invent/BTK/process_docking_weight1_custom_product_contain_oxygen_bond_distance_aromatic_linkinvent_7_9_3/rearranged_h_0117.sdf

> <i_m_source_file_index>
27

> <r_mmod_Potential_Energy-OPLS-2005>
415.879119873047

> <r_mmod_Stretch_Energy-OPLS-2005>
151.541717529297

> <r_mmod_Bend_Energy-OPLS-2005>
205.034851074219

> <r_mmod_Torsional_Energy-OPLS-2005>
243.186660766602

> <r_mmod_Improper_Torsional_Energy-OPLS-2005>
7.59460353851318

> <r_mmod_Van_der_Waal_Energy-OPLS-2005>
119.709289550781

> <r_mmod_Electrostatic_Energy-OPLS-2005>
-173.289978027344

> <r_mmod_Solvation_Energy-OPLS-2005>
-234.709564208984

> <b_mmod_Minimization_Converged-OPLS-2005>
0

> <r_mmod_RMS_Derivative-OPLS-2005>
2.97994256019592

$$$$
27
                    3D
 Structure written by MMmdl.
151159  0  0  1  0            999 V2000
  -30.5225  -14.8850   20.4544 C   0  0  0  0  0  0
  -30.4543  -12.5475   19.4888 C   0  0  0  0  0  0
  -29.5258  -12.5371   18.2502 C   0  0  0  0  0  0
  -28.0538  -12.3307   18.6607 C   0  0  0  0  0  0
  -27.6418  -13.2351   19.8521 C   0  0  2  0  0  0
  -28.6857  -13.1934   20.9897 C   0  0  0  0  0  0
  -25.2515  -13.8186   20.5701 C   0  0  0  0  0  0
  -24.1802  -13.0434   20.9209 C   0  0  0  0  0  0
  -24.6394  -11.6913   20.8733 C   0  0  0  0  0  0
  -23.9061  -10.4290   21.0395 C   0  0  0  0  0  0
  -24.3616   -9.4209   21.9175 C   0  0  0  0  0  0
  -23.6293   -8.2242   22.0746 C   0  0  0  0  0  0
  -22.4273   -8.0274   21.3539 C   0  0  0  0  0  0
  -21.9903   -9.0249   20.4644 C   0  0  0  0  0  0
  -22.7228  -10.2131   20.3052 C   0  0  0  0  0  0
  -21.6853   -6.0731   22.5279 C   0  0  0  0  0  0
  -21.4015   -6.5636   23.8211 C   0  0  0  0  0  0
  -21.3662   -5.6785   24.9172 C   0  0  0  0  0  0
  -21.6051   -4.3049   24.7223 C   0  0  0  0  0  0
  -21.8816   -3.8139   23.4345 C   0  0  0  0  0  0
  -21.9195   -4.6959   22.3404 C   0  0  0  0  0  0
  -22.7824  -13.5225   21.1870 C   0  0  0  0  0  0
  -22.1660   -4.2138   21.0984 F   0  0  0  0  0  0
  -21.5635   -3.4539   25.7742 F   0  0  0  0  0  0
  -29.9743  -13.6079   20.4139 N   0  0  0  0  0  0
  -26.2938  -12.9396   20.3262 N   0  0  0  0  0  0
  -25.9326  -11.6533   20.5725 N   0  0  0  0  0  0
  -22.0464  -12.8220   22.0432 N   0  0  0  0  0  0
  -25.4202  -15.1914   20.4133 N   0  0  0  0  0  0
  -31.7019  -15.0329   20.1143 O   0  0  0  0  0  0
  -21.6644   -6.8871   21.4235 O   0  0  0  0  0  0
  -22.3513  -14.5532   20.6712 O   0  0  0  0  0  0
  -24.6417  -31.8469   23.1915 C   0  0  0  0  0  0
  -25.9201  -32.4713   23.8291 C   0  0  1  0  0  0
  -27.2195  -27.1551   20.1458 C   0  0  0  0  0  0
  -25.5959  -33.8517   24.2205 N   0  0  0  0  0  0
  -23.4442  -30.4673   21.5375 C   0  0  2  0  0  0
  -24.8942  -28.9017   20.1108 C   0  0  0  0  0  0
  -22.7552  -29.4562   22.4879 C   0  0  0  0  0  0
  -18.0299  -28.1391   22.8485 C   0  0  0  0  0  0
  -24.1490  -36.7252   23.2641 C   0  0  0  0  0  0
  -26.0002  -30.7258   21.3900 C   0  0  0  0  0  0
  -26.0723  -29.3397   20.7297 C   0  0  0  0  0  0
  -27.2346  -28.4820   20.7342 C   0  0  0  0  0  0
  -26.0141  -26.8214   19.4844 C   0  0  0  0  0  0
  -24.8768  -27.6542   19.4745 C   0  0  0  0  0  0
  -23.6689  -29.7999   20.1560 C   0  0  0  0  0  0
  -25.4119  -36.3035   24.0318 C   0  0  1  0  0  0
  -20.5914  -28.3712   23.1250 C   0  0  2  0  0  0
  -20.6780  -26.9414   22.5424 C   0  0  0  0  0  0
  -19.5761  -26.6374   21.5225 C   0  0  0  0  0  0
  -18.1937  -26.7938   22.1622 C   0  0  0  0  0  0
  -19.1558  -28.8871   23.2861 C   0  0  0  0  0  0
  -18.9475  -30.1470   23.8882 C   0  0  0  0  0  0
  -17.6472  -30.6589   24.0561 C   0  0  0  0  0  0
  -25.9074  -34.9415   23.5065 C   0  0  0  0  0  0
  -16.5360  -29.9080   23.6345 C   0  0  0  0  0  0
  -16.7284  -28.6500   23.0363 C   0  0  0  0  0  0
  -26.4521  -31.6571   25.0725 C   0  0  0  0  0  0
  -25.3705  -31.3786   26.1425 C   0  0  0  0  0  0
  -27.0363  -30.2954   24.6312 C   0  0  0  0  0  0
  -27.6073  -32.4318   25.7487 C   0  0  0  0  0  0
  -27.5585  -37.1762   24.8449 C   0  0  0  0  0  0
  -21.4248  -29.3044   22.3619 N   0  0  0  0  0  0
  -26.4273  -37.3759   23.9422 N   0  0  0  0  0  0
  -24.7150  -31.0337   22.0947 N   0  0  0  0  0  0
  -23.4202  -28.8119   23.3033 O   0  0  0  0  0  0
  -28.2661  -26.1649   20.2219 O   0  0  0  0  0  0
  -26.5662  -34.8910   22.4645 O   0  0  0  0  0  0
  -23.5540  -32.1340   23.7142 O   0  0  0  0  0  0
  -28.0794  -19.5210   20.9098 C   0  0  0  0  0  0
  -28.3420  -18.1077   21.0001 C   0  0  0  0  0  0
  -30.5314  -18.4597   20.2047 C   0  0  0  0  0  0
  -28.9953  -20.5160   20.4435 C   0  0  0  0  0  0
  -30.2678  -19.9037   20.1231 C   0  0  0  0  0  0
  -29.5694  -17.4765   20.6325 C   0  0  0  0  0  0
  -28.4575  -22.0221   20.3354 C   0  0  0  0  0  0
  -28.8831  -23.3645   20.2189 C   0  0  0  0  0  0
  -31.3893  -20.8023   19.6384 C   0  0  0  0  0  0
  -27.9202  -24.6723   19.9986 C   0  0  0  0  0  0
  -29.6542  -15.9566   20.7425 N   0  0  0  0  0  0
  -31.4871  -12.7193   19.1803 H   0  0  0  0  0  0
  -30.4501  -11.5753   19.9839 H   0  0  0  0  0  0
  -29.8341  -11.7576   17.5523 H   0  0  0  0  0  0
  -29.6248  -13.4817   17.7139 H   0  0  0  0  0  0
  -27.9303  -11.2818   18.9332 H   0  0  0  0  0  0
  -27.3952  -12.5035   17.8089 H   0  0  0  0  0  0
  -27.6252  -14.2521   19.4605 H   0  0  0  0  0  0
  -28.7559  -12.1911   21.4148 H   0  0  0  0  0  0
  -28.3921  -13.8496   21.8105 H   0  0  0  0  0  0
  -25.2761   -9.5696   22.4751 H   0  0  0  0  0  0
  -24.0006   -7.4637   22.7463 H   0  0  0  0  0  0
  -21.0828   -8.8756   19.8960 H   0  0  0  0  0  0
  -22.3663  -10.9667   19.6169 H   0  0  0  0  0  0
  -21.1995   -7.6143   23.9711 H   0  0  0  0  0  0
  -21.1493   -6.0519   25.9075 H   0  0  0  0  0  0
  -22.0596   -2.7600   23.2850 H   0  0  0  0  0  0
  -22.4080  -11.9898   22.4850 H   0  0  0  0  0  0
  -21.1083  -13.1247   22.2624 H   0  0  0  0  0  0
  -24.6471  -15.8392   20.5201 H   0  0  0  0  0  0
  -26.2505  -15.6283   20.0357 H   0  0  0  0  0  0
  -26.7274  -32.5323   23.1026 H   0  0  0  0  0  0
  -25.0073  -33.9641   25.0329 H   0  0  0  0  0  0
  -22.7461  -31.2934   21.3859 H   0  0  0  0  0  0
  -23.3767  -35.9568   23.3265 H   0  0  0  0  0  0
  -24.3596  -36.8917   22.2065 H   0  0  0  0  0  0
  -23.7213  -37.6426   23.6699 H   0  0  0  0  0  0
  -26.1561  -31.4834   20.6208 H   0  0  0  0  0  0
  -26.8707  -30.7733   22.0326 H   0  0  0  0  0  0
  -28.1267  -28.8113   21.2486 H   0  0  0  0  0  0
  -25.9041  -25.8728   18.9829 H   0  0  0  0  0  0
  -23.9784  -27.3113   18.9793 H   0  0  0  0  0  0
  -23.7995  -30.5767   19.4018 H   0  0  0  0  0  0
  -22.7849  -29.2384   19.8480 H   0  0  0  0  0  0
  -25.1300  -36.1857   25.0808 H   0  0  0  0  0  0
  -21.0007  -28.3301   24.1371 H   0  0  0  0  0  0
  -20.5656  -26.2328   23.3647 H   0  0  0  0  0  0
  -21.6648  -26.7407   22.1233 H   0  0  0  0  0  0
  -19.6918  -25.6279   21.1274 H   0  0  0  0  0  0
  -19.6711  -27.3173   20.6751 H   0  0  0  0  0  0
  -17.4213  -26.6707   21.4013 H   0  0  0  0  0  0
  -18.0307  -26.0071   22.9006 H   0  0  0  0  0  0
  -19.7945  -30.7298   24.2237 H   0  0  0  0  0  0
  -17.5018  -31.6275   24.5152 H   0  0  0  0  0  0
  -15.5359  -30.2975   23.7682 H   0  0  0  0  0  0
  -15.8682  -28.0815   22.7087 H   0  0  0  0  0  0
  -24.5902  -30.7103   25.7763 H   0  0  0  0  0  0
  -24.8872  -32.2975   26.4751 H   0  0  0  0  0  0
  -25.7988  -30.9041   27.0261 H   0  0  0  0  0  0
  -26.2973  -29.6689   24.1304 H   0  0  0  0  0  0
  -27.3933  -29.7252   25.4898 H   0  0  0  0  0  0
  -27.8907  -30.4165   23.9652 H   0  0  0  0  0  0
  -27.2691  -33.3638   26.2027 H   0  0  0  0  0  0
  -28.3897  -32.6839   25.0315 H   0  0  0  0  0  0
  -28.0726  -31.8460   26.5423 H   0  0  0  0  0  0
  -28.2555  -38.0107   24.7558 H   0  0  0  0  0  0
  -28.1124  -36.2640   24.6172 H   0  0  0  0  0  0
  -27.2330  -37.1283   25.8857 H   0  0  0  0  0  0
  -20.9446  -29.8749   21.6799 H   0  0  0  0  0  0
  -26.0134  -38.2813   24.1481 H   0  0  0  0  0  0
  -27.0946  -19.8485   21.2116 H   0  0  0  0  0  0
  -27.5366  -17.4859   21.3652 H   0  0  0  0  0  0
  -31.5100  -18.1000   19.9183 H   0  0  0  0  0  0
  -27.3768  -21.9930   20.3024 H   0  0  0  0  0  0
  -29.9430  -23.5736   20.2260 H   0  0  0  0  0  0
  -32.3293  -20.2574   19.5426 H   0  0  0  0  0  0
  -31.5511  -21.6205   20.3402 H   0  0  0  0  0  0
  -31.1443  -21.2267   18.6645 H   0  0  0  0  0  0
  -27.0050  -24.4610   20.5539 H   0  0  0  0  0  0
  -27.6493  -24.5928   18.9453 H   0  0  0  0  0  0
  -28.7778  -15.5630   21.0492 H   0  0  0  0  0  0
  1 25  1  0  0  0
  1 30  2  0  0  0
  1 81  1  0  0  0
  2  3  1  0  0  0
  2 25  1  0  0  0
  2 82  1  0  0  0
  2 83  1  0  0  0
  3  4  1  0  0  0
  3 84  1  0  0  0
  3 85  1  0  0  0
  4  5  1  0  0  0
  4 86  1  0  0  0
  4 87  1  0  0  0
  5  6  1  0  0  0
  5 26  1  0  0  0
  5 88  1  0  0  0
  6 25  1  0  0  0
  6 89  1  0  0  0
  6 90  1  0  0  0
  7  8  2  0  0  0
  7 26  1  0  0  0
  7 29  1  0  0  0
  8  9  1  0  0  0
  8 22  1  0  0  0
  9 10  1  0  0  0
  9 27  2  0  0  0
 10 11  2  0  0  0
 10 15  1  0  0  0
 11 12  1  0  0  0
 11 91  1  0  0  0
 12 13  2  0  0  0
 12 92  1  0  0  0
 13 14  1  0  0  0
 13 31  1  0  0  0
 14 15  2  0  0  0
 14 93  1  0  0  0
 15 94  1  0  0  0
 16 17  2  0  0  0
 16 21  1  0  0  0
 16 31  1  0  0  0
 17 18  1  0  0  0
 17 95  1  0  0  0
 18 19  2  0  0  0
 18 96  1  0  0  0
 19 20  1  0  0  0
 19 24  1  0  0  0
 20 21  2  0  0  0
 20 97  1  0  0  0
 21 23  1  0  0  0
 22 28  1  0  0  0
 22 32  2  0  0  0
 26 27  1  0  0  0
 28 98  1  0  0  0
 28 99  1  0  0  0
 29100  1  0  0  0
 29101  1  0  0  0
 33 34  1  0  0  0
 33 66  1  0  0  0
 33 70  2  0  0  0
 34 36  1  0  0  0
 34 59  1  0  0  0
 34102  1  0  0  0
 35 44  2  0  0  0
 35 45  1  0  0  0
 35 68  1  0  0  0
 36 56  1  0  0  0
 36103  1  0  0  0
 37 39  1  0  0  0
 37 47  1  0  0  0
 37 66  1  0  0  0
 37104  1  0  0  0
 38 43  2  0  0  0
 38 46  1  0  0  0
 38 47  1  0  0  0
 39 64  1  0  0  0
 39 67  2  0  0  0
 40 52  1  0  0  0
 40 53  2  0  0  0
 40 58  1  0  0  0
 41105  1  0  0  0
 41106  1  0  0  0
 41107  1  0  0  0
 41 48  1  0  0  0
 42 43  1  0  0  0
 42 66  1  0  0  0
 42108  1  0  0  0
 42109  1  0  0  0
 43 44  1  0  0  0
 44110  1  0  0  0
 45 46  2  0  0  0
 45111  1  0  0  0
 46112  1  0  0  0
 47113  1  0  0  0
 47114  1  0  0  0
 48 56  1  0  0  0
 48 65  1  0  0  0
 48115  1  0  0  0
 49 50  1  0  0  0
 49 53  1  0  0  0
 49 64  1  0  0  0
 49116  1  0  0  0
 50 51  1  0  0  0
 50117  1  0  0  0
 50118  1  0  0  0
 51 52  1  0  0  0
 51119  1  0  0  0
 51120  1  0  0  0
 52121  1  0  0  0
 52122  1  0  0  0
 53 54  1  0  0  0
 54 55  2  0  0  0
 54123  1  0  0  0
 55 57  1  0  0  0
 55124  1  0  0  0
 56 69  2  0  0  0
 57 58  2  0  0  0
 57125  1  0  0  0
 58126  1  0  0  0
 59 60  1  0  0  0
 59 61  1  0  0  0
 59 62  1  0  0  0
 60127  1  0  0  0
 60128  1  0  0  0
 60129  1  0  0  0
 61130  1  0  0  0
 61131  1  0  0  0
 61132  1  0  0  0
 62133  1  0  0  0
 62134  1  0  0  0
 62135  1  0  0  0
 63 65  1  0  0  0
 63136  1  0  0  0
 63137  1  0  0  0
 63138  1  0  0  0
 64139  1  0  0  0
 65140  1  0  0  0
 68 80  1  0  0  0
 71 72  2  0  0  0
 71 74  1  0  0  0
 71141  1  0  0  0
 72 76  1  0  0  0
 72142  1  0  0  0
 73 75  1  0  0  0
 73 76  2  0  0  0
 73143  1  0  0  0
 74 75  2  0  0  0
 74 77  1  0  0  0
 75 79  1  0  0  0
 76 81  1  0  0  0
 77 78  2  0  0  0
 77144  1  0  0  0
 78 80  1  0  0  0
 78145  1  0  0  0
 79146  1  0  0  0
 79147  1  0  0  0
 79148  1  0  0  0
 80149  1  0  0  0
 80150  1  0  0  0
 81151  1  0  0  0
M  ISO  4   1 100  68 101  80 101  81 100
M  END
> <chiral flag>
0

> <version>
0

> <s_m_source_file>
/data/baiqing/PycharmProjects/Reinvent-master-3.2/result/LINK_invent/BTK/process_docking_weight1_custom_product_contain_oxygen_bond_distance_aromatic_linkinvent_7_9_3/rearranged_h_0117.sdf

> <i_m_source_file_index>
28

> <r_mmod_Potential_Energy-OPLS-2005>
412.169677734375

> <r_mmod_Stretch_Energy-OPLS-2005>
204.592926025391

> <r_mmod_Bend_Energy-OPLS-2005>
267.703277587891

> <r_mmod_Torsional_Energy-OPLS-2005>
216.395874023438

> <r_mmod_Improper_Torsional_Energy-OPLS-2005>
4.14633846282959

> <r_mmod_Van_der_Waal_Energy-OPLS-2005>
134.448745727539

> <r_mmod_Electrostatic_Energy-OPLS-2005>
-371.309295654297

> <r_mmod_Solvation_Energy-OPLS-2005>
-208.348007202148

> <b_mmod_Minimization_Converged-OPLS-2005>
0

> <r_mmod_RMS_Derivative-OPLS-2005>
1.41228055953979

$$$$
28
                    3D
 Structure written by MMmdl.
152160  0  0  1  0            999 V2000
  -30.5986  -14.8109   20.4516 C   0  0  0  0  0  0
  -30.4368  -12.5003   19.4714 C   0  0  0  0  0  0
  -29.5074  -12.4957   18.2372 C   0  0  0  0  0  0
  -28.0400  -12.3066   18.6667 C   0  0  0  0  0  0
  -27.6365  -13.2332   19.8447 C   0  0  2  0  0  0
  -28.6869  -13.2110   20.9759 C   0  0  0  0  0  0
  -25.2502  -13.8201   20.5712 C   0  0  0  0  0  0
  -24.1801  -13.0437   20.9221 C   0  0  0  0  0  0
  -24.6405  -11.6917   20.8798 C   0  0  0  0  0  0
  -23.9088  -10.4287   21.0422 C   0  0  0  0  0  0
  -24.3634   -9.4198   21.9200 C   0  0  0  0  0  0
  -23.6296   -8.2242   22.0774 C   0  0  0  0  0  0
  -22.4288   -8.0285   21.3547 C   0  0  0  0  0  0
  -21.9923   -9.0265   20.4658 C   0  0  0  0  0  0
  -22.7263  -10.2134   20.3059 C   0  0  0  0  0  0
  -21.6854   -6.0742   22.5273 C   0  0  0  0  0  0
  -21.4014   -6.5640   23.8208 C   0  0  0  0  0  0
  -21.3659   -5.6791   24.9175 C   0  0  0  0  0  0
  -21.6046   -4.3051   24.7223 C   0  0  0  0  0  0
  -21.8821   -3.8148   23.4340 C   0  0  0  0  0  0
  -21.9190   -4.6970   22.3398 C   0  0  0  0  0  0
  -22.7819  -13.5215   21.1859 C   0  0  0  0  0  0
  -22.1660   -4.2153   21.0975 F   0  0  0  0  0  0
  -21.5624   -3.4535   25.7735 F   0  0  0  0  0  0
  -29.9714  -13.5827   20.3714 N   0  0  0  0  0  0
  -26.2930  -12.9411   20.3309 N   0  0  0  0  0  0
  -25.9334  -11.6555   20.5801 N   0  0  0  0  0  0
  -22.0458  -12.8216   22.0420 N   0  0  0  0  0  0
  -25.4178  -15.1927   20.4124 N   0  0  0  0  0  0
  -31.8087  -14.8766   20.2129 O   0  0  0  0  0  0
  -21.6640   -6.8888   21.4240 O   0  0  0  0  0  0
  -22.3507  -14.5521   20.6697 O   0  0  0  0  0  0
  -24.6354  -31.8512   23.1962 C   0  0  0  0  0  0
  -25.9153  -32.4745   23.8323 C   0  0  1  0  0  0
  -27.2264  -27.2208   20.1229 C   0  0  0  0  0  0
  -25.5924  -33.8553   24.2239 N   0  0  0  0  0  0
  -23.4364  -30.4757   21.5392 C   0  0  2  0  0  0
  -24.8871  -28.9196   20.1071 C   0  0  0  0  0  0
  -22.7521  -29.4598   22.4871 C   0  0  0  0  0  0
  -18.0313  -28.1355   22.8478 C   0  0  0  0  0  0
  -24.1489  -36.7275   23.2643 C   0  0  0  0  0  0
  -25.9873  -30.7507   21.3846 C   0  0  0  0  0  0
  -26.0624  -29.3703   20.7228 C   0  0  0  0  0  0
  -27.2317  -28.5326   20.7239 C   0  0  0  0  0  0
  -26.0157  -26.8449   19.4933 C   0  0  0  0  0  0
  -24.8704  -27.6651   19.4825 C   0  0  0  0  0  0
  -23.6594  -29.8121   20.1557 C   0  0  0  0  0  0
  -25.4115  -36.3055   24.0325 C   0  0  1  0  0  0
  -20.5924  -28.3694   23.1246 C   0  0  2  0  0  0
  -20.6810  -26.9420   22.5374 C   0  0  0  0  0  0
  -19.5774  -26.6362   21.5204 C   0  0  0  0  0  0
  -18.1956  -26.7898   22.1621 C   0  0  0  0  0  0
  -19.1563  -28.8830   23.2868 C   0  0  0  0  0  0
  -18.9478  -30.1428   23.8903 C   0  0  0  0  0  0
  -17.6471  -30.6556   24.0555 C   0  0  0  0  0  0
  -25.9049  -34.9430   23.5087 C   0  0  0  0  0  0
  -16.5373  -29.9045   23.6313 C   0  0  0  0  0  0
  -16.7292  -28.6462   23.0347 C   0  0  0  0  0  0
  -26.4508  -31.6575   25.0728 C   0  0  0  0  0  0
  -25.3719  -31.3737   26.1441 C   0  0  0  0  0  0
  -27.0371  -30.2984   24.6256 C   0  0  0  0  0  0
  -27.6045  -32.4335   25.7511 C   0  0  0  0  0  0
  -27.5574  -37.1799   24.8465 C   0  0  0  0  0  0
  -21.4223  -29.3064   22.3634 N   0  0  0  0  0  0
  -26.4286  -37.3758   23.9407 N   0  0  0  0  0  0
  -24.7057  -31.0448   22.0953 N   0  0  0  0  0  0
  -23.4192  -28.8127   23.2985 O   0  0  0  0  0  0
  -28.2793  -26.2593   20.2156 O   0  0  0  0  0  0
  -26.5633  -34.8907   22.4659 O   0  0  0  0  0  0
  -23.5485  -32.1352   23.7215 O   0  0  0  0  0  0
  -29.4480  -18.6149   20.3624 C   0  0  0  0  0  0
  -30.8904  -20.0781   21.6483 C   0  0  0  0  0  0
  -31.2423  -17.6420   21.6918 C   0  0  0  0  0  0
  -29.7939  -19.9925   20.7563 C   0  0  0  0  0  0
  -30.1616  -17.4065   20.8133 C   0  0  0  0  0  0
  -31.5928  -18.9432   22.1020 C   0  0  0  0  0  0
  -29.1583  -21.3652   20.3083 C   0  0  0  0  0  0
  -28.9426  -22.7569   20.4631 C   0  0  0  0  0  0
  -28.3010  -25.1333   19.3363 C   0  0  0  0  0  0
  -28.5432  -23.7447   19.3760 C   0  0  0  0  0  0
  -28.3674  -23.0885   18.0084 C   0  0  0  0  0  0
  -29.8155  -15.9741   20.5102 N   0  0  0  0  0  0
  -32.6298  -19.1088   22.9570 F   0  0  0  0  0  0
  -31.4728  -12.6417   19.1593 H   0  0  0  0  0  0
  -30.4101  -11.5368   19.9814 H   0  0  0  0  0  0
  -29.7979  -11.7009   17.5469 H   0  0  0  0  0  0
  -29.6154  -13.4337   17.6905 H   0  0  0  0  0  0
  -27.9212  -11.2641   18.9642 H   0  0  0  0  0  0
  -27.3708  -12.4546   17.8189 H   0  0  0  0  0  0
  -27.6147  -14.2431   19.4336 H   0  0  0  0  0  0
  -28.7494  -12.2259   21.4412 H   0  0  0  0  0  0
  -28.4191  -13.9100   21.7694 H   0  0  0  0  0  0
  -25.2778   -9.5663   22.4785 H   0  0  0  0  0  0
  -24.0001   -7.4625   22.7488 H   0  0  0  0  0  0
  -21.0859   -8.8797   19.8954 H   0  0  0  0  0  0
  -22.3741  -10.9688   19.6170 H   0  0  0  0  0  0
  -21.2015   -7.6147   23.9716 H   0  0  0  0  0  0
  -21.1476   -6.0520   25.9074 H   0  0  0  0  0  0
  -22.0605   -2.7611   23.2836 H   0  0  0  0  0  0
  -22.4079  -11.9880   22.4809 H   0  0  0  0  0  0
  -21.1070  -13.1250   22.2610 H   0  0  0  0  0  0
  -24.6490  -15.8444   20.5281 H   0  0  0  0  0  0
  -26.2603  -15.6376   20.0738 H   0  0  0  0  0  0
  -26.7227  -32.5399   23.1069 H   0  0  0  0  0  0
  -25.0083  -33.9689   25.0395 H   0  0  0  0  0  0
  -22.7345  -31.2985   21.3908 H   0  0  0  0  0  0
  -23.3754  -35.9605   23.3297 H   0  0  0  0  0  0
  -24.3574  -36.8910   22.2058 H   0  0  0  0  0  0
  -23.7242  -37.6475   23.6676 H   0  0  0  0  0  0
  -26.1327  -31.5114   20.6164 H   0  0  0  0  0  0
  -26.8609  -30.7989   22.0227 H   0  0  0  0  0  0
  -28.1250  -28.8645   21.2354 H   0  0  0  0  0  0
  -25.9136  -25.8717   19.0357 H   0  0  0  0  0  0
  -23.9693  -27.3035   19.0054 H   0  0  0  0  0  0
  -23.7894  -30.5895   19.4022 H   0  0  0  0  0  0
  -22.7762  -29.2512   19.8437 H   0  0  0  0  0  0
  -25.1302  -36.1899   25.0821 H   0  0  0  0  0  0
  -21.0021  -28.3256   24.1366 H   0  0  0  0  0  0
  -20.5707  -26.2307   23.3576 H   0  0  0  0  0  0
  -21.6660  -26.7443   22.1122 H   0  0  0  0  0  0
  -19.6936  -25.6249   21.1269 H   0  0  0  0  0  0
  -19.6694  -27.3152   20.6716 H   0  0  0  0  0  0
  -17.4205  -26.6638   21.4043 H   0  0  0  0  0  0
  -18.0385  -26.0044   22.9038 H   0  0  0  0  0  0
  -19.7935  -30.7255   24.2307 H   0  0  0  0  0  0
  -17.5003  -31.6237   24.5147 H   0  0  0  0  0  0
  -15.5371  -30.2956   23.7616 H   0  0  0  0  0  0
  -15.8690  -28.0774   22.7091 H   0  0  0  0  0  0
  -24.5903  -30.7077   25.7766 H   0  0  0  0  0  0
  -24.8910  -32.2913   26.4843 H   0  0  0  0  0  0
  -25.8032  -30.8934   27.0233 H   0  0  0  0  0  0
  -26.2971  -29.6724   24.1260 H   0  0  0  0  0  0
  -27.4004  -29.7266   25.4805 H   0  0  0  0  0  0
  -27.8869  -30.4248   23.9546 H   0  0  0  0  0  0
  -27.2636  -33.3647   26.2057 H   0  0  0  0  0  0
  -28.3878  -32.6883   25.0357 H   0  0  0  0  0  0
  -28.0688  -31.8485   26.5463 H   0  0  0  0  0  0
  -28.2589  -38.0097   24.7503 H   0  0  0  0  0  0
  -28.1073  -36.2627   24.6302 H   0  0  0  0  0  0
  -27.2289  -37.1453   25.8868 H   0  0  0  0  0  0
  -20.9397  -29.8794   21.6845 H   0  0  0  0  0  0
  -26.0160  -38.2832   24.1410 H   0  0  0  0  0  0
  -28.6136  -18.4895   19.6886 H   0  0  0  0  0  0
  -31.2226  -21.0469   21.9928 H   0  0  0  0  0  0
  -31.8118  -16.8156   22.0920 H   0  0  0  0  0  0
  -28.9845  -21.3868   21.3745 H   0  0  0  0  0  0
  -29.0843  -23.2264   21.4348 H   0  0  0  0  0  0
  -28.0621  -25.5280   18.3576 H   0  0  0  0  0  0
  -27.9089  -22.1037   18.0931 H   0  0  0  0  0  0
  -29.3353  -22.9791   17.5175 H   0  0  0  0  0  0
  -27.7188  -23.6594   17.3418 H   0  0  0  0  0  0
  -28.8322  -15.7993   20.3718 H   0  0  0  0  0  0
  1 25  1  0  0  0
  1 30  2  0  0  0
  1 82  1  0  0  0
  2  3  1  0  0  0
  2 25  1  0  0  0
  2 84  1  0  0  0
  2 85  1  0  0  0
  3  4  1  0  0  0
  3 86  1  0  0  0
  3 87  1  0  0  0
  4  5  1  0  0  0
  4 88  1  0  0  0
  4 89  1  0  0  0
  5  6  1  0  0  0
  5 26  1  0  0  0
  5 90  1  0  0  0
  6 25  1  0  0  0
  6 91  1  0  0  0
  6 92  1  0  0  0
  7  8  2  0  0  0
  7 26  1  0  0  0
  7 29  1  0  0  0
  8  9  1  0  0  0
  8 22  1  0  0  0
  9 10  1  0  0  0
  9 27  2  0  0  0
 10 11  2  0  0  0
 10 15  1  0  0  0
 11 12  1  0  0  0
 11 93  1  0  0  0
 12 13  2  0  0  0
 12 94  1  0  0  0
 13 14  1  0  0  0
 13 31  1  0  0  0
 14 15  2  0  0  0
 14 95  1  0  0  0
 15 96  1  0  0  0
 16 17  2  0  0  0
 16 21  1  0  0  0
 16 31  1  0  0  0
 17 18  1  0  0  0
 17 97  1  0  0  0
 18 19  2  0  0  0
 18 98  1  0  0  0
 19 20  1  0  0  0
 19 24  1  0  0  0
 20 21  2  0  0  0
 20 99  1  0  0  0
 21 23  1  0  0  0
 22 28  1  0  0  0
 22 32  2  0  0  0
 26 27  1  0  0  0
 28100  1  0  0  0
 28101  1  0  0  0
 29102  1  0  0  0
 29103  1  0  0  0
 33 34  1  0  0  0
 33 66  1  0  0  0
 33 70  2  0  0  0
 34 36  1  0  0  0
 34 59  1  0  0  0
 34104  1  0  0  0
 35 44  2  0  0  0
 35 45  1  0  0  0
 35 68  1  0  0  0
 36 56  1  0  0  0
 36105  1  0  0  0
 37 39  1  0  0  0
 37 47  1  0  0  0
 37 66  1  0  0  0
 37106  1  0  0  0
 38 43  2  0  0  0
 38 46  1  0  0  0
 38 47  1  0  0  0
 39 64  1  0  0  0
 39 67  2  0  0  0
 40 52  1  0  0  0
 40 53  2  0  0  0
 40 58  1  0  0  0
 41107  1  0  0  0
 41108  1  0  0  0
 41109  1  0  0  0
 41 48  1  0  0  0
 42 43  1  0  0  0
 42 66  1  0  0  0
 42110  1  0  0  0
 42111  1  0  0  0
 43 44  1  0  0  0
 44112  1  0  0  0
 45 46  2  0  0  0
 45113  1  0  0  0
 46114  1  0  0  0
 47115  1  0  0  0
 47116  1  0  0  0
 48 56  1  0  0  0
 48 65  1  0  0  0
 48117  1  0  0  0
 49 50  1  0  0  0
 49 53  1  0  0  0
 49 64  1  0  0  0
 49118  1  0  0  0
 50 51  1  0  0  0
 50119  1  0  0  0
 50120  1  0  0  0
 51 52  1  0  0  0
 51121  1  0  0  0
 51122  1  0  0  0
 52123  1  0  0  0
 52124  1  0  0  0
 53 54  1  0  0  0
 54 55  2  0  0  0
 54125  1  0  0  0
 55 57  1  0  0  0
 55126  1  0  0  0
 56 69  2  0  0  0
 57 58  2  0  0  0
 57127  1  0  0  0
 58128  1  0  0  0
 59 60  1  0  0  0
 59 61  1  0  0  0
 59 62  1  0  0  0
 60129  1  0  0  0
 60130  1  0  0  0
 60131  1  0  0  0
 61132  1  0  0  0
 61133  1  0  0  0
 61134  1  0  0  0
 62135  1  0  0  0
 62136  1  0  0  0
 62137  1  0  0  0
 63 65  1  0  0  0
 63138  1  0  0  0
 63139  1  0  0  0
 63140  1  0  0  0
 64141  1  0  0  0
 65142  1  0  0  0
 68 79  1  0  0  0
 71 74  2  0  0  0
 71 75  1  0  0  0
 71143  1  0  0  0
 72 74  1  0  0  0
 72 76  2  0  0  0
 72144  1  0  0  0
 73 75  2  0  0  0
 73 76  1  0  0  0
 73145  1  0  0  0
 74 77  1  0  0  0
 75 82  1  0  0  0
 76 83  1  0  0  0
 77 78  2  0  0  0
 77146  1  0  0  0
 78 80  1  0  0  0
 78147  1  0  0  0
 79 80  2  0  0  0
 79148  1  0  0  0
 80 81  1  0  0  0
 81149  1  0  0  0
 81150  1  0  0  0
 81151  1  0  0  0
 82152  1  0  0  0
M  ISO  4   1 100  68 101  79 101  82 100
M  END
> <chiral flag>
0

> <version>
0

> <s_m_source_file>
/data/baiqing/PycharmProjects/Reinvent-master-3.2/result/LINK_invent/BTK/process_docking_weight1_custom_product_contain_oxygen_bond_distance_aromatic_linkinvent_7_9_3/rearranged_h_0117.sdf

> <i_m_source_file_index>
29

> <r_mmod_Potential_Energy-OPLS-2005>
589.552734375

> <r_mmod_Stretch_Energy-OPLS-2005>
159.12272644043

> <r_mmod_Bend_Energy-OPLS-2005>
419.762420654297

> <r_mmod_Torsional_Energy-OPLS-2005>
254.949111938477

> <r_mmod_Improper_Torsional_Energy-OPLS-2005>
20.9008350372314

> <r_mmod_Van_der_Waal_Energy-OPLS-2005>
155.409912109375

> <r_mmod_Electrostatic_Energy-OPLS-2005>
-342.562133789062

> <r_mmod_Solvation_Energy-OPLS-2005>
-200.340637207031

> <b_mmod_Minimization_Converged-OPLS-2005>
0

> <r_mmod_RMS_Derivative-OPLS-2005>
2.77101874351501

$$$$
29
                    3D
 Structure written by MMmdl.
159167  0  0  1  0            999 V2000
  -30.6172  -14.6974   20.4806 C   0  0  0  0  0  0
  -30.4404  -12.4252   19.4621 C   0  0  0  0  0  0
  -29.5106  -12.5053   18.2303 C   0  0  0  0  0  0
  -28.0353  -12.3332   18.6434 C   0  0  0  0  0  0
  -27.6467  -13.2173   19.8575 C   0  0  2  0  0  0
  -28.6954  -13.1157   20.9890 C   0  0  0  0  0  0
  -25.2440  -13.7918   20.5589 C   0  0  0  0  0  0
  -24.1766  -13.0248   20.9230 C   0  0  0  0  0  0
  -24.6405  -11.6767   20.8796 C   0  0  0  0  0  0
  -23.9076  -10.4188   21.0436 C   0  0  0  0  0  0
  -24.3618   -9.4114   21.9216 C   0  0  0  0  0  0
  -23.6275   -8.2170   22.0774 C   0  0  0  0  0  0
  -22.4260   -8.0242   21.3551 C   0  0  0  0  0  0
  -21.9903   -9.0217   20.4651 C   0  0  0  0  0  0
  -22.7255  -10.2075   20.3067 C   0  0  0  0  0  0
  -21.6830   -6.0722   22.5285 C   0  0  0  0  0  0
  -21.3997   -6.5631   23.8218 C   0  0  0  0  0  0
  -21.3655   -5.6786   24.9184 C   0  0  0  0  0  0
  -21.6042   -4.3050   24.7232 C   0  0  0  0  0  0
  -21.8820   -3.8139   23.4353 C   0  0  0  0  0  0
  -21.9184   -4.6953   22.3409 C   0  0  0  0  0  0
  -22.7804  -13.5105   21.1876 C   0  0  0  0  0  0
  -22.1657   -4.2143   21.0986 F   0  0  0  0  0  0
  -21.5630   -3.4534   25.7745 F   0  0  0  0  0  0
  -30.0060  -13.4666   20.4178 N   0  0  0  0  0  0
  -26.2959  -12.9226   20.3302 N   0  0  0  0  0  0
  -25.9350  -11.6385   20.5811 N   0  0  0  0  0  0
  -22.0428  -12.8149   22.0451 N   0  0  0  0  0  0
  -25.3870  -15.1518   20.3731 N   0  0  0  0  0  0
  -31.7924  -14.8306   20.1263 O   0  0  0  0  0  0
  -21.6607   -6.8857   21.4247 O   0  0  0  0  0  0
  -22.3529  -14.5435   20.6725 O   0  0  0  0  0  0
  -24.6259  -31.8583   23.2014 C   0  0  0  0  0  0
  -25.9099  -32.4772   23.8346 C   0  0  1  0  0  0
  -27.2405  -27.3250   20.1169 C   0  0  0  0  0  0
  -25.5922  -33.8571   24.2281 N   0  0  0  0  0  0
  -23.4200  -30.4812   21.5431 C   0  0  2  0  0  0
  -24.8694  -28.9332   20.1124 C   0  0  0  0  0  0
  -22.7474  -29.4615   22.4928 C   0  0  0  0  0  0
  -18.0293  -28.1376   22.8484 C   0  0  0  0  0  0
  -24.1487  -36.7289   23.2640 C   0  0  0  0  0  0
  -25.9601  -30.7917   21.3701 C   0  0  0  0  0  0
  -26.0369  -29.4183   20.7146 C   0  0  0  0  0  0
  -27.2234  -28.6271   20.7047 C   0  0  0  0  0  0
  -26.0451  -26.8866   19.4997 C   0  0  0  0  0  0
  -24.8751  -27.6719   19.4961 C   0  0  0  0  0  0
  -23.6359  -29.8129   20.1593 C   0  0  0  0  0  0
  -25.4111  -36.3076   24.0336 C   0  0  1  0  0  0
  -20.5889  -28.3669   23.1285 C   0  0  2  0  0  0
  -20.6779  -26.9390   22.5407 C   0  0  0  0  0  0
  -19.5759  -26.6373   21.5204 C   0  0  0  0  0  0
  -18.1939  -26.7923   22.1615 C   0  0  0  0  0  0
  -19.1545  -28.8840   23.2882 C   0  0  0  0  0  0
  -18.9469  -30.1447   23.8887 C   0  0  0  0  0  0
  -17.6470  -30.6579   24.0560 C   0  0  0  0  0  0
  -25.9046  -34.9446   23.5107 C   0  0  0  0  0  0
  -16.5358  -29.9077   23.6332 C   0  0  0  0  0  0
  -16.7280  -28.6498   23.0343 C   0  0  0  0  0  0
  -26.4494  -31.6579   25.0712 C   0  0  0  0  0  0
  -25.3740  -31.3714   26.1446 C   0  0  0  0  0  0
  -27.0337  -30.3012   24.6141 C   0  0  0  0  0  0
  -27.6053  -32.4306   25.7489 C   0  0  0  0  0  0
  -27.5577  -37.1800   24.8469 C   0  0  0  0  0  0
  -21.4189  -29.3032   22.3682 N   0  0  0  0  0  0
  -26.4288  -37.3768   23.9414 N   0  0  0  0  0  0
  -24.6874  -31.0606   22.0954 N   0  0  0  0  0  0
  -23.4205  -28.8152   23.2997 O   0  0  0  0  0  0
  -28.3796  -26.5010   20.1575 O   0  0  0  0  0  0
  -26.5610  -34.8919   22.4670 O   0  0  0  0  0  0
  -23.5426  -32.1369   23.7360 O   0  0  0  0  0  0
  -28.9126  -19.5296   20.8180 C   0  0  0  0  0  0
  -31.1477  -17.9287   20.3580 C   0  0  0  0  0  0
  -28.8136  -18.1075   20.8838 C   0  0  0  0  0  0
  -31.2315  -19.3595   20.2707 C   0  0  0  0  0  0
  -30.1052  -20.2111   20.4912 C   0  0  0  0  0  0
  -29.9389  -17.2429   20.6657 C   0  0  0  0  0  0
  -29.2640  -22.5269   20.3521 C   0  0  0  0  0  0
  -32.5777  -19.9821   19.9398 C   0  0  0  0  0  0
  -26.4248  -17.9969   20.0769 C   0  0  0  0  0  0
  -27.4197  -17.5860   21.1818 C   0  0  0  0  0  0
  -29.4620  -24.0954   20.3621 C   0  0  0  0  0  0
  -28.2113  -25.0318   20.0526 C   0  0  0  0  0  0
  -30.2274  -21.6499   20.4293 N   0  0  0  0  0  0
  -29.8026  -15.7716   20.7725 N   0  0  0  0  0  0
  -31.4802  -12.5539   19.1569 H   0  0  0  0  0  0
  -30.3852  -11.4382   19.9249 H   0  0  0  0  0  0
  -29.7845  -11.7415   17.5011 H   0  0  0  0  0  0
  -29.6422  -13.4663   17.7307 H   0  0  0  0  0  0
  -27.8854  -11.2820   18.8920 H   0  0  0  0  0  0
  -27.3782  -12.5405   17.7980 H   0  0  0  0  0  0
  -27.6466  -14.2459   19.4970 H   0  0  0  0  0  0
  -28.7218  -12.1047   21.3988 H   0  0  0  0  0  0
  -28.4337  -13.7694   21.8224 H   0  0  0  0  0  0
  -25.2761   -9.5580   22.4794 H   0  0  0  0  0  0
  -23.9965   -7.4554   22.7493 H   0  0  0  0  0  0
  -21.0834   -8.8751   19.8956 H   0  0  0  0  0  0
  -22.3742  -10.9625   19.6174 H   0  0  0  0  0  0
  -21.1988   -7.6138   23.9722 H   0  0  0  0  0  0
  -21.1478   -6.0518   25.9087 H   0  0  0  0  0  0
  -22.0606   -2.7602   23.2854 H   0  0  0  0  0  0
  -22.4012  -11.9795   22.4837 H   0  0  0  0  0  0
  -21.1059  -13.1219   22.2659 H   0  0  0  0  0  0
  -24.5886  -15.7712   20.4469 H   0  0  0  0  0  0
  -26.1936  -15.5927   19.9545 H   0  0  0  0  0  0
  -26.7161  -32.5440   23.1089 H   0  0  0  0  0  0
  -25.0087  -33.9709   25.0439 H   0  0  0  0  0  0
  -22.7144  -31.3020   21.3988 H   0  0  0  0  0  0
  -23.3751  -35.9619   23.3301 H   0  0  0  0  0  0
  -24.3587  -36.8906   22.2056 H   0  0  0  0  0  0
  -23.7246  -37.6496   23.6656 H   0  0  0  0  0  0
  -26.0909  -31.5547   20.6016 H   0  0  0  0  0  0
  -26.8415  -30.8417   21.9972 H   0  0  0  0  0  0
  -28.1198  -29.0001   21.1796 H   0  0  0  0  0  0
  -25.9888  -25.9230   19.0166 H   0  0  0  0  0  0
  -23.9805  -27.2938   19.0208 H   0  0  0  0  0  0
  -23.7546  -30.5884   19.4015 H   0  0  0  0  0  0
  -22.7565  -29.2413   19.8569 H   0  0  0  0  0  0
  -25.1293  -36.1923   25.0832 H   0  0  0  0  0  0
  -20.9987  -28.3227   24.1401 H   0  0  0  0  0  0
  -20.5664  -26.2272   23.3602 H   0  0  0  0  0  0
  -21.6650  -26.7408   22.1203 H   0  0  0  0  0  0
  -19.6917  -25.6283   21.1229 H   0  0  0  0  0  0
  -19.6704  -27.3192   20.6738 H   0  0  0  0  0  0
  -17.4206  -26.6663   21.4017 H   0  0  0  0  0  0
  -18.0343  -26.0072   22.9017 H   0  0  0  0  0  0
  -19.7942  -30.7274   24.2239 H   0  0  0  0  0  0
  -17.5022  -31.6258   24.5162 H   0  0  0  0  0  0
  -15.5359  -30.2975   23.7667 H   0  0  0  0  0  0
  -15.8680  -28.0826   22.7041 H   0  0  0  0  0  0
  -24.5922  -30.7049   25.7792 H   0  0  0  0  0  0
  -24.8922  -32.2877   26.4863 H   0  0  0  0  0  0
  -25.8080  -30.8911   27.0222 H   0  0  0  0  0  0
  -26.2901  -29.6762   24.1180 H   0  0  0  0  0  0
  -27.4083  -29.7259   25.4619 H   0  0  0  0  0  0
  -27.8747  -30.4330   23.9330 H   0  0  0  0  0  0
  -27.2666  -33.3611   26.2056 H   0  0  0  0  0  0
  -28.3872  -32.6849   25.0321 H   0  0  0  0  0  0
  -28.0699  -31.8428   26.5414 H   0  0  0  0  0  0
  -28.2591  -38.0097   24.7504 H   0  0  0  0  0  0
  -28.1074  -36.2628   24.6300 H   0  0  0  0  0  0
  -27.2298  -37.1455   25.8873 H   0  0  0  0  0  0
  -20.9362  -29.8774   21.6914 H   0  0  0  0  0  0
  -26.0170  -38.2845   24.1409 H   0  0  0  0  0  0
  -28.0267  -20.1087   21.0330 H   0  0  0  0  0  0
  -32.0452  -17.3532   20.1842 H   0  0  0  0  0  0
  -28.2160  -22.2240   20.2807 H   0  0  0  0  0  0
  -33.3528  -19.2286   19.8001 H   0  0  0  0  0  0
  -32.8961  -20.6440   20.7457 H   0  0  0  0  0  0
  -32.5096  -20.5684   19.0229 H   0  0  0  0  0  0
  -25.4033  -17.7329   20.3457 H   0  0  0  0  0  0
  -26.6674  -17.5146   19.1293 H   0  0  0  0  0  0
  -26.4134  -19.0712   19.8993 H   0  0  0  0  0  0
  -27.0953  -18.0082   22.1337 H   0  0  0  0  0  0
  -27.4209  -16.5091   21.3293 H   0  0  0  0  0  0
  -30.2547  -24.3356   19.6537 H   0  0  0  0  0  0
  -29.8535  -24.3635   21.3430 H   0  0  0  0  0  0
  -27.4021  -24.7391   20.7243 H   0  0  0  0  0  0
  -27.8756  -24.7977   19.0419 H   0  0  0  0  0  0
  -28.8775  -15.4689   21.0327 H   0  0  0  0  0  0
  1 25  1  0  0  0
  1 30  2  0  0  0
  1 84  1  0  0  0
  2  3  1  0  0  0
  2 25  1  0  0  0
  2 85  1  0  0  0
  2 86  1  0  0  0
  3  4  1  0  0  0
  3 87  1  0  0  0
  3 88  1  0  0  0
  4  5  1  0  0  0
  4 89  1  0  0  0
  4 90  1  0  0  0
  5  6  1  0  0  0
  5 26  1  0  0  0
  5 91  1  0  0  0
  6 25  1  0  0  0
  6 92  1  0  0  0
  6 93  1  0  0  0
  7  8  2  0  0  0
  7 26  1  0  0  0
  7 29  1  0  0  0
  8  9  1  0  0  0
  8 22  1  0  0  0
  9 10  1  0  0  0
  9 27  2  0  0  0
 10 11  2  0  0  0
 10 15  1  0  0  0
 11 12  1  0  0  0
 11 94  1  0  0  0
 12 13  2  0  0  0
 12 95  1  0  0  0
 13 14  1  0  0  0
 13 31  1  0  0  0
 14 15  2  0  0  0
 14 96  1  0  0  0
 15 97  1  0  0  0
 16 17  2  0  0  0
 16 21  1  0  0  0
 16 31  1  0  0  0
 17 18  1  0  0  0
 17 98  1  0  0  0
 18 19  2  0  0  0
 18 99  1  0  0  0
 19 20  1  0  0  0
 19 24  1  0  0  0
 20 21  2  0  0  0
 20100  1  0  0  0
 21 23  1  0  0  0
 22 28  1  0  0  0
 22 32  2  0  0  0
 26 27  1  0  0  0
 28101  1  0  0  0
 28102  1  0  0  0
 29103  1  0  0  0
 29104  1  0  0  0
 33 34  1  0  0  0
 33 66  1  0  0  0
 33 70  2  0  0  0
 34 36  1  0  0  0
 34 59  1  0  0  0
 34105  1  0  0  0
 35 44  2  0  0  0
 35 45  1  0  0  0
 35 68  1  0  0  0
 36 56  1  0  0  0
 36106  1  0  0  0
 37 39  1  0  0  0
 37 47  1  0  0  0
 37 66  1  0  0  0
 37107  1  0  0  0
 38 43  2  0  0  0
 38 46  1  0  0  0
 38 47  1  0  0  0
 39 64  1  0  0  0
 39 67  2  0  0  0
 40 52  1  0  0  0
 40 53  2  0  0  0
 40 58  1  0  0  0
 41108  1  0  0  0
 41109  1  0  0  0
 41110  1  0  0  0
 41 48  1  0  0  0
 42 43  1  0  0  0
 42 66  1  0  0  0
 42111  1  0  0  0
 42112  1  0  0  0
 43 44  1  0  0  0
 44113  1  0  0  0
 45 46  2  0  0  0
 45114  1  0  0  0
 46115  1  0  0  0
 47116  1  0  0  0
 47117  1  0  0  0
 48 56  1  0  0  0
 48 65  1  0  0  0
 48118  1  0  0  0
 49 50  1  0  0  0
 49 53  1  0  0  0
 49 64  1  0  0  0
 49119  1  0  0  0
 50 51  1  0  0  0
 50120  1  0  0  0
 50121  1  0  0  0
 51 52  1  0  0  0
 51122  1  0  0  0
 51123  1  0  0  0
 52124  1  0  0  0
 52125  1  0  0  0
 53 54  1  0  0  0
 54 55  2  0  0  0
 54126  1  0  0  0
 55 57  1  0  0  0
 55127  1  0  0  0
 56 69  2  0  0  0
 57 58  2  0  0  0
 57128  1  0  0  0
 58129  1  0  0  0
 59 60  1  0  0  0
 59 61  1  0  0  0
 59 62  1  0  0  0
 60130  1  0  0  0
 60131  1  0  0  0
 60132  1  0  0  0
 61133  1  0  0  0
 61134  1  0  0  0
 61135  1  0  0  0
 62136  1  0  0  0
 62137  1  0  0  0
 62138  1  0  0  0
 63 65  1  0  0  0
 63139  1  0  0  0
 63140  1  0  0  0
 63141  1  0  0  0
 64142  1  0  0  0
 65143  1  0  0  0
 68 82  1  0  0  0
 71 73  2  0  0  0
 71 75  1  0  0  0
 71144  1  0  0  0
 72 74  1  0  0  0
 72 76  2  0  0  0
 72145  1  0  0  0
 73 76  1  0  0  0
 73 80  1  0  0  0
 74 75  2  0  0  0
 74 78  1  0  0  0
 75 83  1  0  0  0
 76 84  1  0  0  0
 77 81  1  0  0  0
 77 83  2  0  0  0
 77146  1  0  0  0
 78147  1  0  0  0
 78148  1  0  0  0
 78149  1  0  0  0
 79 80  1  0  0  0
 79150  1  0  0  0
 79151  1  0  0  0
 79152  1  0  0  0
 80153  1  0  0  0
 80154  1  0  0  0
 81 82  1  0  0  0
 81155  1  0  0  0
 81156  1  0  0  0
 82157  1  0  0  0
 82158  1  0  0  0
 84159  1  0  0  0
M  ISO  4   1 100  68 101  82 101  84 100
M  END
> <chiral flag>
0

> <version>
0

> <s_m_source_file>
/data/baiqing/PycharmProjects/Reinvent-master-3.2/result/LINK_invent/BTK/process_docking_weight1_custom_product_contain_oxygen_bond_distance_aromatic_linkinvent_7_9_3/rearranged_h_0117.sdf

> <i_m_source_file_index>
30

> <r_mmod_Potential_Energy-OPLS-2005>
34.8491325378418

> <r_mmod_Stretch_Energy-OPLS-2005>
89.2878341674805

> <r_mmod_Bend_Energy-OPLS-2005>
152.061553955078

> <r_mmod_Torsional_Energy-OPLS-2005>
209.246612548828

> <r_mmod_Improper_Torsional_Energy-OPLS-2005>
4.78695869445801

> <r_mmod_Van_der_Waal_Energy-OPLS-2005>
153.726470947266

> <r_mmod_Electrostatic_Energy-OPLS-2005>
-423.184631347656

> <r_mmod_Solvation_Energy-OPLS-2005>
-208.38752746582

> <b_mmod_Minimization_Converged-OPLS-2005>
0

> <r_mmod_RMS_Derivative-OPLS-2005>
1.04836106300354

$$$$
30
                    3D
 Structure written by MMmdl.
161169  0  0  1  0            999 V2000
  -30.6200  -14.6745   20.4793 C   0  0  0  0  0  0
  -30.4391  -12.4121   19.4518 C   0  0  0  0  0  0
  -29.5036  -12.5052   18.2250 C   0  0  0  0  0  0
  -28.0291  -12.3344   18.6421 C   0  0  0  0  0  0
  -27.6469  -13.2139   19.8607 C   0  0  2  0  0  0
  -28.6986  -13.1004   20.9891 C   0  0  0  0  0  0
  -25.2461  -13.8075   20.5692 C   0  0  0  0  0  0
  -24.1774  -13.0346   20.9247 C   0  0  0  0  0  0
  -24.6382  -11.6842   20.8787 C   0  0  0  0  0  0
  -23.9060  -10.4239   21.0428 C   0  0  0  0  0  0
  -24.3605   -9.4157   21.9207 C   0  0  0  0  0  0
  -23.6274   -8.2202   22.0766 C   0  0  0  0  0  0
  -22.4263   -8.0254   21.3543 C   0  0  0  0  0  0
  -21.9898   -9.0232   20.4651 C   0  0  0  0  0  0
  -22.7233  -10.2105   20.3070 C   0  0  0  0  0  0
  -21.6841   -6.0726   22.5279 C   0  0  0  0  0  0
  -21.4000   -6.5634   23.8210 C   0  0  0  0  0  0
  -21.3653   -5.6793   24.9177 C   0  0  0  0  0  0
  -21.6043   -4.3056   24.7228 C   0  0  0  0  0  0
  -21.8821   -3.8142   23.4351 C   0  0  0  0  0  0
  -21.9182   -4.6955   22.3405 C   0  0  0  0  0  0
  -22.7796  -13.5153   21.1887 C   0  0  0  0  0  0
  -22.1658   -4.2140   21.0984 F   0  0  0  0  0  0
  -21.5626   -3.4542   25.7744 F   0  0  0  0  0  0
  -30.0112  -13.4452   20.4168 N   0  0  0  0  0  0
  -26.2944  -12.9311   20.3329 N   0  0  0  0  0  0
  -25.9314  -11.6464   20.5789 N   0  0  0  0  0  0
  -22.0432  -12.8181   22.0460 N   0  0  0  0  0  0
  -25.3947  -15.1775   20.4015 N   0  0  0  0  0  0
  -31.7940  -14.8251   20.1311 O   0  0  0  0  0  0
  -21.6617   -6.8863   21.4241 O   0  0  0  0  0  0
  -22.3505  -14.5468   20.6723 O   0  0  0  0  0  0
  -24.6267  -31.8595   23.2016 C   0  0  0  0  0  0
  -25.9116  -32.4776   23.8341 C   0  0  1  0  0  0
  -27.2324  -27.3198   20.1148 C   0  0  0  0  0  0
  -25.5932  -33.8577   24.2272 N   0  0  0  0  0  0
  -23.4203  -30.4812   21.5449 C   0  0  2  0  0  0
  -24.8680  -28.9352   20.1110 C   0  0  0  0  0  0
  -22.7484  -29.4604   22.4942 C   0  0  0  0  0  0
  -18.0286  -28.1360   22.8477 C   0  0  0  0  0  0
  -24.1495  -36.7287   23.2640 C   0  0  0  0  0  0
  -25.9613  -30.7895   21.3733 C   0  0  0  0  0  0
  -26.0362  -29.4172   20.7140 C   0  0  0  0  0  0
  -27.2207  -28.6214   20.7047 C   0  0  0  0  0  0
  -26.0368  -26.8872   19.4945 C   0  0  0  0  0  0
  -24.8693  -27.6744   19.4942 C   0  0  0  0  0  0
  -23.6360  -29.8161   20.1601 C   0  0  0  0  0  0
  -25.4119  -36.3082   24.0333 C   0  0  1  0  0  0
  -20.5885  -28.3667   23.1273 C   0  0  2  0  0  0
  -20.6781  -26.9390   22.5401 C   0  0  0  0  0  0
  -19.5757  -26.6370   21.5199 C   0  0  0  0  0  0
  -18.1933  -26.7905   22.1611 C   0  0  0  0  0  0
  -19.1540  -28.8834   23.2865 C   0  0  0  0  0  0
  -18.9469  -30.1440   23.8877 C   0  0  0  0  0  0
  -17.6471  -30.6579   24.0545 C   0  0  0  0  0  0
  -25.9058  -34.9451   23.5104 C   0  0  0  0  0  0
  -16.5359  -29.9072   23.6321 C   0  0  0  0  0  0
  -16.7276  -28.6483   23.0347 C   0  0  0  0  0  0
  -26.4490  -31.6589   25.0714 C   0  0  0  0  0  0
  -25.3721  -31.3738   26.1448 C   0  0  0  0  0  0
  -27.0331  -30.3013   24.6161 C   0  0  0  0  0  0
  -27.6052  -32.4324   25.7482 C   0  0  0  0  0  0
  -27.5584  -37.1801   24.8471 C   0  0  0  0  0  0
  -21.4197  -29.3022   22.3687 N   0  0  0  0  0  0
  -26.4302  -37.3779   23.9411 N   0  0  0  0  0  0
  -24.6881  -31.0598   22.0971 N   0  0  0  0  0  0
  -23.4208  -28.8150   23.3028 O   0  0  0  0  0  0
  -28.3620  -26.4826   20.1602 O   0  0  0  0  0  0
  -26.5631  -34.8926   22.4670 O   0  0  0  0  0  0
  -23.5431  -32.1400   23.7341 O   0  0  0  0  0  0
  -30.8991  -19.3756   21.1960 C   0  0  0  0  0  0
  -28.9826  -17.9377   19.7765 C   0  0  0  0  0  0
  -29.9482  -20.1418   20.4651 C   0  0  0  0  0  0
  -29.9287  -17.1865   20.5476 C   0  0  0  0  0  0
  -29.0030  -19.3753   19.7191 C   0  0  0  0  0  0
  -30.8970  -17.9496   21.2465 C   0  0  0  0  0  0
  -27.6292  -15.9720   16.8149 C   0  0  0  0  0  0
  -28.4085  -16.4062   17.8163 C   0  0  0  0  0  0
  -29.1365  -22.4805   20.2999 C   0  0  0  0  0  0
  -28.4961  -20.1814   17.5865 C   0  0  0  0  0  0
  -27.8998  -17.1928   19.0087 C   0  0  0  0  0  0
  -29.3730  -24.0418   20.3738 C   0  0  0  0  0  0
  -28.1693  -25.0183   20.0123 C   0  0  0  0  0  0
  -30.0626  -21.5839   20.4969 N   0  0  0  0  0  0
  -29.7838  -15.7328   20.7274 N   0  0  0  0  0  0
  -28.0828  -20.0257   18.9373 O   0  0  0  0  0  0
  -31.8079  -17.3190   22.0265 F   0  0  0  0  0  0
  -31.4773  -12.5420   19.1415 H   0  0  0  0  0  0
  -30.3835  -11.4223   19.9069 H   0  0  0  0  0  0
  -29.7724  -11.7484   17.4870 H   0  0  0  0  0  0
  -29.6354  -13.4707   17.7343 H   0  0  0  0  0  0
  -27.8764  -11.2824   18.8858 H   0  0  0  0  0  0
  -27.3709  -12.5496   17.7999 H   0  0  0  0  0  0
  -27.6512  -14.2394   19.5013 H   0  0  0  0  0  0
  -28.7204  -12.0879   21.3943 H   0  0  0  0  0  0
  -28.4430  -13.7527   21.8255 H   0  0  0  0  0  0
  -25.2746   -9.5631   22.4790 H   0  0  0  0  0  0
  -23.9969   -7.4591   22.7497 H   0  0  0  0  0  0
  -21.0820   -8.8759   19.8967 H   0  0  0  0  0  0
  -22.3697  -10.9650   19.6183 H   0  0  0  0  0  0
  -21.1998   -7.6142   23.9709 H   0  0  0  0  0  0
  -21.1473   -6.0526   25.9078 H   0  0  0  0  0  0
  -22.0608   -2.7603   23.2856 H   0  0  0  0  0  0
  -22.4031  -11.9829   22.4836 H   0  0  0  0  0  0
  -21.1065  -13.1239   22.2686 H   0  0  0  0  0  0
  -24.5894  -15.7920   20.4500 H   0  0  0  0  0  0
  -26.1762  -15.5892   19.9134 H   0  0  0  0  0  0
  -26.7179  -32.5450   23.1086 H   0  0  0  0  0  0
  -25.0073  -33.9710   25.0413 H   0  0  0  0  0  0
  -22.7129  -31.3004   21.4013 H   0  0  0  0  0  0
  -23.3769  -35.9612   23.3302 H   0  0  0  0  0  0
  -24.3580  -36.8910   22.2054 H   0  0  0  0  0  0
  -23.7238  -37.6486   23.6663 H   0  0  0  0  0  0
  -26.0939  -31.5552   20.6084 H   0  0  0  0  0  0
  -26.8404  -30.8341   22.0044 H   0  0  0  0  0  0
  -28.1184  -28.9890   21.1824 H   0  0  0  0  0  0
  -25.9745  -25.9243   19.0094 H   0  0  0  0  0  0
  -23.9729  -27.2972   19.0209 H   0  0  0  0  0  0
  -23.7541  -30.5935   19.4044 H   0  0  0  0  0  0
  -22.7558  -29.2449   19.8591 H   0  0  0  0  0  0
  -25.1294  -36.1933   25.0824 H   0  0  0  0  0  0
  -20.9954  -28.3253   24.1403 H   0  0  0  0  0  0
  -20.5675  -26.2281   23.3611 H   0  0  0  0  0  0
  -21.6651  -26.7421   22.1191 H   0  0  0  0  0  0
  -19.6917  -25.6279   21.1234 H   0  0  0  0  0  0
  -19.6694  -27.3184   20.6735 H   0  0  0  0  0  0
  -17.4200  -26.6644   21.4019 H   0  0  0  0  0  0
  -18.0319  -26.0045   22.9005 H   0  0  0  0  0  0
  -19.7960  -30.7235   24.2249 H   0  0  0  0  0  0
  -17.5043  -31.6262   24.5145 H   0  0  0  0  0  0
  -15.5361  -30.2967   23.7671 H   0  0  0  0  0  0
  -15.8671  -28.0809   22.7063 H   0  0  0  0  0  0
  -24.5890  -30.7080   25.7793 H   0  0  0  0  0  0
  -24.8913  -32.2914   26.4858 H   0  0  0  0  0  0
  -25.8042  -30.8938   27.0235 H   0  0  0  0  0  0
  -26.2895  -29.6764   24.1206 H   0  0  0  0  0  0
  -27.4055  -29.7261   25.4647 H   0  0  0  0  0  0
  -27.8757  -30.4300   23.9360 H   0  0  0  0  0  0
  -27.2674  -33.3661   26.1988 H   0  0  0  0  0  0
  -28.3901  -32.6821   25.0327 H   0  0  0  0  0  0
  -28.0670  -31.8487   26.5455 H   0  0  0  0  0  0
  -28.2605  -38.0099   24.7516 H   0  0  0  0  0  0
  -28.1073  -36.2624   24.6303 H   0  0  0  0  0  0
  -27.2294  -37.1456   25.8875 H   0  0  0  0  0  0
  -20.9385  -29.8765   21.6906 H   0  0  0  0  0  0
  -26.0185  -38.2854   24.1412 H   0  0  0  0  0  0
  -31.6556  -19.8962   21.7636 H   0  0  0  0  0  0
  -28.0421  -15.3999   15.9959 H   0  0  0  0  0  0
  -26.5681  -16.1776   16.7946 H   0  0  0  0  0  0
  -29.4635  -16.1713   17.8020 H   0  0  0  0  0  0
  -28.1010  -22.2059   20.0841 H   0  0  0  0  0  0
  -27.6852  -20.6202   17.0055 H   0  0  0  0  0  0
  -28.7534  -19.2279   17.1254 H   0  0  0  0  0  0
  -29.3599  -20.8427   17.5124 H   0  0  0  0  0  0
  -27.0865  -17.8481   18.6981 H   0  0  0  0  0  0
  -27.4489  -16.5016   19.7096 H   0  0  0  0  0  0
  -30.2155  -24.2802   19.7247 H   0  0  0  0  0  0
  -29.7062  -24.2720   21.3848 H   0  0  0  0  0  0
  -27.3175  -24.7267   20.6292 H   0  0  0  0  0  0
  -27.8891  -24.8178   18.9770 H   0  0  0  0  0  0
  -28.8401  -15.4317   20.9064 H   0  0  0  0  0  0
  1 25  1  0  0  0
  1 30  2  0  0  0
  1 85  1  0  0  0
  2  3  1  0  0  0
  2 25  1  0  0  0
  2 88  1  0  0  0
  2 89  1  0  0  0
  3  4  1  0  0  0
  3 90  1  0  0  0
  3 91  1  0  0  0
  4  5  1  0  0  0
  4 92  1  0  0  0
  4 93  1  0  0  0
  5  6  1  0  0  0
  5 26  1  0  0  0
  5 94  1  0  0  0
  6 25  1  0  0  0
  6 95  1  0  0  0
  6 96  1  0  0  0
  7  8  2  0  0  0
  7 26  1  0  0  0
  7 29  1  0  0  0
  8  9  1  0  0  0
  8 22  1  0  0  0
  9 10  1  0  0  0
  9 27  2  0  0  0
 10 11  2  0  0  0
 10 15  1  0  0  0
 11 12  1  0  0  0
 11 97  1  0  0  0
 12 13  2  0  0  0
 12 98  1  0  0  0
 13 14  1  0  0  0
 13 31  1  0  0  0
 14 15  2  0  0  0
 14 99  1  0  0  0
 15100  1  0  0  0
 16 17  2  0  0  0
 16 21  1  0  0  0
 16 31  1  0  0  0
 17 18  1  0  0  0
 17101  1  0  0  0
 18 19  2  0  0  0
 18102  1  0  0  0
 19 20  1  0  0  0
 19 24  1  0  0  0
 20 21  2  0  0  0
 20103  1  0  0  0
 21 23  1  0  0  0
 22 28  1  0  0  0
 22 32  2  0  0  0
 26 27  1  0  0  0
 28104  1  0  0  0
 28105  1  0  0  0
 29106  1  0  0  0
 29107  1  0  0  0
 33 34  1  0  0  0
 33 66  1  0  0  0
 33 70  2  0  0  0
 34 36  1  0  0  0
 34 59  1  0  0  0
 34108  1  0  0  0
 35 44  2  0  0  0
 35 45  1  0  0  0
 35 68  1  0  0  0
 36 56  1  0  0  0
 36109  1  0  0  0
 37 39  1  0  0  0
 37 47  1  0  0  0
 37 66  1  0  0  0
 37110  1  0  0  0
 38 43  2  0  0  0
 38 46  1  0  0  0
 38 47  1  0  0  0
 39 64  1  0  0  0
 39 67  2  0  0  0
 40 52  1  0  0  0
 40 53  2  0  0  0
 40 58  1  0  0  0
 41111  1  0  0  0
 41112  1  0  0  0
 41113  1  0  0  0
 41 48  1  0  0  0
 42 43  1  0  0  0
 42 66  1  0  0  0
 42114  1  0  0  0
 42115  1  0  0  0
 43 44  1  0  0  0
 44116  1  0  0  0
 45 46  2  0  0  0
 45117  1  0  0  0
 46118  1  0  0  0
 47119  1  0  0  0
 47120  1  0  0  0
 48 56  1  0  0  0
 48 65  1  0  0  0
 48121  1  0  0  0
 49 50  1  0  0  0
 49 53  1  0  0  0
 49 64  1  0  0  0
 49122  1  0  0  0
 50 51  1  0  0  0
 50123  1  0  0  0
 50124  1  0  0  0
 51 52  1  0  0  0
 51125  1  0  0  0
 51126  1  0  0  0
 52127  1  0  0  0
 52128  1  0  0  0
 53 54  1  0  0  0
 54 55  2  0  0  0
 54129  1  0  0  0
 55 57  1  0  0  0
 55130  1  0  0  0
 56 69  2  0  0  0
 57 58  2  0  0  0
 57131  1  0  0  0
 58132  1  0  0  0
 59 60  1  0  0  0
 59 61  1  0  0  0
 59 62  1  0  0  0
 60133  1  0  0  0
 60134  1  0  0  0
 60135  1  0  0  0
 61136  1  0  0  0
 61137  1  0  0  0
 61138  1  0  0  0
 62139  1  0  0  0
 62140  1  0  0  0
 62141  1  0  0  0
 63 65  1  0  0  0
 63142  1  0  0  0
 63143  1  0  0  0
 63144  1  0  0  0
 64145  1  0  0  0
 65146  1  0  0  0
 68 83  1  0  0  0
 71 73  2  0  0  0
 71 76  1  0  0  0
 71147  1  0  0  0
 72 74  1  0  0  0
 72 75  2  0  0  0
 72 81  1  0  0  0
 73 75  1  0  0  0
 73 84  1  0  0  0
 74 76  2  0  0  0
 74 85  1  0  0  0
 75 86  1  0  0  0
 76 87  1  0  0  0
 77 78  2  0  0  0
 77148  1  0  0  0
 77149  1  0  0  0
 78 81  1  0  0  0
 78150  1  0  0  0
 79 82  1  0  0  0
 79 84  2  0  0  0
 79151  1  0  0  0
 80 86  1  0  0  0
 80152  1  0  0  0
 80153  1  0  0  0
 80154  1  0  0  0
 81155  1  0  0  0
 81156  1  0  0  0
 82 83  1  0  0  0
 82157  1  0  0  0
 82158  1  0  0  0
 83159  1  0  0  0
 83160  1  0  0  0
 85161  1  0  0  0
M  ISO  4   1 100  68 101  83 101  85 100
M  END
> <chiral flag>
0

> <version>
0

> <s_m_source_file>
/data/baiqing/PycharmProjects/Reinvent-master-3.2/result/LINK_invent/BTK/process_docking_weight1_custom_product_contain_oxygen_bond_distance_aromatic_linkinvent_7_9_3/rearranged_h_0117.sdf

> <i_m_source_file_index>
31

> <r_mmod_Potential_Energy-OPLS-2005>
68.8070449829102

> <r_mmod_Stretch_Energy-OPLS-2005>
86.3041610717773

> <r_mmod_Bend_Energy-OPLS-2005>
143.725280761719

> <r_mmod_Torsional_Energy-OPLS-2005>
272.3076171875

> <r_mmod_Improper_Torsional_Energy-OPLS-2005>
7.62255001068115

> <r_mmod_Van_der_Waal_Energy-OPLS-2005>
136.745758056641

> <r_mmod_Electrostatic_Energy-OPLS-2005>
-418.012420654297

> <r_mmod_Solvation_Energy-OPLS-2005>
-214.534713745117

> <b_mmod_Minimization_Converged-OPLS-2005>
0

> <r_mmod_RMS_Derivative-OPLS-2005>
1.40072417259216

$$$$
31
                    3D
 Structure written by MMmdl.
153161  0  0  1  0            999 V2000
  -30.6780  -14.7914   20.4907 C   0  0  0  0  0  0
  -30.4253  -12.4892   19.5096 C   0  0  0  0  0  0
  -29.5206  -12.5508   18.2581 C   0  0  0  0  0  0
  -28.0451  -12.3641   18.6568 C   0  0  0  0  0  0
  -27.6457  -13.2568   19.8637 C   0  0  2  0  0  0
  -28.6904  -13.2248   21.0052 C   0  0  0  0  0  0
  -25.2474  -13.8236   20.5757 C   0  0  0  0  0  0
  -24.1785  -13.0435   20.9206 C   0  0  0  0  0  0
  -24.6405  -11.6921   20.8692 C   0  0  0  0  0  0
  -23.9054  -10.4288   21.0348 C   0  0  0  0  0  0
  -24.3630   -9.4211   21.9135 C   0  0  0  0  0  0
  -23.6326   -8.2236   22.0716 C   0  0  0  0  0  0
  -22.4287   -8.0255   21.3517 C   0  0  0  0  0  0
  -21.9905   -9.0203   20.4615 C   0  0  0  0  0  0
  -22.7207  -10.2115   20.2999 C   0  0  0  0  0  0
  -21.6860   -6.0715   22.5269 C   0  0  0  0  0  0
  -21.4037   -6.5636   23.8199 C   0  0  0  0  0  0
  -21.3666   -5.6783   24.9179 C   0  0  0  0  0  0
  -21.6061   -4.3048   24.7240 C   0  0  0  0  0  0
  -21.8807   -3.8120   23.4349 C   0  0  0  0  0  0
  -21.9218   -4.6932   22.3412 C   0  0  0  0  0  0
  -22.7797  -13.5186   21.1887 C   0  0  0  0  0  0
  -22.1659   -4.2117   21.0988 F   0  0  0  0  0  0
  -21.5656   -3.4542   25.7753 F   0  0  0  0  0  0
  -30.0017  -13.5749   20.4408 N   0  0  0  0  0  0
  -26.2967  -12.9498   20.3373 N   0  0  0  0  0  0
  -25.9361  -11.6612   20.5733 N   0  0  0  0  0  0
  -22.0475  -12.8159   22.0456 N   0  0  0  0  0  0
  -25.4128  -15.1966   20.4292 N   0  0  0  0  0  0
  -31.8205  -14.8178   20.0267 O   0  0  0  0  0  0
  -21.6673   -6.8824   21.4201 O   0  0  0  0  0  0
  -22.3453  -14.5493   20.6725 O   0  0  0  0  0  0
  -24.6351  -31.8547   23.1998 C   0  0  0  0  0  0
  -25.9150  -32.4736   23.8366 C   0  0  1  0  0  0
  -27.2161  -27.2301   20.1280 C   0  0  0  0  0  0
  -25.5947  -33.8538   24.2268 N   0  0  0  0  0  0
  -23.4325  -30.4795   21.5436 C   0  0  2  0  0  0
  -24.8778  -28.9266   20.1112 C   0  0  0  0  0  0
  -22.7489  -29.4616   22.4911 C   0  0  0  0  0  0
  -18.0276  -28.1412   22.8476 C   0  0  0  0  0  0
  -24.1502  -36.7284   23.2638 C   0  0  0  0  0  0
  -25.9825  -30.7593   21.3816 C   0  0  0  0  0  0
  -26.0547  -29.3789   20.7218 C   0  0  0  0  0  0
  -27.2250  -28.5450   20.7187 C   0  0  0  0  0  0
  -26.0140  -26.8624   19.4765 C   0  0  0  0  0  0
  -24.8663  -27.6789   19.4723 C   0  0  0  0  0  0
  -23.6516  -29.8190   20.1592 C   0  0  0  0  0  0
  -25.4125  -36.3061   24.0323 C   0  0  1  0  0  0
  -20.5880  -28.3744   23.1268 C   0  0  2  0  0  0
  -20.6778  -26.9467   22.5427 C   0  0  0  0  0  0
  -19.5781  -26.6397   21.5209 C   0  0  0  0  0  0
  -18.1939  -26.7968   22.1585 C   0  0  0  0  0  0
  -19.1531  -28.8883   23.2877 C   0  0  0  0  0  0
  -18.9448  -30.1467   23.8942 C   0  0  0  0  0  0
  -17.6460  -30.6615   24.0572 C   0  0  0  0  0  0
  -25.9078  -34.9426   23.5094 C   0  0  0  0  0  0
  -16.5350  -29.9128   23.6329 C   0  0  0  0  0  0
  -16.7254  -28.6524   23.0378 C   0  0  0  0  0  0
  -26.4543  -31.6536   25.0728 C   0  0  0  0  0  0
  -25.3763  -31.3715   26.1447 C   0  0  0  0  0  0
  -27.0277  -30.2908   24.6209 C   0  0  0  0  0  0
  -27.6213  -32.4173   25.7415 C   0  0  0  0  0  0
  -27.5592  -37.1784   24.8452 C   0  0  0  0  0  0
  -21.4186  -29.3082   22.3630 N   0  0  0  0  0  0
  -26.4297  -37.3761   23.9414 N   0  0  0  0  0  0
  -24.7015  -31.0490   22.0985 N   0  0  0  0  0  0
  -23.4171  -28.8159   23.3031 O   0  0  0  0  0  0
  -28.2877  -26.2926   20.1973 O   0  0  0  0  0  0
  -26.5671  -34.8895   22.4681 O   0  0  0  0  0  0
  -23.5472  -32.1378   23.7273 O   0  0  0  0  0  0
  -30.4980  -20.9382   21.7866 C   0  0  0  0  0  0
  -30.9139  -19.5664   21.9247 C   0  0  0  0  0  0
  -29.5592  -21.0536   20.8017 C   0  0  0  0  0  0
  -30.1934  -18.8009   21.0225 C   0  0  0  0  0  0
  -28.8184  -22.2622   20.2978 C   0  0  0  0  0  0
  -30.4063  -17.3649   20.5966 C   0  0  0  0  0  0
  -30.0621  -16.0749   21.0346 C   0  0  0  0  0  0
  -28.9486  -23.6380   20.5105 C   0  0  0  0  0  0
  -32.1527  -19.9646   24.1434 C   0  0  0  0  0  0
  -32.0200  -19.1076   22.8651 C   0  0  0  0  0  0
  -27.9678  -24.8148   20.0377 C   0  0  0  0  0  0
  -29.3922  -19.7347   20.2983 O   0  0  0  0  0  0
  -31.4736  -12.5634   19.2170 H   0  0  0  0  0  0
  -30.3307  -11.5145   19.9928 H   0  0  0  0  0  0
  -29.8163  -11.7858   17.5372 H   0  0  0  0  0  0
  -29.6460  -13.5121   17.7563 H   0  0  0  0  0  0
  -27.8967  -11.3123   18.8968 H   0  0  0  0  0  0
  -27.3919  -12.5684   17.8071 H   0  0  0  0  0  0
  -27.6263  -14.2784   19.4862 H   0  0  0  0  0  0
  -28.7236  -12.2382   21.4672 H   0  0  0  0  0  0
  -28.4116  -13.9212   21.7967 H   0  0  0  0  0  0
  -25.2765   -9.5762   22.4714 H   0  0  0  0  0  0
  -24.0062   -7.4651   22.7443 H   0  0  0  0  0  0
  -21.0821   -8.8661   19.8954 H   0  0  0  0  0  0
  -22.3561  -10.9633   19.6139 H   0  0  0  0  0  0
  -21.1978   -7.6124   23.9701 H   0  0  0  0  0  0
  -21.1532   -6.0524   25.9095 H   0  0  0  0  0  0
  -22.0581   -2.7567   23.2878 H   0  0  0  0  0  0
  -22.4143  -11.9880   22.4924 H   0  0  0  0  0  0
  -21.1051  -13.1105   22.2614 H   0  0  0  0  0  0
  -24.6457  -15.8453   20.5622 H   0  0  0  0  0  0
  -26.2782  -15.6476   20.1570 H   0  0  0  0  0  0
  -26.7213  -32.5391   23.1108 H   0  0  0  0  0  0
  -25.0066  -33.9686   25.0396 H   0  0  0  0  0  0
  -22.7312  -31.3048   21.3974 H   0  0  0  0  0  0
  -23.3772  -35.9600   23.3207 H   0  0  0  0  0  0
  -24.3653  -36.9001   22.2081 H   0  0  0  0  0  0
  -23.7205  -37.6425   23.6744 H   0  0  0  0  0  0
  -26.1154  -31.5179   20.6082 H   0  0  0  0  0  0
  -26.8613  -30.8136   22.0141 H   0  0  0  0  0  0
  -28.1228  -28.8878   21.2178 H   0  0  0  0  0  0
  -25.9173  -25.9136   18.9731 H   0  0  0  0  0  0
  -23.9701  -27.3309   18.9754 H   0  0  0  0  0  0
  -23.7853  -30.6002   19.4100 H   0  0  0  0  0  0
  -22.7666  -29.2624   19.8445 H   0  0  0  0  0  0
  -25.1295  -36.1923   25.0816 H   0  0  0  0  0  0
  -20.9969  -28.3348   24.1392 H   0  0  0  0  0  0
  -20.5638  -26.2382   23.3653 H   0  0  0  0  0  0
  -21.6661  -26.7500   22.1264 H   0  0  0  0  0  0
  -19.6988  -25.6284   21.1290 H   0  0  0  0  0  0
  -19.6755  -27.3168   20.6723 H   0  0  0  0  0  0
  -17.4233  -26.6709   21.3957 H   0  0  0  0  0  0
  -18.0353  -26.0078   22.8957 H   0  0  0  0  0  0
  -19.7922  -30.7242   24.2381 H   0  0  0  0  0  0
  -17.5016  -31.6308   24.5151 H   0  0  0  0  0  0
  -15.5354  -30.3079   23.7603 H   0  0  0  0  0  0
  -15.8634  -28.0830   22.7173 H   0  0  0  0  0  0
  -24.6013  -30.6970   25.7792 H   0  0  0  0  0  0
  -24.8870  -32.2854   26.4813 H   0  0  0  0  0  0
  -25.8067  -30.8959   27.0261 H   0  0  0  0  0  0
  -26.2780  -29.6677   24.1309 H   0  0  0  0  0  0
  -27.3946  -29.7188   25.4741 H   0  0  0  0  0  0
  -27.8723  -30.4068   23.9415 H   0  0  0  0  0  0
  -27.3036  -33.3578   26.1930 H   0  0  0  0  0  0
  -28.4065  -32.6484   25.0196 H   0  0  0  0  0  0
  -28.0834  -31.8257   26.5329 H   0  0  0  0  0  0
  -28.2604  -38.0093   24.7501 H   0  0  0  0  0  0
  -28.1081  -36.2613   24.6235 H   0  0  0  0  0  0
  -27.2343  -37.1400   25.8868 H   0  0  0  0  0  0
  -20.9400  -29.8766   21.6788 H   0  0  0  0  0  0
  -26.0150  -38.2820   24.1428 H   0  0  0  0  0  0
  -30.8618  -21.7799   22.3578 H   0  0  0  0  0  0
  -27.9777  -21.9809   19.6790 H   0  0  0  0  0  0
  -31.0827  -17.3445   19.7513 H   0  0  0  0  0  0
  -29.3725  -15.9911   21.8628 H   0  0  0  0  0  0
  -29.7864  -23.9737   21.1044 H   0  0  0  0  0  0
  -33.0300  -19.6674   24.7195 H   0  0  0  0  0  0
  -31.2821  -19.8633   24.7952 H   0  0  0  0  0  0
  -32.2758  -21.0253   23.9162 H   0  0  0  0  0  0
  -32.9697  -19.1414   22.3287 H   0  0  0  0  0  0
  -31.8635  -18.0640   23.1416 H   0  0  0  0  0  0
  -27.0657  -24.6330   20.6241 H   0  0  0  0  0  0
  -27.7037  -24.6144   18.9991 H   0  0  0  0  0  0
  1 25  1  0  0  0
  1 30  2  0  0  0
  1 77  1  0  0  0
  2  3  1  0  0  0
  2 25  1  0  0  0
  2 83  1  0  0  0
  2 84  1  0  0  0
  3  4  1  0  0  0
  3 85  1  0  0  0
  3 86  1  0  0  0
  4  5  1  0  0  0
  4 87  1  0  0  0
  4 88  1  0  0  0
  5  6  1  0  0  0
  5 26  1  0  0  0
  5 89  1  0  0  0
  6 25  1  0  0  0
  6 90  1  0  0  0
  6 91  1  0  0  0
  7  8  2  0  0  0
  7 26  1  0  0  0
  7 29  1  0  0  0
  8  9  1  0  0  0
  8 22  1  0  0  0
  9 10  1  0  0  0
  9 27  2  0  0  0
 10 11  2  0  0  0
 10 15  1  0  0  0
 11 12  1  0  0  0
 11 92  1  0  0  0
 12 13  2  0  0  0
 12 93  1  0  0  0
 13 14  1  0  0  0
 13 31  1  0  0  0
 14 15  2  0  0  0
 14 94  1  0  0  0
 15 95  1  0  0  0
 16 17  2  0  0  0
 16 21  1  0  0  0
 16 31  1  0  0  0
 17 18  1  0  0  0
 17 96  1  0  0  0
 18 19  2  0  0  0
 18 97  1  0  0  0
 19 20  1  0  0  0
 19 24  1  0  0  0
 20 21  2  0  0  0
 20 98  1  0  0  0
 21 23  1  0  0  0
 22 28  1  0  0  0
 22 32  2  0  0  0
 26 27  1  0  0  0
 28 99  1  0  0  0
 28100  1  0  0  0
 29101  1  0  0  0
 29102  1  0  0  0
 33 34  1  0  0  0
 33 66  1  0  0  0
 33 70  2  0  0  0
 34 36  1  0  0  0
 34 59  1  0  0  0
 34103  1  0  0  0
 35 44  2  0  0  0
 35 45  1  0  0  0
 35 68  1  0  0  0
 36 56  1  0  0  0
 36104  1  0  0  0
 37 39  1  0  0  0
 37 47  1  0  0  0
 37 66  1  0  0  0
 37105  1  0  0  0
 38 43  2  0  0  0
 38 46  1  0  0  0
 38 47  1  0  0  0
 39 64  1  0  0  0
 39 67  2  0  0  0
 40 52  1  0  0  0
 40 53  2  0  0  0
 40 58  1  0  0  0
 41106  1  0  0  0
 41107  1  0  0  0
 41108  1  0  0  0
 41 48  1  0  0  0
 42 43  1  0  0  0
 42 66  1  0  0  0
 42109  1  0  0  0
 42110  1  0  0  0
 43 44  1  0  0  0
 44111  1  0  0  0
 45 46  2  0  0  0
 45112  1  0  0  0
 46113  1  0  0  0
 47114  1  0  0  0
 47115  1  0  0  0
 48 56  1  0  0  0
 48 65  1  0  0  0
 48116  1  0  0  0
 49 50  1  0  0  0
 49 53  1  0  0  0
 49 64  1  0  0  0
 49117  1  0  0  0
 50 51  1  0  0  0
 50118  1  0  0  0
 50119  1  0  0  0
 51 52  1  0  0  0
 51120  1  0  0  0
 51121  1  0  0  0
 52122  1  0  0  0
 52123  1  0  0  0
 53 54  1  0  0  0
 54 55  2  0  0  0
 54124  1  0  0  0
 55 57  1  0  0  0
 55125  1  0  0  0
 56 69  2  0  0  0
 57 58  2  0  0  0
 57126  1  0  0  0
 58127  1  0  0  0
 59 60  1  0  0  0
 59 61  1  0  0  0
 59 62  1  0  0  0
 60128  1  0  0  0
 60129  1  0  0  0
 60130  1  0  0  0
 61131  1  0  0  0
 61132  1  0  0  0
 61133  1  0  0  0
 62134  1  0  0  0
 62135  1  0  0  0
 62136  1  0  0  0
 63 65  1  0  0  0
 63137  1  0  0  0
 63138  1  0  0  0
 63139  1  0  0  0
 64140  1  0  0  0
 65141  1  0  0  0
 68 81  1  0  0  0
 71 72  1  0  0  0
 71 73  2  0  0  0
 71142  1  0  0  0
 72 74  2  0  0  0
 72 80  1  0  0  0
 73 75  1  0  0  0
 73 82  1  0  0  0
 74 76  1  0  0  0
 74 82  1  0  0  0
 75 78  2  0  0  0
 75143  1  0  0  0
 76 77  2  0  0  0
 76144  1  0  0  0
 77145  1  0  0  0
 78 81  1  0  0  0
 78146  1  0  0  0
 79 80  1  0  0  0
 79147  1  0  0  0
 79148  1  0  0  0
 79149  1  0  0  0
 80150  1  0  0  0
 80151  1  0  0  0
 81152  1  0  0  0
 81153  1  0  0  0
M  ISO  4   1 100  68 101  77 100  81 101
M  END
> <chiral flag>
0

> <version>
0

> <s_m_source_file>
/data/baiqing/PycharmProjects/Reinvent-master-3.2/result/LINK_invent/BTK/process_docking_weight1_custom_product_contain_oxygen_bond_distance_aromatic_linkinvent_7_9_3/rearranged_h_0117.sdf

> <i_m_source_file_index>
32

> <r_mmod_Potential_Energy-OPLS-2005>
230.78254699707

> <r_mmod_Stretch_Energy-OPLS-2005>
145.899261474609

> <r_mmod_Bend_Energy-OPLS-2005>
182.867858886719

> <r_mmod_Torsional_Energy-OPLS-2005>
218.373138427734

> <r_mmod_Improper_Torsional_Energy-OPLS-2005>
5.76442289352417

> <r_mmod_Van_der_Waal_Energy-OPLS-2005>
121.624572753906

> <r_mmod_Electrostatic_Energy-OPLS-2005>
-353.995697021484

> <r_mmod_Solvation_Energy-OPLS-2005>
-195.103790283203

> <b_mmod_Minimization_Converged-OPLS-2005>
0

> <r_mmod_RMS_Derivative-OPLS-2005>
4.77008676528931

$$$$
32
                    3D
 Structure written by MMmdl.
158166  0  0  1  0            999 V2000
  -30.5648  -14.7148   20.4848 C   0  0  0  0  0  0
  -30.4470  -12.4355   19.4498 C   0  0  0  0  0  0
  -29.5106  -12.5232   18.2224 C   0  0  0  0  0  0
  -28.0369  -12.3356   18.6372 C   0  0  0  0  0  0
  -27.6491  -13.2034   19.8582 C   0  0  2  0  0  0
  -28.7014  -13.0818   20.9842 C   0  0  0  0  0  0
  -25.2541  -13.8125   20.5767 C   0  0  0  0  0  0
  -24.1812  -13.0365   20.9170 C   0  0  0  0  0  0
  -24.6398  -11.6866   20.8640 C   0  0  0  0  0  0
  -23.9080  -10.4271   21.0361 C   0  0  0  0  0  0
  -24.3613   -9.4186   21.9166 C   0  0  0  0  0  0
  -23.6294   -8.2203   22.0736 C   0  0  0  0  0  0
  -22.4251   -8.0269   21.3545 C   0  0  0  0  0  0
  -21.9901   -9.0227   20.4614 C   0  0  0  0  0  0
  -22.7240  -10.2105   20.3046 C   0  0  0  0  0  0
  -21.6840   -6.0730   22.5296 C   0  0  0  0  0  0
  -21.3995   -6.5637   23.8228 C   0  0  0  0  0  0
  -21.3654   -5.6787   24.9181 C   0  0  0  0  0  0
  -21.6048   -4.3058   24.7229 C   0  0  0  0  0  0
  -21.8819   -3.8150   23.4350 C   0  0  0  0  0  0
  -21.9181   -4.6960   22.3401 C   0  0  0  0  0  0
  -22.7852  -13.5160   21.1868 C   0  0  0  0  0  0
  -22.1664   -4.2162   21.0981 F   0  0  0  0  0  0
  -21.5613   -3.4545   25.7732 F   0  0  0  0  0  0
  -30.0048  -13.4595   20.4189 N   0  0  0  0  0  0
  -26.2951  -12.9280   20.3281 N   0  0  0  0  0  0
  -25.9333  -11.6442   20.5734 N   0  0  0  0  0  0
  -22.0496  -12.8134   22.0417 N   0  0  0  0  0  0
  -25.4069  -15.1886   20.4486 N   0  0  0  0  0  0
  -31.7378  -14.9102   20.1429 O   0  0  0  0  0  0
  -21.6618   -6.8858   21.4258 O   0  0  0  0  0  0
  -22.3501  -14.5461   20.6743 O   0  0  0  0  0  0
  -24.6220  -31.8563   23.2062 C   0  0  0  0  0  0
  -25.9124  -32.4772   23.8368 C   0  0  1  0  0  0
  -27.2153  -27.3037   20.1227 C   0  0  0  0  0  0
  -25.5944  -33.8592   24.2294 N   0  0  0  0  0  0
  -23.4139  -30.4783   21.5516 C   0  0  2  0  0  0
  -24.8614  -28.9500   20.0935 C   0  0  0  0  0  0
  -22.7465  -29.4533   22.5008 C   0  0  0  0  0  0
  -18.0216  -28.1422   22.8573 C   0  0  0  0  0  0
  -24.1499  -36.7284   23.2643 C   0  0  0  0  0  0
  -25.9543  -30.7864   21.3746 C   0  0  0  0  0  0
  -26.0271  -29.4142   20.7149 C   0  0  0  0  0  0
  -27.2117  -28.6087   20.7114 C   0  0  0  0  0  0
  -26.0296  -26.9091   19.4588 C   0  0  0  0  0  0
  -24.8717  -27.7110   19.4420 C   0  0  0  0  0  0
  -23.6230  -29.8221   20.1610 C   0  0  0  0  0  0
  -25.4125  -36.3059   24.0319 C   0  0  1  0  0  0
  -20.5860  -28.3570   23.1294 C   0  0  2  0  0  0
  -20.6614  -26.9292   22.5359 C   0  0  0  0  0  0
  -19.5497  -26.6304   21.5202 C   0  0  0  0  0  0
  -18.1745  -26.7937   22.1790 C   0  0  0  0  0  0
  -19.1550  -28.8838   23.2869 C   0  0  0  0  0  0
  -18.9617  -30.1523   23.8766 C   0  0  0  0  0  0
  -17.6654  -30.6742   24.0451 C   0  0  0  0  0  0
  -25.9076  -34.9430   23.5132 C   0  0  0  0  0  0
  -16.5492  -29.9215   23.6496 C   0  0  0  0  0  0
  -16.7273  -28.6546   23.0626 C   0  0  0  0  0  0
  -26.4501  -31.6573   25.0735 C   0  0  0  0  0  0
  -25.3737  -31.3690   26.1463 C   0  0  0  0  0  0
  -27.0332  -30.2995   24.6174 C   0  0  0  0  0  0
  -27.6042  -32.4301   25.7528 C   0  0  0  0  0  0
  -27.5578  -37.1797   24.8462 C   0  0  0  0  0  0
  -21.4192  -29.2949   22.3752 N   0  0  0  0  0  0
  -26.4300  -37.3746   23.9413 N   0  0  0  0  0  0
  -24.6845  -31.0545   22.1038 N   0  0  0  0  0  0
  -23.4198  -28.8058   23.3089 O   0  0  0  0  0  0
  -28.3200  -26.4317   20.2022 O   0  0  0  0  0  0
  -26.5583  -34.8909   22.4677 O   0  0  0  0  0  0
  -23.5394  -32.1378   23.7405 O   0  0  0  0  0  0
  -28.6859  -19.1909   19.8119 C   0  0  0  0  0  0
  -28.7891  -17.7548   19.6530 C   0  0  0  0  0  0
  -29.4648  -19.7478   20.7897 C   0  0  0  0  0  0
  -29.6251  -17.1116   20.5558 C   0  0  0  0  0  0
  -29.0411  -23.9270   20.5990 C   0  0  0  0  0  0
  -25.7894  -18.2134   18.2024 C   0  0  0  0  0  0
  -28.0202  -16.9950   18.5974 C   0  0  0  0  0  0
  -29.5898  -21.2687   21.1702 C   0  0  0  0  0  0
  -28.8638  -22.3828   20.2732 C   0  0  0  0  0  0
  -28.0962  -24.9887   19.9009 C   0  0  0  0  0  0
  -27.1589  -17.8223   17.6184 C   0  0  0  0  0  0
  -29.6792  -15.7292   20.7790 N   0  0  0  0  0  0
  -29.9102  -24.2906   21.3917 O   0  0  0  0  0  0
  -30.3464  -18.3973   21.5702 S   0  0  0  0  0  0
  -31.4885  -12.5722   19.1535 H   0  0  0  0  0  0
  -30.3844  -11.4446   19.8990 H   0  0  0  0  0  0
  -29.7934  -11.7814   17.4719 H   0  0  0  0  0  0
  -29.6304  -13.4957   17.7411 H   0  0  0  0  0  0
  -27.8946  -11.2807   18.8751 H   0  0  0  0  0  0
  -27.3798  -12.5453   17.7918 H   0  0  0  0  0  0
  -27.6604  -14.2269   19.4985 H   0  0  0  0  0  0
  -28.7408  -12.0575   21.3520 H   0  0  0  0  0  0
  -28.4339  -13.6925   21.8480 H   0  0  0  0  0  0
  -25.2772   -9.5629   22.4750 H   0  0  0  0  0  0
  -23.9983   -7.4581   22.7474 H   0  0  0  0  0  0
  -21.0812   -8.8737   19.8946 H   0  0  0  0  0  0
  -22.3698  -10.9616   19.6142 H   0  0  0  0  0  0
  -21.2010   -7.6162   23.9734 H   0  0  0  0  0  0
  -21.1471   -6.0522   25.9079 H   0  0  0  0  0  0
  -22.0607   -2.7639   23.2846 H   0  0  0  0  0  0
  -22.4069  -11.9778   22.4764 H   0  0  0  0  0  0
  -21.1133  -13.1164   22.2650 H   0  0  0  0  0  0
  -24.6220  -15.8067   20.6248 H   0  0  0  0  0  0
  -26.2705  -15.6866   20.2853 H   0  0  0  0  0  0
  -26.7216  -32.5438   23.1143 H   0  0  0  0  0  0
  -25.0139  -33.9729   25.0462 H   0  0  0  0  0  0
  -22.7032  -31.2979   21.4178 H   0  0  0  0  0  0
  -23.3756  -35.9619   23.3302 H   0  0  0  0  0  0
  -24.3600  -36.8908   22.2052 H   0  0  0  0  0  0
  -23.7239  -37.6503   23.6671 H   0  0  0  0  0  0
  -26.0769  -31.5589   20.6098 H   0  0  0  0  0  0
  -26.8403  -30.8417   21.9983 H   0  0  0  0  0  0
  -28.1068  -28.9705   21.2033 H   0  0  0  0  0  0
  -25.9612  -25.9604   18.9434 H   0  0  0  0  0  0
  -23.9885  -27.3712   18.9137 H   0  0  0  0  0  0
  -23.7166  -30.6045   19.4044 H   0  0  0  0  0  0
  -22.7451  -29.2357   19.8759 H   0  0  0  0  0  0
  -25.1308  -36.1934   25.0794 H   0  0  0  0  0  0
  -20.9854  -28.3106   24.1424 H   0  0  0  0  0  0
  -20.5293  -26.2220   23.3513 H   0  0  0  0  0  0
  -21.6483  -26.7047   22.1340 H   0  0  0  0  0  0
  -19.6567  -25.6331   21.1013 H   0  0  0  0  0  0
  -19.6256  -27.3187   20.6743 H   0  0  0  0  0  0
  -17.3860  -26.6566   21.4376 H   0  0  0  0  0  0
  -18.0087  -26.0189   22.9191 H   0  0  0  0  0  0
  -19.8120  -30.7341   24.2004 H   0  0  0  0  0  0
  -17.5291  -31.6485   24.4950 H   0  0  0  0  0  0
  -15.5542  -30.3168   23.8061 H   0  0  0  0  0  0
  -15.8518  -28.0871   22.7666 H   0  0  0  0  0  0
  -24.5918  -30.7039   25.7803 H   0  0  0  0  0  0
  -24.8921  -32.2838   26.4925 H   0  0  0  0  0  0
  -25.8065  -30.8847   27.0232 H   0  0  0  0  0  0
  -26.2899  -29.6767   24.1184 H   0  0  0  0  0  0
  -27.4035  -29.7236   25.4678 H   0  0  0  0  0  0
  -27.8784  -30.4315   23.9407 H   0  0  0  0  0  0
  -27.2661  -33.3617   26.2107 H   0  0  0  0  0  0
  -28.3878  -32.6849   25.0371 H   0  0  0  0  0  0
  -28.0705  -31.8425   26.5451 H   0  0  0  0  0  0
  -28.2589  -38.0091   24.7511 H   0  0  0  0  0  0
  -28.1077  -36.2631   24.6310 H   0  0  0  0  0  0
  -27.2305  -37.1465   25.8862 H   0  0  0  0  0  0
  -20.9306  -29.8888   21.7201 H   0  0  0  0  0  0
  -26.0183  -38.2850   24.1383 H   0  0  0  0  0  0
  -28.0228  -19.7696   19.1879 H   0  0  0  0  0  0
  -25.2625  -18.9070   17.5465 H   0  0  0  0  0  0
  -25.8861  -18.6877   19.1809 H   0  0  0  0  0  0
  -25.1520  -17.3377   18.3308 H   0  0  0  0  0  0
  -27.3646  -16.2832   19.0822 H   0  0  0  0  0  0
  -28.7320  -16.4001   18.0263 H   0  0  0  0  0  0
  -30.6509  -21.5073   21.2071 H   0  0  0  0  0  0
  -29.2539  -21.4052   22.1977 H   0  0  0  0  0  0
  -29.1992  -22.2406   19.2467 H   0  0  0  0  0  0
  -27.7906  -22.1925   20.2429 H   0  0  0  0  0  0
  -27.0933  -24.7042   20.2023 H   0  0  0  0  0  0
  -28.1460  -24.8544   18.8217 H   0  0  0  0  0  0
  -27.6890  -18.6977   17.2443 H   0  0  0  0  0  0
  -26.9675  -17.2144   16.7293 H   0  0  0  0  0  0
  -28.7629  -15.3270   20.9202 H   0  0  0  0  0  0
  1 25  1  0  0  0
  1 30  2  0  0  0
  1 82  1  0  0  0
  2  3  1  0  0  0
  2 25  1  0  0  0
  2 85  1  0  0  0
  2 86  1  0  0  0
  3  4  1  0  0  0
  3 87  1  0  0  0
  3 88  1  0  0  0
  4  5  1  0  0  0
  4 89  1  0  0  0
  4 90  1  0  0  0
  5  6  1  0  0  0
  5 26  1  0  0  0
  5 91  1  0  0  0
  6 25  1  0  0  0
  6 92  1  0  0  0
  6 93  1  0  0  0
  7  8  2  0  0  0
  7 26  1  0  0  0
  7 29  1  0  0  0
  8  9  1  0  0  0
  8 22  1  0  0  0
  9 10  1  0  0  0
  9 27  2  0  0  0
 10 11  2  0  0  0
 10 15  1  0  0  0
 11 12  1  0  0  0
 11 94  1  0  0  0
 12 13  2  0  0  0
 12 95  1  0  0  0
 13 14  1  0  0  0
 13 31  1  0  0  0
 14 15  2  0  0  0
 14 96  1  0  0  0
 15 97  1  0  0  0
 16 17  2  0  0  0
 16 21  1  0  0  0
 16 31  1  0  0  0
 17 18  1  0  0  0
 17 98  1  0  0  0
 18 19  2  0  0  0
 18 99  1  0  0  0
 19 20  1  0  0  0
 19 24  1  0  0  0
 20 21  2  0  0  0
 20100  1  0  0  0
 21 23  1  0  0  0
 22 28  1  0  0  0
 22 32  2  0  0  0
 26 27  1  0  0  0
 28101  1  0  0  0
 28102  1  0  0  0
 29103  1  0  0  0
 29104  1  0  0  0
 33 34  1  0  0  0
 33 66  1  0  0  0
 33 70  2  0  0  0
 34 36  1  0  0  0
 34 59  1  0  0  0
 34105  1  0  0  0
 35 44  2  0  0  0
 35 45  1  0  0  0
 35 68  1  0  0  0
 36 56  1  0  0  0
 36106  1  0  0  0
 37 39  1  0  0  0
 37 47  1  0  0  0
 37 66  1  0  0  0
 37107  1  0  0  0
 38 43  2  0  0  0
 38 46  1  0  0  0
 38 47  1  0  0  0
 39 64  1  0  0  0
 39 67  2  0  0  0
 40 52  1  0  0  0
 40 53  2  0  0  0
 40 58  1  0  0  0
 41108  1  0  0  0
 41109  1  0  0  0
 41110  1  0  0  0
 41 48  1  0  0  0
 42 43  1  0  0  0
 42 66  1  0  0  0
 42111  1  0  0  0
 42112  1  0  0  0
 43 44  1  0  0  0
 44113  1  0  0  0
 45 46  2  0  0  0
 45114  1  0  0  0
 46115  1  0  0  0
 47116  1  0  0  0
 47117  1  0  0  0
 48 56  1  0  0  0
 48 65  1  0  0  0
 48118  1  0  0  0
 49 50  1  0  0  0
 49 53  1  0  0  0
 49 64  1  0  0  0
 49119  1  0  0  0
 50 51  1  0  0  0
 50120  1  0  0  0
 50121  1  0  0  0
 51 52  1  0  0  0
 51122  1  0  0  0
 51123  1  0  0  0
 52124  1  0  0  0
 52125  1  0  0  0
 53 54  1  0  0  0
 54 55  2  0  0  0
 54126  1  0  0  0
 55 57  1  0  0  0
 55127  1  0  0  0
 56 69  2  0  0  0
 57 58  2  0  0  0
 57128  1  0  0  0
 58129  1  0  0  0
 59 60  1  0  0  0
 59 61  1  0  0  0
 59 62  1  0  0  0
 60130  1  0  0  0
 60131  1  0  0  0
 60132  1  0  0  0
 61133  1  0  0  0
 61134  1  0  0  0
 61135  1  0  0  0
 62136  1  0  0  0
 62137  1  0  0  0
 62138  1  0  0  0
 63 65  1  0  0  0
 63139  1  0  0  0
 63140  1  0  0  0
 63141  1  0  0  0
 64142  1  0  0  0
 65143  1  0  0  0
 68 80  1  0  0  0
 71 72  1  0  0  0
 71 73  2  0  0  0
 71144  1  0  0  0
 72 74  2  0  0  0
 72 77  1  0  0  0
 73 78  1  0  0  0
 73 84  1  0  0  0
 74 82  1  0  0  0
 74 84  1  0  0  0
 75 79  1  0  0  0
 75 80  1  0  0  0
 75 83  2  0  0  0
 76 81  1  0  0  0
 76145  1  0  0  0
 76146  1  0  0  0
 76147  1  0  0  0
 77 81  1  0  0  0
 77148  1  0  0  0
 77149  1  0  0  0
 78 79  1  0  0  0
 78150  1  0  0  0
 78151  1  0  0  0
 79152  1  0  0  0
 79153  1  0  0  0
 80154  1  0  0  0
 80155  1  0  0  0
 81156  1  0  0  0
 81157  1  0  0  0
 82158  1  0  0  0
M  ISO  4   1 100  68 101  80 101  82 100
M  END
> <chiral flag>
0

> <version>
0

> <s_m_source_file>
/data/baiqing/PycharmProjects/Reinvent-master-3.2/result/LINK_invent/BTK/process_docking_weight1_custom_product_contain_oxygen_bond_distance_aromatic_linkinvent_7_9_3/rearranged_h_0117.sdf

> <i_m_source_file_index>
33

> <r_mmod_Potential_Energy-OPLS-2005>
108.999069213867

> <r_mmod_Stretch_Energy-OPLS-2005>
92.7626876831055

> <r_mmod_Bend_Energy-OPLS-2005>
164.262542724609

> <r_mmod_Torsional_Energy-OPLS-2005>
238.587783813477

> <r_mmod_Improper_Torsional_Energy-OPLS-2005>
6.41599607467651

> <r_mmod_Van_der_Waal_Energy-OPLS-2005>
114.889793395996

> <r_mmod_Electrostatic_Energy-OPLS-2005>
-348.884674072266

> <r_mmod_Solvation_Energy-OPLS-2005>
-229.365219116211

> <b_mmod_Minimization_Converged-OPLS-2005>
0

> <r_mmod_RMS_Derivative-OPLS-2005>
10.7995452880859

$$$$
33
                    3D
 Structure written by MMmdl.
155163  0  0  1  0            999 V2000
  -30.6838  -14.5673   20.5837 C   0  0  0  0  0  0
  -30.4356  -12.3667   19.4744 C   0  0  0  0  0  0
  -29.5279  -12.5161   18.2353 C   0  0  0  0  0  0
  -28.0427  -12.3674   18.6185 C   0  0  0  0  0  0
  -27.6621  -13.2209   19.8614 C   0  0  2  0  0  0
  -28.6901  -13.0431   21.0038 C   0  0  0  0  0  0
  -25.2595  -13.8199   20.5627 C   0  0  0  0  0  0
  -24.1832  -13.0470   20.9094 C   0  0  0  0  0  0
  -24.6421  -11.6905   20.8613 C   0  0  0  0  0  0
  -23.9078  -10.4315   21.0322 C   0  0  0  0  0  0
  -24.3646   -9.4228   21.9102 C   0  0  0  0  0  0
  -23.6319   -8.2266   22.0718 C   0  0  0  0  0  0
  -22.4302   -8.0276   21.3514 C   0  0  0  0  0  0
  -21.9905   -9.0257   20.4627 C   0  0  0  0  0  0
  -22.7252  -10.2137   20.2998 C   0  0  0  0  0  0
  -21.6870   -6.0720   22.5273 C   0  0  0  0  0  0
  -21.4052   -6.5620   23.8207 C   0  0  0  0  0  0
  -21.3669   -5.6756   24.9154 C   0  0  0  0  0  0
  -21.6046   -4.3027   24.7221 C   0  0  0  0  0  0
  -21.8815   -3.8132   23.4339 C   0  0  0  0  0  0
  -21.9198   -4.6938   22.3398 C   0  0  0  0  0  0
  -22.7886  -13.5252   21.1744 C   0  0  0  0  0  0
  -22.1646   -4.2130   21.0978 F   0  0  0  0  0  0
  -21.5629   -3.4489   25.7748 F   0  0  0  0  0  0
  -30.0186  -13.3720   20.4728 N   0  0  0  0  0  0
  -26.3025  -12.9398   20.3199 N   0  0  0  0  0  0
  -25.9339  -11.6543   20.5608 N   0  0  0  0  0  0
  -22.0500  -12.8338   22.0345 N   0  0  0  0  0  0
  -25.4292  -15.1889   20.4109 N   0  0  0  0  0  0
  -31.8212  -14.6798   20.1174 O   0  0  0  0  0  0
  -21.6641   -6.8872   21.4255 O   0  0  0  0  0  0
  -22.3562  -14.5540   20.6549 O   0  0  0  0  0  0
  -24.6213  -31.8600   23.2046 C   0  0  0  0  0  0
  -25.9107  -32.4774   23.8325 C   0  0  1  0  0  0
  -27.2181  -27.3744   20.1148 C   0  0  0  0  0  0
  -25.5921  -33.8562   24.2276 N   0  0  0  0  0  0
  -23.4043  -30.4894   21.5507 C   0  0  2  0  0  0
  -24.8434  -28.9434   20.1236 C   0  0  0  0  0  0
  -22.7400  -29.4645   22.4999 C   0  0  0  0  0  0
  -18.0269  -28.1379   22.8450 C   0  0  0  0  0  0
  -24.1491  -36.7314   23.2633 C   0  0  0  0  0  0
  -25.9345  -30.8263   21.3450 C   0  0  0  0  0  0
  -26.0143  -29.4512   20.7020 C   0  0  0  0  0  0
  -27.2095  -28.6806   20.6796 C   0  0  0  0  0  0
  -26.0136  -26.8883   19.5632 C   0  0  0  0  0  0
  -24.8394  -27.6621   19.5555 C   0  0  0  0  0  0
  -23.6060  -29.8193   20.1674 C   0  0  0  0  0  0
  -25.4101  -36.3082   24.0328 C   0  0  1  0  0  0
  -20.5851  -28.3633   23.1339 C   0  0  2  0  0  0
  -20.6755  -26.9383   22.5413 C   0  0  0  0  0  0
  -19.5757  -26.6395   21.5179 C   0  0  0  0  0  0
  -18.1931  -26.7924   22.1595 C   0  0  0  0  0  0
  -19.1511  -28.8816   23.2890 C   0  0  0  0  0  0
  -18.9458  -30.1423   23.8905 C   0  0  0  0  0  0
  -17.6466  -30.6573   24.0549 C   0  0  0  0  0  0
  -25.9021  -34.9437   23.5098 C   0  0  0  0  0  0
  -16.5349  -29.9073   23.6311 C   0  0  0  0  0  0
  -16.7258  -28.6508   23.0294 C   0  0  0  0  0  0
  -26.4506  -31.6577   25.0675 C   0  0  0  0  0  0
  -25.3787  -31.3690   26.1432 C   0  0  0  0  0  0
  -27.0324  -30.3033   24.6032 C   0  0  0  0  0  0
  -27.6059  -32.4277   25.7472 C   0  0  0  0  0  0
  -27.5565  -37.1811   24.8452 C   0  0  0  0  0  0
  -21.4106  -29.3040   22.3762 N   0  0  0  0  0  0
  -26.4259  -37.3791   23.9421 N   0  0  0  0  0  0
  -24.6736  -31.0710   22.0935 N   0  0  0  0  0  0
  -23.4135  -28.8163   23.3044 O   0  0  0  0  0  0
  -28.3684  -26.6001   20.0683 O   0  0  0  0  0  0
  -26.5570  -34.8909   22.4663 O   0  0  0  0  0  0
  -23.5407  -32.1348   23.7475 O   0  0  0  0  0  0
  -29.4429  -20.3017   22.2928 C   0  0  0  0  0  0
  -29.7778  -18.9393   22.5699 C   0  0  0  0  0  0
  -29.9401  -18.3202   21.3451 C   0  0  0  0  0  0
  -29.4172  -20.4412   20.9283 C   0  0  0  0  0  0
  -30.3947  -17.0081   20.9168 C   0  0  0  0  0  0
  -29.9654  -15.7352   21.1518 C   0  0  0  0  0  0
  -28.8829  -22.7345   20.6549 C   0  0  0  0  0  0
  -29.9918  -18.3761   23.9594 C   0  0  0  0  0  0
  -27.4454  -23.7193   18.8221 C   0  0  0  0  0  0
  -28.3433  -25.2864   20.7045 C   0  0  0  0  0  0
  -28.5928  -24.0111   19.8140 C   0  0  1  0  0  0
  -29.1897  -21.5870   20.1617 N   0  0  0  0  0  0
  -29.7257  -19.2435   20.3434 O   0  0  0  0  0  0
  -31.4823  -12.4741   19.1814 H   0  0  0  0  0  0
  -30.3634  -11.3656   19.8980 H   0  0  0  0  0  0
  -29.8053  -11.7698   17.4903 H   0  0  0  0  0  0
  -29.6927  -13.4934   17.7723 H   0  0  0  0  0  0
  -27.8692  -11.3147   18.8326 H   0  0  0  0  0  0
  -27.4034  -12.6188   17.7709 H   0  0  0  0  0  0
  -27.6953  -14.2622   19.5405 H   0  0  0  0  0  0
  -28.6796  -12.0186   21.3777 H   0  0  0  0  0  0
  -28.4258  -13.6510   21.8665 H   0  0  0  0  0  0
  -25.2816   -9.5698   22.4638 H   0  0  0  0  0  0
  -24.0004   -7.4679   22.7503 H   0  0  0  0  0  0
  -21.0783   -8.8831   19.8989 H   0  0  0  0  0  0
  -22.3712  -10.9652   19.6091 H   0  0  0  0  0  0
  -21.2064   -7.6127   23.9734 H   0  0  0  0  0  0
  -21.1475   -6.0458   25.9064 H   0  0  0  0  0  0
  -22.0584   -2.7582   23.2840 H   0  0  0  0  0  0
  -22.4168  -12.0102   22.4881 H   0  0  0  0  0  0
  -21.1082  -13.1338   22.2453 H   0  0  0  0  0  0
  -24.6681  -15.8453   20.5526 H   0  0  0  0  0  0
  -26.2837  -15.6330   20.0994 H   0  0  0  0  0  0
  -26.7160  -32.5505   23.1057 H   0  0  0  0  0  0
  -25.0091  -33.9647   25.0436 H   0  0  0  0  0  0
  -22.6983  -31.3103   21.4158 H   0  0  0  0  0  0
  -23.3717  -35.9679   23.3263 H   0  0  0  0  0  0
  -24.3623  -36.8943   22.2054 H   0  0  0  0  0  0
  -23.7245  -37.6516   23.6663 H   0  0  0  0  0  0
  -26.0312  -31.5926   20.5706 H   0  0  0  0  0  0
  -26.8224  -30.8916   21.9589 H   0  0  0  0  0  0
  -28.1180  -29.0780   21.1108 H   0  0  0  0  0  0
  -25.9575  -25.8997   19.1512 H   0  0  0  0  0  0
  -23.9311  -27.2544   19.1318 H   0  0  0  0  0  0
  -23.7094  -30.5885   19.4000 H   0  0  0  0  0  0
  -22.7258  -29.2395   19.8818 H   0  0  0  0  0  0
  -25.1287  -36.1902   25.0809 H   0  0  0  0  0  0
  -20.9924  -28.3191   24.1463 H   0  0  0  0  0  0
  -20.5656  -26.2226   23.3568 H   0  0  0  0  0  0
  -21.6646  -26.7450   22.1251 H   0  0  0  0  0  0
  -19.6934  -25.6305   21.1212 H   0  0  0  0  0  0
  -19.6736  -27.3188   20.6696 H   0  0  0  0  0  0
  -17.4206  -26.6595   21.4004 H   0  0  0  0  0  0
  -18.0387  -26.0073   22.9013 H   0  0  0  0  0  0
  -19.7928  -30.7224   24.2303 H   0  0  0  0  0  0
  -17.5020  -31.6271   24.5122 H   0  0  0  0  0  0
  -15.5348  -30.2982   23.7664 H   0  0  0  0  0  0
  -15.8641  -28.0862   22.6976 H   0  0  0  0  0  0
  -24.5966  -30.7000   25.7828 H   0  0  0  0  0  0
  -24.8971  -32.2841   26.4894 H   0  0  0  0  0  0
  -25.8175  -30.8897   27.0195 H   0  0  0  0  0  0
  -26.2850  -29.6768   24.1143 H   0  0  0  0  0  0
  -27.4160  -29.7298   25.4484 H   0  0  0  0  0  0
  -27.8654  -30.4351   23.9114 H   0  0  0  0  0  0
  -27.2679  -33.3584   26.2046 H   0  0  0  0  0  0
  -28.3920  -32.6799   25.0342 H   0  0  0  0  0  0
  -28.0656  -31.8377   26.5408 H   0  0  0  0  0  0
  -28.2582  -38.0114   24.7527 H   0  0  0  0  0  0
  -28.1065  -36.2654   24.6245 H   0  0  0  0  0  0
  -27.2308  -37.1409   25.8858 H   0  0  0  0  0  0
  -20.9218  -29.8791   21.7035 H   0  0  0  0  0  0
  -26.0133  -38.2858   24.1447 H   0  0  0  0  0  0
  -29.2817  -21.0844   23.0267 H   0  0  0  0  0  0
  -31.2807  -17.0986   20.3096 H   0  0  0  0  0  0
  -29.0853  -15.6165   21.7621 H   0  0  0  0  0  0
  -28.7908  -22.9016   21.7314 H   0  0  0  0  0  0
  -29.9548  -19.1819   24.6935 H   0  0  0  0  0  0
  -30.9679  -17.8930   24.0306 H   0  0  0  0  0  0
  -29.2243  -17.6540   24.2380 H   0  0  0  0  0  0
  -27.7148  -22.9223   18.1255 H   0  0  0  0  0  0
  -27.2170  -24.5865   18.2036 H   0  0  0  0  0  0
  -26.5414  -23.4074   19.3470 H   0  0  0  0  0  0
  -29.1621  -25.3340   21.4263 H   0  0  0  0  0  0
  -27.4433  -25.1437   21.3061 H   0  0  0  0  0  0
  -29.4875  -24.2039   19.2234 H   0  0  0  0  0  0
  1 25  1  0  0  0
  1 30  2  0  0  0
  1 76  1  0  0  0
  2  3  1  0  0  0
  2 25  1  0  0  0
  2 84  1  0  0  0
  2 85  1  0  0  0
  3  4  1  0  0  0
  3 86  1  0  0  0
  3 87  1  0  0  0
  4  5  1  0  0  0
  4 88  1  0  0  0
  4 89  1  0  0  0
  5  6  1  0  0  0
  5 26  1  0  0  0
  5 90  1  0  0  0
  6 25  1  0  0  0
  6 91  1  0  0  0
  6 92  1  0  0  0
  7  8  2  0  0  0
  7 26  1  0  0  0
  7 29  1  0  0  0
  8  9  1  0  0  0
  8 22  1  0  0  0
  9 10  1  0  0  0
  9 27  2  0  0  0
 10 11  2  0  0  0
 10 15  1  0  0  0
 11 12  1  0  0  0
 11 93  1  0  0  0
 12 13  2  0  0  0
 12 94  1  0  0  0
 13 14  1  0  0  0
 13 31  1  0  0  0
 14 15  2  0  0  0
 14 95  1  0  0  0
 15 96  1  0  0  0
 16 17  2  0  0  0
 16 21  1  0  0  0
 16 31  1  0  0  0
 17 18  1  0  0  0
 17 97  1  0  0  0
 18 19  2  0  0  0
 18 98  1  0  0  0
 19 20  1  0  0  0
 19 24  1  0  0  0
 20 21  2  0  0  0
 20 99  1  0  0  0
 21 23  1  0  0  0
 22 28  1  0  0  0
 22 32  2  0  0  0
 26 27  1  0  0  0
 28100  1  0  0  0
 28101  1  0  0  0
 29102  1  0  0  0
 29103  1  0  0  0
 33 34  1  0  0  0
 33 66  1  0  0  0
 33 70  2  0  0  0
 34 36  1  0  0  0
 34 59  1  0  0  0
 34104  1  0  0  0
 35 44  2  0  0  0
 35 45  1  0  0  0
 35 68  1  0  0  0
 36 56  1  0  0  0
 36105  1  0  0  0
 37 39  1  0  0  0
 37 47  1  0  0  0
 37 66  1  0  0  0
 37106  1  0  0  0
 38 43  2  0  0  0
 38 46  1  0  0  0
 38 47  1  0  0  0
 39 64  1  0  0  0
 39 67  2  0  0  0
 40 52  1  0  0  0
 40 53  2  0  0  0
 40 58  1  0  0  0
 41107  1  0  0  0
 41108  1  0  0  0
 41109  1  0  0  0
 41 48  1  0  0  0
 42 43  1  0  0  0
 42 66  1  0  0  0
 42110  1  0  0  0
 42111  1  0  0  0
 43 44  1  0  0  0
 44112  1  0  0  0
 45 46  2  0  0  0
 45113  1  0  0  0
 46114  1  0  0  0
 47115  1  0  0  0
 47116  1  0  0  0
 48 56  1  0  0  0
 48 65  1  0  0  0
 48117  1  0  0  0
 49 50  1  0  0  0
 49 53  1  0  0  0
 49 64  1  0  0  0
 49118  1  0  0  0
 50 51  1  0  0  0
 50119  1  0  0  0
 50120  1  0  0  0
 51 52  1  0  0  0
 51121  1  0  0  0
 51122  1  0  0  0
 52123  1  0  0  0
 52124  1  0  0  0
 53 54  1  0  0  0
 54 55  2  0  0  0
 54125  1  0  0  0
 55 57  1  0  0  0
 55126  1  0  0  0
 56 69  2  0  0  0
 57 58  2  0  0  0
 57127  1  0  0  0
 58128  1  0  0  0
 59 60  1  0  0  0
 59 61  1  0  0  0
 59 62  1  0  0  0
 60129  1  0  0  0
 60130  1  0  0  0
 60131  1  0  0  0
 61132  1  0  0  0
 61133  1  0  0  0
 61134  1  0  0  0
 62135  1  0  0  0
 62136  1  0  0  0
 62137  1  0  0  0
 63 65  1  0  0  0
 63138  1  0  0  0
 63139  1  0  0  0
 63140  1  0  0  0
 64141  1  0  0  0
 65142  1  0  0  0
 68 80  1  0  0  0
 71 72  1  0  0  0
 71 74  2  0  0  0
 71143  1  0  0  0
 72 73  2  0  0  0
 72 78  1  0  0  0
 73 75  1  0  0  0
 73 83  1  0  0  0
 74 82  1  0  0  0
 74 83  1  0  0  0
 75 76  2  0  0  0
 75144  1  0  0  0
 76145  1  0  0  0
 77 81  1  0  0  0
 77 82  2  0  0  0
 77146  1  0  0  0
 78147  1  0  0  0
 78148  1  0  0  0
 78149  1  0  0  0
 79150  1  0  0  0
 79151  1  0  0  0
 79152  1  0  0  0
 79 81  1  0  0  0
 80 81  1  0  0  0
 80153  1  0  0  0
 80154  1  0  0  0
 81155  1  0  0  0
M  ISO  4   1 100  68 101  76 100  80 101
M  END
> <chiral flag>
0

> <version>
0

> <s_m_source_file>
/data/baiqing/PycharmProjects/Reinvent-master-3.2/result/LINK_invent/BTK/process_docking_weight1_custom_product_contain_oxygen_bond_distance_aromatic_linkinvent_7_9_3/rearranged_h_0117.sdf

> <i_m_source_file_index>
34

> <r_mmod_Potential_Energy-OPLS-2005>
-9.64779186248779

> <r_mmod_Stretch_Energy-OPLS-2005>
52.8846015930176

> <r_mmod_Bend_Energy-OPLS-2005>
130.606216430664

> <r_mmod_Torsional_Energy-OPLS-2005>
214.399826049805

> <r_mmod_Improper_Torsional_Energy-OPLS-2005>
3.51417255401611

> <r_mmod_Van_der_Waal_Energy-OPLS-2005>
133.153213500977

> <r_mmod_Electrostatic_Energy-OPLS-2005>
-367.330505371094

> <r_mmod_Solvation_Energy-OPLS-2005>
-202.909866333008

> <b_mmod_Minimization_Converged-OPLS-2005>
0

> <r_mmod_RMS_Derivative-OPLS-2005>
7.38363075256348

$$$$
34
                    3D
 Structure written by MMmdl.
150158  0  0  1  0            999 V2000
  -30.5533  -14.7881   20.4729 C   0  0  0  0  0  0
  -30.4502  -12.4821   19.4791 C   0  0  0  0  0  0
  -29.5205  -12.5251   18.2429 C   0  0  0  0  0  0
  -28.0463  -12.3373   18.6540 C   0  0  0  0  0  0
  -27.6491  -13.2279   19.8607 C   0  0  2  0  0  0
  -28.6927  -13.1356   20.9967 C   0  0  0  0  0  0
  -25.2540  -13.8191   20.5692 C   0  0  0  0  0  0
  -24.1820  -13.0444   20.9204 C   0  0  0  0  0  0
  -24.6404  -11.6919   20.8752 C   0  0  0  0  0  0
  -23.9075  -10.4299   21.0409 C   0  0  0  0  0  0
  -24.3626   -9.4211   21.9183 C   0  0  0  0  0  0
  -23.6298   -8.2248   22.0756 C   0  0  0  0  0  0
  -22.4274   -8.0293   21.3555 C   0  0  0  0  0  0
  -21.9915   -9.0266   20.4650 C   0  0  0  0  0  0
  -22.7249  -10.2141   20.3057 C   0  0  0  0  0  0
  -21.6855   -6.0739   22.5282 C   0  0  0  0  0  0
  -21.4014   -6.5642   23.8215 C   0  0  0  0  0  0
  -21.3658   -5.6795   24.9177 C   0  0  0  0  0  0
  -21.6042   -4.3059   24.7222 C   0  0  0  0  0  0
  -21.8821   -3.8151   23.4344 C   0  0  0  0  0  0
  -21.9189   -4.6967   22.3400 C   0  0  0  0  0  0
  -22.7839  -13.5231   21.1853 C   0  0  0  0  0  0
  -22.1662   -4.2155   21.0977 F   0  0  0  0  0  0
  -21.5624   -3.4538   25.7732 F   0  0  0  0  0  0
  -29.9945  -13.5243   20.4312 N   0  0  0  0  0  0
  -26.2974  -12.9390   20.3314 N   0  0  0  0  0  0
  -25.9337  -11.6536   20.5760 N   0  0  0  0  0  0
  -22.0479  -12.8234   22.0414 N   0  0  0  0  0  0
  -25.4238  -15.1912   20.4089 N   0  0  0  0  0  0
  -31.7083  -14.9614   20.0686 O   0  0  0  0  0  0
  -21.6645   -6.8885   21.4246 O   0  0  0  0  0  0
  -22.3527  -14.5534   20.6692 O   0  0  0  0  0  0
  -24.6338  -31.8519   23.1951 C   0  0  0  0  0  0
  -25.9154  -32.4733   23.8303 C   0  0  1  0  0  0
  -27.2297  -27.2320   20.1245 C   0  0  0  0  0  0
  -25.5947  -33.8533   24.2232 N   0  0  0  0  0  0
  -23.4315  -30.4725   21.5388 C   0  0  2  0  0  0
  -24.8806  -28.9123   20.1078 C   0  0  0  0  0  0
  -22.7514  -29.4580   22.4900 C   0  0  0  0  0  0
  -18.0294  -28.1401   22.8484 C   0  0  0  0  0  0
  -24.1478  -36.7258   23.2641 C   0  0  0  0  0  0
  -25.9790  -30.7550   21.3779 C   0  0  0  0  0  0
  -26.0515  -29.3736   20.7205 C   0  0  0  0  0  0
  -27.2220  -28.5448   20.7199 C   0  0  0  0  0  0
  -26.0280  -26.8398   19.4918 C   0  0  0  0  0  0
  -24.8755  -27.6542   19.4850 C   0  0  0  0  0  0
  -23.6520  -29.8036   20.1555 C   0  0  0  0  0  0
  -25.4112  -36.3049   24.0324 C   0  0  1  0  0  0
  -20.5900  -28.3706   23.1269 C   0  0  2  0  0  0
  -20.6776  -26.9418   22.5418 C   0  0  0  0  0  0
  -19.5754  -26.6391   21.5218 C   0  0  0  0  0  0
  -18.1931  -26.7943   22.1625 C   0  0  0  0  0  0
  -19.1546  -28.8872   23.2868 C   0  0  0  0  0  0
  -18.9469  -30.1471   23.8889 C   0  0  0  0  0  0
  -17.6468  -30.6599   24.0565 C   0  0  0  0  0  0
  -25.9062  -34.9424   23.5080 C   0  0  0  0  0  0
  -16.5359  -29.9095   23.6342 C   0  0  0  0  0  0
  -16.7279  -28.6517   23.0353 C   0  0  0  0  0  0
  -26.4529  -31.6576   25.0702 C   0  0  0  0  0  0
  -25.3755  -31.3737   26.1427 C   0  0  0  0  0  0
  -27.0398  -30.2997   24.6205 C   0  0  0  0  0  0
  -27.6066  -32.4333   25.7483 C   0  0  0  0  0  0
  -27.5569  -37.1781   24.8474 C   0  0  0  0  0  0
  -21.4217  -29.3036   22.3647 N   0  0  0  0  0  0
  -26.4281  -37.3758   23.9423 N   0  0  0  0  0  0
  -24.7007  -31.0451   22.0938 N   0  0  0  0  0  0
  -23.4201  -28.8133   23.3018 O   0  0  0  0  0  0
  -28.3417  -26.3497   20.2207 O   0  0  0  0  0  0
  -26.5635  -34.8912   22.4645 O   0  0  0  0  0  0
  -23.5481  -32.1351   23.7235 O   0  0  0  0  0  0
  -28.8649  -19.4813   21.3013 C   0  0  0  0  0  0
  -28.9375  -18.0635   21.6468 C   0  0  0  0  0  0
  -29.5043  -19.8534   20.1422 C   0  0  0  0  0  0
  -29.6620  -17.2387   20.7908 C   0  0  0  0  0  0
  -29.2913  -22.3559   19.4018 C   0  0  0  0  0  0
  -28.2309  -17.5258   22.8563 C   0  0  0  0  0  0
  -28.6721  -23.5275   20.3161 C   0  0  0  0  0  0
  -28.4572  -24.9828   19.5695 C   0  0  0  0  0  0
  -29.6019  -21.0585   19.3807 N   0  0  0  0  0  0
  -29.7275  -15.8261   20.8949 N   0  0  0  0  0  0
  -30.2819  -18.3387   19.5236 S   0  0  0  0  0  0
  -31.4874  -12.6332   19.1750 H   0  0  0  0  0  0
  -30.4203  -11.4995   19.9516 H   0  0  0  0  0  0
  -29.8101  -11.7559   17.5254 H   0  0  0  0  0  0
  -29.6379  -13.4808   17.7294 H   0  0  0  0  0  0
  -27.9069  -11.2873   18.9128 H   0  0  0  0  0  0
  -27.3883  -12.5317   17.8068 H   0  0  0  0  0  0
  -27.6500  -14.2545   19.4929 H   0  0  0  0  0  0
  -28.7377  -12.1227   21.3988 H   0  0  0  0  0  0
  -28.4113  -13.7748   21.8349 H   0  0  0  0  0  0
  -25.2771   -9.5682   22.4761 H   0  0  0  0  0  0
  -24.0005   -7.4636   22.7478 H   0  0  0  0  0  0
  -21.0846   -8.8792   19.8955 H   0  0  0  0  0  0
  -22.3715  -10.9685   19.6170 H   0  0  0  0  0  0
  -21.2017   -7.6153   23.9722 H   0  0  0  0  0  0
  -21.1475   -6.0522   25.9079 H   0  0  0  0  0  0
  -22.0598   -2.7612   23.2840 H   0  0  0  0  0  0
  -22.4092  -11.9904   22.4825 H   0  0  0  0  0  0
  -21.1098  -13.1269   22.2610 H   0  0  0  0  0  0
  -24.6498  -15.8398   20.4993 H   0  0  0  0  0  0
  -26.2655  -15.6286   20.0562 H   0  0  0  0  0  0
  -26.7210  -32.5381   23.1033 H   0  0  0  0  0  0
  -25.0099  -33.9662   25.0383 H   0  0  0  0  0  0
  -22.7294  -31.2957   21.3911 H   0  0  0  0  0  0
  -23.3747  -35.9582   23.3308 H   0  0  0  0  0  0
  -24.3558  -36.8875   22.2054 H   0  0  0  0  0  0
  -23.7222  -37.6450   23.6671 H   0  0  0  0  0  0
  -26.1172  -31.5125   20.6054 H   0  0  0  0  0  0
  -26.8562  -30.8084   22.0108 H   0  0  0  0  0  0
  -28.1164  -28.8936   21.2182 H   0  0  0  0  0  0
  -25.9292  -25.8722   19.0274 H   0  0  0  0  0  0
  -23.9755  -27.2904   19.0089 H   0  0  0  0  0  0
  -23.7779  -30.5796   19.3996 H   0  0  0  0  0  0
  -22.7692  -29.2395   19.8500 H   0  0  0  0  0  0
  -25.1290  -36.1878   25.0815 H   0  0  0  0  0  0
  -20.9987  -28.3288   24.1393 H   0  0  0  0  0  0
  -20.5672  -26.2313   23.3623 H   0  0  0  0  0  0
  -21.6644  -26.7437   22.1217 H   0  0  0  0  0  0
  -19.6906  -25.6298   21.1251 H   0  0  0  0  0  0
  -19.6695  -27.3201   20.6749 H   0  0  0  0  0  0
  -17.4202  -26.6691   21.4024 H   0  0  0  0  0  0
  -18.0324  -26.0090   22.9028 H   0  0  0  0  0  0
  -19.7942  -30.7290   24.2251 H   0  0  0  0  0  0
  -17.5024  -31.6281   24.5163 H   0  0  0  0  0  0
  -15.5358  -30.2995   23.7680 H   0  0  0  0  0  0
  -15.8676  -28.0841   22.7070 H   0  0  0  0  0  0
  -24.5926  -30.7085   25.7768 H   0  0  0  0  0  0
  -24.8963  -32.2914   26.4845 H   0  0  0  0  0  0
  -25.8081  -30.8926   27.0208 H   0  0  0  0  0  0
  -26.2999  -29.6717   24.1230 H   0  0  0  0  0  0
  -27.4086  -29.7280   25.4730 H   0  0  0  0  0  0
  -27.8868  -30.4277   23.9457 H   0  0  0  0  0  0
  -27.2663  -33.3640   26.2037 H   0  0  0  0  0  0
  -28.3899  -32.6886   25.0332 H   0  0  0  0  0  0
  -28.0718  -31.8481   26.5424 H   0  0  0  0  0  0
  -28.2592  -38.0071   24.7516 H   0  0  0  0  0  0
  -28.1050  -36.2601   24.6304 H   0  0  0  0  0  0
  -27.2290  -37.1447   25.8876 H   0  0  0  0  0  0
  -20.9410  -29.8735   21.6829 H   0  0  0  0  0  0
  -26.0142  -38.2816   24.1448 H   0  0  0  0  0  0
  -28.2992  -20.1722   21.9111 H   0  0  0  0  0  0
  -29.5652  -22.8522   18.4669 H   0  0  0  0  0  0
  -27.4304  -16.8409   22.5744 H   0  0  0  0  0  0
  -27.7800  -18.3240   23.4466 H   0  0  0  0  0  0
  -28.9182  -16.9884   23.5102 H   0  0  0  0  0  0
  -29.3433  -23.6649   21.1632 H   0  0  0  0  0  0
  -27.7237  -23.1857   20.7300 H   0  0  0  0  0  0
  -27.7000  -24.8492   18.8013 H   0  0  0  0  0  0
  -29.3623  -25.1188   18.9769 H   0  0  0  0  0  0
  -28.9195  -15.4411   21.3587 H   0  0  0  0  0  0
  1 25  1  0  0  0
  1 30  2  0  0  0
  1 80  1  0  0  0
  2  3  1  0  0  0
  2 25  1  0  0  0
  2 82  1  0  0  0
  2 83  1  0  0  0
  3  4  1  0  0  0
  3 84  1  0  0  0
  3 85  1  0  0  0
  4  5  1  0  0  0
  4 86  1  0  0  0
  4 87  1  0  0  0
  5  6  1  0  0  0
  5 26  1  0  0  0
  5 88  1  0  0  0
  6 25  1  0  0  0
  6 89  1  0  0  0
  6 90  1  0  0  0
  7  8  2  0  0  0
  7 26  1  0  0  0
  7 29  1  0  0  0
  8  9  1  0  0  0
  8 22  1  0  0  0
  9 10  1  0  0  0
  9 27  2  0  0  0
 10 11  2  0  0  0
 10 15  1  0  0  0
 11 12  1  0  0  0
 11 91  1  0  0  0
 12 13  2  0  0  0
 12 92  1  0  0  0
 13 14  1  0  0  0
 13 31  1  0  0  0
 14 15  2  0  0  0
 14 93  1  0  0  0
 15 94  1  0  0  0
 16 17  2  0  0  0
 16 21  1  0  0  0
 16 31  1  0  0  0
 17 18  1  0  0  0
 17 95  1  0  0  0
 18 19  2  0  0  0
 18 96  1  0  0  0
 19 20  1  0  0  0
 19 24  1  0  0  0
 20 21  2  0  0  0
 20 97  1  0  0  0
 21 23  1  0  0  0
 22 28  1  0  0  0
 22 32  2  0  0  0
 26 27  1  0  0  0
 28 98  1  0  0  0
 28 99  1  0  0  0
 29100  1  0  0  0
 29101  1  0  0  0
 33 34  1  0  0  0
 33 66  1  0  0  0
 33 70  2  0  0  0
 34 36  1  0  0  0
 34 59  1  0  0  0
 34102  1  0  0  0
 35 44  2  0  0  0
 35 45  1  0  0  0
 35 68  1  0  0  0
 36 56  1  0  0  0
 36103  1  0  0  0
 37 39  1  0  0  0
 37 47  1  0  0  0
 37 66  1  0  0  0
 37104  1  0  0  0
 38 43  2  0  0  0
 38 46  1  0  0  0
 38 47  1  0  0  0
 39 64  1  0  0  0
 39 67  2  0  0  0
 40 52  1  0  0  0
 40 53  2  0  0  0
 40 58  1  0  0  0
 41105  1  0  0  0
 41106  1  0  0  0
 41107  1  0  0  0
 41 48  1  0  0  0
 42 43  1  0  0  0
 42 66  1  0  0  0
 42108  1  0  0  0
 42109  1  0  0  0
 43 44  1  0  0  0
 44110  1  0  0  0
 45 46  2  0  0  0
 45111  1  0  0  0
 46112  1  0  0  0
 47113  1  0  0  0
 47114  1  0  0  0
 48 56  1  0  0  0
 48 65  1  0  0  0
 48115  1  0  0  0
 49 50  1  0  0  0
 49 53  1  0  0  0
 49 64  1  0  0  0
 49116  1  0  0  0
 50 51  1  0  0  0
 50117  1  0  0  0
 50118  1  0  0  0
 51 52  1  0  0  0
 51119  1  0  0  0
 51120  1  0  0  0
 52121  1  0  0  0
 52122  1  0  0  0
 53 54  1  0  0  0
 54 55  2  0  0  0
 54123  1  0  0  0
 55 57  1  0  0  0
 55124  1  0  0  0
 56 69  2  0  0  0
 57 58  2  0  0  0
 57125  1  0  0  0
 58126  1  0  0  0
 59 60  1  0  0  0
 59 61  1  0  0  0
 59 62  1  0  0  0
 60127  1  0  0  0
 60128  1  0  0  0
 60129  1  0  0  0
 61130  1  0  0  0
 61131  1  0  0  0
 61132  1  0  0  0
 62133  1  0  0  0
 62134  1  0  0  0
 62135  1  0  0  0
 63 65  1  0  0  0
 63136  1  0  0  0
 63137  1  0  0  0
 63138  1  0  0  0
 64139  1  0  0  0
 65140  1  0  0  0
 68 78  1  0  0  0
 71 72  1  0  0  0
 71 73  2  0  0  0
 71141  1  0  0  0
 72 74  2  0  0  0
 72 76  1  0  0  0
 73 79  1  0  0  0
 73 81  1  0  0  0
 74 80  1  0  0  0
 74 81  1  0  0  0
 75 77  1  0  0  0
 75 79  2  0  0  0
 75142  1  0  0  0
 76143  1  0  0  0
 76144  1  0  0  0
 76145  1  0  0  0
 77 78  1  0  0  0
 77146  1  0  0  0
 77147  1  0  0  0
 78148  1  0  0  0
 78149  1  0  0  0
 80150  1  0  0  0
M  ISO  4   1 100  68 101  78 101  80 100
M  END
> <chiral flag>
0

> <version>
0

> <s_m_source_file>
/data/baiqing/PycharmProjects/Reinvent-master-3.2/result/LINK_invent/BTK/process_docking_weight1_custom_product_contain_oxygen_bond_distance_aromatic_linkinvent_7_9_3/rearranged_h_0117.sdf

> <i_m_source_file_index>
35

> <r_mmod_Potential_Energy-OPLS-2005>
280.783874511719

> <r_mmod_Stretch_Energy-OPLS-2005>
138.482269287109

> <r_mmod_Bend_Energy-OPLS-2005>
320.400573730469

> <r_mmod_Torsional_Energy-OPLS-2005>
206.104949951172

> <r_mmod_Improper_Torsional_Energy-OPLS-2005>
3.45839548110962

> <r_mmod_Van_der_Waal_Energy-OPLS-2005>
112.386306762695

> <r_mmod_Electrostatic_Energy-OPLS-2005>
-376.956268310547

> <r_mmod_Solvation_Energy-OPLS-2005>
-226.050231933594

> <b_mmod_Minimization_Converged-OPLS-2005>
0

> <r_mmod_RMS_Derivative-OPLS-2005>
1.07889401912689

$$$$
35
                    3D
 Structure written by MMmdl.
154162  0  0  1  0            999 V2000
  -30.5089  -15.0273   20.4425 C   0  0  0  0  0  0
  -30.4518  -12.6447   19.5033 C   0  0  0  0  0  0
  -29.5338  -12.5408   18.2598 C   0  0  0  0  0  0
  -28.0657  -12.3167   18.6748 C   0  0  0  0  0  0
  -27.6294  -13.2508   19.8355 C   0  0  2  0  0  0
  -28.6738  -13.3006   20.9740 C   0  0  0  0  0  0
  -25.2475  -13.8212   20.5705 C   0  0  0  0  0  0
  -24.1796  -13.0421   20.9215 C   0  0  0  0  0  0
  -24.6420  -11.6916   20.8739 C   0  0  0  0  0  0
  -23.9108  -10.4280   21.0394 C   0  0  0  0  0  0
  -24.3650   -9.4194   21.9184 C   0  0  0  0  0  0
  -23.6294   -8.2248   22.0769 C   0  0  0  0  0  0
  -22.4281   -8.0293   21.3561 C   0  0  0  0  0  0
  -21.9926   -9.0268   20.4677 C   0  0  0  0  0  0
  -22.7271  -10.2123   20.3059 C   0  0  0  0  0  0
  -21.6848   -6.0738   22.5276 C   0  0  0  0  0  0
  -21.4021   -6.5635   23.8214 C   0  0  0  0  0  0
  -21.3658   -5.6793   24.9177 C   0  0  0  0  0  0
  -21.6026   -4.3055   24.7231 C   0  0  0  0  0  0
  -21.8820   -3.8144   23.4356 C   0  0  0  0  0  0
  -21.9200   -4.6964   22.3408 C   0  0  0  0  0  0
  -22.7829  -13.5217   21.1827 C   0  0  0  0  0  0
  -22.1657   -4.2142   21.0991 F   0  0  0  0  0  0
  -21.5628   -3.4546   25.7744 F   0  0  0  0  0  0
  -29.9342  -13.7490   20.3721 N   0  0  0  0  0  0
  -26.2888  -12.9434   20.3231 N   0  0  0  0  0  0
  -25.9346  -11.6564   20.5706 N   0  0  0  0  0  0
  -22.0491  -12.8232   22.0409 N   0  0  0  0  0  0
  -25.4172  -15.1944   20.4158 N   0  0  0  0  0  0
  -31.7154  -15.0856   20.1768 O   0  0  0  0  0  0
  -21.6642   -6.8891   21.4242 O   0  0  0  0  0  0
  -22.3524  -14.5520   20.6652 O   0  0  0  0  0  0
  -24.6511  -31.8364   23.1831 C   0  0  0  0  0  0
  -25.9261  -32.4632   23.8265 C   0  0  1  0  0  0
  -27.2067  -27.0617   20.1646 C   0  0  0  0  0  0
  -25.6003  -33.8443   24.2205 N   0  0  0  0  0  0
  -23.4581  -30.4530   21.5293 C   0  0  2  0  0  0
  -24.9071  -28.8666   20.1111 C   0  0  0  0  0  0
  -22.7630  -29.4493   22.4859 C   0  0  0  0  0  0
  -18.0314  -28.1371   22.8489 C   0  0  0  0  0  0
  -24.1485  -36.7167   23.2659 C   0  0  0  0  0  0
  -26.0218  -30.6811   21.3986 C   0  0  0  0  0  0
  -26.0887  -29.2906   20.7325 C   0  0  0  0  0  0
  -27.2383  -28.4061   20.7380 C   0  0  0  0  0  0
  -26.0008  -26.7550   19.4973 C   0  0  0  0  0  0
  -24.8788  -27.6150   19.4788 C   0  0  0  0  0  0
  -23.6878  -29.7768   20.1520 C   0  0  0  0  0  0
  -25.4124  -36.2994   24.0347 C   0  0  1  0  0  0
  -20.5934  -28.3708   23.1223 C   0  0  2  0  0  0
  -20.6777  -26.9413   22.5404 C   0  0  0  0  0  0
  -19.5749  -26.6365   21.5207 C   0  0  0  0  0  0
  -18.1932  -26.7912   22.1628 C   0  0  0  0  0  0
  -19.1581  -28.8865   23.2833 C   0  0  0  0  0  0
  -18.9489  -30.1453   23.8864 C   0  0  0  0  0  0
  -17.6489  -30.6578   24.0548 C   0  0  0  0  0  0
  -25.9099  -34.9377   23.5108 C   0  0  0  0  0  0
  -16.5381  -29.9062   23.6326 C   0  0  0  0  0  0
  -16.7302  -28.6458   23.0401 C   0  0  0  0  0  0
  -26.4593  -31.6500   25.0711 C   0  0  0  0  0  0
  -25.3771  -31.3654   26.1393 C   0  0  0  0  0  0
  -27.0503  -30.2897   24.6333 C   0  0  0  0  0  0
  -27.6130  -32.4296   25.7463 C   0  0  0  0  0  0
  -27.5574  -37.1740   24.8502 C   0  0  0  0  0  0
  -21.4323  -29.3021   22.3596 N   0  0  0  0  0  0
  -26.4281  -37.3715   23.9450 N   0  0  0  0  0  0
  -24.7298  -31.0128   22.0916 N   0  0  0  0  0  0
  -23.4246  -28.8065   23.3061 O   0  0  0  0  0  0
  -28.2287  -26.0276   20.2651 O   0  0  0  0  0  0
  -26.5691  -34.8897   22.4688 O   0  0  0  0  0  0
  -23.5599  -32.1352   23.6956 O   0  0  0  0  0  0
  -29.0034  -18.9239   20.2975 C   0  0  0  0  0  0
  -29.9089  -17.7565   20.7118 C   0  0  0  0  0  0
  -29.3793  -20.2892   20.6188 C   0  0  0  0  0  0
  -30.9630  -18.3039   21.4202 C   0  0  0  0  0  0
  -28.8223  -21.7683   20.4592 C   0  0  0  0  0  0
  -28.8607  -23.2152   20.6365 C   0  0  0  0  0  0
  -29.9139  -23.8442   21.5546 C   0  0  0  0  0  0
  -33.4601  -18.0188   21.9154 C   0  0  0  0  0  0
  -32.0146  -17.6414   22.2657 C   0  0  0  0  0  0
  -27.9421  -24.4823   20.0420 C   0  0  0  0  0  0
  -29.6943  -16.2131   20.5768 N   0  0  0  0  0  0
  -30.9409  -20.0858   21.4165 S   0  0  0  0  0  0
  -31.4821  -12.8277   19.1922 H   0  0  0  0  0  0
  -30.4761  -11.6977   20.0464 H   0  0  0  0  0  0
  -29.8672  -11.7296   17.6107 H   0  0  0  0  0  0
  -29.6150  -13.4562   17.6711 H   0  0  0  0  0  0
  -27.9655  -11.2768   18.9862 H   0  0  0  0  0  0
  -27.4070  -12.4398   17.8142 H   0  0  0  0  0  0
  -27.5855  -14.2483   19.3971 H   0  0  0  0  0  0
  -28.7859  -12.3226   21.4450 H   0  0  0  0  0  0
  -28.3675  -13.9909   21.7623 H   0  0  0  0  0  0
  -25.2798   -9.5647   22.4771 H   0  0  0  0  0  0
  -23.9984   -7.4645   22.7506 H   0  0  0  0  0  0
  -21.0855   -8.8802   19.9008 H   0  0  0  0  0  0
  -22.3742  -10.9668   19.6178 H   0  0  0  0  0  0
  -21.2010   -7.6146   23.9704 H   0  0  0  0  0  0
  -21.1476   -6.0535   25.9077 H   0  0  0  0  0  0
  -22.0604   -2.7608   23.2859 H   0  0  0  0  0  0
  -22.4074  -11.9871   22.4794 H   0  0  0  0  0  0
  -21.1126  -13.1286   22.2624 H   0  0  0  0  0  0
  -24.6501  -15.8480   20.5340 H   0  0  0  0  0  0
  -26.2526  -15.6365   20.0535 H   0  0  0  0  0  0
  -26.7316  -32.5210   23.0971 H   0  0  0  0  0  0
  -25.0153  -33.9551   25.0358 H   0  0  0  0  0  0
  -22.7663  -31.2812   21.3653 H   0  0  0  0  0  0
  -23.3797  -35.9449   23.3329 H   0  0  0  0  0  0
  -24.3563  -36.8769   22.2068 H   0  0  0  0  0  0
  -23.7183  -37.6352   23.6673 H   0  0  0  0  0  0
  -26.2130  -31.4326   20.6330 H   0  0  0  0  0  0
  -26.8806  -30.7183   22.0573 H   0  0  0  0  0  0
  -28.1359  -28.7200   21.2540 H   0  0  0  0  0  0
  -25.8812  -25.7954   19.0166 H   0  0  0  0  0  0
  -23.9708  -27.2809   18.9959 H   0  0  0  0  0  0
  -23.8411  -30.5466   19.3953 H   0  0  0  0  0  0
  -22.7993  -29.2248   19.8337 H   0  0  0  0  0  0
  -25.1294  -36.1842   25.0829 H   0  0  0  0  0  0
  -21.0031  -28.3273   24.1346 H   0  0  0  0  0  0
  -20.5635  -26.2344   23.3641 H   0  0  0  0  0  0
  -21.6637  -26.7379   22.1226 H   0  0  0  0  0  0
  -19.6922  -25.6274   21.1232 H   0  0  0  0  0  0
  -19.6643  -27.3180   20.6734 H   0  0  0  0  0  0
  -17.4217  -26.6702   21.4017 H   0  0  0  0  0  0
  -18.0295  -26.0028   22.8989 H   0  0  0  0  0  0
  -19.7968  -30.7256   24.2241 H   0  0  0  0  0  0
  -17.5044  -31.6260   24.5157 H   0  0  0  0  0  0
  -15.5388  -30.2980   23.7612 H   0  0  0  0  0  0
  -15.8693  -28.0722   22.7213 H   0  0  0  0  0  0
  -24.6000  -30.6953   25.7700 H   0  0  0  0  0  0
  -24.8887  -32.2789   26.4782 H   0  0  0  0  0  0
  -25.8049  -30.8863   27.0203 H   0  0  0  0  0  0
  -26.3158  -29.6573   24.1327 H   0  0  0  0  0  0
  -27.4145  -29.7219   25.4911 H   0  0  0  0  0  0
  -27.9058  -30.4166   23.9692 H   0  0  0  0  0  0
  -27.2765  -33.3667   26.1906 H   0  0  0  0  0  0
  -28.3966  -32.6735   25.0275 H   0  0  0  0  0  0
  -28.0788  -31.8511   26.5459 H   0  0  0  0  0  0
  -28.2619  -38.0014   24.7554 H   0  0  0  0  0  0
  -28.1057  -36.2561   24.6338 H   0  0  0  0  0  0
  -27.2302  -37.1366   25.8908 H   0  0  0  0  0  0
  -20.9605  -29.8719   21.6716 H   0  0  0  0  0  0
  -26.0167  -38.2795   24.1434 H   0  0  0  0  0  0
  -28.0828  -18.7076   19.7770 H   0  0  0  0  0  0
  -29.2160  -21.7659   21.4552 H   0  0  0  0  0  0
  -30.7315  -23.1654   21.8054 H   0  0  0  0  0  0
  -29.4521  -24.1876   22.4795 H   0  0  0  0  0  0
  -30.3666  -24.7079   21.0658 H   0  0  0  0  0  0
  -33.6108  -19.0975   21.9723 H   0  0  0  0  0  0
  -33.7333  -17.6828   20.9154 H   0  0  0  0  0  0
  -34.1552  -17.5561   22.6178 H   0  0  0  0  0  0
  -31.8417  -17.9305   23.3018 H   0  0  0  0  0  0
  -31.9106  -16.5594   22.2680 H   0  0  0  0  0  0
  -26.9552  -24.3160   20.4749 H   0  0  0  0  0  0
  -27.8196  -24.3210   18.9708 H   0  0  0  0  0  0
  -28.7202  -15.9598   20.5915 H   0  0  0  0  0  0
  1 25  1  0  0  0
  1 30  2  0  0  0
  1 81  1  0  0  0
  2  3  1  0  0  0
  2 25  1  0  0  0
  2 83  1  0  0  0
  2 84  1  0  0  0
  3  4  1  0  0  0
  3 85  1  0  0  0
  3 86  1  0  0  0
  4  5  1  0  0  0
  4 87  1  0  0  0
  4 88  1  0  0  0
  5  6  1  0  0  0
  5 26  1  0  0  0
  5 89  1  0  0  0
  6 25  1  0  0  0
  6 90  1  0  0  0
  6 91  1  0  0  0
  7  8  2  0  0  0
  7 26  1  0  0  0
  7 29  1  0  0  0
  8  9  1  0  0  0
  8 22  1  0  0  0
  9 10  1  0  0  0
  9 27  2  0  0  0
 10 11  2  0  0  0
 10 15  1  0  0  0
 11 12  1  0  0  0
 11 92  1  0  0  0
 12 13  2  0  0  0
 12 93  1  0  0  0
 13 14  1  0  0  0
 13 31  1  0  0  0
 14 15  2  0  0  0
 14 94  1  0  0  0
 15 95  1  0  0  0
 16 17  2  0  0  0
 16 21  1  0  0  0
 16 31  1  0  0  0
 17 18  1  0  0  0
 17 96  1  0  0  0
 18 19  2  0  0  0
 18 97  1  0  0  0
 19 20  1  0  0  0
 19 24  1  0  0  0
 20 21  2  0  0  0
 20 98  1  0  0  0
 21 23  1  0  0  0
 22 28  1  0  0  0
 22 32  2  0  0  0
 26 27  1  0  0  0
 28 99  1  0  0  0
 28100  1  0  0  0
 29101  1  0  0  0
 29102  1  0  0  0
 33 34  1  0  0  0
 33 66  1  0  0  0
 33 70  2  0  0  0
 34 36  1  0  0  0
 34 59  1  0  0  0
 34103  1  0  0  0
 35 44  2  0  0  0
 35 45  1  0  0  0
 35 68  1  0  0  0
 36 56  1  0  0  0
 36104  1  0  0  0
 37 39  1  0  0  0
 37 47  1  0  0  0
 37 66  1  0  0  0
 37105  1  0  0  0
 38 43  2  0  0  0
 38 46  1  0  0  0
 38 47  1  0  0  0
 39 64  1  0  0  0
 39 67  2  0  0  0
 40 52  1  0  0  0
 40 53  2  0  0  0
 40 58  1  0  0  0
 41106  1  0  0  0
 41107  1  0  0  0
 41108  1  0  0  0
 41 48  1  0  0  0
 42 43  1  0  0  0
 42 66  1  0  0  0
 42109  1  0  0  0
 42110  1  0  0  0
 43 44  1  0  0  0
 44111  1  0  0  0
 45 46  2  0  0  0
 45112  1  0  0  0
 46113  1  0  0  0
 47114  1  0  0  0
 47115  1  0  0  0
 48 56  1  0  0  0
 48 65  1  0  0  0
 48116  1  0  0  0
 49 50  1  0  0  0
 49 53  1  0  0  0
 49 64  1  0  0  0
 49117  1  0  0  0
 50 51  1  0  0  0
 50118  1  0  0  0
 50119  1  0  0  0
 51 52  1  0  0  0
 51120  1  0  0  0
 51121  1  0  0  0
 52122  1  0  0  0
 52123  1  0  0  0
 53 54  1  0  0  0
 54 55  2  0  0  0
 54124  1  0  0  0
 55 57  1  0  0  0
 55125  1  0  0  0
 56 69  2  0  0  0
 57 58  2  0  0  0
 57126  1  0  0  0
 58127  1  0  0  0
 59 60  1  0  0  0
 59 61  1  0  0  0
 59 62  1  0  0  0
 60128  1  0  0  0
 60129  1  0  0  0
 60130  1  0  0  0
 61131  1  0  0  0
 61132  1  0  0  0
 61133  1  0  0  0
 62134  1  0  0  0
 62135  1  0  0  0
 62136  1  0  0  0
 63 65  1  0  0  0
 63137  1  0  0  0
 63138  1  0  0  0
 63139  1  0  0  0
 64140  1  0  0  0
 65141  1  0  0  0
 68 80  1  0  0  0
 71 72  1  0  0  0
 71 73  2  0  0  0
 71142  1  0  0  0
 72 74  2  0  0  0
 72 81  1  0  0  0
 73 75  1  0  0  0
 73 82  1  0  0  0
 74 79  1  0  0  0
 74 82  1  0  0  0
 75 76  2  0  0  0
 75143  1  0  0  0
 76 77  1  0  0  0
 76 80  1  0  0  0
 77144  1  0  0  0
 77145  1  0  0  0
 77146  1  0  0  0
 78 79  1  0  0  0
 78147  1  0  0  0
 78148  1  0  0  0
 78149  1  0  0  0
 79150  1  0  0  0
 79151  1  0  0  0
 80152  1  0  0  0
 80153  1  0  0  0
 81154  1  0  0  0
M  ISO  4   1 100  68 101  80 101  81 100
M  END
> <chiral flag>
0

> <version>
0

> <s_m_source_file>
/data/baiqing/PycharmProjects/Reinvent-master-3.2/result/LINK_invent/BTK/process_docking_weight1_custom_product_contain_oxygen_bond_distance_aromatic_linkinvent_7_9_3/rearranged_h_0117.sdf

> <i_m_source_file_index>
36

> <r_mmod_Potential_Energy-OPLS-2005>
870.410766601562

> <r_mmod_Stretch_Energy-OPLS-2005>
328.930328369141

> <r_mmod_Bend_Energy-OPLS-2005>
449.873229980469

> <r_mmod_Torsional_Energy-OPLS-2005>
245.480117797852

> <r_mmod_Improper_Torsional_Energy-OPLS-2005>
15.8456201553345

> <r_mmod_Van_der_Waal_Energy-OPLS-2005>
125.518898010254

> <r_mmod_Electrostatic_Energy-OPLS-2005>
-349.757995605469

> <r_mmod_Solvation_Energy-OPLS-2005>
-205.239990234375

> <b_mmod_Minimization_Converged-OPLS-2005>
0

> <r_mmod_RMS_Derivative-OPLS-2005>
4.12330436706543

$$$$
36
                    3D
 Structure written by MMmdl.
153162  0  0  1  0            999 V2000
  -30.5505  -14.7832   20.4503 C   0  0  0  0  0  0
  -30.4534  -12.4758   19.4888 C   0  0  0  0  0  0
  -29.5334  -12.5187   18.2468 C   0  0  0  0  0  0
  -28.0547  -12.3298   18.6491 C   0  0  0  0  0  0
  -27.6480  -13.2253   19.8511 C   0  0  2  0  0  0
  -28.6846  -13.1428   20.9911 C   0  0  0  0  0  0
  -25.2553  -13.8164   20.5677 C   0  0  0  0  0  0
  -24.1814  -13.0428   20.9151 C   0  0  0  0  0  0
  -24.6388  -11.6908   20.8682 C   0  0  0  0  0  0
  -23.9052  -10.4291   21.0398 C   0  0  0  0  0  0
  -24.3601   -9.4212   21.9187 C   0  0  0  0  0  0
  -23.6285   -8.2247   22.0768 C   0  0  0  0  0  0
  -22.4265   -8.0283   21.3564 C   0  0  0  0  0  0
  -21.9900   -9.0243   20.4652 C   0  0  0  0  0  0
  -22.7214  -10.2130   20.3054 C   0  0  0  0  0  0
  -21.6859   -6.0735   22.5273 C   0  0  0  0  0  0
  -21.4012   -6.5647   23.8203 C   0  0  0  0  0  0
  -21.3651   -5.6796   24.9165 C   0  0  0  0  0  0
  -21.6027   -4.3050   24.7216 C   0  0  0  0  0  0
  -21.8805   -3.8156   23.4326 C   0  0  0  0  0  0
  -21.9174   -4.6972   22.3390 C   0  0  0  0  0  0
  -22.7845  -13.5248   21.1781 C   0  0  0  0  0  0
  -22.1654   -4.2171   21.0978 F   0  0  0  0  0  0
  -21.5626   -3.4519   25.7715 F   0  0  0  0  0  0
  -29.9885  -13.5233   20.4281 N   0  0  0  0  0  0
  -26.2959  -12.9360   20.3205 N   0  0  0  0  0  0
  -25.9311  -11.6504   20.5655 N   0  0  0  0  0  0
  -22.0464  -12.8299   22.0345 N   0  0  0  0  0  0
  -25.4278  -15.1892   20.4136 N   0  0  0  0  0  0
  -31.7167  -14.9368   20.0715 O   0  0  0  0  0  0
  -21.6659   -6.8873   21.4237 O   0  0  0  0  0  0
  -22.3551  -14.5543   20.6588 O   0  0  0  0  0  0
  -24.6348  -31.8554   23.1972 C   0  0  0  0  0  0
  -25.9168  -32.4730   23.8338 C   0  0  1  0  0  0
  -27.2059  -27.2371   20.1483 C   0  0  0  0  0  0
  -25.5980  -33.8550   24.2286 N   0  0  0  0  0  0
  -23.4325  -30.4783   21.5411 C   0  0  2  0  0  0
  -24.8829  -28.9269   20.1046 C   0  0  0  0  0  0
  -22.7518  -29.4594   22.4887 C   0  0  0  0  0  0
  -18.0317  -28.1354   22.8479 C   0  0  0  0  0  0
  -24.1510  -36.7273   23.2636 C   0  0  0  0  0  0
  -25.9819  -30.7610   21.3842 C   0  0  0  0  0  0
  -26.0565  -29.3843   20.7216 C   0  0  0  0  0  0
  -27.2260  -28.5498   20.7354 C   0  0  0  0  0  0
  -26.0197  -26.8610   19.4882 C   0  0  0  0  0  0
  -24.8719  -27.6733   19.4750 C   0  0  0  0  0  0
  -23.6554  -29.8182   20.1553 C   0  0  0  0  0  0
  -25.4130  -36.3056   24.0327 C   0  0  1  0  0  0
  -20.5905  -28.3688   23.1264 C   0  0  2  0  0  0
  -20.6814  -26.9401   22.5412 C   0  0  0  0  0  0
  -19.5798  -26.6355   21.5218 C   0  0  0  0  0  0
  -18.1967  -26.7895   22.1608 C   0  0  0  0  0  0
  -19.1556  -28.8834   23.2871 C   0  0  0  0  0  0
  -18.9462  -30.1425   23.8898 C   0  0  0  0  0  0
  -17.6466  -30.6560   24.0544 C   0  0  0  0  0  0
  -25.9069  -34.9423   23.5100 C   0  0  0  0  0  0
  -16.5366  -29.9049   23.6276 C   0  0  0  0  0  0
  -16.7303  -28.6464   23.0324 C   0  0  0  0  0  0
  -26.4519  -31.6539   25.0745 C   0  0  0  0  0  0
  -25.3733  -31.3687   26.1456 C   0  0  0  0  0  0
  -27.0374  -30.2940   24.6250 C   0  0  0  0  0  0
  -27.6098  -32.4254   25.7512 C   0  0  0  0  0  0
  -27.5585  -37.1792   24.8456 C   0  0  0  0  0  0
  -21.4225  -29.3029   22.3638 N   0  0  0  0  0  0
  -26.4290  -37.3759   23.9406 N   0  0  0  0  0  0
  -24.7019  -31.0485   22.0971 N   0  0  0  0  0  0
  -23.4204  -28.8132   23.2991 O   0  0  0  0  0  0
  -28.2068  -26.2353   20.2461 O   0  0  0  0  0  0
  -26.5627  -34.8884   22.4658 O   0  0  0  0  0  0
  -23.5495  -32.1402   23.7240 O   0  0  0  0  0  0
  -30.1739  -18.0142   19.4662 C   0  0  0  0  0  0
  -29.7223  -17.2461   20.5414 C   0  0  0  0  0  0
  -29.2020  -19.8498   20.5797 C   0  0  0  0  0  0
  -28.0579  -23.6934   21.0156 C   0  0  0  0  0  0
  -27.8111  -25.0755   20.9843 C   0  0  0  0  0  0
  -27.3038  -22.8701   22.0315 C   0  0  0  0  0  0
  -28.9157  -22.6014   20.2702 C   0  0  0  0  0  0
  -27.9077  -21.4564   22.0560 C   0  0  0  0  0  0
  -30.8559  -17.5050   18.2315 C   0  0  0  0  0  0
  -29.9056  -19.4237   19.5181 N   0  0  0  0  0  0
  -28.7384  -21.2064   20.8742 N   0  0  0  0  0  0
  -29.7277  -15.8522   20.7959 N   0  0  0  0  0  0
  -28.8656  -18.4030   21.6153 S   0  0  0  0  0  0
  -31.4940  -12.6219   19.1968 H   0  0  0  0  0  0
  -30.4171  -11.4948   19.9640 H   0  0  0  0  0  0
  -29.8362  -11.7487   17.5360 H   0  0  0  0  0  0
  -29.6531  -13.4724   17.7294 H   0  0  0  0  0  0
  -27.9126  -11.2798   18.9090 H   0  0  0  0  0  0
  -27.4052  -12.5201   17.7955 H   0  0  0  0  0  0
  -27.6496  -14.2474   19.4743 H   0  0  0  0  0  0
  -28.7266  -12.1314   21.3985 H   0  0  0  0  0  0
  -28.4069  -13.7916   21.8233 H   0  0  0  0  0  0
  -25.2733   -9.5712   22.4763 H   0  0  0  0  0  0
  -23.9961   -7.4677   22.7533 H   0  0  0  0  0  0
  -21.0813   -8.8739   19.9015 H   0  0  0  0  0  0
  -22.3630  -10.9651   19.6161 H   0  0  0  0  0  0
  -21.2033   -7.6156   23.9695 H   0  0  0  0  0  0
  -21.1493   -6.0547   25.9061 H   0  0  0  0  0  0
  -22.0597   -2.7614   23.2819 H   0  0  0  0  0  0
  -22.4035  -12.0001   22.4851 H   0  0  0  0  0  0
  -21.1096  -13.1425   22.2480 H   0  0  0  0  0  0
  -24.6635  -15.8434   20.5448 H   0  0  0  0  0  0
  -26.2690  -15.6293   20.0654 H   0  0  0  0  0  0
  -26.7241  -32.5372   23.1084 H   0  0  0  0  0  0
  -25.0169  -33.9693   25.0454 H   0  0  0  0  0  0
  -22.7299  -31.3009   21.3938 H   0  0  0  0  0  0
  -23.3769  -35.9602   23.3282 H   0  0  0  0  0  0
  -24.3614  -36.8908   22.2049 H   0  0  0  0  0  0
  -23.7239  -37.6468   23.6664 H   0  0  0  0  0  0
  -26.1320  -31.5234   20.6187 H   0  0  0  0  0  0
  -26.8555  -30.8045   22.0229 H   0  0  0  0  0  0
  -28.1159  -28.8833   21.2516 H   0  0  0  0  0  0
  -25.9654  -25.8883   19.0229 H   0  0  0  0  0  0
  -23.9742  -27.3167   18.9886 H   0  0  0  0  0  0
  -23.7878  -30.6006   19.4065 H   0  0  0  0  0  0
  -22.7722  -29.2584   19.8423 H   0  0  0  0  0  0
  -25.1289  -36.1927   25.0812 H   0  0  0  0  0  0
  -21.0029  -28.3294   24.1378 H   0  0  0  0  0  0
  -20.5727  -26.2303   23.3619 H   0  0  0  0  0  0
  -21.6678  -26.7441   22.1194 H   0  0  0  0  0  0
  -19.6965  -25.6261   21.1258 H   0  0  0  0  0  0
  -19.6733  -27.3153   20.6736 H   0  0  0  0  0  0
  -17.4246  -26.6660   21.3994 H   0  0  0  0  0  0
  -18.0354  -26.0027   22.8995 H   0  0  0  0  0  0
  -19.7937  -30.7235   24.2291 H   0  0  0  0  0  0
  -17.5007  -31.6238   24.5148 H   0  0  0  0  0  0
  -15.5351  -30.2956   23.7567 H   0  0  0  0  0  0
  -15.8717  -28.0777   22.7023 H   0  0  0  0  0  0
  -24.5918  -30.7019   25.7761 H   0  0  0  0  0  0
  -24.8897  -32.2851   26.4849 H   0  0  0  0  0  0
  -25.8032  -30.8872   27.0248 H   0  0  0  0  0  0
  -26.2963  -29.6659   24.1271 H   0  0  0  0  0  0
  -27.4043  -29.7213   25.4776 H   0  0  0  0  0  0
  -27.8848  -30.4185   23.9504 H   0  0  0  0  0  0
  -27.2743  -33.3566   26.2072 H   0  0  0  0  0  0
  -28.3910  -32.6770   25.0337 H   0  0  0  0  0  0
  -28.0756  -31.8376   26.5430 H   0  0  0  0  0  0
  -28.2580  -38.0110   24.7511 H   0  0  0  0  0  0
  -28.1100  -36.2637   24.6262 H   0  0  0  0  0  0
  -27.2317  -37.1414   25.8863 H   0  0  0  0  0  0
  -20.9420  -29.8771   21.6853 H   0  0  0  0  0  0
  -26.0181  -38.2833   24.1409 H   0  0  0  0  0  0
  -27.1016  -25.4051   21.7329 H   0  0  0  0  0  0
  -26.2563  -22.8243   21.7316 H   0  0  0  0  0  0
  -27.3282  -23.3250   23.0233 H   0  0  0  0  0  0
  -29.9678  -22.8824   20.3179 H   0  0  0  0  0  0
  -28.6264  -22.5809   19.2191 H   0  0  0  0  0  0
  -27.1068  -20.7168   22.1292 H   0  0  0  0  0  0
  -28.5200  -21.3270   22.9496 H   0  0  0  0  0  0
  -31.8947  -17.2468   18.4320 H   0  0  0  0  0  0
  -30.8545  -18.2532   17.4365 H   0  0  0  0  0  0
  -30.3622  -16.6209   17.8279 H   0  0  0  0  0  0
  -28.9095  -15.5370   21.2953 H   0  0  0  0  0  0
  1 25  1  0  0  0
  1 30  2  0  0  0
  1 82  1  0  0  0
  2  3  1  0  0  0
  2 25  1  0  0  0
  2 84  1  0  0  0
  2 85  1  0  0  0
  3  4  1  0  0  0
  3 86  1  0  0  0
  3 87  1  0  0  0
  4  5  1  0  0  0
  4 88  1  0  0  0
  4 89  1  0  0  0
  5  6  1  0  0  0
  5 26  1  0  0  0
  5 90  1  0  0  0
  6 25  1  0  0  0
  6 91  1  0  0  0
  6 92  1  0  0  0
  7  8  2  0  0  0
  7 26  1  0  0  0
  7 29  1  0  0  0
  8  9  1  0  0  0
  8 22  1  0  0  0
  9 10  1  0  0  0
  9 27  2  0  0  0
 10 11  2  0  0  0
 10 15  1  0  0  0
 11 12  1  0  0  0
 11 93  1  0  0  0
 12 13  2  0  0  0
 12 94  1  0  0  0
 13 14  1  0  0  0
 13 31  1  0  0  0
 14 15  2  0  0  0
 14 95  1  0  0  0
 15 96  1  0  0  0
 16 17  2  0  0  0
 16 21  1  0  0  0
 16 31  1  0  0  0
 17 18  1  0  0  0
 17 97  1  0  0  0
 18 19  2  0  0  0
 18 98  1  0  0  0
 19 20  1  0  0  0
 19 24  1  0  0  0
 20 21  2  0  0  0
 20 99  1  0  0  0
 21 23  1  0  0  0
 22 28  1  0  0  0
 22 32  2  0  0  0
 26 27  1  0  0  0
 28100  1  0  0  0
 28101  1  0  0  0
 29102  1  0  0  0
 29103  1  0  0  0
 33 34  1  0  0  0
 33 66  1  0  0  0
 33 70  2  0  0  0
 34 36  1  0  0  0
 34 59  1  0  0  0
 34104  1  0  0  0
 35 44  2  0  0  0
 35 45  1  0  0  0
 35 68  1  0  0  0
 36 56  1  0  0  0
 36105  1  0  0  0
 37 39  1  0  0  0
 37 47  1  0  0  0
 37 66  1  0  0  0
 37106  1  0  0  0
 38 43  2  0  0  0
 38 46  1  0  0  0
 38 47  1  0  0  0
 39 64  1  0  0  0
 39 67  2  0  0  0
 40 52  1  0  0  0
 40 53  2  0  0  0
 40 58  1  0  0  0
 41107  1  0  0  0
 41108  1  0  0  0
 41109  1  0  0  0
 41 48  1  0  0  0
 42 43  1  0  0  0
 42 66  1  0  0  0
 42110  1  0  0  0
 42111  1  0  0  0
 43 44  1  0  0  0
 44112  1  0  0  0
 45 46  2  0  0  0
 45113  1  0  0  0
 46114  1  0  0  0
 47115  1  0  0  0
 47116  1  0  0  0
 48 56  1  0  0  0
 48 65  1  0  0  0
 48117  1  0  0  0
 49 50  1  0  0  0
 49 53  1  0  0  0
 49 64  1  0  0  0
 49118  1  0  0  0
 50 51  1  0  0  0
 50119  1  0  0  0
 50120  1  0  0  0
 51 52  1  0  0  0
 51121  1  0  0  0
 51122  1  0  0  0
 52123  1  0  0  0
 52124  1  0  0  0
 53 54  1  0  0  0
 54 55  2  0  0  0
 54125  1  0  0  0
 55 57  1  0  0  0
 55126  1  0  0  0
 56 69  2  0  0  0
 57 58  2  0  0  0
 57127  1  0  0  0
 58128  1  0  0  0
 59 60  1  0  0  0
 59 61  1  0  0  0
 59 62  1  0  0  0
 60129  1  0  0  0
 60130  1  0  0  0
 60131  1  0  0  0
 61132  1  0  0  0
 61133  1  0  0  0
 61134  1  0  0  0
 62135  1  0  0  0
 62136  1  0  0  0
 62137  1  0  0  0
 63 65  1  0  0  0
 63138  1  0  0  0
 63139  1  0  0  0
 63140  1  0  0  0
 64141  1  0  0  0
 65142  1  0  0  0
 68 75  1  0  0  0
 71 72  2  0  0  0
 71 79  1  0  0  0
 71 80  1  0  0  0
 72 82  1  0  0  0
 72 83  1  0  0  0
 73 80  2  0  0  0
 73 81  1  0  0  0
 73 83  1  0  0  0
 74 75  2  0  0  0
 74 76  1  0  0  0
 74 77  1  0  0  0
 75143  1  0  0  0
 76 78  1  0  0  0
 76144  1  0  0  0
 76145  1  0  0  0
 77 81  1  0  0  0
 77146  1  0  0  0
 77147  1  0  0  0
 78 81  1  0  0  0
 78148  1  0  0  0
 78149  1  0  0  0
 79150  1  0  0  0
 79151  1  0  0  0
 79152  1  0  0  0
 82153  1  0  0  0
M  ISO  4   1 100  68 101  75 101  82 100
M  END
> <chiral flag>
0

> <version>
0

> <s_m_source_file>
/data/baiqing/PycharmProjects/Reinvent-master-3.2/result/LINK_invent/BTK/process_docking_weight1_custom_product_contain_oxygen_bond_distance_aromatic_linkinvent_7_9_3/rearranged_h_0117.sdf

> <i_m_source_file_index>
37

> <r_mmod_Potential_Energy-OPLS-2005>
220.566009521484

> <r_mmod_Stretch_Energy-OPLS-2005>
119.226608276367

> <r_mmod_Bend_Energy-OPLS-2005>
242.789215087891

> <r_mmod_Torsional_Energy-OPLS-2005>
243.002349853516

> <r_mmod_Improper_Torsional_Energy-OPLS-2005>
3.79899120330811

> <r_mmod_Van_der_Waal_Energy-OPLS-2005>
110.876136779785

> <r_mmod_Electrostatic_Energy-OPLS-2005>
-386.269256591797

> <r_mmod_Solvation_Energy-OPLS-2005>
-229.203338623047

> <b_mmod_Minimization_Converged-OPLS-2005>
0

> <r_mmod_RMS_Derivative-OPLS-2005>
4.25239515304565

$$$$
37
                    3D
 Structure written by MMmdl.
154162  0  0  1  0            999 V2000
  -30.6552  -14.5304   20.5936 C   0  0  0  0  0  0
  -30.4339  -12.3514   19.4278 C   0  0  0  0  0  0
  -29.4967  -12.5106   18.2103 C   0  0  0  0  0  0
  -28.0178  -12.3611   18.6215 C   0  0  0  0  0  0
  -27.6573  -13.2051   19.8718 C   0  0  2  0  0  0
  -28.6972  -12.9936   20.9950 C   0  0  0  0  0  0
  -25.2570  -13.8172   20.5669 C   0  0  0  0  0  0
  -24.1826  -13.0452   20.9173 C   0  0  0  0  0  0
  -24.6380  -11.6919   20.8743 C   0  0  0  0  0  0
  -23.9050  -10.4305   21.0398 C   0  0  0  0  0  0
  -24.3597   -9.4214   21.9173 C   0  0  0  0  0  0
  -23.6271   -8.2252   22.0751 C   0  0  0  0  0  0
  -22.4259   -8.0282   21.3534 C   0  0  0  0  0  0
  -21.9885   -9.0263   20.4637 C   0  0  0  0  0  0
  -22.7222  -10.2148   20.3043 C   0  0  0  0  0  0
  -21.6844   -6.0730   22.5278 C   0  0  0  0  0  0
  -21.4021   -6.5638   23.8214 C   0  0  0  0  0  0
  -21.3665   -5.6791   24.9178 C   0  0  0  0  0  0
  -21.6042   -4.3052   24.7223 C   0  0  0  0  0  0
  -21.8824   -3.8143   23.4341 C   0  0  0  0  0  0
  -21.9192   -4.6962   22.3396 C   0  0  0  0  0  0
  -22.7852  -13.5250   21.1830 C   0  0  0  0  0  0
  -22.1656   -4.2147   21.0974 F   0  0  0  0  0  0
  -21.5613   -3.4534   25.7731 F   0  0  0  0  0  0
  -30.0194  -13.3339   20.4444 N   0  0  0  0  0  0
  -26.2987  -12.9328   20.3336 N   0  0  0  0  0  0
  -25.9297  -11.6495   20.5768 N   0  0  0  0  0  0
  -22.0498  -12.8257   22.0401 N   0  0  0  0  0  0
  -25.4320  -15.1893   20.4105 N   0  0  0  0  0  0
  -31.7963  -14.7335   20.1669 O   0  0  0  0  0  0
  -21.6632   -6.8870   21.4238 O   0  0  0  0  0  0
  -22.3535  -14.5562   20.6694 O   0  0  0  0  0  0
  -24.6189  -31.8680   23.2072 C   0  0  0  0  0  0
  -25.9081  -32.4815   23.8379 C   0  0  1  0  0  0
  -27.2302  -27.4005   20.0872 C   0  0  0  0  0  0
  -25.5958  -33.8614   24.2336 N   0  0  0  0  0  0
  -23.4065  -30.4904   21.5484 C   0  0  2  0  0  0
  -24.8482  -28.9493   20.1142 C   0  0  0  0  0  0
  -22.7434  -29.4645   22.4970 C   0  0  0  0  0  0
  -18.0278  -28.1369   22.8465 C   0  0  0  0  0  0
  -24.1486  -36.7301   23.2636 C   0  0  0  0  0  0
  -25.9386  -30.8173   21.3651 C   0  0  0  0  0  0
  -26.0104  -29.4491   20.7127 C   0  0  0  0  0  0
  -27.2009  -28.6809   20.6958 C   0  0  0  0  0  0
  -26.0383  -26.9171   19.4976 C   0  0  0  0  0  0
  -24.8568  -27.6844   19.5056 C   0  0  0  0  0  0
  -23.6161  -29.8249   20.1612 C   0  0  0  0  0  0
  -25.4104  -36.3090   24.0334 C   0  0  1  0  0  0
  -20.5858  -28.3671   23.1288 C   0  0  2  0  0  0
  -20.6765  -26.9412   22.5397 C   0  0  0  0  0  0
  -19.5760  -26.6373   21.5178 C   0  0  0  0  0  0
  -18.1945  -26.7923   22.1585 C   0  0  0  0  0  0
  -19.1520  -28.8827   23.2888 C   0  0  0  0  0  0
  -18.9446  -30.1418   23.8924 C   0  0  0  0  0  0
  -17.6454  -30.6563   24.0552 C   0  0  0  0  0  0
  -25.9041  -34.9470   23.5114 C   0  0  0  0  0  0
  -16.5344  -29.9082   23.6281 C   0  0  0  0  0  0
  -16.7259  -28.6488   23.0291 C   0  0  0  0  0  0
  -26.4524  -31.6587   25.0702 C   0  0  0  0  0  0
  -25.3798  -31.3655   26.1446 C   0  0  0  0  0  0
  -27.0364  -30.3044   24.6068 C   0  0  0  0  0  0
  -27.6097  -32.4309   25.7466 C   0  0  0  0  0  0
  -27.5574  -37.1802   24.8476 C   0  0  0  0  0  0
  -21.4150  -29.3056   22.3735 N   0  0  0  0  0  0
  -26.4284  -37.3778   23.9414 N   0  0  0  0  0  0
  -24.6733  -31.0760   22.0981 N   0  0  0  0  0  0
  -23.4215  -28.8170   23.2996 O   0  0  0  0  0  0
  -28.4222  -26.6883   20.0943 O   0  0  0  0  0  0
  -26.5585  -34.8927   22.4672 O   0  0  0  0  0  0
  -23.5382  -32.1455   23.7470 O   0  0  0  0  0  0
  -29.5987  -17.9825   20.5902 C   0  0  0  0  0  0
  -30.7343  -19.6415   21.9706 C   0  0  0  0  0  0
  -31.0858  -17.2510   22.3764 C   0  0  0  0  0  0
  -29.8757  -19.3539   20.8914 C   0  0  0  0  0  0
  -30.2133  -16.9175   21.3142 C   0  0  0  0  0  0
  -31.3339  -18.6011   22.7054 C   0  0  0  0  0  0
  -28.6427  -22.7988   19.9417 C   0  0  0  0  0  0
  -29.3087  -20.5039   20.0877 C   0  0  0  0  0  0
  -28.3991  -24.1979   20.5399 C   0  0  0  0  0  0
  -28.5329  -25.3654   19.5150 C   0  0  0  0  0  0
  -29.0922  -21.7751   20.5951 N   0  0  0  0  0  0
  -29.8758  -15.5353   21.0702 N   0  0  0  0  0  0
  -29.0807  -20.2465   18.8338 N   0  3  0  0  0  0
  -32.1524  -18.8978   23.7451 F   0  0  0  0  0  0
  -31.4714  -12.4938   19.1198 H   0  0  0  0  0  0
  -30.3743  -11.3397   19.8333 H   0  0  0  0  0  0
  -29.7484  -11.7755   17.4455 H   0  0  0  0  0  0
  -29.6504  -13.4889   17.7522 H   0  0  0  0  0  0
  -27.8321  -11.3049   18.8211 H   0  0  0  0  0  0
  -27.3693  -12.6316   17.7867 H   0  0  0  0  0  0
  -27.6973  -14.2506   19.5635 H   0  0  0  0  0  0
  -28.6916  -11.9521   21.3225 H   0  0  0  0  0  0
  -28.4454  -13.5767   21.8819 H   0  0  0  0  0  0
  -25.2749   -9.5690   22.4735 H   0  0  0  0  0  0
  -23.9986   -7.4649   22.7463 H   0  0  0  0  0  0
  -21.0813   -8.8781   19.8929 H   0  0  0  0  0  0
  -22.3671  -10.9682   19.6142 H   0  0  0  0  0  0
  -21.2031   -7.6152   23.9724 H   0  0  0  0  0  0
  -21.1464   -6.0513   25.9080 H   0  0  0  0  0  0
  -22.0591   -2.7597   23.2851 H   0  0  0  0  0  0
  -22.4104  -11.9908   22.4783 H   0  0  0  0  0  0
  -21.1118  -13.1301   22.2605 H   0  0  0  0  0  0
  -24.6726  -15.8522   20.5255 H   0  0  0  0  0  0
  -26.2854  -15.6221   20.0843 H   0  0  0  0  0  0
  -26.7134  -32.5513   23.1109 H   0  0  0  0  0  0
  -25.0151  -33.9761   25.0519 H   0  0  0  0  0  0
  -22.6953  -31.3069   21.4071 H   0  0  0  0  0  0
  -23.3737  -35.9644   23.3321 H   0  0  0  0  0  0
  -24.3564  -36.8910   22.2042 H   0  0  0  0  0  0
  -23.7252  -37.6517   23.6647 H   0  0  0  0  0  0
  -26.0545  -31.5752   20.5895 H   0  0  0  0  0  0
  -26.8282  -30.8758   21.9807 H   0  0  0  0  0  0
  -28.1007  -29.0688   21.1526 H   0  0  0  0  0  0
  -25.9799  -25.9477   19.0313 H   0  0  0  0  0  0
  -23.9593  -27.2943   19.0421 H   0  0  0  0  0  0
  -23.7434  -30.6034   19.4088 H   0  0  0  0  0  0
  -22.7353  -29.2582   19.8521 H   0  0  0  0  0  0
  -25.1277  -36.1925   25.0824 H   0  0  0  0  0  0
  -20.9932  -28.3223   24.1408 H   0  0  0  0  0  0
  -20.5619  -26.2308   23.3597 H   0  0  0  0  0  0
  -21.6639  -26.7430   22.1226 H   0  0  0  0  0  0
  -19.6947  -25.6280   21.1228 H   0  0  0  0  0  0
  -19.6690  -27.3149   20.6680 H   0  0  0  0  0  0
  -17.4215  -26.6602   21.3993 H   0  0  0  0  0  0
  -18.0386  -26.0069   22.9002 H   0  0  0  0  0  0
  -19.7922  -30.7208   24.2345 H   0  0  0  0  0  0
  -17.4992  -31.6235   24.5176 H   0  0  0  0  0  0
  -15.5338  -30.2987   23.7574 H   0  0  0  0  0  0
  -15.8662  -28.0824   22.6962 H   0  0  0  0  0  0
  -24.5978  -30.6995   25.7771 H   0  0  0  0  0  0
  -24.8970  -32.2791   26.4933 H   0  0  0  0  0  0
  -25.8176  -30.8796   27.0179 H   0  0  0  0  0  0
  -26.2879  -29.6749   24.1228 H   0  0  0  0  0  0
  -27.4278  -29.7325   25.4493 H   0  0  0  0  0  0
  -27.8674  -30.4377   23.9128 H   0  0  0  0  0  0
  -27.2721  -33.3606   26.2066 H   0  0  0  0  0  0
  -28.3906  -32.6883   25.0289 H   0  0  0  0  0  0
  -28.0792  -31.8427   26.5365 H   0  0  0  0  0  0
  -28.2601  -38.0085   24.7504 H   0  0  0  0  0  0
  -28.1058  -36.2620   24.6320 H   0  0  0  0  0  0
  -27.2310  -37.1497   25.8885 H   0  0  0  0  0  0
  -20.9324  -29.8869   21.7022 H   0  0  0  0  0  0
  -26.0175  -38.2861   24.1397 H   0  0  0  0  0  0
  -28.9051  -17.7470   19.7982 H   0  0  0  0  0  0
  -30.9374  -20.6688   22.2295 H   0  0  0  0  0  0
  -31.5501  -16.4770   22.9700 H   0  0  0  0  0  0
  -28.3799  -22.7459   18.8827 H   0  0  0  0  0  0
  -29.1100  -24.3564   21.3510 H   0  0  0  0  0  0
  -27.4046  -24.2166   20.9861 H   0  0  0  0  0  0
  -27.8793  -25.2202   18.6578 H   0  0  0  0  0  0
  -29.5347  -25.3144   19.0880 H   0  0  0  0  0  0
  -28.9208  -15.2682   21.2607 H   0  0  0  0  0  0
  -29.2836  -19.3380   18.4221 H   0  0  0  0  0  0
  -28.7449  -20.9339   18.1678 H   0  0  0  0  0  0
  1 25  1  0  0  0
  1 30  2  0  0  0
  1 82  1  0  0  0
  2  3  1  0  0  0
  2 25  1  0  0  0
  2 85  1  0  0  0
  2 86  1  0  0  0
  3  4  1  0  0  0
  3 87  1  0  0  0
  3 88  1  0  0  0
  4  5  1  0  0  0
  4 89  1  0  0  0
  4 90  1  0  0  0
  5  6  1  0  0  0
  5 26  1  0  0  0
  5 91  1  0  0  0
  6 25  1  0  0  0
  6 92  1  0  0  0
  6 93  1  0  0  0
  7  8  2  0  0  0
  7 26  1  0  0  0
  7 29  1  0  0  0
  8  9  1  0  0  0
  8 22  1  0  0  0
  9 10  1  0  0  0
  9 27  2  0  0  0
 10 11  2  0  0  0
 10 15  1  0  0  0
 11 12  1  0  0  0
 11 94  1  0  0  0
 12 13  2  0  0  0
 12 95  1  0  0  0
 13 14  1  0  0  0
 13 31  1  0  0  0
 14 15  2  0  0  0
 14 96  1  0  0  0
 15 97  1  0  0  0
 16 17  2  0  0  0
 16 21  1  0  0  0
 16 31  1  0  0  0
 17 18  1  0  0  0
 17 98  1  0  0  0
 18 19  2  0  0  0
 18 99  1  0  0  0
 19 20  1  0  0  0
 19 24  1  0  0  0
 20 21  2  0  0  0
 20100  1  0  0  0
 21 23  1  0  0  0
 22 28  1  0  0  0
 22 32  2  0  0  0
 26 27  1  0  0  0
 28101  1  0  0  0
 28102  1  0  0  0
 29103  1  0  0  0
 29104  1  0  0  0
 33 34  1  0  0  0
 33 66  1  0  0  0
 33 70  2  0  0  0
 34 36  1  0  0  0
 34 59  1  0  0  0
 34105  1  0  0  0
 35 44  2  0  0  0
 35 45  1  0  0  0
 35 68  1  0  0  0
 36 56  1  0  0  0
 36106  1  0  0  0
 37 39  1  0  0  0
 37 47  1  0  0  0
 37 66  1  0  0  0
 37107  1  0  0  0
 38 43  2  0  0  0
 38 46  1  0  0  0
 38 47  1  0  0  0
 39 64  1  0  0  0
 39 67  2  0  0  0
 40 52  1  0  0  0
 40 53  2  0  0  0
 40 58  1  0  0  0
 41108  1  0  0  0
 41109  1  0  0  0
 41110  1  0  0  0
 41 48  1  0  0  0
 42 43  1  0  0  0
 42 66  1  0  0  0
 42111  1  0  0  0
 42112  1  0  0  0
 43 44  1  0  0  0
 44113  1  0  0  0
 45 46  2  0  0  0
 45114  1  0  0  0
 46115  1  0  0  0
 47116  1  0  0  0
 47117  1  0  0  0
 48 56  1  0  0  0
 48 65  1  0  0  0
 48118  1  0  0  0
 49 50  1  0  0  0
 49 53  1  0  0  0
 49 64  1  0  0  0
 49119  1  0  0  0
 50 51  1  0  0  0
 50120  1  0  0  0
 50121  1  0  0  0
 51 52  1  0  0  0
 51122  1  0  0  0
 51123  1  0  0  0
 52124  1  0  0  0
 52125  1  0  0  0
 53 54  1  0  0  0
 54 55  2  0  0  0
 54126  1  0  0  0
 55 57  1  0  0  0
 55127  1  0  0  0
 56 69  2  0  0  0
 57 58  2  0  0  0
 57128  1  0  0  0
 58129  1  0  0  0
 59 60  1  0  0  0
 59 61  1  0  0  0
 59 62  1  0  0  0
 60130  1  0  0  0
 60131  1  0  0  0
 60132  1  0  0  0
 61133  1  0  0  0
 61134  1  0  0  0
 61135  1  0  0  0
 62136  1  0  0  0
 62137  1  0  0  0
 62138  1  0  0  0
 63 65  1  0  0  0
 63139  1  0  0  0
 63140  1  0  0  0
 63141  1  0  0  0
 64142  1  0  0  0
 65143  1  0  0  0
 68 80  1  0  0  0
 71 74  2  0  0  0
 71 75  1  0  0  0
 71144  1  0  0  0
 72 74  1  0  0  0
 72 76  2  0  0  0
 72145  1  0  0  0
 73 75  2  0  0  0
 73 76  1  0  0  0
 73146  1  0  0  0
 74 78  1  0  0  0
 75 82  1  0  0  0
 76 84  1  0  0  0
 77 79  1  0  0  0
 77 81  2  0  0  0
 77147  1  0  0  0
 78 81  1  0  0  0
 78 83  2  0  0  0
 79 80  1  0  0  0
 79148  1  0  0  0
 79149  1  0  0  0
 80150  1  0  0  0
 80151  1  0  0  0
 82152  1  0  0  0
 83153  1  0  0  0
 83154  1  0  0  0
M  CHG  1  83   1
M  ISO  4   1 100  68 101  80 101  82 100
M  END
> <chiral flag>
0

> <version>
0

> <s_m_source_file>
/data/baiqing/PycharmProjects/Reinvent-master-3.2/result/LINK_invent/BTK/process_docking_weight1_custom_product_contain_oxygen_bond_distance_aromatic_linkinvent_7_9_3/rearranged_h_0117.sdf

> <i_m_source_file_index>
38

> <r_mmod_Potential_Energy-OPLS-2005>
-56.76171875

> <r_mmod_Stretch_Energy-OPLS-2005>
56.1743392944336

> <r_mmod_Bend_Energy-OPLS-2005>
119.71363067627

> <r_mmod_Torsional_Energy-OPLS-2005>
225.783752441406

> <r_mmod_Improper_Torsional_Energy-OPLS-2005>
4.63048267364502

> <r_mmod_Van_der_Waal_Energy-OPLS-2005>
159.48486328125

> <r_mmod_Electrostatic_Energy-OPLS-2005>
-145.431930541992

> <r_mmod_Solvation_Energy-OPLS-2005>
-496.795959472656

> <b_mmod_Minimization_Converged-OPLS-2005>
0

> <r_mmod_RMS_Derivative-OPLS-2005>
3.1155366897583

$$$$
38
                    3D
 Structure written by MMmdl.
156164  0  0  1  0            999 V2000
  -30.6559  -14.6779   20.5272 C   0  0  0  0  0  0
  -30.4346  -12.4246   19.4678 C   0  0  0  0  0  0
  -29.5079  -12.5253   18.2348 C   0  0  0  0  0  0
  -28.0335  -12.3489   18.6437 C   0  0  0  0  0  0
  -27.6493  -13.2255   19.8648 C   0  0  2  0  0  0
  -28.6986  -13.1166   20.9991 C   0  0  0  0  0  0
  -25.2404  -13.8078   20.5562 C   0  0  0  0  0  0
  -24.1741  -13.0336   20.9188 C   0  0  0  0  0  0
  -24.6395  -11.6849   20.8763 C   0  0  0  0  0  0
  -23.9069  -10.4234   21.0407 C   0  0  0  0  0  0
  -24.3625   -9.4163   21.9194 C   0  0  0  0  0  0
  -23.6294   -8.2197   22.0760 C   0  0  0  0  0  0
  -22.4268   -8.0257   21.3553 C   0  0  0  0  0  0
  -21.9900   -9.0222   20.4654 C   0  0  0  0  0  0
  -22.7231  -10.2090   20.3058 C   0  0  0  0  0  0
  -21.6838   -6.0749   22.5299 C   0  0  0  0  0  0
  -21.4001   -6.5654   23.8234 C   0  0  0  0  0  0
  -21.3655   -5.6806   24.9190 C   0  0  0  0  0  0
  -21.6044   -4.3069   24.7234 C   0  0  0  0  0  0
  -21.8819   -3.8161   23.4350 C   0  0  0  0  0  0
  -21.9178   -4.6979   22.3410 C   0  0  0  0  0  0
  -22.7770  -13.5144   21.1856 C   0  0  0  0  0  0
  -22.1631   -4.2168   21.0987 F   0  0  0  0  0  0
  -21.5644   -3.4555   25.7749 F   0  0  0  0  0  0
  -30.0148  -13.4622   20.4364 N   0  0  0  0  0  0
  -26.2949  -12.9360   20.3323 N   0  0  0  0  0  0
  -25.9337  -11.6497   20.5798 N   0  0  0  0  0  0
  -22.0430  -12.8160   22.0449 N   0  0  0  0  0  0
  -25.3791  -15.1752   20.3732 N   0  0  0  0  0  0
  -31.8065  -14.8057   20.1023 O   0  0  0  0  0  0
  -21.6628   -6.8863   21.4253 O   0  0  0  0  0  0
  -22.3441  -14.5446   20.6716 O   0  0  0  0  0  0
  -24.6261  -31.8581   23.2011 C   0  0  0  0  0  0
  -25.9099  -32.4784   23.8349 C   0  0  1  0  0  0
  -27.2436  -27.3242   20.1324 C   0  0  0  0  0  0
  -25.5906  -33.8584   24.2280 N   0  0  0  0  0  0
  -23.4206  -30.4802   21.5430 C   0  0  2  0  0  0
  -24.8737  -28.9332   20.1137 C   0  0  0  0  0  0
  -22.7481  -29.4622   22.4936 C   0  0  0  0  0  0
  -18.0286  -28.1380   22.8501 C   0  0  0  0  0  0
  -24.1483  -36.7302   23.2638 C   0  0  0  0  0  0
  -25.9607  -30.7975   21.3673 C   0  0  0  0  0  0
  -26.0415  -29.4235   20.7124 C   0  0  0  0  0  0
  -27.2286  -28.6326   20.7072 C   0  0  0  0  0  0
  -26.0522  -26.8843   19.5087 C   0  0  0  0  0  0
  -24.8821  -27.6696   19.5010 C   0  0  0  0  0  0
  -23.6381  -29.8098   20.1601 C   0  0  0  0  0  0
  -25.4105  -36.3089   24.0334 C   0  0  1  0  0  0
  -20.5889  -28.3695   23.1295 C   0  0  2  0  0  0
  -20.6790  -26.9414   22.5436 C   0  0  0  0  0  0
  -19.5761  -26.6371   21.5244 C   0  0  0  0  0  0
  -18.1941  -26.7921   22.1651 C   0  0  0  0  0  0
  -19.1535  -28.8860   23.2881 C   0  0  0  0  0  0
  -18.9452  -30.1464   23.8898 C   0  0  0  0  0  0
  -17.6449  -30.6590   24.0568 C   0  0  0  0  0  0
  -25.9037  -34.9455   23.5105 C   0  0  0  0  0  0
  -16.5347  -29.9086   23.6318 C   0  0  0  0  0  0
  -16.7271  -28.6499   23.0348 C   0  0  0  0  0  0
  -26.4487  -31.6591   25.0713 C   0  0  0  0  0  0
  -25.3735  -31.3705   26.1453 C   0  0  0  0  0  0
  -27.0316  -30.3015   24.6133 C   0  0  0  0  0  0
  -27.6055  -32.4315   25.7480 C   0  0  0  0  0  0
  -27.5574  -37.1806   24.8463 C   0  0  0  0  0  0
  -21.4195  -29.3037   22.3683 N   0  0  0  0  0  0
  -26.4287  -37.3779   23.9407 N   0  0  0  0  0  0
  -24.6878  -31.0605   22.0948 N   0  0  0  0  0  0
  -23.4202  -28.8164   23.3019 O   0  0  0  0  0  0
  -28.3753  -26.4926   20.1969 O   0  0  0  0  0  0
  -26.5616  -34.8928   22.4676 O   0  0  0  0  0  0
  -23.5422  -32.1380   23.7332 O   0  0  0  0  0  0
  -31.2126  -19.4251   21.1136 C   0  0  0  0  0  0
  -28.9112  -19.4375   20.4876 C   0  0  0  0  0  0
  -31.2187  -17.9922   21.1837 C   0  0  0  0  0  0
  -28.9023  -18.0090   20.5449 C   0  0  0  0  0  0
  -30.0693  -20.2000   20.7701 C   0  0  0  0  0  0
  -30.0538  -17.2233   20.8644 C   0  0  0  0  0  0
  -29.2068  -22.5132   20.6036 C   0  0  0  0  0  0
  -32.4938  -17.3312   21.6784 C   0  0  0  0  0  0
  -27.5857  -17.3229   20.2768 C   0  0  0  0  0  0
  -29.4050  -24.0856   20.5936 C   0  0  0  0  0  0
  -28.1873  -25.0211   20.1635 C   0  0  0  0  0  0
  -30.1687  -21.6412   20.7343 N   0  0  0  0  0  0
  -29.9114  -15.7497   20.9711 N   0  0  0  0  0  0
  -31.4771  -12.5409   19.1672 H   0  0  0  0  0  0
  -30.3665  -11.4342   19.9205 H   0  0  0  0  0  0
  -29.7802  -11.7750   17.4921 H   0  0  0  0  0  0
  -29.6414  -13.4941   17.7508 H   0  0  0  0  0  0
  -27.8828  -11.2951   18.8810 H   0  0  0  0  0  0
  -27.3739  -12.5666   17.8020 H   0  0  0  0  0  0
  -27.6545  -14.2544   19.5083 H   0  0  0  0  0  0
  -28.7229  -12.1059   21.4090 H   0  0  0  0  0  0
  -28.4311  -13.7680   21.8313 H   0  0  0  0  0  0
  -25.2757   -9.5637   22.4798 H   0  0  0  0  0  0
  -24.0015   -7.4582   22.7467 H   0  0  0  0  0  0
  -21.0831   -8.8727   19.8974 H   0  0  0  0  0  0
  -22.3667  -10.9649   19.6193 H   0  0  0  0  0  0
  -21.1987   -7.6160   23.9739 H   0  0  0  0  0  0
  -21.1466   -6.0531   25.9099 H   0  0  0  0  0  0
  -22.0587   -2.7625   23.2841 H   0  0  0  0  0  0
  -22.4069  -11.9859   22.4885 H   0  0  0  0  0  0
  -21.1059  -13.1202   22.2670 H   0  0  0  0  0  0
  -26.1974  -15.6093   19.9721 H   0  0  0  0  0  0
  -24.5756  -15.7946   20.4039 H   0  0  0  0  0  0
  -26.7168  -32.5458   23.1106 H   0  0  0  0  0  0
  -25.0044  -33.9737   25.0415 H   0  0  0  0  0  0
  -22.7140  -31.2998   21.3960 H   0  0  0  0  0  0
  -23.3752  -35.9628   23.3303 H   0  0  0  0  0  0
  -24.3566  -36.8919   22.2048 H   0  0  0  0  0  0
  -23.7242  -37.6505   23.6662 H   0  0  0  0  0  0
  -26.0800  -31.5605   20.5973 H   0  0  0  0  0  0
  -26.8444  -30.8533   21.9924 H   0  0  0  0  0  0
  -28.1259  -29.0117   21.1764 H   0  0  0  0  0  0
  -26.0017  -25.9175   19.0294 H   0  0  0  0  0  0
  -23.9894  -27.2863   19.0267 H   0  0  0  0  0  0
  -23.7561  -30.5835   19.4018 H   0  0  0  0  0  0
  -22.7605  -29.2352   19.8563 H   0  0  0  0  0  0
  -25.1288  -36.1937   25.0830 H   0  0  0  0  0  0
  -20.9970  -28.3269   24.1420 H   0  0  0  0  0  0
  -20.5691  -26.2306   23.3643 H   0  0  0  0  0  0
  -21.6650  -26.7443   22.1209 H   0  0  0  0  0  0
  -19.6909  -25.6269   21.1296 H   0  0  0  0  0  0
  -19.6684  -27.3166   20.6756 H   0  0  0  0  0  0
  -17.4203  -26.6669   21.4062 H   0  0  0  0  0  0
  -18.0327  -26.0079   22.9057 H   0  0  0  0  0  0
  -19.7923  -30.7292   24.2259 H   0  0  0  0  0  0
  -17.4994  -31.6283   24.5143 H   0  0  0  0  0  0
  -15.5344  -30.2979   23.7636 H   0  0  0  0  0  0
  -15.8680  -28.0809   22.7053 H   0  0  0  0  0  0
  -24.5910  -30.7056   25.7775 H   0  0  0  0  0  0
  -24.8942  -32.2863   26.4914 H   0  0  0  0  0  0
  -25.8085  -30.8853   27.0202 H   0  0  0  0  0  0
  -26.2865  -29.6785   24.1172 H   0  0  0  0  0  0
  -27.4032  -29.7246   25.4613 H   0  0  0  0  0  0
  -27.8730  -30.4305   23.9326 H   0  0  0  0  0  0
  -27.2670  -33.3610   26.2069 H   0  0  0  0  0  0
  -28.3861  -32.6883   25.0306 H   0  0  0  0  0  0
  -28.0734  -31.8436   26.5386 H   0  0  0  0  0  0
  -28.2597  -38.0099   24.7509 H   0  0  0  0  0  0
  -28.1072  -36.2634   24.6293 H   0  0  0  0  0  0
  -27.2297  -37.1455   25.8868 H   0  0  0  0  0  0
  -20.9376  -29.8749   21.6886 H   0  0  0  0  0  0
  -26.0175  -38.2853   24.1417 H   0  0  0  0  0  0
  -32.1241  -19.9533   21.3617 H   0  0  0  0  0  0
  -27.9958  -19.9484   20.2300 H   0  0  0  0  0  0
  -28.1612  -22.2053   20.5196 H   0  0  0  0  0  0
  -33.1002  -18.0248   22.2631 H   0  0  0  0  0  0
  -33.0986  -16.9889   20.8406 H   0  0  0  0  0  0
  -32.2696  -16.4782   22.3194 H   0  0  0  0  0  0
  -26.7930  -18.0368   20.0479 H   0  0  0  0  0  0
  -27.2899  -16.7738   21.1702 H   0  0  0  0  0  0
  -27.6790  -16.6357   19.4352 H   0  0  0  0  0  0
  -30.2572  -24.3070   19.9512 H   0  0  0  0  0  0
  -29.7145  -24.3797   21.5971 H   0  0  0  0  0  0
  -27.3445  -24.7773   20.8116 H   0  0  0  0  0  0
  -27.8920  -24.7375   19.1521 H   0  0  0  0  0  0
  -28.9858  -15.4514   21.2320 H   0  0  0  0  0  0
  1 25  1  0  0  0
  1 30  2  0  0  0
  1 83  1  0  0  0
  2  3  1  0  0  0
  2 25  1  0  0  0
  2 84  1  0  0  0
  2 85  1  0  0  0
  3  4  1  0  0  0
  3 86  1  0  0  0
  3 87  1  0  0  0
  4  5  1  0  0  0
  4 88  1  0  0  0
  4 89  1  0  0  0
  5  6  1  0  0  0
  5 26  1  0  0  0
  5 90  1  0  0  0
  6 25  1  0  0  0
  6 91  1  0  0  0
  6 92  1  0  0  0
  7  8  2  0  0  0
  7 26  1  0  0  0
  7 29  1  0  0  0
  8  9  1  0  0  0
  8 22  1  0  0  0
  9 10  1  0  0  0
  9 27  2  0  0  0
 10 11  2  0  0  0
 10 15  1  0  0  0
 11 12  1  0  0  0
 11 93  1  0  0  0
 12 13  2  0  0  0
 12 94  1  0  0  0
 13 14  1  0  0  0
 13 31  1  0  0  0
 14 15  2  0  0  0
 14 95  1  0  0  0
 15 96  1  0  0  0
 16 17  2  0  0  0
 16 21  1  0  0  0
 16 31  1  0  0  0
 17 18  1  0  0  0
 17 97  1  0  0  0
 18 19  2  0  0  0
 18 98  1  0  0  0
 19 20  1  0  0  0
 19 24  1  0  0  0
 20 21  2  0  0  0
 20 99  1  0  0  0
 21 23  1  0  0  0
 22 28  1  0  0  0
 22 32  2  0  0  0
 26 27  1  0  0  0
 28100  1  0  0  0
 28101  1  0  0  0
 29102  1  0  0  0
 29103  1  0  0  0
 33 34  1  0  0  0
 33 66  1  0  0  0
 33 70  2  0  0  0
 34 36  1  0  0  0
 34 59  1  0  0  0
 34104  1  0  0  0
 35 44  2  0  0  0
 35 45  1  0  0  0
 35 68  1  0  0  0
 36 56  1  0  0  0
 36105  1  0  0  0
 37 39  1  0  0  0
 37 47  1  0  0  0
 37 66  1  0  0  0
 37106  1  0  0  0
 38 43  2  0  0  0
 38 46  1  0  0  0
 38 47  1  0  0  0
 39 64  1  0  0  0
 39 67  2  0  0  0
 40 52  1  0  0  0
 40 53  2  0  0  0
 40 58  1  0  0  0
 41107  1  0  0  0
 41108  1  0  0  0
 41109  1  0  0  0
 41 48  1  0  0  0
 42 43  1  0  0  0
 42 66  1  0  0  0
 42110  1  0  0  0
 42111  1  0  0  0
 43 44  1  0  0  0
 44112  1  0  0  0
 45 46  2  0  0  0
 45113  1  0  0  0
 46114  1  0  0  0
 47115  1  0  0  0
 47116  1  0  0  0
 48 56  1  0  0  0
 48 65  1  0  0  0
 48117  1  0  0  0
 49 50  1  0  0  0
 49 53  1  0  0  0
 49 64  1  0  0  0
 49118  1  0  0  0
 50 51  1  0  0  0
 50119  1  0  0  0
 50120  1  0  0  0
 51 52  1  0  0  0
 51121  1  0  0  0
 51122  1  0  0  0
 52123  1  0  0  0
 52124  1  0  0  0
 53 54  1  0  0  0
 54 55  2  0  0  0
 54125  1  0  0  0
 55 57  1  0  0  0
 55126  1  0  0  0
 56 69  2  0  0  0
 57 58  2  0  0  0
 57127  1  0  0  0
 58128  1  0  0  0
 59 60  1  0  0  0
 59 61  1  0  0  0
 59 62  1  0  0  0
 60129  1  0  0  0
 60130  1  0  0  0
 60131  1  0  0  0
 61132  1  0  0  0
 61133  1  0  0  0
 61134  1  0  0  0
 62135  1  0  0  0
 62136  1  0  0  0
 62137  1  0  0  0
 63 65  1  0  0  0
 63138  1  0  0  0
 63139  1  0  0  0
 63140  1  0  0  0
 64141  1  0  0  0
 65142  1  0  0  0
 68 81  1  0  0  0
 71 73  2  0  0  0
 71 75  1  0  0  0
 71143  1  0  0  0
 72 74  1  0  0  0
 72 75  2  0  0  0
 72144  1  0  0  0
 73 76  1  0  0  0
 73 78  1  0  0  0
 74 76  2  0  0  0
 74 79  1  0  0  0
 75 82  1  0  0  0
 76 83  1  0  0  0
 77 80  1  0  0  0
 77 82  2  0  0  0
 77145  1  0  0  0
 78146  1  0  0  0
 78147  1  0  0  0
 78148  1  0  0  0
 79149  1  0  0  0
 79150  1  0  0  0
 79151  1  0  0  0
 80 81  1  0  0  0
 80152  1  0  0  0
 80153  1  0  0  0
 81154  1  0  0  0
 81155  1  0  0  0
 83156  1  0  0  0
M  ISO  4   1 100  68 101  81 101  83 100
M  END
> <chiral flag>
0

> <version>
0

> <s_m_source_file>
/data/baiqing/PycharmProjects/Reinvent-master-3.2/result/LINK_invent/BTK/process_docking_weight1_custom_product_contain_oxygen_bond_distance_aromatic_linkinvent_7_9_3/rearranged_h_0117.sdf

> <i_m_source_file_index>
39

> <r_mmod_Potential_Energy-OPLS-2005>
30.2666816711426

> <r_mmod_Stretch_Energy-OPLS-2005>
91.396484375

> <r_mmod_Bend_Energy-OPLS-2005>
155.438110351562

> <r_mmod_Torsional_Energy-OPLS-2005>
218.339508056641

> <r_mmod_Improper_Torsional_Energy-OPLS-2005>
5.10825490951538

> <r_mmod_Van_der_Waal_Energy-OPLS-2005>
146.394683837891

> <r_mmod_Electrostatic_Energy-OPLS-2005>
-425.343231201172

> <r_mmod_Solvation_Energy-OPLS-2005>
-214.365020751953

> <b_mmod_Minimization_Converged-OPLS-2005>
0

> <r_mmod_RMS_Derivative-OPLS-2005>
2.559983253479

$$$$
39
                    3D
 Structure written by MMmdl.
160168  0  0  1  0            999 V2000
  -30.6797  -14.5164   20.5813 C   0  0  0  0  0  0
  -30.4353  -12.3324   19.4340 C   0  0  0  0  0  0
  -29.5047  -12.5065   18.2148 C   0  0  0  0  0  0
  -28.0261  -12.3496   18.6233 C   0  0  0  0  0  0
  -27.6605  -13.1922   19.8711 C   0  0  2  0  0  0
  -28.7035  -12.9956   20.9949 C   0  0  0  0  0  0
  -25.2548  -13.8082   20.5647 C   0  0  0  0  0  0
  -24.1820  -13.0378   20.9201 C   0  0  0  0  0  0
  -24.6377  -11.6859   20.8743 C   0  0  0  0  0  0
  -23.9039  -10.4260   21.0407 C   0  0  0  0  0  0
  -24.3597   -9.4184   21.9196 C   0  0  0  0  0  0
  -23.6269   -8.2218   22.0758 C   0  0  0  0  0  0
  -22.4253   -8.0263   21.3539 C   0  0  0  0  0  0
  -21.9876   -9.0242   20.4648 C   0  0  0  0  0  0
  -22.7206  -10.2114   20.3061 C   0  0  0  0  0  0
  -21.6850   -6.0717   22.5274 C   0  0  0  0  0  0
  -21.4015   -6.5627   23.8206 C   0  0  0  0  0  0
  -21.3659   -5.6780   24.9172 C   0  0  0  0  0  0
  -21.6054   -4.3043   24.7226 C   0  0  0  0  0  0
  -21.8818   -3.8130   23.4344 C   0  0  0  0  0  0
  -21.9187   -4.6944   22.3396 C   0  0  0  0  0  0
  -22.7853  -13.5211   21.1860 C   0  0  0  0  0  0
  -22.1656   -4.2129   21.0971 F   0  0  0  0  0  0
  -21.5623   -3.4533   25.7738 F   0  0  0  0  0  0
  -30.0336  -13.3218   20.4468 N   0  0  0  0  0  0
  -26.3000  -12.9251   20.3313 N   0  0  0  0  0  0
  -25.9303  -11.6437   20.5768 N   0  0  0  0  0  0
  -22.0469  -12.8243   22.0428 N   0  0  0  0  0  0
  -25.4135  -15.1795   20.3999 N   0  0  0  0  0  0
  -31.8039  -14.7209   20.1173 O   0  0  0  0  0  0
  -21.6621   -6.8859   21.4237 O   0  0  0  0  0  0
  -22.3553  -14.5512   20.6686 O   0  0  0  0  0  0
  -24.6154  -31.8663   23.2088 C   0  0  0  0  0  0
  -25.9038  -32.4815   23.8383 C   0  0  1  0  0  0
  -27.2450  -27.4302   20.1073 C   0  0  0  0  0  0
  -25.5885  -33.8608   24.2318 N   0  0  0  0  0  0
  -23.4050  -30.4879   21.5478 C   0  0  2  0  0  0
  -24.8564  -28.9489   20.1189 C   0  0  0  0  0  0
  -22.7408  -29.4641   22.4967 C   0  0  0  0  0  0
  -18.0276  -28.1390   22.8495 C   0  0  0  0  0  0
  -24.1486  -36.7315   23.2639 C   0  0  0  0  0  0
  -25.9333  -30.8316   21.3628 C   0  0  0  0  0  0
  -26.0150  -29.4628   20.7163 C   0  0  0  0  0  0
  -27.2138  -28.7107   20.7084 C   0  0  0  0  0  0
  -26.0702  -26.9266   19.5120 C   0  0  0  0  0  0
  -24.8776  -27.6776   19.5161 C   0  0  0  0  0  0
  -23.6180  -29.8184   20.1629 C   0  0  0  0  0  0
  -25.4101  -36.3100   24.0339 C   0  0  1  0  0  0
  -20.5867  -28.3667   23.1329 C   0  0  2  0  0  0
  -20.6769  -26.9400   22.5432 C   0  0  0  0  0  0
  -19.5752  -26.6385   21.5226 C   0  0  0  0  0  0
  -18.1927  -26.7932   22.1630 C   0  0  0  0  0  0
  -19.1526  -28.8843   23.2912 C   0  0  0  0  0  0
  -18.9454  -30.1450   23.8923 C   0  0  0  0  0  0
  -17.6458  -30.6585   24.0580 C   0  0  0  0  0  0
  -25.9030  -34.9467   23.5122 C   0  0  0  0  0  0
  -16.5345  -29.9094   23.6326 C   0  0  0  0  0  0
  -16.7268  -28.6517   23.0331 C   0  0  0  0  0  0
  -26.4468  -31.6595   25.0707 C   0  0  0  0  0  0
  -25.3748  -31.3727   26.1470 C   0  0  0  0  0  0
  -27.0284  -30.3035   24.6075 C   0  0  0  0  0  0
  -27.6041  -32.4313   25.7464 C   0  0  0  0  0  0
  -27.5577  -37.1805   24.8452 C   0  0  0  0  0  0
  -21.4130  -29.3026   22.3715 N   0  0  0  0  0  0
  -26.4283  -37.3784   23.9404 N   0  0  0  0  0  0
  -24.6687  -31.0758   22.0987 N   0  0  0  0  0  0
  -23.4174  -28.8180   23.3012 O   0  0  0  0  0  0
  -28.4027  -26.6839   20.0578 O   0  0  0  0  0  0
  -26.5600  -34.8924   22.4690 O   0  0  0  0  0  0
  -23.5339  -32.1412   23.7481 O   0  0  0  0  0  0
  -29.3112  -19.1943   20.6872 C   0  0  0  0  0  0
  -31.2910  -18.8911   22.0381 C   0  0  0  0  0  0
  -29.1954  -17.7940   20.5336 C   0  0  0  0  0  0
  -30.3392  -19.7731   21.4688 C   0  0  0  0  0  0
  -30.1416  -16.9142   21.1346 C   0  0  0  0  0  0
  -31.2010  -17.4868   21.8781 C   0  0  0  0  0  0
  -29.4071  -24.6193   20.7761 C   0  0  0  0  0  0
  -28.5202  -25.6290   20.9369 C   0  0  0  0  0  0
  -29.7207  -22.0699   21.2239 C   0  0  0  0  0  0
  -27.0977  -16.6431   17.4454 C   0  0  0  0  0  0
  -28.0036  -17.2844   19.7456 C   0  0  0  0  0  0
  -29.6386  -23.4933   21.7891 C   0  0  0  0  0  0
  -28.2190  -17.3414   18.2253 C   0  0  0  0  0  0
  -30.4047  -21.1483   21.8008 N   0  0  0  0  0  0
  -29.9269  -15.4946   21.1275 N   0  0  0  0  0  0
  -32.0995  -16.6875   22.5069 F   0  0  0  0  0  0
  -31.4796  -12.4435   19.1366 H   0  0  0  0  0  0
  -30.3480  -11.3247   19.8443 H   0  0  0  0  0  0
  -29.7554  -11.7793   17.4411 H   0  0  0  0  0  0
  -29.6634  -13.4925   17.7733 H   0  0  0  0  0  0
  -27.8449  -11.2924   18.8247 H   0  0  0  0  0  0
  -27.3779  -12.6164   17.7888 H   0  0  0  0  0  0
  -27.6955  -14.2262   19.5477 H   0  0  0  0  0  0
  -28.6937  -11.9590   21.3344 H   0  0  0  0  0  0
  -28.4503  -13.5885   21.8748 H   0  0  0  0  0  0
  -25.2746   -9.5652   22.4772 H   0  0  0  0  0  0
  -23.9970   -7.4605   22.7482 H   0  0  0  0  0  0
  -21.0792   -8.8772   19.8969 H   0  0  0  0  0  0
  -22.3675  -10.9660   19.6169 H   0  0  0  0  0  0
  -21.2015   -7.6137   23.9708 H   0  0  0  0  0  0
  -21.1486   -6.0511   25.9072 H   0  0  0  0  0  0
  -22.0596   -2.7589   23.2860 H   0  0  0  0  0  0
  -22.4049  -11.9903   22.4843 H   0  0  0  0  0  0
  -21.1102  -13.1324   22.2625 H   0  0  0  0  0  0
  -24.6282  -15.8158   20.4801 H   0  0  0  0  0  0
  -26.2253  -15.6037   19.9763 H   0  0  0  0  0  0
  -26.7103  -32.5542   23.1147 H   0  0  0  0  0  0
  -25.0018  -33.9758   25.0449 H   0  0  0  0  0  0
  -22.6947  -31.3048   21.4059 H   0  0  0  0  0  0
  -23.3730  -35.9665   23.3297 H   0  0  0  0  0  0
  -24.3594  -36.8933   22.2055 H   0  0  0  0  0  0
  -23.7259  -37.6528   23.6656 H   0  0  0  0  0  0
  -26.0413  -31.5951   20.5913 H   0  0  0  0  0  0
  -26.8219  -30.8908   21.9786 H   0  0  0  0  0  0
  -28.1115  -29.1017   21.1655 H   0  0  0  0  0  0
  -26.0834  -25.9520   19.0442 H   0  0  0  0  0  0
  -23.9868  -27.2738   19.0534 H   0  0  0  0  0  0
  -23.7325  -30.5955   19.4062 H   0  0  0  0  0  0
  -22.7415  -29.2430   19.8611 H   0  0  0  0  0  0
  -25.1279  -36.1958   25.0834 H   0  0  0  0  0  0
  -20.9969  -28.3245   24.1448 H   0  0  0  0  0  0
  -20.5676  -26.2270   23.3616 H   0  0  0  0  0  0
  -21.6639  -26.7443   22.1224 H   0  0  0  0  0  0
  -19.6908  -25.6300   21.1242 H   0  0  0  0  0  0
  -19.6700  -27.3213   20.6774 H   0  0  0  0  0  0
  -17.4196  -26.6688   21.4031 H   0  0  0  0  0  0
  -18.0316  -26.0075   22.9024 H   0  0  0  0  0  0
  -19.7930  -30.7265   24.2293 H   0  0  0  0  0  0
  -17.5009  -31.6265   24.5179 H   0  0  0  0  0  0
  -15.5349  -30.3005   23.7626 H   0  0  0  0  0  0
  -15.8670  -28.0853   22.7010 H   0  0  0  0  0  0
  -24.5873  -30.7125   25.7820 H   0  0  0  0  0  0
  -24.9013  -32.2908   26.4962 H   0  0  0  0  0  0
  -25.8110  -30.8848   27.0197 H   0  0  0  0  0  0
  -26.2823  -29.6804   24.1128 H   0  0  0  0  0  0
  -27.4052  -29.7263   25.4529 H   0  0  0  0  0  0
  -27.8661  -30.4347   23.9222 H   0  0  0  0  0  0
  -27.2651  -33.3593   26.2081 H   0  0  0  0  0  0
  -28.3832  -32.6902   25.0281 H   0  0  0  0  0  0
  -28.0724  -31.8415   26.5354 H   0  0  0  0  0  0
  -28.2583  -38.0110   24.7492 H   0  0  0  0  0  0
  -28.1082  -36.2642   24.6264 H   0  0  0  0  0  0
  -27.2306  -37.1443   25.8859 H   0  0  0  0  0  0
  -20.9273  -29.8765   21.6962 H   0  0  0  0  0  0
  -26.0167  -38.2859   24.1410 H   0  0  0  0  0  0
  -28.5469  -19.8097   20.2346 H   0  0  0  0  0  0
  -32.0834  -19.2877   22.6568 H   0  0  0  0  0  0
  -30.0383  -24.6069   19.8975 H   0  0  0  0  0  0
  -27.8494  -25.7121   21.7827 H   0  0  0  0  0  0
  -29.1276  -21.9043   20.3209 H   0  0  0  0  0  0
  -27.2384  -16.7631   16.3707 H   0  0  0  0  0  0
  -26.1167  -17.0477   17.6973 H   0  0  0  0  0  0
  -27.0803  -15.5731   17.6550 H   0  0  0  0  0  0
  -27.1250  -17.8726   20.0149 H   0  0  0  0  0  0
  -27.7783  -16.2755   20.0636 H   0  0  0  0  0  0
  -28.8424  -23.5177   22.5341 H   0  0  0  0  0  0
  -30.5660  -23.7105   22.3205 H   0  0  0  0  0  0
  -28.2954  -18.3829   17.9056 H   0  0  0  0  0  0
  -29.1690  -16.8706   17.9701 H   0  0  0  0  0  0
  -29.0078  -15.1917   21.4031 H   0  0  0  0  0  0
  1 25  1  0  0  0
  1 30  2  0  0  0
  1 85  1  0  0  0
  2  3  1  0  0  0
  2 25  1  0  0  0
  2 87  1  0  0  0
  2 88  1  0  0  0
  3  4  1  0  0  0
  3 89  1  0  0  0
  3 90  1  0  0  0
  4  5  1  0  0  0
  4 91  1  0  0  0
  4 92  1  0  0  0
  5  6  1  0  0  0
  5 26  1  0  0  0
  5 93  1  0  0  0
  6 25  1  0  0  0
  6 94  1  0  0  0
  6 95  1  0  0  0
  7  8  2  0  0  0
  7 26  1  0  0  0
  7 29  1  0  0  0
  8  9  1  0  0  0
  8 22  1  0  0  0
  9 10  1  0  0  0
  9 27  2  0  0  0
 10 11  2  0  0  0
 10 15  1  0  0  0
 11 12  1  0  0  0
 11 96  1  0  0  0
 12 13  2  0  0  0
 12 97  1  0  0  0
 13 14  1  0  0  0
 13 31  1  0  0  0
 14 15  2  0  0  0
 14 98  1  0  0  0
 15 99  1  0  0  0
 16 17  2  0  0  0
 16 21  1  0  0  0
 16 31  1  0  0  0
 17 18  1  0  0  0
 17100  1  0  0  0
 18 19  2  0  0  0
 18101  1  0  0  0
 19 20  1  0  0  0
 19 24  1  0  0  0
 20 21  2  0  0  0
 20102  1  0  0  0
 21 23  1  0  0  0
 22 28  1  0  0  0
 22 32  2  0  0  0
 26 27  1  0  0  0
 28103  1  0  0  0
 28104  1  0  0  0
 29105  1  0  0  0
 29106  1  0  0  0
 33 34  1  0  0  0
 33 66  1  0  0  0
 33 70  2  0  0  0
 34 36  1  0  0  0
 34 59  1  0  0  0
 34107  1  0  0  0
 35 44  2  0  0  0
 35 45  1  0  0  0
 35 68  1  0  0  0
 36 56  1  0  0  0
 36108  1  0  0  0
 37 39  1  0  0  0
 37 47  1  0  0  0
 37 66  1  0  0  0
 37109  1  0  0  0
 38 43  2  0  0  0
 38 46  1  0  0  0
 38 47  1  0  0  0
 39 64  1  0  0  0
 39 67  2  0  0  0
 40 52  1  0  0  0
 40 53  2  0  0  0
 40 58  1  0  0  0
 41110  1  0  0  0
 41111  1  0  0  0
 41112  1  0  0  0
 41 48  1  0  0  0
 42 43  1  0  0  0
 42 66  1  0  0  0
 42113  1  0  0  0
 42114  1  0  0  0
 43 44  1  0  0  0
 44115  1  0  0  0
 45 46  2  0  0  0
 45116  1  0  0  0
 46117  1  0  0  0
 47118  1  0  0  0
 47119  1  0  0  0
 48 56  1  0  0  0
 48 65  1  0  0  0
 48120  1  0  0  0
 49 50  1  0  0  0
 49 53  1  0  0  0
 49 64  1  0  0  0
 49121  1  0  0  0
 50 51  1  0  0  0
 50122  1  0  0  0
 50123  1  0  0  0
 51 52  1  0  0  0
 51124  1  0  0  0
 51125  1  0  0  0
 52126  1  0  0  0
 52127  1  0  0  0
 53 54  1  0  0  0
 54 55  2  0  0  0
 54128  1  0  0  0
 55 57  1  0  0  0
 55129  1  0  0  0
 56 69  2  0  0  0
 57 58  2  0  0  0
 57130  1  0  0  0
 58131  1  0  0  0
 59 60  1  0  0  0
 59 61  1  0  0  0
 59 62  1  0  0  0
 60132  1  0  0  0
 60133  1  0  0  0
 60134  1  0  0  0
 61135  1  0  0  0
 61136  1  0  0  0
 61137  1  0  0  0
 62138  1  0  0  0
 62139  1  0  0  0
 62140  1  0  0  0
 63 65  1  0  0  0
 63141  1  0  0  0
 63142  1  0  0  0
 63143  1  0  0  0
 64144  1  0  0  0
 65145  1  0  0  0
 68 78  1  0  0  0
 71 73  2  0  0  0
 71 74  1  0  0  0
 71146  1  0  0  0
 72 74  2  0  0  0
 72 76  1  0  0  0
 72147  1  0  0  0
 73 75  1  0  0  0
 73 81  1  0  0  0
 74 84  1  0  0  0
 75 76  2  0  0  0
 75 85  1  0  0  0
 76 86  1  0  0  0
 77 78  2  0  0  0
 77 82  1  0  0  0
 77148  1  0  0  0
 78149  1  0  0  0
 79 82  1  0  0  0
 79 84  2  0  0  0
 79150  1  0  0  0
 80 83  1  0  0  0
 80151  1  0  0  0
 80152  1  0  0  0
 80153  1  0  0  0
 81 83  1  0  0  0
 81154  1  0  0  0
 81155  1  0  0  0
 82156  1  0  0  0
 82157  1  0  0  0
 83158  1  0  0  0
 83159  1  0  0  0
 85160  1  0  0  0
M  ISO  4   1 100  68 101  78 101  85 100
M  END
> <chiral flag>
0

> <version>
0

> <s_m_source_file>
/data/baiqing/PycharmProjects/Reinvent-master-3.2/result/LINK_invent/BTK/process_docking_weight1_custom_product_contain_oxygen_bond_distance_aromatic_linkinvent_7_9_3/rearranged_h_0117.sdf

> <i_m_source_file_index>
40

> <r_mmod_Potential_Energy-OPLS-2005>
-52.8359832763672

> <r_mmod_Stretch_Energy-OPLS-2005>
41.2577362060547

> <r_mmod_Bend_Energy-OPLS-2005>
105.989921569824

> <r_mmod_Torsional_Energy-OPLS-2005>
237.628433227539

> <r_mmod_Improper_Torsional_Energy-OPLS-2005>
5.93856430053711

> <r_mmod_Van_der_Waal_Energy-OPLS-2005>
142.926635742188

> <r_mmod_Electrostatic_Energy-OPLS-2005>
-397.430389404297

> <r_mmod_Solvation_Energy-OPLS-2005>
-204.324966430664

> <b_mmod_Minimization_Converged-OPLS-2005>
0

> <r_mmod_RMS_Derivative-OPLS-2005>
2.4484601020813

$$$$
40
                    3D
 Structure written by MMmdl.
160168  0  0  1  0            999 V2000
  -30.7152  -14.8018   20.3579 C   0  0  0  0  0  0
  -30.4116  -12.5182   19.4201 C   0  0  0  0  0  0
  -29.4783  -12.4751   18.1995 C   0  0  0  0  0  0
  -28.0201  -12.2789   18.6570 C   0  0  0  0  0  0
  -27.6231  -13.2111   19.8327 C   0  0  2  0  0  0
  -28.6970  -13.3143   20.9287 C   0  0  0  0  0  0
  -25.2567  -13.8028   20.5993 C   0  0  0  0  0  0
  -24.1785  -13.0320   20.9296 C   0  0  0  0  0  0
  -24.6349  -11.6806   20.8785 C   0  0  0  0  0  0
  -23.9013  -10.4210   21.0405 C   0  0  0  0  0  0
  -24.3578   -9.4130   21.9182 C   0  0  0  0  0  0
  -23.6255   -8.2175   22.0748 C   0  0  0  0  0  0
  -22.4249   -8.0222   21.3529 C   0  0  0  0  0  0
  -21.9865   -9.0190   20.4640 C   0  0  0  0  0  0
  -22.7189  -10.2073   20.3043 C   0  0  0  0  0  0
  -21.6834   -6.0709   22.5277 C   0  0  0  0  0  0
  -21.4014   -6.5622   23.8209 C   0  0  0  0  0  0
  -21.3667   -5.6784   24.9176 C   0  0  0  0  0  0
  -21.6035   -4.3042   24.7236 C   0  0  0  0  0  0
  -21.8819   -3.8127   23.4361 C   0  0  0  0  0  0
  -21.9185   -4.6937   22.3410 C   0  0  0  0  0  0
  -22.7824  -13.5153   21.1909 C   0  0  0  0  0  0
  -22.1651   -4.2121   21.0987 F   0  0  0  0  0  0
  -21.5630   -3.4527   25.7752 F   0  0  0  0  0  0
  -29.9535  -13.6558   20.2491 N   0  0  0  0  0  0
  -26.2918  -12.9217   20.3446 N   0  0  0  0  0  0
  -25.9279  -11.6390   20.5823 N   0  0  0  0  0  0
  -22.0452  -12.8157   22.0459 N   0  0  0  0  0  0
  -25.4366  -15.1732   20.4703 N   0  0  0  0  0  0
  -31.9297  -14.6471   20.4928 O   0  0  0  0  0  0
  -21.6600   -6.8847   21.4239 O   0  0  0  0  0  0
  -22.3545  -14.5463   20.6743 O   0  0  0  0  0  0
  -24.6292  -31.8587   23.2005 C   0  0  0  0  0  0
  -25.9124  -32.4778   23.8338 C   0  0  1  0  0  0
  -27.2277  -27.3000   20.1010 C   0  0  0  0  0  0
  -25.5940  -33.8561   24.2265 N   0  0  0  0  0  0
  -23.4228  -30.4840   21.5462 C   0  0  2  0  0  0
  -24.8739  -28.9453   20.1047 C   0  0  0  0  0  0
  -22.7459  -29.4582   22.4926 C   0  0  0  0  0  0
  -18.0249  -28.1434   22.8454 C   0  0  0  0  0  0
  -24.1492  -36.7280   23.2635 C   0  0  0  0  0  0
  -25.9727  -30.7834   21.3791 C   0  0  0  0  0  0
  -26.0469  -29.4114   20.7120 C   0  0  0  0  0  0
  -27.2251  -28.6005   20.7038 C   0  0  0  0  0  0
  -26.0339  -26.9115   19.4460 C   0  0  0  0  0  0
  -24.8701  -27.7008   19.4639 C   0  0  0  0  0  0
  -23.6406  -29.8270   20.1591 C   0  0  0  0  0  0
  -25.4113  -36.3051   24.0313 C   0  0  1  0  0  0
  -20.5872  -28.3615   23.1288 C   0  0  2  0  0  0
  -20.6674  -26.9297   22.5518 C   0  0  0  0  0  0
  -19.5720  -26.6374   21.5219 C   0  0  0  0  0  0
  -18.1795  -26.8028   22.1438 C   0  0  0  0  0  0
  -19.1548  -28.8818   23.2906 C   0  0  0  0  0  0
  -18.9499  -30.1384   23.8992 C   0  0  0  0  0  0
  -17.6554  -30.6590   24.0710 C   0  0  0  0  0  0
  -25.9053  -34.9442   23.5092 C   0  0  0  0  0  0
  -16.5425  -29.9177   23.6392 C   0  0  0  0  0  0
  -16.7283  -28.6623   23.0332 C   0  0  0  0  0  0
  -26.4488  -31.6575   25.0705 C   0  0  0  0  0  0
  -25.3708  -31.3749   26.1423 C   0  0  0  0  0  0
  -27.0356  -30.2997   24.6204 C   0  0  0  0  0  0
  -27.6039  -32.4317   25.7483 C   0  0  0  0  0  0
  -27.5582  -37.1790   24.8459 C   0  0  0  0  0  0
  -21.4165  -29.2918   22.3641 N   0  0  0  0  0  0
  -26.4291  -37.3763   23.9403 N   0  0  0  0  0  0
  -24.6935  -31.0567   22.1000 N   0  0  0  0  0  0
  -23.4207  -28.8138   23.3008 O   0  0  0  0  0  0
  -28.3159  -26.4004   20.1727 O   0  0  0  0  0  0
  -26.5618  -34.8930   22.4675 O   0  0  0  0  0  0
  -23.5439  -32.1365   23.7334 O   0  0  0  0  0  0
  -29.7244  -18.6239   20.3073 C   0  0  0  0  0  0
  -27.6036  -19.6292   19.7523 C   0  0  0  0  0  0
  -29.3285  -17.3133   19.7992 C   0  0  0  0  0  0
  -27.1705  -18.4181   19.1783 C   0  0  0  0  0  0
  -28.0786  -17.3135   19.0908 C   0  0  0  0  0  0
  -28.9160  -19.8270   20.2178 C   0  0  0  0  0  0
  -23.8894  -19.8353   17.9135 C   0  0  0  0  0  0
  -25.2176  -19.6643   18.0651 C   0  0  0  0  0  0
  -30.3885  -16.1873   19.5691 C   0  0  0  0  0  0
  -25.7754  -18.4040   18.5972 C   0  0  0  0  0  0
  -28.9904  -23.8040   20.3527 C   0  0  0  0  0  0
  -27.8032  -16.2630   18.0106 C   0  0  0  0  0  0
  -28.0176  -24.9655   19.8680 C   0  0  0  0  0  0
  -28.5000  -22.3057   20.1183 C   0  0  0  0  0  0
  -31.1949  -16.4884   18.6332 N   0  0  0  0  0  0
  -25.0966  -17.3757   18.5665 O   0  0  0  0  0  0
  -30.0832  -24.0551   20.8759 O   0  0  0  0  0  0
  -29.3564  -21.1495   20.5239 O   0  0  0  0  0  0
  -31.4430  -12.6371   19.0828 H   0  0  0  0  0  0
  -30.3787  -11.5828   19.9824 H   0  0  0  0  0  0
  -29.7685  -11.6743   17.5183 H   0  0  0  0  0  0
  -29.5675  -13.4023   17.6327 H   0  0  0  0  0  0
  -27.9119  -11.2377   18.9600 H   0  0  0  0  0  0
  -27.3373  -12.4183   17.8168 H   0  0  0  0  0  0
  -27.5623  -14.1954   19.4040 H   0  0  0  0  0  0
  -28.7902  -12.3866   21.4950 H   0  0  0  0  0  0
  -28.4309  -14.1021   21.6375 H   0  0  0  0  0  0
  -25.2730   -9.5599   22.4753 H   0  0  0  0  0  0
  -23.9954   -7.4561   22.7454 H   0  0  0  0  0  0
  -21.0797   -8.8697   19.8947 H   0  0  0  0  0  0
  -22.3645  -10.9612   19.6146 H   0  0  0  0  0  0
  -21.2018   -7.6130   23.9711 H   0  0  0  0  0  0
  -21.1495   -6.0516   25.9084 H   0  0  0  0  0  0
  -22.0604   -2.7585   23.2864 H   0  0  0  0  0  0
  -22.4063  -11.9791   22.4814 H   0  0  0  0  0  0
  -21.1071  -13.1194   22.2676 H   0  0  0  0  0  0
  -24.6452  -15.8080   20.4462 H   0  0  0  0  0  0
  -26.2750  -15.5999   20.1003 H   0  0  0  0  0  0
  -26.7194  -32.5429   23.1086 H   0  0  0  0  0  0
  -25.0058  -33.9704   25.0372 H   0  0  0  0  0  0
  -22.7175  -31.3035   21.4039 H   0  0  0  0  0  0
  -23.3760  -35.9618   23.3278 H   0  0  0  0  0  0
  -24.3573  -36.8927   22.2061 H   0  0  0  0  0  0
  -23.7265  -37.6478   23.6680 H   0  0  0  0  0  0
  -26.1140  -31.5574   20.6206 H   0  0  0  0  0  0
  -26.8497  -30.8286   22.0151 H   0  0  0  0  0  0
  -28.1207  -28.9507   21.1996 H   0  0  0  0  0  0
  -25.9564  -25.9765   18.9086 H   0  0  0  0  0  0
  -23.9748  -27.3425   18.9744 H   0  0  0  0  0  0
  -23.7587  -30.6058   19.4045 H   0  0  0  0  0  0
  -22.7599  -29.2567   19.8549 H   0  0  0  0  0  0
  -25.1310  -36.1892   25.0806 H   0  0  0  0  0  0
  -20.9968  -28.3212   24.1392 H   0  0  0  0  0  0
  -20.5373  -26.2292   23.3775 H   0  0  0  0  0  0
  -21.6599  -26.7114   22.1535 H   0  0  0  0  0  0
  -19.6883  -25.6310   21.1121 H   0  0  0  0  0  0
  -19.6803  -27.3244   20.6850 H   0  0  0  0  0  0
  -17.4119  -26.7110   21.3726 H   0  0  0  0  0  0
  -17.9921  -26.0112   22.8673 H   0  0  0  0  0  0
  -19.8010  -30.7115   24.2484 H   0  0  0  0  0  0
  -17.5166  -31.6201   24.5498 H   0  0  0  0  0  0
  -15.5437  -30.3166   23.7746 H   0  0  0  0  0  0
  -15.8667  -28.1033   22.6970 H   0  0  0  0  0  0
  -24.5876  -30.7104   25.7764 H   0  0  0  0  0  0
  -24.8895  -32.2930   26.4811 H   0  0  0  0  0  0
  -25.8000  -30.8948   27.0226 H   0  0  0  0  0  0
  -26.2974  -29.6727   24.1204 H   0  0  0  0  0  0
  -27.4016  -29.7273   25.4736 H   0  0  0  0  0  0
  -27.8835  -30.4260   23.9470 H   0  0  0  0  0  0
  -27.2646  -33.3634   26.2038 H   0  0  0  0  0  0
  -28.3869  -32.6878   25.0318 H   0  0  0  0  0  0
  -28.0705  -31.8460   26.5421 H   0  0  0  0  0  0
  -28.2590  -38.0096   24.7515 H   0  0  0  0  0  0
  -28.1089  -36.2630   24.6271 H   0  0  0  0  0  0
  -27.2284  -37.1414   25.8856 H   0  0  0  0  0  0
  -20.9332  -29.8548   21.6808 H   0  0  0  0  0  0
  -26.0156  -38.2838   24.1412 H   0  0  0  0  0  0
  -30.7339  -18.7354   20.6762 H   0  0  0  0  0  0
  -26.9046  -20.4495   19.7795 H   0  0  0  0  0  0
  -23.4845  -20.7549   17.5148 H   0  0  0  0  0  0
  -23.1853  -19.0603   18.1902 H   0  0  0  0  0  0
  -25.9014  -20.4539   17.7927 H   0  0  0  0  0  0
  -28.5720  -15.5050   17.8892 H   0  0  0  0  0  0
  -27.7481  -16.7699   17.0454 H   0  0  0  0  0  0
  -26.8584  -15.7481   18.1452 H   0  0  0  0  0  0
  -27.0446  -24.7166   20.2979 H   0  0  0  0  0  0
  -27.9226  -24.8615   18.7888 H   0  0  0  0  0  0
  -28.2785  -22.2137   19.0554 H   0  0  0  0  0  0
  -27.5511  -22.2359   20.6465 H   0  0  0  0  0  0
  -30.9536  -17.3883   18.2388 H   0  0  0  0  0  0
  1 25  1  0  0  0
  1 30  2  0  0  0
  1 79  1  0  0  0
  2  3  1  0  0  0
  2 25  1  0  0  0
  2 89  1  0  0  0
  2 90  1  0  0  0
  3  4  1  0  0  0
  3 91  1  0  0  0
  3 92  1  0  0  0
  4  5  1  0  0  0
  4 93  1  0  0  0
  4 94  1  0  0  0
  5  6  1  0  0  0
  5 26  1  0  0  0
  5 95  1  0  0  0
  6 25  1  0  0  0
  6 96  1  0  0  0
  6 97  1  0  0  0
  7  8  2  0  0  0
  7 26  1  0  0  0
  7 29  1  0  0  0
  8  9  1  0  0  0
  8 22  1  0  0  0
  9 10  1  0  0  0
  9 27  2  0  0  0
 10 11  2  0  0  0
 10 15  1  0  0  0
 11 12  1  0  0  0
 11 98  1  0  0  0
 12 13  2  0  0  0
 12 99  1  0  0  0
 13 14  1  0  0  0
 13 31  1  0  0  0
 14 15  2  0  0  0
 14100  1  0  0  0
 15101  1  0  0  0
 16 17  2  0  0  0
 16 21  1  0  0  0
 16 31  1  0  0  0
 17 18  1  0  0  0
 17102  1  0  0  0
 18 19  2  0  0  0
 18103  1  0  0  0
 19 20  1  0  0  0
 19 24  1  0  0  0
 20 21  2  0  0  0
 20104  1  0  0  0
 21 23  1  0  0  0
 22 28  1  0  0  0
 22 32  2  0  0  0
 26 27  1  0  0  0
 28105  1  0  0  0
 28106  1  0  0  0
 29107  1  0  0  0
 29108  1  0  0  0
 33 34  1  0  0  0
 33 66  1  0  0  0
 33 70  2  0  0  0
 34 36  1  0  0  0
 34 59  1  0  0  0
 34109  1  0  0  0
 35 44  2  0  0  0
 35 45  1  0  0  0
 35 68  1  0  0  0
 36 56  1  0  0  0
 36110  1  0  0  0
 37 39  1  0  0  0
 37 47  1  0  0  0
 37 66  1  0  0  0
 37111  1  0  0  0
 38 43  2  0  0  0
 38 46  1  0  0  0
 38 47  1  0  0  0
 39 64  1  0  0  0
 39 67  2  0  0  0
 40 52  1  0  0  0
 40 53  2  0  0  0
 40 58  1  0  0  0
 41112  1  0  0  0
 41113  1  0  0  0
 41114  1  0  0  0
 41 48  1  0  0  0
 42 43  1  0  0  0
 42 66  1  0  0  0
 42115  1  0  0  0
 42116  1  0  0  0
 43 44  1  0  0  0
 44117  1  0  0  0
 45 46  2  0  0  0
 45118  1  0  0  0
 46119  1  0  0  0
 47120  1  0  0  0
 47121  1  0  0  0
 48 56  1  0  0  0
 48 65  1  0  0  0
 48122  1  0  0  0
 49 50  1  0  0  0
 49 53  1  0  0  0
 49 64  1  0  0  0
 49123  1  0  0  0
 50 51  1  0  0  0
 50124  1  0  0  0
 50125  1  0  0  0
 51 52  1  0  0  0
 51126  1  0  0  0
 51127  1  0  0  0
 52128  1  0  0  0
 52129  1  0  0  0
 53 54  1  0  0  0
 54 55  2  0  0  0
 54130  1  0  0  0
 55 57  1  0  0  0
 55131  1  0  0  0
 56 69  2  0  0  0
 57 58  2  0  0  0
 57132  1  0  0  0
 58133  1  0  0  0
 59 60  1  0  0  0
 59 61  1  0  0  0
 59 62  1  0  0  0
 60134  1  0  0  0
 60135  1  0  0  0
 60136  1  0  0  0
 61137  1  0  0  0
 61138  1  0  0  0
 61139  1  0  0  0
 62140  1  0  0  0
 62141  1  0  0  0
 62142  1  0  0  0
 63 65  1  0  0  0
 63143  1  0  0  0
 63144  1  0  0  0
 63145  1  0  0  0
 64146  1  0  0  0
 65147  1  0  0  0
 68 83  1  0  0  0
 71 73  2  0  0  0
 71 76  1  0  0  0
 71148  1  0  0  0
 72 74  1  0  0  0
 72 76  2  0  0  0
 72149  1  0  0  0
 73 75  1  0  0  0
 73 79  1  0  0  0
 74 75  2  0  0  0
 74 80  1  0  0  0
 75 82  1  0  0  0
 76 88  1  0  0  0
 77 78  2  0  0  0
 77150  1  0  0  0
 77151  1  0  0  0
 78 80  1  0  0  0
 78152  1  0  0  0
 79 85  2  0  0  0
 80 86  2  0  0  0
 81 83  1  0  0  0
 81 84  1  0  0  0
 81 87  2  0  0  0
 82153  1  0  0  0
 82154  1  0  0  0
 82155  1  0  0  0
 83156  1  0  0  0
 83157  1  0  0  0
 84 88  1  0  0  0
 84158  1  0  0  0
 84159  1  0  0  0
 85160  1  0  0  0
M  ISO  4   1 100  68 101  79 100  83 101
M  END
> <chiral flag>
0

> <version>
0

> <s_m_source_file>
/data/baiqing/PycharmProjects/Reinvent-master-3.2/result/LINK_invent/BTK/process_docking_weight1_custom_product_contain_oxygen_bond_distance_aromatic_linkinvent_7_9_3/rearranged_h_0117.sdf

> <i_m_source_file_index>
41

> <r_mmod_Potential_Energy-OPLS-2005>
598.213073730469

> <r_mmod_Stretch_Energy-OPLS-2005>
137.92268371582

> <r_mmod_Bend_Energy-OPLS-2005>
234.721237182617

> <r_mmod_Torsional_Energy-OPLS-2005>
304.57177734375

> <r_mmod_Improper_Torsional_Energy-OPLS-2005>
36.5959892272949

> <r_mmod_Van_der_Waal_Energy-OPLS-2005>
169.230514526367

> <r_mmod_Electrostatic_Energy-OPLS-2005>
-162.698699951172

> <r_mmod_Solvation_Energy-OPLS-2005>
-254.956420898438

> <b_mmod_Minimization_Converged-OPLS-2005>
0

> <r_mmod_RMS_Derivative-OPLS-2005>
5.38050317764282

$$$$
41
                    3D
 Structure written by MMmdl.
159167  0  0  1  0            999 V2000
  -30.6284  -14.7819   20.4412 C   0  0  0  0  0  0
  -30.4298  -12.4796   19.4734 C   0  0  0  0  0  0
  -29.5070  -12.4956   18.2361 C   0  0  0  0  0  0
  -28.0421  -12.3005   18.6675 C   0  0  0  0  0  0
  -27.6379  -13.2319   19.8384 C   0  0  2  0  0  0
  -28.6851  -13.2182   20.9733 C   0  0  0  0  0  0
  -25.2527  -13.8206   20.5719 C   0  0  0  0  0  0
  -24.1823  -13.0446   20.9211 C   0  0  0  0  0  0
  -24.6417  -11.6920   20.8751 C   0  0  0  0  0  0
  -23.9102  -10.4290   21.0408 C   0  0  0  0  0  0
  -24.3633   -9.4205   21.9192 C   0  0  0  0  0  0
  -23.6292   -8.2247   22.0778 C   0  0  0  0  0  0
  -22.4274   -8.0289   21.3557 C   0  0  0  0  0  0
  -21.9925   -9.0268   20.4657 C   0  0  0  0  0  0
  -22.7275  -10.2138   20.3054 C   0  0  0  0  0  0
  -21.6856   -6.0737   22.5281 C   0  0  0  0  0  0
  -21.4020   -6.5639   23.8219 C   0  0  0  0  0  0
  -21.3646   -5.6793   24.9174 C   0  0  0  0  0  0
  -21.6032   -4.3061   24.7230 C   0  0  0  0  0  0
  -21.8815   -3.8149   23.4356 C   0  0  0  0  0  0
  -21.9196   -4.6960   22.3412 C   0  0  0  0  0  0
  -22.7841  -13.5219   21.1873 C   0  0  0  0  0  0
  -22.1654   -4.2151   21.0986 F   0  0  0  0  0  0
  -21.5625   -3.4545   25.7738 F   0  0  0  0  0  0
  -29.9800  -13.5649   20.3795 N   0  0  0  0  0  0
  -26.2943  -12.9408   20.3257 N   0  0  0  0  0  0
  -25.9344  -11.6555   20.5761 N   0  0  0  0  0  0
  -22.0460  -12.8193   22.0385 N   0  0  0  0  0  0
  -25.4235  -15.1933   20.4178 N   0  0  0  0  0  0
  -31.8243  -14.8211   20.1470 O   0  0  0  0  0  0
  -21.6633   -6.8877   21.4244 O   0  0  0  0  0  0
  -22.3512  -14.5512   20.6722 O   0  0  0  0  0  0
  -24.6289  -31.8566   23.1970 C   0  0  0  0  0  0
  -25.9125  -32.4771   23.8325 C   0  0  1  0  0  0
  -27.2302  -27.2651   20.1633 C   0  0  0  0  0  0
  -25.5942  -33.8569   24.2269 N   0  0  0  0  0  0
  -23.4266  -30.4717   21.5406 C   0  0  2  0  0  0
  -24.8774  -28.9070   20.1229 C   0  0  0  0  0  0
  -22.7481  -29.4598   22.4942 C   0  0  0  0  0  0
  -18.0269  -28.1392   22.8465 C   0  0  0  0  0  0
  -24.1495  -36.7279   23.2644 C   0  0  0  0  0  0
  -25.9674  -30.7734   21.3713 C   0  0  0  0  0  0
  -26.0456  -29.3899   20.7279 C   0  0  0  0  0  0
  -27.2260  -28.5825   20.7290 C   0  0  0  0  0  0
  -26.0428  -26.8360   19.5410 C   0  0  0  0  0  0
  -24.8818  -27.6386   19.5170 C   0  0  0  0  0  0
  -23.6452  -29.7930   20.1621 C   0  0  0  0  0  0
  -25.4118  -36.3081   24.0337 C   0  0  1  0  0  0
  -20.5873  -28.3703   23.1308 C   0  0  2  0  0  0
  -20.6778  -26.9428   22.5444 C   0  0  0  0  0  0
  -19.5768  -26.6390   21.5229 C   0  0  0  0  0  0
  -18.1918  -26.7931   22.1599 C   0  0  0  0  0  0
  -19.1520  -28.8851   23.2876 C   0  0  0  0  0  0
  -18.9459  -30.1432   23.8923 C   0  0  0  0  0  0
  -17.6476  -30.6604   24.0552 C   0  0  0  0  0  0
  -25.9064  -34.9449   23.5107 C   0  0  0  0  0  0
  -16.5359  -29.9106   23.6347 C   0  0  0  0  0  0
  -16.7260  -28.6520   23.0368 C   0  0  0  0  0  0
  -26.4501  -31.6575   25.0698 C   0  0  0  0  0  0
  -25.3724  -31.3703   26.1428 C   0  0  0  0  0  0
  -27.0374  -30.3027   24.6123 C   0  0  0  0  0  0
  -27.6078  -32.4305   25.7454 C   0  0  0  0  0  0
  -27.5571  -37.1786   24.8457 C   0  0  0  0  0  0
  -21.4184  -29.3036   22.3690 N   0  0  0  0  0  0
  -26.4288  -37.3783   23.9407 N   0  0  0  0  0  0
  -24.6935  -31.0518   22.0945 N   0  0  0  0  0  0
  -23.4182  -28.8155   23.3047 O   0  0  0  0  0  0
  -28.3543  -26.4188   20.1378 O   0  0  0  0  0  0
  -26.5617  -34.8910   22.4667 O   0  0  0  0  0  0
  -23.5457  -32.1402   23.7281 O   0  0  0  0  0  0
  -31.1131  -20.1744   20.5134 C   0  0  0  0  0  0
  -31.6323  -17.7793   20.6700 C   0  0  0  0  0  0
  -29.7179  -19.9374   20.4418 C   0  0  0  0  0  0
  -32.0546  -19.1231   20.5892 C   0  0  0  0  0  0
  -30.2692  -17.4072   20.5830 C   0  0  0  0  0  0
  -29.3264  -18.5220   20.4680 C   0  0  0  0  0  0
  -35.5998  -19.6733   17.7707 C   0  0  0  0  0  0
  -35.2499  -20.0587   19.0088 C   0  0  0  0  0  0
  -29.0621  -22.3453   20.4986 C   0  0  0  0  0  0
  -33.8244  -20.2900   19.4536 C   0  0  0  0  0  0
  -28.3115  -23.6670   19.9622 C   0  0  0  0  0  0
  -28.3541  -25.0635   20.7865 C   0  0  0  0  0  0
  -28.8106  -21.0736   20.2197 N   0  0  0  0  0  0
  -29.8810  -15.9545   20.6052 N   0  0  0  0  0  0
  -33.4316  -19.3821   20.5261 N   0  0  0  0  0  0
  -28.0100  -18.2185   20.3602 F   0  0  0  0  0  0
  -31.4694  -12.5918   19.1652 H   0  0  0  0  0  0
  -30.3751  -11.5152   19.9853 H   0  0  0  0  0  0
  -29.7981  -11.7079   17.5404 H   0  0  0  0  0  0
  -29.6134  -13.4395   17.6985 H   0  0  0  0  0  0
  -27.9399  -11.2609   18.9823 H   0  0  0  0  0  0
  -27.3690  -12.4293   17.8194 H   0  0  0  0  0  0
  -27.6151  -14.2393   19.4209 H   0  0  0  0  0  0
  -28.7337  -12.2412   21.4532 H   0  0  0  0  0  0
  -28.4179  -13.9341   21.7524 H   0  0  0  0  0  0
  -25.2765   -9.5675   22.4785 H   0  0  0  0  0  0
  -23.9983   -7.4634   22.7509 H   0  0  0  0  0  0
  -21.0849   -8.8794   19.8949 H   0  0  0  0  0  0
  -22.3736  -10.9687   19.6161 H   0  0  0  0  0  0
  -21.2011   -7.6151   23.9721 H   0  0  0  0  0  0
  -21.1466   -6.0523   25.9070 H   0  0  0  0  0  0
  -22.0604   -2.7617   23.2861 H   0  0  0  0  0  0
  -22.4053  -11.9831   22.4754 H   0  0  0  0  0  0
  -21.1084  -13.1250   22.2585 H   0  0  0  0  0  0
  -24.6635  -15.8516   20.5468 H   0  0  0  0  0  0
  -26.2778  -15.6409   20.1138 H   0  0  0  0  0  0
  -26.7165  -32.5460   23.1055 H   0  0  0  0  0  0
  -25.0121  -33.9710   25.0438 H   0  0  0  0  0  0
  -22.7232  -31.2932   21.3857 H   0  0  0  0  0  0
  -23.3779  -35.9593   23.3327 H   0  0  0  0  0  0
  -24.3583  -36.8908   22.2055 H   0  0  0  0  0  0
  -23.7234  -37.6473   23.6667 H   0  0  0  0  0  0
  -26.0844  -31.5255   20.5900 H   0  0  0  0  0  0
  -26.8535  -30.8486   21.9891 H   0  0  0  0  0  0
  -28.1263  -28.9512   21.1990 H   0  0  0  0  0  0
  -26.0164  -25.8628   19.0717 H   0  0  0  0  0  0
  -23.9867  -27.2640   19.0410 H   0  0  0  0  0  0
  -23.7627  -30.5666   19.4029 H   0  0  0  0  0  0
  -22.7652  -29.2216   19.8593 H   0  0  0  0  0  0
  -25.1287  -36.1944   25.0831 H   0  0  0  0  0  0
  -20.9919  -28.3299   24.1450 H   0  0  0  0  0  0
  -20.5740  -26.2288   23.3636 H   0  0  0  0  0  0
  -21.6632  -26.7488   22.1201 H   0  0  0  0  0  0
  -19.6983  -25.6309   21.1254 H   0  0  0  0  0  0
  -19.6756  -27.3188   20.6757 H   0  0  0  0  0  0
  -17.4207  -26.6698   21.3973 H   0  0  0  0  0  0
  -18.0282  -26.0057   22.8975 H   0  0  0  0  0  0
  -19.7944  -30.7201   24.2337 H   0  0  0  0  0  0
  -17.5049  -31.6294   24.5125 H   0  0  0  0  0  0
  -15.5370  -30.3030   23.7683 H   0  0  0  0  0  0
  -15.8641  -28.0855   22.7116 H   0  0  0  0  0  0
  -24.5948  -30.7002   25.7756 H   0  0  0  0  0  0
  -24.8837  -32.2850   26.4800 H   0  0  0  0  0  0
  -25.8049  -30.8940   27.0244 H   0  0  0  0  0  0
  -26.2945  -29.6749   24.1199 H   0  0  0  0  0  0
  -27.4189  -29.7303   25.4591 H   0  0  0  0  0  0
  -27.8759  -30.4366   23.9282 H   0  0  0  0  0  0
  -27.2739  -33.3664   26.1930 H   0  0  0  0  0  0
  -28.3923  -32.6767   25.0284 H   0  0  0  0  0  0
  -28.0687  -31.8472   26.5426 H   0  0  0  0  0  0
  -28.2576  -38.0081   24.7496 H   0  0  0  0  0  0
  -28.1066  -36.2617   24.6298 H   0  0  0  0  0  0
  -27.2270  -37.1453   25.8847 H   0  0  0  0  0  0
  -20.9363  -29.8755   21.6891 H   0  0  0  0  0  0
  -26.0195  -38.2868   24.1421 H   0  0  0  0  0  0
  -31.4930  -21.1844   20.4660 H   0  0  0  0  0  0
  -32.3984  -17.0276   20.7760 H   0  0  0  0  0  0
  -36.6379  -19.5317   17.5029 H   0  0  0  0  0  0
  -34.8610  -19.4904   17.0021 H   0  0  0  0  0  0
  -36.0213  -20.2280   19.7505 H   0  0  0  0  0  0
  -29.9191  -22.6034   21.1286 H   0  0  0  0  0  0
  -33.1584  -20.1751   18.5944 H   0  0  0  0  0  0
  -33.7322  -21.3253   19.7907 H   0  0  0  0  0  0
  -27.2693  -23.4178   19.7721 H   0  0  0  0  0  0
  -28.7384  -23.8732   18.9800 H   0  0  0  0  0  0
  -29.2951  -25.0529   21.3392 H   0  0  0  0  0  0
  -27.5878  -25.0426   21.5650 H   0  0  0  0  0  0
  -28.8883  -15.7987   20.6918 H   0  0  0  0  0  0
  -34.0034  -18.5410   20.5619 H   0  0  0  0  0  0
  1 25  1  0  0  0
  1 30  2  0  0  0
  1 84  1  0  0  0
  2  3  1  0  0  0
  2 25  1  0  0  0
  2 87  1  0  0  0
  2 88  1  0  0  0
  3  4  1  0  0  0
  3 89  1  0  0  0
  3 90  1  0  0  0
  4  5  1  0  0  0
  4 91  1  0  0  0
  4 92  1  0  0  0
  5  6  1  0  0  0
  5 26  1  0  0  0
  5 93  1  0  0  0
  6 25  1  0  0  0
  6 94  1  0  0  0
  6 95  1  0  0  0
  7  8  2  0  0  0
  7 26  1  0  0  0
  7 29  1  0  0  0
  8  9  1  0  0  0
  8 22  1  0  0  0
  9 10  1  0  0  0
  9 27  2  0  0  0
 10 11  2  0  0  0
 10 15  1  0  0  0
 11 12  1  0  0  0
 11 96  1  0  0  0
 12 13  2  0  0  0
 12 97  1  0  0  0
 13 14  1  0  0  0
 13 31  1  0  0  0
 14 15  2  0  0  0
 14 98  1  0  0  0
 15 99  1  0  0  0
 16 17  2  0  0  0
 16 21  1  0  0  0
 16 31  1  0  0  0
 17 18  1  0  0  0
 17100  1  0  0  0
 18 19  2  0  0  0
 18101  1  0  0  0
 19 20  1  0  0  0
 19 24  1  0  0  0
 20 21  2  0  0  0
 20102  1  0  0  0
 21 23  1  0  0  0
 22 28  1  0  0  0
 22 32  2  0  0  0
 26 27  1  0  0  0
 28103  1  0  0  0
 28104  1  0  0  0
 29105  1  0  0  0
 29106  1  0  0  0
 33 34  1  0  0  0
 33 66  1  0  0  0
 33 70  2  0  0  0
 34 36  1  0  0  0
 34 59  1  0  0  0
 34107  1  0  0  0
 35 44  2  0  0  0
 35 45  1  0  0  0
 35 68  1  0  0  0
 36 56  1  0  0  0
 36108  1  0  0  0
 37 39  1  0  0  0
 37 47  1  0  0  0
 37 66  1  0  0  0
 37109  1  0  0  0
 38 43  2  0  0  0
 38 46  1  0  0  0
 38 47  1  0  0  0
 39 64  1  0  0  0
 39 67  2  0  0  0
 40 52  1  0  0  0
 40 53  2  0  0  0
 40 58  1  0  0  0
 41110  1  0  0  0
 41111  1  0  0  0
 41112  1  0  0  0
 41 48  1  0  0  0
 42 43  1  0  0  0
 42 66  1  0  0  0
 42113  1  0  0  0
 42114  1  0  0  0
 43 44  1  0  0  0
 44115  1  0  0  0
 45 46  2  0  0  0
 45116  1  0  0  0
 46117  1  0  0  0
 47118  1  0  0  0
 47119  1  0  0  0
 48 56  1  0  0  0
 48 65  1  0  0  0
 48120  1  0  0  0
 49 50  1  0  0  0
 49 53  1  0  0  0
 49 64  1  0  0  0
 49121  1  0  0  0
 50 51  1  0  0  0
 50122  1  0  0  0
 50123  1  0  0  0
 51 52  1  0  0  0
 51124  1  0  0  0
 51125  1  0  0  0
 52126  1  0  0  0
 52127  1  0  0  0
 53 54  1  0  0  0
 54 55  2  0  0  0
 54128  1  0  0  0
 55 57  1  0  0  0
 55129  1  0  0  0
 56 69  2  0  0  0
 57 58  2  0  0  0
 57130  1  0  0  0
 58131  1  0  0  0
 59 60  1  0  0  0
 59 61  1  0  0  0
 59 62  1  0  0  0
 60132  1  0  0  0
 60133  1  0  0  0
 60134  1  0  0  0
 61135  1  0  0  0
 61136  1  0  0  0
 61137  1  0  0  0
 62138  1  0  0  0
 62139  1  0  0  0
 62140  1  0  0  0
 63 65  1  0  0  0
 63141  1  0  0  0
 63142  1  0  0  0
 63143  1  0  0  0
 64144  1  0  0  0
 65145  1  0  0  0
 68 82  1  0  0  0
 71 73  2  0  0  0
 71 74  1  0  0  0
 71146  1  0  0  0
 72 74  2  0  0  0
 72 75  1  0  0  0
 72147  1  0  0  0
 73 76  1  0  0  0
 73 83  1  0  0  0
 74 85  1  0  0  0
 75 76  2  0  0  0
 75 84  1  0  0  0
 76 86  1  0  0  0
 77 78  2  0  0  0
 77148  1  0  0  0
 77149  1  0  0  0
 78 80  1  0  0  0
 78150  1  0  0  0
 79 81  1  0  0  0
 79 83  2  0  0  0
 79151  1  0  0  0
 80 85  1  0  0  0
 80152  1  0  0  0
 80153  1  0  0  0
 81 82  1  0  0  0
 81154  1  0  0  0
 81155  1  0  0  0
 82156  1  0  0  0
 82157  1  0  0  0
 84158  1  0  0  0
 85159  1  0  0  0
M  ISO  4   1 100  68 101  82 101  84 100
M  END
> <chiral flag>
0

> <version>
0

> <s_m_source_file>
/data/baiqing/PycharmProjects/Reinvent-master-3.2/result/LINK_invent/BTK/process_docking_weight1_custom_product_contain_oxygen_bond_distance_aromatic_linkinvent_7_9_3/rearranged_h_0117.sdf

> <i_m_source_file_index>
42

> <r_mmod_Potential_Energy-OPLS-2005>
219.154800415039

> <r_mmod_Stretch_Energy-OPLS-2005>
139.227401733398

> <r_mmod_Bend_Energy-OPLS-2005>
173.918716430664

> <r_mmod_Torsional_Energy-OPLS-2005>
245.954452514648

> <r_mmod_Improper_Torsional_Energy-OPLS-2005>
10.4703283309937

> <r_mmod_Van_der_Waal_Energy-OPLS-2005>
143.688095092773

> <r_mmod_Electrostatic_Energy-OPLS-2005>
-367.498870849609

> <r_mmod_Solvation_Energy-OPLS-2005>
-217.32893371582

> <b_mmod_Minimization_Converged-OPLS-2005>
0

> <r_mmod_RMS_Derivative-OPLS-2005>
3.42288136482239

$$$$
42
                    3D
 Structure written by MMmdl.
167176  0  0  1  0            999 V2000
  -30.7627  -14.3657   20.7482 C   0  0  0  0  0  0
  -30.4297  -12.3313   19.3703 C   0  0  0  0  0  0
  -29.4807  -12.5575   18.1780 C   0  0  0  0  0  0
  -28.0081  -12.4021   18.6043 C   0  0  0  0  0  0
  -27.6726  -13.1963   19.8918 C   0  0  2  0  0  0
  -28.7126  -12.9035   20.9934 C   0  0  0  0  0  0
  -25.2642  -13.8137   20.5709 C   0  0  0  0  0  0
  -24.1898  -13.0441   20.9168 C   0  0  0  0  0  0
  -24.6437  -11.6890   20.8786 C   0  0  0  0  0  0
  -23.9117  -10.4277   21.0444 C   0  0  0  0  0  0
  -24.3662   -9.4179   21.9209 C   0  0  0  0  0  0
  -23.6320   -8.2220   22.0763 C   0  0  0  0  0  0
  -22.4301   -8.0293   21.3536 C   0  0  0  0  0  0
  -21.9955   -9.0292   20.4645 C   0  0  0  0  0  0
  -22.7303  -10.2153   20.3072 C   0  0  0  0  0  0
  -21.6852   -6.0764   22.5287 C   0  0  0  0  0  0
  -21.4021   -6.5662   23.8230 C   0  0  0  0  0  0
  -21.3677   -5.6806   24.9179 C   0  0  0  0  0  0
  -21.6040   -4.3068   24.7218 C   0  0  0  0  0  0
  -21.8818   -3.8170   23.4337 C   0  0  0  0  0  0
  -21.9190   -4.6989   22.3402 C   0  0  0  0  0  0
  -22.7916  -13.5251   21.1805 C   0  0  0  0  0  0
  -22.1658   -4.2198   21.0965 F   0  0  0  0  0  0
  -21.5627   -3.4540   25.7717 F   0  0  0  0  0  0
  -30.0449  -13.2480   20.4512 N   0  0  0  0  0  0
  -26.3091  -12.9288   20.3453 N   0  0  0  0  0  0
  -25.9353  -11.6458   20.5828 N   0  0  0  0  0  0
  -22.0569  -12.8262   22.0362 N   0  0  0  0  0  0
  -25.4355  -15.1866   20.4103 N   0  0  0  0  0  0
  -31.7346  -14.7070   20.0707 O   0  0  0  0  0  0
  -21.6631   -6.8910   21.4253 O   0  0  0  0  0  0
  -22.3627  -14.5588   20.6666 O   0  0  0  0  0  0
  -24.6109  -31.8691   23.2093 C   0  0  0  0  0  0
  -25.9024  -32.4826   23.8384 C   0  0  1  0  0  0
  -27.2557  -27.4483   20.1023 C   0  0  0  0  0  0
  -25.5887  -33.8615   24.2314 N   0  0  0  0  0  0
  -23.3981  -30.4891   21.5501 C   0  0  2  0  0  0
  -24.8453  -28.9424   20.1282 C   0  0  0  0  0  0
  -22.7364  -29.4680   22.5019 C   0  0  0  0  0  0
  -18.0272  -28.1385   22.8488 C   0  0  0  0  0  0
  -24.1483  -36.7302   23.2638 C   0  0  0  0  0  0
  -25.9234  -30.8388   21.3556 C   0  0  0  0  0  0
  -26.0034  -29.4718   20.7070 C   0  0  0  0  0  0
  -27.2068  -28.7354   20.6828 C   0  0  0  0  0  0
  -26.0777  -26.9266   19.5194 C   0  0  0  0  0  0
  -24.8765  -27.6674   19.5349 C   0  0  0  0  0  0
  -23.6059  -29.8104   20.1692 C   0  0  0  0  0  0
  -25.4105  -36.3098   24.0333 C   0  0  1  0  0  0
  -20.5854  -28.3676   23.1324 C   0  0  2  0  0  0
  -20.6767  -26.9421   22.5420 C   0  0  0  0  0  0
  -19.5751  -26.6396   21.5208 C   0  0  0  0  0  0
  -18.1928  -26.7940   22.1614 C   0  0  0  0  0  0
  -19.1518  -28.8841   23.2903 C   0  0  0  0  0  0
  -18.9457  -30.1454   23.8912 C   0  0  0  0  0  0
  -17.6465  -30.6599   24.0572 C   0  0  0  0  0  0
  -25.9038  -34.9473   23.5125 C   0  0  0  0  0  0
  -16.5355  -29.9104   23.6336 C   0  0  0  0  0  0
  -16.7265  -28.6518   23.0350 C   0  0  0  0  0  0
  -26.4469  -31.6609   25.0713 C   0  0  0  0  0  0
  -25.3739  -31.3720   26.1464 C   0  0  0  0  0  0
  -27.0295  -30.3053   24.6077 C   0  0  0  0  0  0
  -27.6046  -32.4336   25.7477 C   0  0  0  0  0  0
  -27.5575  -37.1802   24.8468 C   0  0  0  0  0  0
  -21.4104  -29.3035   22.3720 N   0  0  0  0  0  0
  -26.4283  -37.3790   23.9420 N   0  0  0  0  0  0
  -24.6625  -31.0799   22.0983 N   0  0  0  0  0  0
  -23.4148  -28.8241   23.3061 O   0  0  0  0  0  0
  -28.4809  -26.8043   20.0910 O   0  0  0  0  0  0
  -26.5600  -34.8938   22.4689 O   0  0  0  0  0  0
  -23.5308  -32.1440   23.7506 O   0  0  0  0  0  0
  -31.9095  -17.6432   20.7223 C   0  0  0  0  0  0
  -32.2890  -18.8528   20.1090 C   0  0  0  0  0  0
  -29.6322  -18.4634   20.9056 C   0  0  0  0  0  0
  -30.5785  -17.4407   21.1479 C   0  0  0  0  0  0
  -31.3420  -19.8751   19.8941 C   0  0  0  0  0  0
  -29.9984  -19.6756   20.2735 C   0  0  0  0  0  0
  -26.3327  -23.4572   22.6471 C   0  0  0  0  0  0
  -30.1690  -16.2782   21.9837 C   0  0  0  0  0  0
  -26.7081  -24.2926   21.6600 C   0  0  0  0  0  0
  -28.0568  -24.8778   21.6239 C   0  0  0  0  0  0
  -31.7812  -21.2130   19.3258 C   0  0  0  0  0  0
  -28.9323  -20.7404   20.0054 C   0  0  0  0  0  0
  -30.6158  -22.0252   18.7304 C   0  0  0  0  0  0
  -28.5680  -24.4928   19.0095 C   0  0  0  0  0  0
  -28.3349  -22.9506   19.1183 C   0  0  0  0  0  0
  -28.6463  -25.3825   20.2869 C   0  0  1  0  0  0
  -30.2853  -15.0071   21.8793 N   0  0  0  0  0  0
  -29.4461  -22.0974   19.6491 N   0  3  1  0  0  0
  -28.7568  -24.9604   22.6379 O   0  0  0  0  0  0
  -31.4669  -12.4660   19.0529 H   0  0  0  0  0  0
  -30.3651  -11.3040   19.7312 H   0  0  0  0  0  0
  -29.7172  -11.8629   17.3690 H   0  0  0  0  0  0
  -29.6331  -13.5605   17.7705 H   0  0  0  0  0  0
  -27.8040  -11.3430   18.7654 H   0  0  0  0  0  0
  -27.3542  -12.7279   17.7939 H   0  0  0  0  0  0
  -27.7402  -14.2581   19.6504 H   0  0  0  0  0  0
  -28.7069  -11.8452   21.2632 H   0  0  0  0  0  0
  -28.4231  -13.4301   21.9046 H   0  0  0  0  0  0
  -25.2831   -9.5644   22.4769 H   0  0  0  0  0  0
  -24.0044   -7.4614   22.7493 H   0  0  0  0  0  0
  -21.0883   -8.8857   19.8953 H   0  0  0  0  0  0
  -22.3826  -10.9717   19.6181 H   0  0  0  0  0  0
  -21.2018   -7.6170   23.9755 H   0  0  0  0  0  0
  -21.1500   -6.0514   25.9087 H   0  0  0  0  0  0
  -22.0575   -2.7638   23.2802 H   0  0  0  0  0  0
  -22.4201  -11.9938   22.4773 H   0  0  0  0  0  0
  -21.1197  -13.1304   22.2591 H   0  0  0  0  0  0
  -24.6672  -15.8391   20.5178 H   0  0  0  0  0  0
  -26.2946  -15.6272   20.1099 H   0  0  0  0  0  0
  -26.7092  -32.5545   23.1144 H   0  0  0  0  0  0
  -25.0068  -33.9786   25.0473 H   0  0  0  0  0  0
  -22.6857  -31.3052   21.4071 H   0  0  0  0  0  0
  -23.3746  -35.9635   23.3312 H   0  0  0  0  0  0
  -24.3578  -36.8899   22.2053 H   0  0  0  0  0  0
  -23.7238  -37.6506   23.6651 H   0  0  0  0  0  0
  -26.0314  -31.6034   20.5870 H   0  0  0  0  0  0
  -26.8097  -30.8947   21.9750 H   0  0  0  0  0  0
  -28.1057  -29.1536   21.1134 H   0  0  0  0  0  0
  -26.0700  -25.9614   19.0392 H   0  0  0  0  0  0
  -23.9805  -27.2484   19.0953 H   0  0  0  0  0  0
  -23.7209  -30.5826   19.4061 H   0  0  0  0  0  0
  -22.7283  -29.2310   19.8733 H   0  0  0  0  0  0
  -25.1286  -36.1958   25.0823 H   0  0  0  0  0  0
  -20.9951  -28.3257   24.1442 H   0  0  0  0  0  0
  -20.5679  -26.2295   23.3598 H   0  0  0  0  0  0
  -21.6645  -26.7492   22.1207 H   0  0  0  0  0  0
  -19.6927  -25.6299   21.1245 H   0  0  0  0  0  0
  -19.6700  -27.3193   20.6724 H   0  0  0  0  0  0
  -17.4206  -26.6687   21.4018 H   0  0  0  0  0  0
  -18.0351  -26.0078   22.9006 H   0  0  0  0  0  0
  -19.7933  -30.7261   24.2291 H   0  0  0  0  0  0
  -17.5028  -31.6283   24.5169 H   0  0  0  0  0  0
  -15.5354  -30.3015   23.7663 H   0  0  0  0  0  0
  -15.8659  -28.0843   22.7066 H   0  0  0  0  0  0
  -24.5894  -30.7094   25.7793 H   0  0  0  0  0  0
  -24.8961  -32.2885   26.4934 H   0  0  0  0  0  0
  -25.8089  -30.8861   27.0203 H   0  0  0  0  0  0
  -26.2830  -29.6821   24.1144 H   0  0  0  0  0  0
  -27.4078  -29.7293   25.4529 H   0  0  0  0  0  0
  -27.8661  -30.4374   23.9214 H   0  0  0  0  0  0
  -27.2657  -33.3613   26.2100 H   0  0  0  0  0  0
  -28.3838  -32.6932   25.0300 H   0  0  0  0  0  0
  -28.0741  -31.8439   26.5356 H   0  0  0  0  0  0
  -28.2605  -38.0084   24.7505 H   0  0  0  0  0  0
  -28.1051  -36.2621   24.6305 H   0  0  0  0  0  0
  -27.2296  -37.1467   25.8869 H   0  0  0  0  0  0
  -20.9265  -29.8714   21.6898 H   0  0  0  0  0  0
  -26.0167  -38.2867   24.1415 H   0  0  0  0  0  0
  -32.6676  -16.8990   20.9243 H   0  0  0  0  0  0
  -33.3251  -19.0087   19.8423 H   0  0  0  0  0  0
  -28.6089  -18.3224   21.2312 H   0  0  0  0  0  0
  -25.3444  -23.0220   22.6564 H   0  0  0  0  0  0
  -27.0028  -23.1894   23.4526 H   0  0  0  0  0  0
  -29.6459  -16.6146   22.8839 H   0  0  0  0  0  0
  -26.0255  -24.5383   20.8634 H   0  0  0  0  0  0
  -32.5452  -21.0501   18.5619 H   0  0  0  0  0  0
  -32.2590  -21.7701   20.1316 H   0  0  0  0  0  0
  -28.3026  -20.8237   20.8923 H   0  0  0  0  0  0
  -28.2900  -20.3717   19.2022 H   0  0  0  0  0  0
  -30.3105  -21.5775   17.7845 H   0  0  0  0  0  0
  -30.9828  -23.0256   18.5011 H   0  0  0  0  0  0
  -27.7871  -24.8861   18.3651 H   0  0  0  0  0  0
  -29.4820  -24.6717   18.4446 H   0  0  0  0  0  0
  -28.1217  -22.5891   18.1106 H   0  0  0  0  0  0
  -27.4196  -22.7507   19.6752 H   0  0  0  0  0  0
  -29.7117  -25.3314   20.5158 H   0  0  0  0  0  0
  -29.7724  -22.4845   20.5206 H   0  0  0  0  0  0
  1 25  1  0  0  0
  1 30  2  0  0  0
  1 87  1  0  0  0
  2  3  1  0  0  0
  2 25  1  0  0  0
  2 90  1  0  0  0
  2 91  1  0  0  0
  3  4  1  0  0  0
  3 92  1  0  0  0
  3 93  1  0  0  0
  4  5  1  0  0  0
  4 94  1  0  0  0
  4 95  1  0  0  0
  5  6  1  0  0  0
  5 26  1  0  0  0
  5 96  1  0  0  0
  6 25  1  0  0  0
  6 97  1  0  0  0
  6 98  1  0  0  0
  7  8  2  0  0  0
  7 26  1  0  0  0
  7 29  1  0  0  0
  8  9  1  0  0  0
  8 22  1  0  0  0
  9 10  1  0  0  0
  9 27  2  0  0  0
 10 11  2  0  0  0
 10 15  1  0  0  0
 11 12  1  0  0  0
 11 99  1  0  0  0
 12 13  2  0  0  0
 12100  1  0  0  0
 13 14  1  0  0  0
 13 31  1  0  0  0
 14 15  2  0  0  0
 14101  1  0  0  0
 15102  1  0  0  0
 16 17  2  0  0  0
 16 21  1  0  0  0
 16 31  1  0  0  0
 17 18  1  0  0  0
 17103  1  0  0  0
 18 19  2  0  0  0
 18104  1  0  0  0
 19 20  1  0  0  0
 19 24  1  0  0  0
 20 21  2  0  0  0
 20105  1  0  0  0
 21 23  1  0  0  0
 22 28  1  0  0  0
 22 32  2  0  0  0
 26 27  1  0  0  0
 28106  1  0  0  0
 28107  1  0  0  0
 29108  1  0  0  0
 29109  1  0  0  0
 33 34  1  0  0  0
 33 66  1  0  0  0
 33 70  2  0  0  0
 34 36  1  0  0  0
 34 59  1  0  0  0
 34110  1  0  0  0
 35 44  2  0  0  0
 35 45  1  0  0  0
 35 68  1  0  0  0
 36 56  1  0  0  0
 36111  1  0  0  0
 37 39  1  0  0  0
 37 47  1  0  0  0
 37 66  1  0  0  0
 37112  1  0  0  0
 38 43  2  0  0  0
 38 46  1  0  0  0
 38 47  1  0  0  0
 39 64  1  0  0  0
 39 67  2  0  0  0
 40 52  1  0  0  0
 40 53  2  0  0  0
 40 58  1  0  0  0
 41113  1  0  0  0
 41114  1  0  0  0
 41115  1  0  0  0
 41 48  1  0  0  0
 42 43  1  0  0  0
 42 66  1  0  0  0
 42116  1  0  0  0
 42117  1  0  0  0
 43 44  1  0  0  0
 44118  1  0  0  0
 45 46  2  0  0  0
 45119  1  0  0  0
 46120  1  0  0  0
 47121  1  0  0  0
 47122  1  0  0  0
 48 56  1  0  0  0
 48 65  1  0  0  0
 48123  1  0  0  0
 49 50  1  0  0  0
 49 53  1  0  0  0
 49 64  1  0  0  0
 49124  1  0  0  0
 50 51  1  0  0  0
 50125  1  0  0  0
 50126  1  0  0  0
 51 52  1  0  0  0
 51127  1  0  0  0
 51128  1  0  0  0
 52129  1  0  0  0
 52130  1  0  0  0
 53 54  1  0  0  0
 54 55  2  0  0  0
 54131  1  0  0  0
 55 57  1  0  0  0
 55132  1  0  0  0
 56 69  2  0  0  0
 57 58  2  0  0  0
 57133  1  0  0  0
 58134  1  0  0  0
 59 60  1  0  0  0
 59 61  1  0  0  0
 59 62  1  0  0  0
 60135  1  0  0  0
 60136  1  0  0  0
 60137  1  0  0  0
 61138  1  0  0  0
 61139  1  0  0  0
 61140  1  0  0  0
 62141  1  0  0  0
 62142  1  0  0  0
 62143  1  0  0  0
 63 65  1  0  0  0
 63144  1  0  0  0
 63145  1  0  0  0
 63146  1  0  0  0
 64147  1  0  0  0
 65148  1  0  0  0
 68 86  1  0  0  0
 71 72  2  0  0  0
 71 74  1  0  0  0
 71149  1  0  0  0
 72 75  1  0  0  0
 72150  1  0  0  0
 73 74  2  0  0  0
 73 76  1  0  0  0
 73151  1  0  0  0
 74 78  1  0  0  0
 75 76  2  0  0  0
 75 81  1  0  0  0
 76 82  1  0  0  0
 77 79  2  0  0  0
 77152  1  0  0  0
 77153  1  0  0  0
 78 87  2  0  0  0
 78154  1  0  0  0
 79 80  1  0  0  0
 79155  1  0  0  0
 80 86  1  0  0  0
 80 89  2  0  0  0
 81 83  1  0  0  0
 81156  1  0  0  0
 81157  1  0  0  0
 82 88  1  0  0  0
 82158  1  0  0  0
 82159  1  0  0  0
 83 88  1  0  0  0
 83160  1  0  0  0
 83161  1  0  0  0
 84 85  1  0  0  0
 84162  1  0  0  0
 84163  1  0  0  0
 84 86  1  0  0  0
 85164  1  0  0  0
 85165  1  0  0  0
 85 88  1  0  0  0
 86166  1  0  0  0
 88167  1  0  0  0
M  CHG  1  88   1
M  ISO  4   1 100  68 101  86 101  87 100
M  END
> <chiral flag>
0

> <version>
0

> <s_m_source_file>
/data/baiqing/PycharmProjects/Reinvent-master-3.2/result/LINK_invent/BTK/process_docking_weight1_custom_product_contain_oxygen_bond_distance_aromatic_linkinvent_7_9_3/rearranged_h_0117.sdf

> <i_m_source_file_index>
43

> <r_mmod_Potential_Energy-OPLS-2005>
-62.2737693786621

> <r_mmod_Stretch_Energy-OPLS-2005>
42.21142578125

> <r_mmod_Bend_Energy-OPLS-2005>
172.242767333984

> <r_mmod_Torsional_Energy-OPLS-2005>
222.491027832031

> <r_mmod_Improper_Torsional_Energy-OPLS-2005>
2.46315932273865

> <r_mmod_Van_der_Waal_Energy-OPLS-2005>
160.598175048828

> <r_mmod_Electrostatic_Energy-OPLS-2005>
-211.42839050293

> <r_mmod_Solvation_Energy-OPLS-2005>
-461.423645019531

> <b_mmod_Minimization_Converged-OPLS-2005>
0

> <r_mmod_RMS_Derivative-OPLS-2005>
4.09030294418335

$$$$
43
                    3D
 Structure written by MMmdl.
155163  0  0  1  0            999 V2000
  -30.7083  -14.5143   20.5736 C   0  0  0  0  0  0
  -30.4179  -12.3385   19.4262 C   0  0  0  0  0  0
  -29.4923  -12.5249   18.2060 C   0  0  0  0  0  0
  -28.0140  -12.3796   18.6198 C   0  0  0  0  0  0
  -27.6574  -13.2213   19.8753 C   0  0  2  0  0  0
  -28.7050  -13.0277   20.9953 C   0  0  0  0  0  0
  -25.2559  -13.8186   20.5736 C   0  0  0  0  0  0
  -24.1835  -13.0442   20.9200 C   0  0  0  0  0  0
  -24.6422  -11.6919   20.8753 C   0  0  0  0  0  0
  -23.9111  -10.4292   21.0422 C   0  0  0  0  0  0
  -24.3642   -9.4197   21.9190 C   0  0  0  0  0  0
  -23.6298   -8.2251   22.0779 C   0  0  0  0  0  0
  -22.4274   -8.0298   21.3568 C   0  0  0  0  0  0
  -21.9929   -9.0267   20.4664 C   0  0  0  0  0  0
  -22.7282  -10.2131   20.3078 C   0  0  0  0  0  0
  -21.6854   -6.0739   22.5282 C   0  0  0  0  0  0
  -21.4024   -6.5642   23.8212 C   0  0  0  0  0  0
  -21.3663   -5.6807   24.9175 C   0  0  0  0  0  0
  -21.6035   -4.3068   24.7231 C   0  0  0  0  0  0
  -21.8818   -3.8160   23.4355 C   0  0  0  0  0  0
  -21.9193   -4.6968   22.3402 C   0  0  0  0  0  0
  -22.7848  -13.5200   21.1853 C   0  0  0  0  0  0
  -22.1669   -4.2160   21.0978 F   0  0  0  0  0  0
  -21.5620   -3.4552   25.7744 F   0  0  0  0  0  0
  -30.0287  -13.3392   20.4331 N   0  0  0  0  0  0
  -26.3020  -12.9405   20.3410 N   0  0  0  0  0  0
  -25.9352  -11.6547   20.5788 N   0  0  0  0  0  0
  -22.0511  -12.8168   22.0386 N   0  0  0  0  0  0
  -25.4208  -15.1910   20.4193 N   0  0  0  0  0  0
  -31.8490  -14.6759   20.1342 O   0  0  0  0  0  0
  -21.6647   -6.8888   21.4244 O   0  0  0  0  0  0
  -22.3527  -14.5525   20.6741 O   0  0  0  0  0  0
  -24.6191  -31.8700   23.2119 C   0  0  0  0  0  0
  -25.9084  -32.4843   23.8423 C   0  0  1  0  0  0
  -27.2278  -27.3939   20.0954 C   0  0  0  0  0  0
  -25.5958  -33.8642   24.2360 N   0  0  0  0  0  0
  -23.4094  -30.4929   21.5553 C   0  0  2  0  0  0
  -24.8523  -28.9595   20.1153 C   0  0  0  0  0  0
  -22.7428  -29.4666   22.4999 C   0  0  0  0  0  0
  -18.0297  -28.1378   22.8495 C   0  0  0  0  0  0
  -24.1497  -36.7282   23.2631 C   0  0  0  0  0  0
  -25.9447  -30.8173   21.3764 C   0  0  0  0  0  0
  -26.0169  -29.4506   20.7171 C   0  0  0  0  0  0
  -27.2062  -28.6769   20.7035 C   0  0  0  0  0  0
  -26.0401  -26.9372   19.4742 C   0  0  0  0  0  0
  -24.8599  -27.7019   19.4918 C   0  0  0  0  0  0
  -23.6204  -29.8352   20.1662 C   0  0  0  0  0  0
  -25.4119  -36.3112   24.0330 C   0  0  1  0  0  0
  -20.5876  -28.3682   23.1305 C   0  0  2  0  0  0
  -20.6790  -26.9424   22.5411 C   0  0  0  0  0  0
  -19.5770  -26.6391   21.5225 C   0  0  0  0  0  0
  -18.1940  -26.7933   22.1615 C   0  0  0  0  0  0
  -19.1535  -28.8852   23.2899 C   0  0  0  0  0  0
  -18.9458  -30.1449   23.8908 C   0  0  0  0  0  0
  -17.6450  -30.6585   24.0571 C   0  0  0  0  0  0
  -25.9053  -34.9480   23.5136 C   0  0  0  0  0  0
  -16.5350  -29.9061   23.6345 C   0  0  0  0  0  0
  -16.7277  -28.6489   23.0362 C   0  0  0  0  0  0
  -26.4493  -31.6626   25.0758 C   0  0  0  0  0  0
  -25.3730  -31.3689   26.1474 C   0  0  0  0  0  0
  -27.0347  -30.3084   24.6140 C   0  0  0  0  0  0
  -27.6112  -32.4292   25.7519 C   0  0  0  0  0  0
  -27.5580  -37.1799   24.8459 C   0  0  0  0  0  0
  -21.4166  -29.3038   22.3711 N   0  0  0  0  0  0
  -26.4300  -37.3790   23.9393 N   0  0  0  0  0  0
  -24.6760  -31.0725   22.1063 N   0  0  0  0  0  0
  -23.4178  -28.8233   23.3079 O   0  0  0  0  0  0
  -28.3807  -26.6150   20.1318 O   0  0  0  0  0  0
  -26.5569  -34.8921   22.4664 O   0  0  0  0  0  0
  -23.5365  -32.1493   23.7459 O   0  0  0  0  0  0
  -30.1315  -19.4081   20.9356 C   0  0  0  0  0  0
  -29.9313  -17.7923   19.1183 C   0  0  0  0  0  0
  -29.6152  -20.1784   18.6890 C   0  0  0  0  0  0
  -30.1591  -18.0547   20.4845 C   0  0  0  0  0  0
  -29.8499  -20.4935   20.0552 C   0  0  0  0  0  0
  -29.6783  -18.8477   18.2247 C   0  0  0  0  0  0
  -29.2580  -22.7978   19.9915 C   0  0  0  0  0  0
  -30.5125  -16.9020   21.4442 C   0  0  0  0  0  0
  -29.4192  -24.2915   20.3537 C   0  0  0  0  0  0
  -28.2376  -25.1892   19.8770 C   0  0  0  0  0  0
  -29.9063  -21.8292   20.5408 N   0  0  0  0  0  0
  -29.5236  -18.5627   16.8681 N   0  0  0  0  0  0
  -30.0168  -15.5452   21.1089 N   0  0  0  0  0  0
  -31.4651  -12.4290   19.1295 H   0  0  0  0  0  0
  -30.3095  -11.3337   19.8363 H   0  0  0  0  0  0
  -29.7307  -11.8034   17.4251 H   0  0  0  0  0  0
  -29.6539  -13.5127   17.7699 H   0  0  0  0  0  0
  -27.8163  -11.3233   18.8072 H   0  0  0  0  0  0
  -27.3664  -12.6655   17.7903 H   0  0  0  0  0  0
  -27.6903  -14.2665   19.5682 H   0  0  0  0  0  0
  -28.6909  -12.0000   21.3607 H   0  0  0  0  0  0
  -28.4707  -13.6440   21.8661 H   0  0  0  0  0  0
  -25.2791   -9.5657   22.4762 H   0  0  0  0  0  0
  -23.9998   -7.4634   22.7503 H   0  0  0  0  0  0
  -21.0864   -8.8800   19.8937 H   0  0  0  0  0  0
  -22.3765  -10.9675   19.6200 H   0  0  0  0  0  0
  -21.2036   -7.6160   23.9723 H   0  0  0  0  0  0
  -21.1480   -6.0538   25.9074 H   0  0  0  0  0  0
  -22.0593   -2.7624   23.2855 H   0  0  0  0  0  0
  -22.4170  -11.9819   22.4715 H   0  0  0  0  0  0
  -21.1150  -13.1210   22.2670 H   0  0  0  0  0  0
  -24.6454  -15.8364   20.5265 H   0  0  0  0  0  0
  -26.2715  -15.6405   20.1022 H   0  0  0  0  0  0
  -26.7155  -32.5532   23.1185 H   0  0  0  0  0  0
  -25.0237  -33.9850   25.0586 H   0  0  0  0  0  0
  -22.6994  -31.3108   21.4188 H   0  0  0  0  0  0
  -23.3787  -35.9591   23.3300 H   0  0  0  0  0  0
  -24.3617  -36.8881   22.2050 H   0  0  0  0  0  0
  -23.7224  -37.6467   23.6649 H   0  0  0  0  0  0
  -26.0656  -31.5858   20.6126 H   0  0  0  0  0  0
  -26.8290  -30.8616   22.0005 H   0  0  0  0  0  0
  -28.1009  -29.0494   21.1821 H   0  0  0  0  0  0
  -25.9965  -25.9844   18.9684 H   0  0  0  0  0  0
  -23.9662  -27.3199   19.0182 H   0  0  0  0  0  0
  -23.7354  -30.6192   19.4162 H   0  0  0  0  0  0
  -22.7409  -29.2616   19.8664 H   0  0  0  0  0  0
  -25.1308  -36.1999   25.0822 H   0  0  0  0  0  0
  -20.9949  -28.3262   24.1433 H   0  0  0  0  0  0
  -20.5765  -26.2282   23.3593 H   0  0  0  0  0  0
  -21.6661  -26.7520   22.1181 H   0  0  0  0  0  0
  -19.6943  -25.6309   21.1245 H   0  0  0  0  0  0
  -19.6717  -27.3202   20.6753 H   0  0  0  0  0  0
  -17.4235  -26.6715   21.3993 H   0  0  0  0  0  0
  -18.0324  -26.0073   22.8999 H   0  0  0  0  0  0
  -19.7926  -30.7284   24.2275 H   0  0  0  0  0  0
  -17.4999  -31.6268   24.5148 H   0  0  0  0  0  0
  -15.5345  -30.2951   23.7658 H   0  0  0  0  0  0
  -15.8693  -28.0798   22.7053 H   0  0  0  0  0  0
  -24.5954  -30.7014   25.7736 H   0  0  0  0  0  0
  -24.8862  -32.2813   26.4923 H   0  0  0  0  0  0
  -25.8055  -30.8843   27.0240 H   0  0  0  0  0  0
  -26.2916  -29.6823   24.1199 H   0  0  0  0  0  0
  -27.4125  -29.7354   25.4616 H   0  0  0  0  0  0
  -27.8742  -30.4418   23.9316 H   0  0  0  0  0  0
  -27.2841  -33.3611   26.2138 H   0  0  0  0  0  0
  -28.3927  -32.6792   25.0331 H   0  0  0  0  0  0
  -28.0786  -31.8370   26.5397 H   0  0  0  0  0  0
  -28.2593  -38.0100   24.7547 H   0  0  0  0  0  0
  -28.1099  -36.2641   24.6284 H   0  0  0  0  0  0
  -27.2311  -37.1432   25.8865 H   0  0  0  0  0  0
  -20.9337  -29.8722   21.6900 H   0  0  0  0  0  0
  -26.0201  -38.2870   24.1400 H   0  0  0  0  0  0
  -30.3486  -19.6186   21.9749 H   0  0  0  0  0  0
  -29.9846  -16.7779   18.7507 H   0  0  0  0  0  0
  -29.4309  -20.9611   17.9680 H   0  0  0  0  0  0
  -28.5288  -22.6229   19.1954 H   0  0  0  0  0  0
  -30.1234  -17.1516   22.4310 H   0  0  0  0  0  0
  -31.5987  -16.8849   21.5587 H   0  0  0  0  0  0
  -30.3487  -24.6472   19.9070 H   0  0  0  0  0  0
  -29.5440  -24.3839   21.4320 H   0  0  0  0  0  0
  -27.3410  -24.8152   20.3756 H   0  0  0  0  0  0
  -28.1006  -25.0468   18.8034 H   0  0  0  0  0  0
  -29.8939  -17.6791   16.5268 H   0  0  0  0  0  0
  -29.6432  -19.3130   16.1938 H   0  0  0  0  0  0
  -29.0651  -15.3467   21.3729 H   0  0  0  0  0  0
  1 25  1  0  0  0
  1 30  2  0  0  0
  1 83  1  0  0  0
  2  3  1  0  0  0
  2 25  1  0  0  0
  2 84  1  0  0  0
  2 85  1  0  0  0
  3  4  1  0  0  0
  3 86  1  0  0  0
  3 87  1  0  0  0
  4  5  1  0  0  0
  4 88  1  0  0  0
  4 89  1  0  0  0
  5  6  1  0  0  0
  5 26  1  0  0  0
  5 90  1  0  0  0
  6 25  1  0  0  0
  6 91  1  0  0  0
  6 92  1  0  0  0
  7  8  2  0  0  0
  7 26  1  0  0  0
  7 29  1  0  0  0
  8  9  1  0  0  0
  8 22  1  0  0  0
  9 10  1  0  0  0
  9 27  2  0  0  0
 10 11  2  0  0  0
 10 15  1  0  0  0
 11 12  1  0  0  0
 11 93  1  0  0  0
 12 13  2  0  0  0
 12 94  1  0  0  0
 13 14  1  0  0  0
 13 31  1  0  0  0
 14 15  2  0  0  0
 14 95  1  0  0  0
 15 96  1  0  0  0
 16 17  2  0  0  0
 16 21  1  0  0  0
 16 31  1  0  0  0
 17 18  1  0  0  0
 17 97  1  0  0  0
 18 19  2  0  0  0
 18 98  1  0  0  0
 19 20  1  0  0  0
 19 24  1  0  0  0
 20 21  2  0  0  0
 20 99  1  0  0  0
 21 23  1  0  0  0
 22 28  1  0  0  0
 22 32  2  0  0  0
 26 27  1  0  0  0
 28100  1  0  0  0
 28101  1  0  0  0
 29102  1  0  0  0
 29103  1  0  0  0
 33 34  1  0  0  0
 33 66  1  0  0  0
 33 70  2  0  0  0
 34 36  1  0  0  0
 34 59  1  0  0  0
 34104  1  0  0  0
 35 44  2  0  0  0
 35 45  1  0  0  0
 35 68  1  0  0  0
 36 56  1  0  0  0
 36105  1  0  0  0
 37 39  1  0  0  0
 37 47  1  0  0  0
 37 66  1  0  0  0
 37106  1  0  0  0
 38 43  2  0  0  0
 38 46  1  0  0  0
 38 47  1  0  0  0
 39 64  1  0  0  0
 39 67  2  0  0  0
 40 52  1  0  0  0
 40 53  2  0  0  0
 40 58  1  0  0  0
 41107  1  0  0  0
 41108  1  0  0  0
 41109  1  0  0  0
 41 48  1  0  0  0
 42 43  1  0  0  0
 42 66  1  0  0  0
 42110  1  0  0  0
 42111  1  0  0  0
 43 44  1  0  0  0
 44112  1  0  0  0
 45 46  2  0  0  0
 45113  1  0  0  0
 46114  1  0  0  0
 47115  1  0  0  0
 47116  1  0  0  0
 48 56  1  0  0  0
 48 65  1  0  0  0
 48117  1  0  0  0
 49 50  1  0  0  0
 49 53  1  0  0  0
 49 64  1  0  0  0
 49118  1  0  0  0
 50 51  1  0  0  0
 50119  1  0  0  0
 50120  1  0  0  0
 51 52  1  0  0  0
 51121  1  0  0  0
 51122  1  0  0  0
 52123  1  0  0  0
 52124  1  0  0  0
 53 54  1  0  0  0
 54 55  2  0  0  0
 54125  1  0  0  0
 55 57  1  0  0  0
 55126  1  0  0  0
 56 69  2  0  0  0
 57 58  2  0  0  0
 57127  1  0  0  0
 58128  1  0  0  0
 59 60  1  0  0  0
 59 61  1  0  0  0
 59 62  1  0  0  0
 60129  1  0  0  0
 60130  1  0  0  0
 60131  1  0  0  0
 61132  1  0  0  0
 61133  1  0  0  0
 61134  1  0  0  0
 62135  1  0  0  0
 62136  1  0  0  0
 62137  1  0  0  0
 63 65  1  0  0  0
 63138  1  0  0  0
 63139  1  0  0  0
 63140  1  0  0  0
 64141  1  0  0  0
 65142  1  0  0  0
 68 80  1  0  0  0
 71 74  2  0  0  0
 71 75  1  0  0  0
 71143  1  0  0  0
 72 74  1  0  0  0
 72 76  2  0  0  0
 72144  1  0  0  0
 73 75  2  0  0  0
 73 76  1  0  0  0
 73145  1  0  0  0
 74 78  1  0  0  0
 75 81  1  0  0  0
 76 82  1  0  0  0
 77 79  1  0  0  0
 77 81  2  0  0  0
 77146  1  0  0  0
 78 83  1  0  0  0
 78147  1  0  0  0
 78148  1  0  0  0
 79 80  1  0  0  0
 79149  1  0  0  0
 79150  1  0  0  0
 80151  1  0  0  0
 80152  1  0  0  0
 82153  1  0  0  0
 82154  1  0  0  0
 83155  1  0  0  0
M  ISO  4   1 100  68 101  80 101  83 100
M  END
> <chiral flag>
0

> <version>
0

> <s_m_source_file>
/data/baiqing/PycharmProjects/Reinvent-master-3.2/result/LINK_invent/BTK/process_docking_weight1_custom_product_contain_oxygen_bond_distance_aromatic_linkinvent_7_9_3/rearranged_h_0117.sdf

> <i_m_source_file_index>
44

> <r_mmod_Potential_Energy-OPLS-2005>
-123.992683410645

> <r_mmod_Stretch_Energy-OPLS-2005>
48.9461059570312

> <r_mmod_Bend_Energy-OPLS-2005>
106.471366882324

> <r_mmod_Torsional_Energy-OPLS-2005>
196.609313964844

> <r_mmod_Improper_Torsional_Energy-OPLS-2005>
6.59282684326172

> <r_mmod_Van_der_Waal_Energy-OPLS-2005>
157.148101806641

> <r_mmod_Electrostatic_Energy-OPLS-2005>
-429.706359863281

> <r_mmod_Solvation_Energy-OPLS-2005>
-230.46598815918

> <b_mmod_Minimization_Converged-OPLS-2005>
0

> <r_mmod_RMS_Derivative-OPLS-2005>
3.14986205101013

$$$$
44
                    3D
 Structure written by MMmdl.
156164  0  0  1  0            999 V2000
  -30.6142  -14.6454   20.4949 C   0  0  0  0  0  0
  -30.4426  -12.3941   19.4505 C   0  0  0  0  0  0
  -29.5096  -12.5065   18.2232 C   0  0  0  0  0  0
  -28.0322  -12.3427   18.6349 C   0  0  0  0  0  0
  -27.6543  -13.2135   19.8622 C   0  0  2  0  0  0
  -28.7002  -13.0661   20.9912 C   0  0  0  0  0  0
  -25.2571  -13.8157   20.5671 C   0  0  0  0  0  0
  -24.1838  -13.0434   20.9199 C   0  0  0  0  0  0
  -24.6400  -11.6903   20.8745 C   0  0  0  0  0  0
  -23.9065  -10.4290   21.0410 C   0  0  0  0  0  0
  -24.3614   -9.4205   21.9188 C   0  0  0  0  0  0
  -23.6291   -8.2240   22.0755 C   0  0  0  0  0  0
  -22.4275   -8.0279   21.3544 C   0  0  0  0  0  0
  -21.9910   -9.0252   20.4649 C   0  0  0  0  0  0
  -22.7236  -10.2134   20.3060 C   0  0  0  0  0  0
  -21.6852   -6.0736   22.5280 C   0  0  0  0  0  0
  -21.4011   -6.5641   23.8214 C   0  0  0  0  0  0
  -21.3658   -5.6793   24.9177 C   0  0  0  0  0  0
  -21.6044   -4.3055   24.7227 C   0  0  0  0  0  0
  -21.8819   -3.8149   23.4347 C   0  0  0  0  0  0
  -21.9192   -4.6965   22.3402 C   0  0  0  0  0  0
  -22.7862  -13.5235   21.1856 C   0  0  0  0  0  0
  -22.1663   -4.2151   21.0980 F   0  0  0  0  0  0
  -21.5628   -3.4538   25.7739 F   0  0  0  0  0  0
  -30.0158  -13.4134   20.4291 N   0  0  0  0  0  0
  -26.2995  -12.9333   20.3305 N   0  0  0  0  0  0
  -25.9326  -11.6494   20.5753 N   0  0  0  0  0  0
  -22.0497  -12.8228   22.0407 N   0  0  0  0  0  0
  -25.4276  -15.1871   20.4039 N   0  0  0  0  0  0
  -31.7795  -14.8136   20.1221 O   0  0  0  0  0  0
  -21.6638   -6.8878   21.4241 O   0  0  0  0  0  0
  -22.3554  -14.5541   20.6698 O   0  0  0  0  0  0
  -24.6258  -31.8604   23.2025 C   0  0  0  0  0  0
  -25.9106  -32.4784   23.8356 C   0  0  1  0  0  0
  -27.2258  -27.3203   20.1135 C   0  0  0  0  0  0
  -25.5924  -33.8583   24.2284 N   0  0  0  0  0  0
  -23.4195  -30.4849   21.5454 C   0  0  2  0  0  0
  -24.8656  -28.9405   20.1125 C   0  0  0  0  0  0
  -22.7474  -29.4629   22.4934 C   0  0  0  0  0  0
  -18.0292  -28.1382   22.8492 C   0  0  0  0  0  0
  -24.1490  -36.7289   23.2639 C   0  0  0  0  0  0
  -25.9613  -30.7921   21.3732 C   0  0  0  0  0  0
  -26.0359  -29.4197   20.7146 C   0  0  0  0  0  0
  -27.2192  -28.6223   20.7038 C   0  0  0  0  0  0
  -26.0279  -26.8931   19.4934 C   0  0  0  0  0  0
  -24.8635  -27.6825   19.4935 C   0  0  0  0  0  0
  -23.6343  -29.8211   20.1605 C   0  0  0  0  0  0
  -25.4113  -36.3084   24.0334 C   0  0  1  0  0  0
  -20.5893  -28.3682   23.1285 C   0  0  2  0  0  0
  -20.6782  -26.9408   22.5408 C   0  0  0  0  0  0
  -19.5758  -26.6385   21.5211 C   0  0  0  0  0  0
  -18.1938  -26.7928   22.1624 C   0  0  0  0  0  0
  -19.1544  -28.8848   23.2886 C   0  0  0  0  0  0
  -18.9465  -30.1453   23.8902 C   0  0  0  0  0  0
  -17.6466  -30.6588   24.0563 C   0  0  0  0  0  0
  -25.9050  -34.9454   23.5110 C   0  0  0  0  0  0
  -16.5358  -29.9083   23.6332 C   0  0  0  0  0  0
  -16.7279  -28.6498   23.0355 C   0  0  0  0  0  0
  -26.4490  -31.6589   25.0721 C   0  0  0  0  0  0
  -25.3725  -31.3725   26.1449 C   0  0  0  0  0  0
  -27.0333  -30.3020   24.6161 C   0  0  0  0  0  0
  -27.6060  -32.4309   25.7489 C   0  0  0  0  0  0
  -27.5582  -37.1801   24.8466 C   0  0  0  0  0  0
  -21.4189  -29.3041   22.3680 N   0  0  0  0  0  0
  -26.4292  -37.3776   23.9412 N   0  0  0  0  0  0
  -24.6879  -31.0619   22.0976 N   0  0  0  0  0  0
  -23.4200  -28.8168   23.3012 O   0  0  0  0  0  0
  -28.3493  -26.4761   20.1525 O   0  0  0  0  0  0
  -26.5614  -34.8919   22.4672 O   0  0  0  0  0  0
  -23.5420  -32.1398   23.7354 O   0  0  0  0  0  0
  -28.6346  -17.8786   20.6732 C   0  0  0  0  0  0
  -31.0170  -17.9014   20.4609 C   0  0  0  0  0  0
  -28.5710  -19.2983   20.5096 C   0  0  0  0  0  0
  -30.9781  -19.3254   20.3226 C   0  0  0  0  0  0
  -29.7610  -20.0833   20.3523 C   0  0  0  0  0  0
  -29.8421  -17.1345   20.6453 C   0  0  0  0  0  0
  -29.0424  -22.4786   20.4915 C   0  0  0  0  0  0
  -27.1782  -19.9078   20.4743 C   0  0  0  0  0  0
  -32.3052  -20.0444   20.1290 C   0  0  0  0  0  0
  -29.3426  -24.0223   20.3417 C   0  0  0  0  0  0
  -28.1258  -25.0104   20.0807 C   0  0  0  0  0  0
  -29.8656  -21.5199   20.1735 N   0  0  0  0  0  0
  -29.7806  -15.6820   20.8279 N   0  0  0  0  0  0
  -31.4829  -12.5251   19.1474 H   0  0  0  0  0  0
  -30.3824  -11.3980   19.8914 H   0  0  0  0  0  0
  -29.7749  -11.7556   17.4777 H   0  0  0  0  0  0
  -29.6499  -13.4758   17.7422 H   0  0  0  0  0  0
  -27.8696  -11.2897   18.8671 H   0  0  0  0  0  0
  -27.3774  -12.5712   17.7930 H   0  0  0  0  0  0
  -27.6720  -14.2480   19.5195 H   0  0  0  0  0  0
  -28.7134  -12.0430   21.3695 H   0  0  0  0  0  0
  -28.4452  -13.6935   21.8466 H   0  0  0  0  0  0
  -25.2760   -9.5683   22.4761 H   0  0  0  0  0  0
  -24.0003   -7.4631   22.7473 H   0  0  0  0  0  0
  -21.0841   -8.8768   19.8954 H   0  0  0  0  0  0
  -22.3691  -10.9672   19.6168 H   0  0  0  0  0  0
  -21.2002   -7.6148   23.9718 H   0  0  0  0  0  0
  -21.1481   -6.0524   25.9081 H   0  0  0  0  0  0
  -22.0598   -2.7611   23.2846 H   0  0  0  0  0  0
  -22.4105  -11.9888   22.4797 H   0  0  0  0  0  0
  -21.1117  -13.1260   22.2609 H   0  0  0  0  0  0
  -24.6497  -15.8325   20.4886 H   0  0  0  0  0  0
  -26.2531  -15.6128   20.0039 H   0  0  0  0  0  0
  -26.7175  -32.5455   23.1106 H   0  0  0  0  0  0
  -25.0085  -33.9726   25.0440 H   0  0  0  0  0  0
  -22.7135  -31.3057   21.4033 H   0  0  0  0  0  0
  -23.3756  -35.9617   23.3298 H   0  0  0  0  0  0
  -24.3590  -36.8907   22.2055 H   0  0  0  0  0  0
  -23.7235  -37.6490   23.6657 H   0  0  0  0  0  0
  -26.0930  -31.5563   20.6057 H   0  0  0  0  0  0
  -26.8416  -30.8403   22.0025 H   0  0  0  0  0  0
  -28.1176  -28.9869   21.1821 H   0  0  0  0  0  0
  -25.9570  -25.9344   19.0039 H   0  0  0  0  0  0
  -23.9664  -27.3096   19.0185 H   0  0  0  0  0  0
  -23.7548  -30.5980   19.4044 H   0  0  0  0  0  0
  -22.7539  -29.2515   19.8575 H   0  0  0  0  0  0
  -25.1295  -36.1937   25.0826 H   0  0  0  0  0  0
  -20.9991  -28.3248   24.1402 H   0  0  0  0  0  0
  -20.5684  -26.2287   23.3603 H   0  0  0  0  0  0
  -21.6651  -26.7441   22.1202 H   0  0  0  0  0  0
  -19.6917  -25.6294   21.1240 H   0  0  0  0  0  0
  -19.6696  -27.3196   20.6742 H   0  0  0  0  0  0
  -17.4209  -26.6677   21.4025 H   0  0  0  0  0  0
  -18.0341  -26.0067   22.9020 H   0  0  0  0  0  0
  -19.7941  -30.7273   24.2264 H   0  0  0  0  0  0
  -17.5020  -31.6268   24.5164 H   0  0  0  0  0  0
  -15.5357  -30.2988   23.7650 H   0  0  0  0  0  0
  -15.8682  -28.0820   22.7065 H   0  0  0  0  0  0
  -24.5905  -30.7068   25.7777 H   0  0  0  0  0  0
  -24.8909  -32.2891   26.4867 H   0  0  0  0  0  0
  -25.8053  -30.8910   27.0227 H   0  0  0  0  0  0
  -26.2904  -29.6771   24.1191 H   0  0  0  0  0  0
  -27.4055  -29.7272   25.4651 H   0  0  0  0  0  0
  -27.8761  -30.4323   23.9369 H   0  0  0  0  0  0
  -27.2696  -33.3621   26.2058 H   0  0  0  0  0  0
  -28.3880  -32.6840   25.0319 H   0  0  0  0  0  0
  -28.0713  -31.8429   26.5411 H   0  0  0  0  0  0
  -28.2597  -38.0101   24.7522 H   0  0  0  0  0  0
  -28.1083  -36.2635   24.6283 H   0  0  0  0  0  0
  -27.2304  -37.1436   25.8870 H   0  0  0  0  0  0
  -20.9354  -29.8767   21.6904 H   0  0  0  0  0  0
  -26.0175  -38.2853   24.1413 H   0  0  0  0  0  0
  -27.7086  -17.3373   20.8062 H   0  0  0  0  0  0
  -31.9723  -17.3965   20.4332 H   0  0  0  0  0  0
  -28.0720  -22.2862   20.9497 H   0  0  0  0  0  0
  -26.4142  -19.1461   20.3154 H   0  0  0  0  0  0
  -27.0814  -20.6204   19.6553 H   0  0  0  0  0  0
  -26.9500  -20.4038   21.4176 H   0  0  0  0  0  0
  -33.1493  -19.3548   20.1574 H   0  0  0  0  0  0
  -32.4570  -20.7869   20.9129 H   0  0  0  0  0  0
  -32.3245  -20.5545   19.1654 H   0  0  0  0  0  0
  -30.0770  -24.1535   19.5469 H   0  0  0  0  0  0
  -29.8411  -24.3370   21.2582 H   0  0  0  0  0  0
  -27.3353  -24.7627   20.7916 H   0  0  0  0  0  0
  -27.7421  -24.7645   19.0904 H   0  0  0  0  0  0
  -28.8738  -15.3445   21.1115 H   0  0  0  0  0  0
  1 25  1  0  0  0
  1 30  2  0  0  0
  1 83  1  0  0  0
  2  3  1  0  0  0
  2 25  1  0  0  0
  2 84  1  0  0  0
  2 85  1  0  0  0
  3  4  1  0  0  0
  3 86  1  0  0  0
  3 87  1  0  0  0
  4  5  1  0  0  0
  4 88  1  0  0  0
  4 89  1  0  0  0
  5  6  1  0  0  0
  5 26  1  0  0  0
  5 90  1  0  0  0
  6 25  1  0  0  0
  6 91  1  0  0  0
  6 92  1  0  0  0
  7  8  2  0  0  0
  7 26  1  0  0  0
  7 29  1  0  0  0
  8  9  1  0  0  0
  8 22  1  0  0  0
  9 10  1  0  0  0
  9 27  2  0  0  0
 10 11  2  0  0  0
 10 15  1  0  0  0
 11 12  1  0  0  0
 11 93  1  0  0  0
 12 13  2  0  0  0
 12 94  1  0  0  0
 13 14  1  0  0  0
 13 31  1  0  0  0
 14 15  2  0  0  0
 14 95  1  0  0  0
 15 96  1  0  0  0
 16 17  2  0  0  0
 16 21  1  0  0  0
 16 31  1  0  0  0
 17 18  1  0  0  0
 17 97  1  0  0  0
 18 19  2  0  0  0
 18 98  1  0  0  0
 19 20  1  0  0  0
 19 24  1  0  0  0
 20 21  2  0  0  0
 20 99  1  0  0  0
 21 23  1  0  0  0
 22 28  1  0  0  0
 22 32  2  0  0  0
 26 27  1  0  0  0
 28100  1  0  0  0
 28101  1  0  0  0
 29102  1  0  0  0
 29103  1  0  0  0
 33 34  1  0  0  0
 33 66  1  0  0  0
 33 70  2  0  0  0
 34 36  1  0  0  0
 34 59  1  0  0  0
 34104  1  0  0  0
 35 44  2  0  0  0
 35 45  1  0  0  0
 35 68  1  0  0  0
 36 56  1  0  0  0
 36105  1  0  0  0
 37 39  1  0  0  0
 37 47  1  0  0  0
 37 66  1  0  0  0
 37106  1  0  0  0
 38 43  2  0  0  0
 38 46  1  0  0  0
 38 47  1  0  0  0
 39 64  1  0  0  0
 39 67  2  0  0  0
 40 52  1  0  0  0
 40 53  2  0  0  0
 40 58  1  0  0  0
 41107  1  0  0  0
 41108  1  0  0  0
 41109  1  0  0  0
 41 48  1  0  0  0
 42 43  1  0  0  0
 42 66  1  0  0  0
 42110  1  0  0  0
 42111  1  0  0  0
 43 44  1  0  0  0
 44112  1  0  0  0
 45 46  2  0  0  0
 45113  1  0  0  0
 46114  1  0  0  0
 47115  1  0  0  0
 47116  1  0  0  0
 48 56  1  0  0  0
 48 65  1  0  0  0
 48117  1  0  0  0
 49 50  1  0  0  0
 49 53  1  0  0  0
 49 64  1  0  0  0
 49118  1  0  0  0
 50 51  1  0  0  0
 50119  1  0  0  0
 50120  1  0  0  0
 51 52  1  0  0  0
 51121  1  0  0  0
 51122  1  0  0  0
 52123  1  0  0  0
 52124  1  0  0  0
 53 54  1  0  0  0
 54 55  2  0  0  0
 54125  1  0  0  0
 55 57  1  0  0  0
 55126  1  0  0  0
 56 69  2  0  0  0
 57 58  2  0  0  0
 57127  1  0  0  0
 58128  1  0  0  0
 59 60  1  0  0  0
 59 61  1  0  0  0
 59 62  1  0  0  0
 60129  1  0  0  0
 60130  1  0  0  0
 60131  1  0  0  0
 61132  1  0  0  0
 61133  1  0  0  0
 61134  1  0  0  0
 62135  1  0  0  0
 62136  1  0  0  0
 62137  1  0  0  0
 63 65  1  0  0  0
 63138  1  0  0  0
 63139  1  0  0  0
 63140  1  0  0  0
 64141  1  0  0  0
 65142  1  0  0  0
 68 81  1  0  0  0
 71 73  2  0  0  0
 71 76  1  0  0  0
 71143  1  0  0  0
 72 74  1  0  0  0
 72 76  2  0  0  0
 72144  1  0  0  0
 73 75  1  0  0  0
 73 78  1  0  0  0
 74 75  2  0  0  0
 74 79  1  0  0  0
 75 82  1  0  0  0
 76 83  1  0  0  0
 77 80  1  0  0  0
 77 82  2  0  0  0
 77145  1  0  0  0
 78146  1  0  0  0
 78147  1  0  0  0
 78148  1  0  0  0
 79149  1  0  0  0
 79150  1  0  0  0
 79151  1  0  0  0
 80 81  1  0  0  0
 80152  1  0  0  0
 80153  1  0  0  0
 81154  1  0  0  0
 81155  1  0  0  0
 83156  1  0  0  0
M  ISO  4   1 100  68 101  81 101  83 100
M  END
> <chiral flag>
0

> <version>
0

> <s_m_source_file>
/data/baiqing/PycharmProjects/Reinvent-master-3.2/result/LINK_invent/BTK/process_docking_weight1_custom_product_contain_oxygen_bond_distance_aromatic_linkinvent_7_9_3/rearranged_h_0117.sdf

> <i_m_source_file_index>
45

> <r_mmod_Potential_Energy-OPLS-2005>
23.3519496917725

> <r_mmod_Stretch_Energy-OPLS-2005>
84.3500823974609

> <r_mmod_Bend_Energy-OPLS-2005>
159.300979614258

> <r_mmod_Torsional_Energy-OPLS-2005>
214.121170043945

> <r_mmod_Improper_Torsional_Energy-OPLS-2005>
5.04245281219482

> <r_mmod_Van_der_Waal_Energy-OPLS-2005>
153.057601928711

> <r_mmod_Electrostatic_Energy-OPLS-2005>
-426.567749023438

> <r_mmod_Solvation_Energy-OPLS-2005>
-214.703750610352

> <b_mmod_Minimization_Converged-OPLS-2005>
0

> <r_mmod_RMS_Derivative-OPLS-2005>
0.600257098674774

$$$$
45
                    3D
 Structure written by MMmdl.
160168  0  0  1  0            999 V2000
  -30.6864  -14.4513   20.6094 C   0  0  0  0  0  0
  -30.4321  -12.3056   19.4100 C   0  0  0  0  0  0
  -29.4954  -12.5150   18.2013 C   0  0  0  0  0  0
  -28.0158  -12.3722   18.6135 C   0  0  0  0  0  0
  -27.6665  -13.1978   19.8801 C   0  0  2  0  0  0
  -28.7056  -12.9371   20.9934 C   0  0  0  0  0  0
  -25.2615  -13.8141   20.5673 C   0  0  0  0  0  0
  -24.1851  -13.0434   20.9166 C   0  0  0  0  0  0
  -24.6388  -11.6895   20.8725 C   0  0  0  0  0  0
  -23.9050  -10.4288   21.0401 C   0  0  0  0  0  0
  -24.3605   -9.4205   21.9181 C   0  0  0  0  0  0
  -23.6283   -8.2241   22.0752 C   0  0  0  0  0  0
  -22.4266   -8.0278   21.3543 C   0  0  0  0  0  0
  -21.9897   -9.0252   20.4648 C   0  0  0  0  0  0
  -22.7223  -10.2131   20.3053 C   0  0  0  0  0  0
  -21.6852   -6.0731   22.5277 C   0  0  0  0  0  0
  -21.4015   -6.5635   23.8211 C   0  0  0  0  0  0
  -21.3658   -5.6789   24.9174 C   0  0  0  0  0  0
  -21.6044   -4.3051   24.7224 C   0  0  0  0  0  0
  -21.8819   -3.8143   23.4346 C   0  0  0  0  0  0
  -21.9193   -4.6959   22.3403 C   0  0  0  0  0  0
  -22.7875  -13.5244   21.1835 C   0  0  0  0  0  0
  -22.1661   -4.2144   21.0980 F   0  0  0  0  0  0
  -21.5628   -3.4535   25.7737 F   0  0  0  0  0  0
  -30.0412  -13.2626   20.4556 N   0  0  0  0  0  0
  -26.3044  -12.9291   20.3373 N   0  0  0  0  0  0
  -25.9311  -11.6461   20.5753 N   0  0  0  0  0  0
  -22.0512  -12.8244   22.0395 N   0  0  0  0  0  0
  -25.4363  -15.1856   20.4085 N   0  0  0  0  0  0
  -31.7844  -14.6867   20.0950 O   0  0  0  0  0  0
  -21.6634   -6.8873   21.4239 O   0  0  0  0  0  0
  -22.3564  -14.5553   20.6686 O   0  0  0  0  0  0
  -24.6127  -31.8687   23.2100 C   0  0  0  0  0  0
  -25.9022  -32.4827   23.8399 C   0  0  1  0  0  0
  -27.2394  -27.4494   20.0997 C   0  0  0  0  0  0
  -25.5885  -33.8625   24.2335 N   0  0  0  0  0  0
  -23.4012  -30.4901   21.5501 C   0  0  2  0  0  0
  -24.8503  -28.9525   20.1192 C   0  0  0  0  0  0
  -22.7400  -29.4660   22.5001 C   0  0  0  0  0  0
  -18.0271  -28.1375   22.8496 C   0  0  0  0  0  0
  -24.1486  -36.7320   23.2640 C   0  0  0  0  0  0
  -25.9276  -30.8386   21.3607 C   0  0  0  0  0  0
  -26.0082  -29.4716   20.7131 C   0  0  0  0  0  0
  -27.2088  -28.7273   20.6996 C   0  0  0  0  0  0
  -26.0687  -26.9353   19.5073 C   0  0  0  0  0  0
  -24.8738  -27.6820   19.5146 C   0  0  0  0  0  0
  -23.6105  -29.8178   20.1663 C   0  0  0  0  0  0
  -25.4105  -36.3118   24.0343 C   0  0  1  0  0  0
  -20.5859  -28.3660   23.1327 C   0  0  2  0  0  0
  -20.6759  -26.9397   22.5425 C   0  0  0  0  0  0
  -19.5741  -26.6388   21.5216 C   0  0  0  0  0  0
  -18.1919  -26.7923   22.1625 C   0  0  0  0  0  0
  -19.1520  -28.8834   23.2910 C   0  0  0  0  0  0
  -18.9448  -30.1441   23.8918 C   0  0  0  0  0  0
  -17.6452  -30.6583   24.0569 C   0  0  0  0  0  0
  -25.9028  -34.9480   23.5137 C   0  0  0  0  0  0
  -16.5343  -29.9088   23.6324 C   0  0  0  0  0  0
  -16.7262  -28.6504   23.0347 C   0  0  0  0  0  0
  -26.4458  -31.6599   25.0719 C   0  0  0  0  0  0
  -25.3732  -31.3703   26.1476 C   0  0  0  0  0  0
  -27.0286  -30.3047   24.6075 C   0  0  0  0  0  0
  -27.6047  -32.4309   25.7469 C   0  0  0  0  0  0
  -27.5584  -37.1814   24.8465 C   0  0  0  0  0  0
  -21.4130  -29.3030   22.3735 N   0  0  0  0  0  0
  -26.4297  -37.3798   23.9409 N   0  0  0  0  0  0
  -24.6652  -31.0798   22.0994 N   0  0  0  0  0  0
  -23.4174  -28.8208   23.3046 O   0  0  0  0  0  0
  -28.4008  -26.7164   20.0613 O   0  0  0  0  0  0
  -26.5595  -34.8927   22.4701 O   0  0  0  0  0  0
  -23.5320  -32.1435   23.7498 O   0  0  0  0  0  0
  -31.1625  -17.5578   20.9199 C   0  0  0  0  0  0
  -28.9371  -17.4644   21.8942 C   0  0  0  0  0  0
  -31.1685  -18.9738   21.0339 C   0  0  0  0  0  0
  -30.0543  -16.7895   21.3552 C   0  0  0  0  0  0
  -28.9241  -18.8695   22.0077 C   0  0  0  0  0  0
  -30.0339  -19.6310   21.5793 C   0  0  0  0  0  0
  -33.4351  -19.3204   19.9780 C   0  0  0  0  0  0
  -32.3353  -19.7735   20.6052 C   0  0  0  0  0  0
  -28.8287  -24.2983   20.3291 C   0  0  0  0  0  0
  -29.1859  -23.1973   21.3550 C   0  0  0  0  0  0
  -28.4673  -25.6411   21.0037 C   0  0  0  0  0  0
  -29.4948  -21.8063   20.7587 C   0  0  0  0  0  0
  -27.8229  -19.5142   22.5733 N   0  0  0  0  0  0
  -29.9841  -15.3607   21.3137 N   0  0  0  0  0  0
  -30.0315  -20.9925   21.8013 O   0  0  0  0  0  0
  -31.4741  -12.4235   19.1069 H   0  0  0  0  0  0
  -30.3476  -11.2857   19.7883 H   0  0  0  0  0  0
  -29.7335  -11.7997   17.4129 H   0  0  0  0  0  0
  -29.6617  -13.5056   17.7748 H   0  0  0  0  0  0
  -27.8233  -11.3146   18.7983 H   0  0  0  0  0  0
  -27.3649  -12.6580   17.7865 H   0  0  0  0  0  0
  -27.7230  -14.2511   19.6041 H   0  0  0  0  0  0
  -28.6822  -11.8866   21.2876 H   0  0  0  0  0  0
  -28.4541  -13.4861   21.9016 H   0  0  0  0  0  0
  -25.2752   -9.5680   22.4752 H   0  0  0  0  0  0
  -23.9994   -7.4631   22.7468 H   0  0  0  0  0  0
  -21.0828   -8.8769   19.8957 H   0  0  0  0  0  0
  -22.3681  -10.9668   19.6160 H   0  0  0  0  0  0
  -21.2009   -7.6142   23.9713 H   0  0  0  0  0  0
  -21.1480   -6.0519   25.9076 H   0  0  0  0  0  0
  -22.0601   -2.7605   23.2847 H   0  0  0  0  0  0
  -22.4117  -11.9899   22.4779 H   0  0  0  0  0  0
  -21.1137  -13.1285   22.2609 H   0  0  0  0  0  0
  -24.6722  -15.8436   20.5167 H   0  0  0  0  0  0
  -26.2918  -15.6223   20.0884 H   0  0  0  0  0  0
  -26.7094  -32.5553   23.1170 H   0  0  0  0  0  0
  -25.0036  -33.9786   25.0479 H   0  0  0  0  0  0
  -22.6900  -31.3066   21.4089 H   0  0  0  0  0  0
  -23.3741  -35.9662   23.3318 H   0  0  0  0  0  0
  -24.3581  -36.8914   22.2051 H   0  0  0  0  0  0
  -23.7242  -37.6534   23.6637 H   0  0  0  0  0  0
  -26.0348  -31.6023   20.5892 H   0  0  0  0  0  0
  -26.8171  -30.8968   21.9762 H   0  0  0  0  0  0
  -28.1071  -29.1266   21.1496 H   0  0  0  0  0  0
  -26.0862  -25.9618   19.0375 H   0  0  0  0  0  0
  -23.9834  -27.2759   19.0547 H   0  0  0  0  0  0
  -23.7172  -30.5903   19.4038 H   0  0  0  0  0  0
  -22.7357  -29.2349   19.8726 H   0  0  0  0  0  0
  -25.1278  -36.1993   25.0837 H   0  0  0  0  0  0
  -20.9956  -28.3222   24.1444 H   0  0  0  0  0  0
  -20.5663  -26.2265   23.3609 H   0  0  0  0  0  0
  -21.6632  -26.7443   22.1220 H   0  0  0  0  0  0
  -19.6903  -25.6304   21.1232 H   0  0  0  0  0  0
  -19.6681  -27.3209   20.6754 H   0  0  0  0  0  0
  -17.4194  -26.6680   21.4021 H   0  0  0  0  0  0
  -18.0316  -26.0057   22.9012 H   0  0  0  0  0  0
  -19.7925  -30.7252   24.2297 H   0  0  0  0  0  0
  -17.5008  -31.6265   24.5168 H   0  0  0  0  0  0
  -15.5345  -30.3000   23.7632 H   0  0  0  0  0  0
  -15.8661  -28.0832   22.7048 H   0  0  0  0  0  0
  -24.5898  -30.7053   25.7820 H   0  0  0  0  0  0
  -24.8927  -32.2857   26.4939 H   0  0  0  0  0  0
  -25.8092  -30.8867   27.0225 H   0  0  0  0  0  0
  -26.2825  -29.6812   24.1133 H   0  0  0  0  0  0
  -27.4073  -29.7273   25.4519 H   0  0  0  0  0  0
  -27.8650  -30.4379   23.9208 H   0  0  0  0  0  0
  -27.2682  -33.3594   26.2092 H   0  0  0  0  0  0
  -28.3827  -32.6891   25.0273 H   0  0  0  0  0  0
  -28.0748  -31.8404   26.5343 H   0  0  0  0  0  0
  -28.2617  -38.0097   24.7504 H   0  0  0  0  0  0
  -28.1064  -36.2631   24.6300 H   0  0  0  0  0  0
  -27.2305  -37.1479   25.8871 H   0  0  0  0  0  0
  -20.9289  -29.8753   21.6960 H   0  0  0  0  0  0
  -26.0192  -38.2882   24.1397 H   0  0  0  0  0  0
  -32.0304  -17.0595   20.5207 H   0  0  0  0  0  0
  -28.0824  -16.8965   22.2351 H   0  0  0  0  0  0
  -34.2320  -20.0026   19.7169 H   0  0  0  0  0  0
  -33.5760  -18.2846   19.7082 H   0  0  0  0  0  0
  -32.2977  -20.8307   20.8285 H   0  0  0  0  0  0
  -27.9976  -23.9717   19.7034 H   0  0  0  0  0  0
  -29.6778  -24.4474   19.6612 H   0  0  0  0  0  0
  -28.3734  -23.0949   22.0752 H   0  0  0  0  0  0
  -30.0527  -23.5304   21.9273 H   0  0  0  0  0  0
  -29.2358  -25.9017   21.7324 H   0  0  0  0  0  0
  -27.5397  -25.5296   21.5696 H   0  0  0  0  0  0
  -30.2261  -21.8890   19.9539 H   0  0  0  0  0  0
  -28.5903  -21.3653   20.3359 H   0  0  0  0  0  0
  -27.2207  -18.9831   23.1931 H   0  0  0  0  0  0
  -27.9816  -20.4636   22.8955 H   0  0  0  0  0  0
  -29.1478  -14.9667   21.7169 H   0  0  0  0  0  0
  1 25  1  0  0  0
  1 30  2  0  0  0
  1 84  1  0  0  0
  2  3  1  0  0  0
  2 25  1  0  0  0
  2 86  1  0  0  0
  2 87  1  0  0  0
  3  4  1  0  0  0
  3 88  1  0  0  0
  3 89  1  0  0  0
  4  5  1  0  0  0
  4 90  1  0  0  0
  4 91  1  0  0  0
  5  6  1  0  0  0
  5 26  1  0  0  0
  5 92  1  0  0  0
  6 25  1  0  0  0
  6 93  1  0  0  0
  6 94  1  0  0  0
  7  8  2  0  0  0
  7 26  1  0  0  0
  7 29  1  0  0  0
  8  9  1  0  0  0
  8 22  1  0  0  0
  9 10  1  0  0  0
  9 27  2  0  0  0
 10 11  2  0  0  0
 10 15  1  0  0  0
 11 12  1  0  0  0
 11 95  1  0  0  0
 12 13  2  0  0  0
 12 96  1  0  0  0
 13 14  1  0  0  0
 13 31  1  0  0  0
 14 15  2  0  0  0
 14 97  1  0  0  0
 15 98  1  0  0  0
 16 17  2  0  0  0
 16 21  1  0  0  0
 16 31  1  0  0  0
 17 18  1  0  0  0
 17 99  1  0  0  0
 18 19  2  0  0  0
 18100  1  0  0  0
 19 20  1  0  0  0
 19 24  1  0  0  0
 20 21  2  0  0  0
 20101  1  0  0  0
 21 23  1  0  0  0
 22 28  1  0  0  0
 22 32  2  0  0  0
 26 27  1  0  0  0
 28102  1  0  0  0
 28103  1  0  0  0
 29104  1  0  0  0
 29105  1  0  0  0
 33 34  1  0  0  0
 33 66  1  0  0  0
 33 70  2  0  0  0
 34 36  1  0  0  0
 34 59  1  0  0  0
 34106  1  0  0  0
 35 44  2  0  0  0
 35 45  1  0  0  0
 35 68  1  0  0  0
 36 56  1  0  0  0
 36107  1  0  0  0
 37 39  1  0  0  0
 37 47  1  0  0  0
 37 66  1  0  0  0
 37108  1  0  0  0
 38 43  2  0  0  0
 38 46  1  0  0  0
 38 47  1  0  0  0
 39 64  1  0  0  0
 39 67  2  0  0  0
 40 52  1  0  0  0
 40 53  2  0  0  0
 40 58  1  0  0  0
 41109  1  0  0  0
 41110  1  0  0  0
 41111  1  0  0  0
 41 48  1  0  0  0
 42 43  1  0  0  0
 42 66  1  0  0  0
 42112  1  0  0  0
 42113  1  0  0  0
 43 44  1  0  0  0
 44114  1  0  0  0
 45 46  2  0  0  0
 45115  1  0  0  0
 46116  1  0  0  0
 47117  1  0  0  0
 47118  1  0  0  0
 48 56  1  0  0  0
 48 65  1  0  0  0
 48119  1  0  0  0
 49 50  1  0  0  0
 49 53  1  0  0  0
 49 64  1  0  0  0
 49120  1  0  0  0
 50 51  1  0  0  0
 50121  1  0  0  0
 50122  1  0  0  0
 51 52  1  0  0  0
 51123  1  0  0  0
 51124  1  0  0  0
 52125  1  0  0  0
 52126  1  0  0  0
 53 54  1  0  0  0
 54 55  2  0  0  0
 54127  1  0  0  0
 55 57  1  0  0  0
 55128  1  0  0  0
 56 69  2  0  0  0
 57 58  2  0  0  0
 57129  1  0  0  0
 58130  1  0  0  0
 59 60  1  0  0  0
 59 61  1  0  0  0
 59 62  1  0  0  0
 60131  1  0  0  0
 60132  1  0  0  0
 60133  1  0  0  0
 61134  1  0  0  0
 61135  1  0  0  0
 61136  1  0  0  0
 62137  1  0  0  0
 62138  1  0  0  0
 62139  1  0  0  0
 63 65  1  0  0  0
 63140  1  0  0  0
 63141  1  0  0  0
 63142  1  0  0  0
 64143  1  0  0  0
 65144  1  0  0  0
 68 81  1  0  0  0
 71 73  2  0  0  0
 71 74  1  0  0  0
 71145  1  0  0  0
 72 74  2  0  0  0
 72 75  1  0  0  0
 72146  1  0  0  0
 73 76  1  0  0  0
 73 78  1  0  0  0
 74 84  1  0  0  0
 75 76  2  0  0  0
 75 83  1  0  0  0
 76 85  1  0  0  0
 77 78  2  0  0  0
 77147  1  0  0  0
 77148  1  0  0  0
 78149  1  0  0  0
 79 80  1  0  0  0
 79 81  1  0  0  0
 79150  1  0  0  0
 79151  1  0  0  0
 80 82  1  0  0  0
 80152  1  0  0  0
 80153  1  0  0  0
 81154  1  0  0  0
 81155  1  0  0  0
 82 85  1  0  0  0
 82156  1  0  0  0
 82157  1  0  0  0
 83158  1  0  0  0
 83159  1  0  0  0
 84160  1  0  0  0
M  ISO  4   1 100  68 101  81 101  84 100
M  END
> <chiral flag>
0

> <version>
0

> <s_m_source_file>
/data/baiqing/PycharmProjects/Reinvent-master-3.2/result/LINK_invent/BTK/process_docking_weight1_custom_product_contain_oxygen_bond_distance_aromatic_linkinvent_7_9_3/rearranged_h_0117.sdf

> <i_m_source_file_index>
46

> <r_mmod_Potential_Energy-OPLS-2005>
-5.11275434494019

> <r_mmod_Stretch_Energy-OPLS-2005>
36.7401123046875

> <r_mmod_Bend_Energy-OPLS-2005>
101.965644836426

> <r_mmod_Torsional_Energy-OPLS-2005>
270.539916992188

> <r_mmod_Improper_Torsional_Energy-OPLS-2005>
6.81553602218628

> <r_mmod_Van_der_Waal_Energy-OPLS-2005>
151.890869140625

> <r_mmod_Electrostatic_Energy-OPLS-2005>
-372.330657958984

> <r_mmod_Solvation_Energy-OPLS-2005>
-210.144241333008

> <b_mmod_Minimization_Converged-OPLS-2005>
0

> <r_mmod_RMS_Derivative-OPLS-2005>
0.411971002817154

$$$$
46
                    3D
 Structure written by MMmdl.
154162  0  0  1  0            999 V2000
  -30.6385  -14.5882   20.5003 C   0  0  0  0  0  0
  -30.4238  -12.3573   19.4506 C   0  0  0  0  0  0
  -29.5032  -12.5156   18.2193 C   0  0  0  0  0  0
  -28.0241  -12.3534   18.6215 C   0  0  0  0  0  0
  -27.6473  -13.2090   19.8599 C   0  0  2  0  0  0
  -28.6882  -13.0491   20.9951 C   0  0  0  0  0  0
  -25.2527  -13.8144   20.5679 C   0  0  0  0  0  0
  -24.1801  -13.0421   20.9223 C   0  0  0  0  0  0
  -24.6367  -11.6889   20.8744 C   0  0  0  0  0  0
  -23.9053  -10.4278   21.0402 C   0  0  0  0  0  0
  -24.3611   -9.4197   21.9173 C   0  0  0  0  0  0
  -23.6299   -8.2226   22.0734 C   0  0  0  0  0  0
  -22.4270   -8.0265   21.3539 C   0  0  0  0  0  0
  -21.9907   -9.0225   20.4626 C   0  0  0  0  0  0
  -22.7232  -10.2115   20.3041 C   0  0  0  0  0  0
  -21.6828   -6.0721   22.5287 C   0  0  0  0  0  0
  -21.3979   -6.5621   23.8216 C   0  0  0  0  0  0
  -21.3675   -5.6781   24.9194 C   0  0  0  0  0  0
  -21.6068   -4.3041   24.7246 C   0  0  0  0  0  0
  -21.8809   -3.8130   23.4355 C   0  0  0  0  0  0
  -21.9185   -4.6955   22.3409 C   0  0  0  0  0  0
  -22.7833  -13.5218   21.1934 C   0  0  0  0  0  0
  -22.1649   -4.2144   21.0988 F   0  0  0  0  0  0
  -21.5685   -3.4525   25.7754 F   0  0  0  0  0  0
  -30.0153  -13.3703   20.4459 N   0  0  0  0  0  0
  -26.2926  -12.9297   20.3249 N   0  0  0  0  0  0
  -25.9269  -11.6462   20.5701 N   0  0  0  0  0  0
  -22.0504  -12.8160   22.0473 N   0  0  0  0  0  0
  -25.4246  -15.1884   20.4118 N   0  0  0  0  0  0
  -31.7931  -14.7358   20.0732 O   0  0  0  0  0  0
  -21.6639   -6.8858   21.4237 O   0  0  0  0  0  0
  -22.3498  -14.5538   20.6831 O   0  0  0  0  0  0
  -24.6231  -31.8639   23.2082 C   0  0  0  0  0  0
  -25.9109  -32.4806   23.8397 C   0  0  1  0  0  0
  -27.2271  -27.3639   20.1074 C   0  0  0  0  0  0
  -25.5951  -33.8604   24.2329 N   0  0  0  0  0  0
  -23.4125  -30.4891   21.5490 C   0  0  2  0  0  0
  -24.8559  -28.9465   20.1099 C   0  0  0  0  0  0
  -22.7454  -29.4644   22.4961 C   0  0  0  0  0  0
  -18.0273  -28.1401   22.8509 C   0  0  0  0  0  0
  -24.1476  -36.7318   23.2645 C   0  0  0  0  0  0
  -25.9473  -30.8099   21.3646 C   0  0  0  0  0  0
  -26.0190  -29.4376   20.7132 C   0  0  0  0  0  0
  -27.2032  -28.6541   20.7078 C   0  0  0  0  0  0
  -26.0366  -26.8998   19.4998 C   0  0  0  0  0  0
  -24.8635  -27.6806   19.4999 C   0  0  0  0  0  0
  -23.6241  -29.8264   20.1604 C   0  0  0  0  0  0
  -25.4092  -36.3093   24.0342 C   0  0  1  0  0  0
  -20.5877  -28.3692   23.1313 C   0  0  2  0  0  0
  -20.6755  -26.9409   22.5423 C   0  0  0  0  0  0
  -19.5725  -26.6378   21.5234 C   0  0  0  0  0  0
  -18.1906  -26.7953   22.1636 C   0  0  0  0  0  0
  -19.1530  -28.8858   23.2919 C   0  0  0  0  0  0
  -18.9451  -30.1468   23.8930 C   0  0  0  0  0  0
  -17.6446  -30.6602   24.0572 C   0  0  0  0  0  0
  -25.9032  -34.9463   23.5122 C   0  0  0  0  0  0
  -16.5339  -29.9095   23.6336 C   0  0  0  0  0  0
  -16.7259  -28.6511   23.0366 C   0  0  0  0  0  0
  -26.4500  -31.6635   25.0770 C   0  0  0  0  0  0
  -25.3758  -31.3758   26.1517 C   0  0  0  0  0  0
  -27.0348  -30.3086   24.6183 C   0  0  0  0  0  0
  -27.6064  -32.4373   25.7556 C   0  0  0  0  0  0
  -27.5571  -37.1799   24.8451 C   0  0  0  0  0  0
  -21.4165  -29.3069   22.3738 N   0  0  0  0  0  0
  -26.4264  -37.3787   23.9429 N   0  0  0  0  0  0
  -24.6803  -31.0696   22.0994 N   0  0  0  0  0  0
  -23.4208  -28.8178   23.3002 O   0  0  0  0  0  0
  -28.3865  -26.5913   20.1647 O   0  0  0  0  0  0
  -26.5572  -34.8914   22.4664 O   0  0  0  0  0  0
  -23.5404  -32.1405   23.7453 O   0  0  0  0  0  0
  -29.5627  -16.8909   18.7399 C   0  0  0  0  0  0
  -29.0685  -19.2768   18.7371 C   0  0  0  0  0  0
  -29.2556  -18.0719   18.0337 C   0  0  0  0  0  0
  -29.6775  -16.8994   20.1562 C   0  0  0  0  0  0
  -29.1902  -19.2940   20.1426 C   0  0  0  0  0  0
  -28.0612  -24.0377   20.1232 C   0  0  0  0  0  0
  -28.6266  -22.8025   19.9631 C   0  0  0  0  0  0
  -28.5208  -25.3430   19.4265 C   0  0  0  0  0  0
  -28.0879  -21.4653   20.5353 C   0  0  0  0  0  0
  -29.4841  -18.1172   20.7840 N   0  3  0  0  0  0
  -29.1374  -18.0481   16.6400 N   0  0  0  0  0  0
  -29.8688  -15.6519   20.8831 N   0  0  0  0  0  0
  -29.0673  -20.4521   20.9139 O   0  0  0  0  0  0
  -31.4684  -12.4604   19.1538 H   0  0  0  0  0  0
  -30.3349  -11.3533   19.8702 H   0  0  0  0  0  0
  -29.7664  -11.7875   17.4507 H   0  0  0  0  0  0
  -29.6540  -13.4960   17.7639 H   0  0  0  0  0  0
  -27.8553  -11.2988   18.8370 H   0  0  0  0  0  0
  -27.3746  -12.5991   17.7793 H   0  0  0  0  0  0
  -27.6638  -14.2468   19.5300 H   0  0  0  0  0  0
  -28.6822  -12.0261   21.3736 H   0  0  0  0  0  0
  -28.4286  -13.6796   21.8502 H   0  0  0  0  0  0
  -25.2746   -9.5688   22.4758 H   0  0  0  0  0  0
  -24.0019   -7.4591   22.7410 H   0  0  0  0  0  0
  -21.0855   -8.8724   19.8912 H   0  0  0  0  0  0
  -22.3667  -10.9658   19.6154 H   0  0  0  0  0  0
  -21.1910   -7.6105   23.9714 H   0  0  0  0  0  0
  -21.1533   -6.0520   25.9108 H   0  0  0  0  0  0
  -22.0589   -2.7592   23.2869 H   0  0  0  0  0  0
  -22.4113  -11.9754   22.4749 H   0  0  0  0  0  0
  -21.1147  -13.1171   22.2740 H   0  0  0  0  0  0
  -24.6557  -15.8393   20.5308 H   0  0  0  0  0  0
  -26.2543  -15.6359   20.0438 H   0  0  0  0  0  0
  -26.7199  -32.5476   23.1177 H   0  0  0  0  0  0
  -25.0181  -33.9767   25.0523 H   0  0  0  0  0  0
  -22.7048  -31.3102   21.4103 H   0  0  0  0  0  0
  -23.3735  -35.9654   23.3258 H   0  0  0  0  0  0
  -24.3588  -36.8977   22.2069 H   0  0  0  0  0  0
  -23.7203  -37.6500   23.6690 H   0  0  0  0  0  0
  -26.0621  -31.5700   20.5898 H   0  0  0  0  0  0
  -26.8358  -30.8693   21.9816 H   0  0  0  0  0  0
  -28.0971  -29.0312   21.1844 H   0  0  0  0  0  0
  -25.9830  -25.9226   19.0406 H   0  0  0  0  0  0
  -23.9667  -27.2963   19.0343 H   0  0  0  0  0  0
  -23.7461  -30.6080   19.4082 H   0  0  0  0  0  0
  -22.7417  -29.2622   19.8531 H   0  0  0  0  0  0
  -25.1251  -36.1950   25.0831 H   0  0  0  0  0  0
  -20.9977  -28.3236   24.1435 H   0  0  0  0  0  0
  -20.5659  -26.2283   23.3628 H   0  0  0  0  0  0
  -21.6625  -26.7432   22.1219 H   0  0  0  0  0  0
  -19.6862  -25.6277   21.1297 H   0  0  0  0  0  0
  -19.6678  -27.3171   20.6763 H   0  0  0  0  0  0
  -17.4178  -26.6751   21.4023 H   0  0  0  0  0  0
  -18.0264  -26.0089   22.9023 H   0  0  0  0  0  0
  -19.7915  -30.7299   24.2313 H   0  0  0  0  0  0
  -17.4982  -31.6292   24.5168 H   0  0  0  0  0  0
  -15.5343  -30.2999   23.7653 H   0  0  0  0  0  0
  -15.8661  -28.0832   22.7084 H   0  0  0  0  0  0
  -24.5910  -30.7128   25.7865 H   0  0  0  0  0  0
  -24.8977  -32.2914   26.5012 H   0  0  0  0  0  0
  -25.8097  -30.8898   27.0264 H   0  0  0  0  0  0
  -26.2907  -29.6848   24.1222 H   0  0  0  0  0  0
  -27.4094  -29.7341   25.4663 H   0  0  0  0  0  0
  -27.8742  -30.4429   23.9366 H   0  0  0  0  0  0
  -27.2677  -33.3667   26.2160 H   0  0  0  0  0  0
  -28.3879  -32.6954   25.0398 H   0  0  0  0  0  0
  -28.0739  -31.8485   26.5461 H   0  0  0  0  0  0
  -28.2543  -38.0143   24.7564 H   0  0  0  0  0  0
  -28.1109  -36.2675   24.6173 H   0  0  0  0  0  0
  -27.2323  -37.1329   25.8863 H   0  0  0  0  0  0
  -20.9326  -29.8833   21.7006 H   0  0  0  0  0  0
  -26.0138  -38.2854   24.1465 H   0  0  0  0  0  0
  -29.6885  -15.9732   18.1837 H   0  0  0  0  0  0
  -28.8528  -20.1878   18.1990 H   0  0  0  0  0  0
  -27.1801  -24.1362   20.7437 H   0  0  0  0  0  0
  -29.5033  -22.7138   19.3359 H   0  0  0  0  0  0
  -28.0317  -25.4232   18.4563 H   0  0  0  0  0  0
  -29.5788  -25.2321   19.1904 H   0  0  0  0  0  0
  -27.3708  -21.0584   19.8216 H   0  0  0  0  0  0
  -27.5037  -21.6931   21.4268 H   0  0  0  0  0  0
  -29.5610  -18.1542   21.8042 H   0  0  0  0  0  0
  -28.9254  -17.1616   16.1992 H   0  0  0  0  0  0
  -28.6444  -18.8173   16.2014 H   0  0  0  0  0  0
  -29.0884  -15.3833   21.4569 H   0  0  0  0  0  0
  1 25  1  0  0  0
  1 30  2  0  0  0
  1 82  1  0  0  0
  2  3  1  0  0  0
  2 25  1  0  0  0
  2 84  1  0  0  0
  2 85  1  0  0  0
  3  4  1  0  0  0
  3 86  1  0  0  0
  3 87  1  0  0  0
  4  5  1  0  0  0
  4 88  1  0  0  0
  4 89  1  0  0  0
  5  6  1  0  0  0
  5 26  1  0  0  0
  5 90  1  0  0  0
  6 25  1  0  0  0
  6 91  1  0  0  0
  6 92  1  0  0  0
  7  8  2  0  0  0
  7 26  1  0  0  0
  7 29  1  0  0  0
  8  9  1  0  0  0
  8 22  1  0  0  0
  9 10  1  0  0  0
  9 27  2  0  0  0
 10 11  2  0  0  0
 10 15  1  0  0  0
 11 12  1  0  0  0
 11 93  1  0  0  0
 12 13  2  0  0  0
 12 94  1  0  0  0
 13 14  1  0  0  0
 13 31  1  0  0  0
 14 15  2  0  0  0
 14 95  1  0  0  0
 15 96  1  0  0  0
 16 17  2  0  0  0
 16 21  1  0  0  0
 16 31  1  0  0  0
 17 18  1  0  0  0
 17 97  1  0  0  0
 18 19  2  0  0  0
 18 98  1  0  0  0
 19 20  1  0  0  0
 19 24  1  0  0  0
 20 21  2  0  0  0
 20 99  1  0  0  0
 21 23  1  0  0  0
 22 28  1  0  0  0
 22 32  2  0  0  0
 26 27  1  0  0  0
 28100  1  0  0  0
 28101  1  0  0  0
 29102  1  0  0  0
 29103  1  0  0  0
 33 34  1  0  0  0
 33 66  1  0  0  0
 33 70  2  0  0  0
 34 36  1  0  0  0
 34 59  1  0  0  0
 34104  1  0  0  0
 35 44  2  0  0  0
 35 45  1  0  0  0
 35 68  1  0  0  0
 36 56  1  0  0  0
 36105  1  0  0  0
 37 39  1  0  0  0
 37 47  1  0  0  0
 37 66  1  0  0  0
 37106  1  0  0  0
 38 43  2  0  0  0
 38 46  1  0  0  0
 38 47  1  0  0  0
 39 64  1  0  0  0
 39 67  2  0  0  0
 40 52  1  0  0  0
 40 53  2  0  0  0
 40 58  1  0  0  0
 41107  1  0  0  0
 41108  1  0  0  0
 41109  1  0  0  0
 41 48  1  0  0  0
 42 43  1  0  0  0
 42 66  1  0  0  0
 42110  1  0  0  0
 42111  1  0  0  0
 43 44  1  0  0  0
 44112  1  0  0  0
 45 46  2  0  0  0
 45113  1  0  0  0
 46114  1  0  0  0
 47115  1  0  0  0
 47116  1  0  0  0
 48 56  1  0  0  0
 48 65  1  0  0  0
 48117  1  0  0  0
 49 50  1  0  0  0
 49 53  1  0  0  0
 49 64  1  0  0  0
 49118  1  0  0  0
 50 51  1  0  0  0
 50119  1  0  0  0
 50120  1  0  0  0
 51 52  1  0  0  0
 51121  1  0  0  0
 51122  1  0  0  0
 52123  1  0  0  0
 52124  1  0  0  0
 53 54  1  0  0  0
 54 55  2  0  0  0
 54125  1  0  0  0
 55 57  1  0  0  0
 55126  1  0  0  0
 56 69  2  0  0  0
 57 58  2  0  0  0
 57127  1  0  0  0
 58128  1  0  0  0
 59 60  1  0  0  0
 59 61  1  0  0  0
 59 62  1  0  0  0
 60129  1  0  0  0
 60130  1  0  0  0
 60131  1  0  0  0
 61132  1  0  0  0
 61133  1  0  0  0
 61134  1  0  0  0
 62135  1  0  0  0
 62136  1  0  0  0
 62137  1  0  0  0
 63 65  1  0  0  0
 63138  1  0  0  0
 63139  1  0  0  0
 63140  1  0  0  0
 64141  1  0  0  0
 65142  1  0  0  0
 68 78  1  0  0  0
 71 73  2  0  0  0
 71 74  1  0  0  0
 71143  1  0  0  0
 72 73  1  0  0  0
 72 75  2  0  0  0
 72144  1  0  0  0
 73 81  1  0  0  0
 74 80  2  0  0  0
 74 82  1  0  0  0
 75 80  1  0  0  0
 75 83  1  0  0  0
 76 77  2  0  0  0
 76 78  1  0  0  0
 76145  1  0  0  0
 77 79  1  0  0  0
 77146  1  0  0  0
 78147  1  0  0  0
 78148  1  0  0  0
 79 83  1  0  0  0
 79149  1  0  0  0
 79150  1  0  0  0
 80151  1  0  0  0
 81152  1  0  0  0
 81153  1  0  0  0
 82154  1  0  0  0
M  CHG  1  80   1
M  ISO  4   1 100  68 101  78 101  82 100
M  END
> <chiral flag>
0

> <version>
0

> <s_m_source_file>
/data/baiqing/PycharmProjects/Reinvent-master-3.2/result/LINK_invent/BTK/process_docking_weight1_custom_product_contain_oxygen_bond_distance_aromatic_linkinvent_7_9_3/rearranged_h_0117.sdf

> <i_m_source_file_index>
47

> <r_mmod_Potential_Energy-OPLS-2005>
-7.12573957443237

> <r_mmod_Stretch_Energy-OPLS-2005>
62.5594825744629

> <r_mmod_Bend_Energy-OPLS-2005>
124.238731384277

> <r_mmod_Torsional_Energy-OPLS-2005>
246.75178527832

> <r_mmod_Improper_Torsional_Energy-OPLS-2005>
10.9212379455566

> <r_mmod_Van_der_Waal_Energy-OPLS-2005>
141.629547119141

> <r_mmod_Electrostatic_Energy-OPLS-2005>
-179.611633300781

> <r_mmod_Solvation_Energy-OPLS-2005>
-445.299285888672

> <b_mmod_Minimization_Converged-OPLS-2005>
0

> <r_mmod_RMS_Derivative-OPLS-2005>
3.09157919883728

$$$$
47
                    3D
 Structure written by MMmdl.
161169  0  0  1  0            999 V2000
  -30.6557  -14.5000   20.6103 C   0  0  0  0  0  0
  -30.4348  -12.3331   19.4281 C   0  0  0  0  0  0
  -29.4980  -12.5037   18.2125 C   0  0  0  0  0  0
  -28.0201  -12.3570   18.6243 C   0  0  0  0  0  0
  -27.6590  -13.1985   19.8777 C   0  0  2  0  0  0
  -28.6943  -12.9617   20.9981 C   0  0  0  0  0  0
  -25.2559  -13.8131   20.5677 C   0  0  0  0  0  0
  -24.1816  -13.0442   20.9196 C   0  0  0  0  0  0
  -24.6351  -11.6906   20.8738 C   0  0  0  0  0  0
  -23.9005  -10.4297   21.0422 C   0  0  0  0  0  0
  -24.3564   -9.4205   21.9196 C   0  0  0  0  0  0
  -23.6255   -8.2235   22.0739 C   0  0  0  0  0  0
  -22.4234   -8.0278   21.3532 C   0  0  0  0  0  0
  -21.9863   -9.0250   20.4648 C   0  0  0  0  0  0
  -22.7183  -10.2139   20.3066 C   0  0  0  0  0  0
  -21.6825   -6.0761   22.5285 C   0  0  0  0  0  0
  -21.4001   -6.5659   23.8231 C   0  0  0  0  0  0
  -21.3625   -5.6815   24.9184 C   0  0  0  0  0  0
  -21.6032   -4.3078   24.7230 C   0  0  0  0  0  0
  -21.8822   -3.8177   23.4356 C   0  0  0  0  0  0
  -21.9174   -4.6991   22.3411 C   0  0  0  0  0  0
  -22.7847  -13.5235   21.1871 C   0  0  0  0  0  0
  -22.1616   -4.2163   21.0982 F   0  0  0  0  0  0
  -21.5609   -3.4554   25.7737 F   0  0  0  0  0  0
  -30.0243  -13.3004   20.4628 N   0  0  0  0  0  0
  -26.2983  -12.9291   20.3342 N   0  0  0  0  0  0
  -25.9267  -11.6475   20.5757 N   0  0  0  0  0  0
  -22.0482  -12.8242   22.0428 N   0  0  0  0  0  0
  -25.4315  -15.1847   20.4096 N   0  0  0  0  0  0
  -31.7709  -14.7087   20.1185 O   0  0  0  0  0  0
  -21.6586   -6.8890   21.4253 O   0  0  0  0  0  0
  -22.3540  -14.5563   20.6734 O   0  0  0  0  0  0
  -24.6173  -31.8666   23.2079 C   0  0  0  0  0  0
  -25.9067  -32.4811   23.8383 C   0  0  1  0  0  0
  -27.2417  -27.4163   20.1108 C   0  0  0  0  0  0
  -25.5931  -33.8606   24.2330 N   0  0  0  0  0  0
  -23.4037  -30.4884   21.5475 C   0  0  2  0  0  0
  -24.8513  -28.9456   20.1153 C   0  0  0  0  0  0
  -22.7426  -29.4656   22.4990 C   0  0  0  0  0  0
  -18.0264  -28.1388   22.8490 C   0  0  0  0  0  0
  -24.1485  -36.7296   23.2632 C   0  0  0  0  0  0
  -25.9313  -30.8297   21.3574 C   0  0  0  0  0  0
  -26.0079  -29.4599   20.7102 C   0  0  0  0  0  0
  -27.2003  -28.7033   20.7014 C   0  0  0  0  0  0
  -26.0599  -26.9117   19.5189 C   0  0  0  0  0  0
  -24.8719  -27.6722   19.5179 C   0  0  0  0  0  0
  -23.6130  -29.8153   20.1638 C   0  0  0  0  0  0
  -25.4094  -36.3088   24.0350 C   0  0  1  0  0  0
  -20.5861  -28.3668   23.1334 C   0  0  2  0  0  0
  -20.6748  -26.9414   22.5416 C   0  0  0  0  0  0
  -19.5735  -26.6408   21.5208 C   0  0  0  0  0  0
  -18.1912  -26.7940   22.1616 C   0  0  0  0  0  0
  -19.1521  -28.8843   23.2901 C   0  0  0  0  0  0
  -18.9438  -30.1445   23.8913 C   0  0  0  0  0  0
  -17.6444  -30.6589   24.0556 C   0  0  0  0  0  0
  -25.9041  -34.9468   23.5133 C   0  0  0  0  0  0
  -16.5329  -29.9091   23.6327 C   0  0  0  0  0  0
  -16.7253  -28.6511   23.0341 C   0  0  0  0  0  0
  -26.4488  -31.6574   25.0709 C   0  0  0  0  0  0
  -25.3763  -31.3692   26.1471 C   0  0  0  0  0  0
  -27.0288  -30.3007   24.6067 C   0  0  0  0  0  0
  -27.6091  -32.4271   25.7456 C   0  0  0  0  0  0
  -27.5598  -37.1768   24.8441 C   0  0  0  0  0  0
  -21.4147  -29.3040   22.3746 N   0  0  0  0  0  0
  -26.4260  -37.3795   23.9461 N   0  0  0  0  0  0
  -24.6693  -31.0775   22.0967 N   0  0  0  0  0  0
  -23.4210  -28.8224   23.3043 O   0  0  0  0  0  0
  -28.4438  -26.7294   20.1531 O   0  0  0  0  0  0
  -26.5593  -34.8927   22.4690 O   0  0  0  0  0  0
  -23.5375  -32.1416   23.7468 O   0  0  0  0  0  0
  -30.9370  -18.8759   20.5397 C   0  0  0  0  0  0
  -29.4523  -18.9948   22.4297 C   0  0  0  0  0  0
  -29.2615  -17.5813   22.2982 C   0  0  0  0  0  0
  -30.2581  -19.6716   21.4772 C   0  0  0  0  0  0
  -30.0472  -16.8628   21.3365 C   0  0  0  0  0  0
  -29.4977  -21.8528   21.1135 C   0  0  0  0  0  0
  -28.8692  -19.7868   23.5982 C   0  0  0  0  0  0
  -26.7965  -17.4180   23.1087 C   0  0  0  0  0  0
  -28.2309  -16.8476   23.1844 C   0  0  0  0  0  0
  -29.7399  -23.3161   20.7279 C   0  0  0  0  0  0
  -28.4950  -24.2580   20.7011 C   0  0  0  0  0  0
  -28.5953  -25.3948   19.6398 C   0  0  0  0  0  0
  -30.8573  -17.5325   20.4877 N   0  0  0  0  0  0
  -30.4594  -21.0661   21.4210 N   0  0  0  0  0  0
  -29.9318  -15.4332   21.2783 N   0  0  0  0  0  0
  -31.4726  -12.4712   19.1175 H   0  0  0  0  0  0
  -30.3730  -11.3181   19.8225 H   0  0  0  0  0  0
  -29.7446  -11.7676   17.4452 H   0  0  0  0  0  0
  -29.6644  -13.4826   17.7635 H   0  0  0  0  0  0
  -27.8382  -11.2999   18.8231 H   0  0  0  0  0  0
  -27.3637  -12.6213   17.7935 H   0  0  0  0  0  0
  -27.7120  -14.2471   19.5902 H   0  0  0  0  0  0
  -28.6847  -11.9144   21.3056 H   0  0  0  0  0  0
  -28.4286  -13.5220   21.8953 H   0  0  0  0  0  0
  -25.2720   -9.5668   22.4760 H   0  0  0  0  0  0
  -23.9984   -7.4607   22.7423 H   0  0  0  0  0  0
  -21.0805   -8.8775   19.8937 H   0  0  0  0  0  0
  -22.3658  -10.9673   19.6157 H   0  0  0  0  0  0
  -21.2014   -7.6176   23.9729 H   0  0  0  0  0  0
  -21.1405   -6.0543   25.9087 H   0  0  0  0  0  0
  -22.0637   -2.7646   23.2847 H   0  0  0  0  0  0
  -22.4076  -11.9873   22.4789 H   0  0  0  0  0  0
  -21.1085  -13.1252   22.2591 H   0  0  0  0  0  0
  -24.6779  -15.8457   20.5541 H   0  0  0  0  0  0
  -26.2849  -15.6230   20.0883 H   0  0  0  0  0  0
  -26.7130  -32.5523   23.1138 H   0  0  0  0  0  0
  -25.0097  -33.9748   25.0487 H   0  0  0  0  0  0
  -22.6902  -31.3038   21.4079 H   0  0  0  0  0  0
  -23.3761  -35.9610   23.3245 H   0  0  0  0  0  0
  -24.3602  -36.8952   22.2061 H   0  0  0  0  0  0
  -23.7211  -37.6492   23.6637 H   0  0  0  0  0  0
  -26.0395  -31.5909   20.5837 H   0  0  0  0  0  0
  -26.8241  -30.8902   21.9689 H   0  0  0  0  0  0
  -28.0949  -29.1051   21.1565 H   0  0  0  0  0  0
  -26.0265  -25.9325   19.0656 H   0  0  0  0  0  0
  -23.9776  -27.2678   19.0645 H   0  0  0  0  0  0
  -23.7244  -30.5889   19.4031 H   0  0  0  0  0  0
  -22.7358  -29.2352   19.8724 H   0  0  0  0  0  0
  -25.1247  -36.1909   25.0830 H   0  0  0  0  0  0
  -20.9944  -28.3221   24.1463 H   0  0  0  0  0  0
  -20.5652  -26.2288   23.3595 H   0  0  0  0  0  0
  -21.6617  -26.7444   22.1219 H   0  0  0  0  0  0
  -19.6892  -25.6329   21.1233 H   0  0  0  0  0  0
  -19.6685  -27.3232   20.6753 H   0  0  0  0  0  0
  -17.4187  -26.6698   21.4006 H   0  0  0  0  0  0
  -18.0298  -26.0078   22.9014 H   0  0  0  0  0  0
  -19.7910  -30.7243   24.2313 H   0  0  0  0  0  0
  -17.5001  -31.6278   24.5165 H   0  0  0  0  0  0
  -15.5328  -30.2983   23.7676 H   0  0  0  0  0  0
  -15.8654  -28.0838   22.7026 H   0  0  0  0  0  0
  -24.5932  -30.7025   25.7845 H   0  0  0  0  0  0
  -24.8929  -32.2842   26.4910 H   0  0  0  0  0  0
  -25.8152  -30.8897   27.0230 H   0  0  0  0  0  0
  -26.2803  -29.6792   24.1137 H   0  0  0  0  0  0
  -27.4085  -29.7221   25.4502 H   0  0  0  0  0  0
  -27.8632  -30.4319   23.9169 H   0  0  0  0  0  0
  -27.2738  -33.3581   26.2023 H   0  0  0  0  0  0
  -28.3897  -32.6811   25.0278 H   0  0  0  0  0  0
  -28.0742  -31.8379   26.5363 H   0  0  0  0  0  0
  -28.2513  -38.0165   24.7615 H   0  0  0  0  0  0
  -28.1182  -36.2706   24.6040 H   0  0  0  0  0  0
  -27.2358  -37.1170   25.8846 H   0  0  0  0  0  0
  -20.9312  -29.8748   21.6951 H   0  0  0  0  0  0
  -26.0134  -38.2855   24.1524 H   0  0  0  0  0  0
  -31.5902  -19.3321   19.8124 H   0  0  0  0  0  0
  -28.4585  -21.5160   21.0505 H   0  0  0  0  0  0
  -28.5598  -19.1520   24.4256 H   0  0  0  0  0  0
  -28.0188  -20.3923   23.2869 H   0  0  0  0  0  0
  -29.6249  -20.4541   24.0142 H   0  0  0  0  0  0
  -26.0799  -16.7160   23.5374 H   0  0  0  0  0  0
  -26.4892  -17.6073   22.0786 H   0  0  0  0  0  0
  -26.6761  -18.3473   23.6616 H   0  0  0  0  0  0
  -28.5781  -16.8381   24.2204 H   0  0  0  0  0  0
  -28.1476  -15.7982   22.9146 H   0  0  0  0  0  0
  -30.1870  -23.2835   19.7357 H   0  0  0  0  0  0
  -30.5046  -23.7394   21.3805 H   0  0  0  0  0  0
  -28.3480  -24.6849   21.6936 H   0  0  0  0  0  0
  -27.5912  -23.6823   20.5013 H   0  0  0  0  0  0
  -27.9628  -25.1833   18.7790 H   0  0  0  0  0  0
  -29.6021  -25.3917   19.2217 H   0  0  0  0  0  0
  -29.1044  -15.0599   21.7113 H   0  0  0  0  0  0
  1 25  1  0  0  0
  1 30  2  0  0  0
  1 85  1  0  0  0
  2  3  1  0  0  0
  2 25  1  0  0  0
  2 86  1  0  0  0
  2 87  1  0  0  0
  3  4  1  0  0  0
  3 88  1  0  0  0
  3 89  1  0  0  0
  4  5  1  0  0  0
  4 90  1  0  0  0
  4 91  1  0  0  0
  5  6  1  0  0  0
  5 26  1  0  0  0
  5 92  1  0  0  0
  6 25  1  0  0  0
  6 93  1  0  0  0
  6 94  1  0  0  0
  7  8  2  0  0  0
  7 26  1  0  0  0
  7 29  1  0  0  0
  8  9  1  0  0  0
  8 22  1  0  0  0
  9 10  1  0  0  0
  9 27  2  0  0  0
 10 11  2  0  0  0
 10 15  1  0  0  0
 11 12  1  0  0  0
 11 95  1  0  0  0
 12 13  2  0  0  0
 12 96  1  0  0  0
 13 14  1  0  0  0
 13 31  1  0  0  0
 14 15  2  0  0  0
 14 97  1  0  0  0
 15 98  1  0  0  0
 16 17  2  0  0  0
 16 21  1  0  0  0
 16 31  1  0  0  0
 17 18  1  0  0  0
 17 99  1  0  0  0
 18 19  2  0  0  0
 18100  1  0  0  0
 19 20  1  0  0  0
 19 24  1  0  0  0
 20 21  2  0  0  0
 20101  1  0  0  0
 21 23  1  0  0  0
 22 28  1  0  0  0
 22 32  2  0  0  0
 26 27  1  0  0  0
 28102  1  0  0  0
 28103  1  0  0  0
 29104  1  0  0  0
 29105  1  0  0  0
 33 34  1  0  0  0
 33 66  1  0  0  0
 33 70  2  0  0  0
 34 36  1  0  0  0
 34 59  1  0  0  0
 34106  1  0  0  0
 35 44  2  0  0  0
 35 45  1  0  0  0
 35 68  1  0  0  0
 36 56  1  0  0  0
 36107  1  0  0  0
 37 39  1  0  0  0
 37 47  1  0  0  0
 37 66  1  0  0  0
 37108  1  0  0  0
 38 43  2  0  0  0
 38 46  1  0  0  0
 38 47  1  0  0  0
 39 64  1  0  0  0
 39 67  2  0  0  0
 40 52  1  0  0  0
 40 53  2  0  0  0
 40 58  1  0  0  0
 41109  1  0  0  0
 41110  1  0  0  0
 41111  1  0  0  0
 41 48  1  0  0  0
 42 43  1  0  0  0
 42 66  1  0  0  0
 42112  1  0  0  0
 42113  1  0  0  0
 43 44  1  0  0  0
 44114  1  0  0  0
 45 46  2  0  0  0
 45115  1  0  0  0
 46116  1  0  0  0
 47117  1  0  0  0
 47118  1  0  0  0
 48 56  1  0  0  0
 48 65  1  0  0  0
 48119  1  0  0  0
 49 50  1  0  0  0
 49 53  1  0  0  0
 49 64  1  0  0  0
 49120  1  0  0  0
 50 51  1  0  0  0
 50121  1  0  0  0
 50122  1  0  0  0
 51 52  1  0  0  0
 51123  1  0  0  0
 51124  1  0  0  0
 52125  1  0  0  0
 52126  1  0  0  0
 53 54  1  0  0  0
 54 55  2  0  0  0
 54127  1  0  0  0
 55 57  1  0  0  0
 55128  1  0  0  0
 56 69  2  0  0  0
 57 58  2  0  0  0
 57129  1  0  0  0
 58130  1  0  0  0
 59 60  1  0  0  0
 59 61  1  0  0  0
 59 62  1  0  0  0
 60131  1  0  0  0
 60132  1  0  0  0
 60133  1  0  0  0
 61134  1  0  0  0
 61135  1  0  0  0
 61136  1  0  0  0
 62137  1  0  0  0
 62138  1  0  0  0
 62139  1  0  0  0
 63 65  1  0  0  0
 63140  1  0  0  0
 63141  1  0  0  0
 63142  1  0  0  0
 64143  1  0  0  0
 65144  1  0  0  0
 68 82  1  0  0  0
 71 74  2  0  0  0
 71 83  1  0  0  0
 71145  1  0  0  0
 72 73  2  0  0  0
 72 74  1  0  0  0
 72 77  1  0  0  0
 73 75  1  0  0  0
 73 79  1  0  0  0
 74 84  1  0  0  0
 75 83  2  0  0  0
 75 85  1  0  0  0
 76 80  1  0  0  0
 76 84  2  0  0  0
 76146  1  0  0  0
 77147  1  0  0  0
 77148  1  0  0  0
 77149  1  0  0  0
 78 79  1  0  0  0
 78150  1  0  0  0
 78151  1  0  0  0
 78152  1  0  0  0
 79153  1  0  0  0
 79154  1  0  0  0
 80 81  1  0  0  0
 80155  1  0  0  0
 80156  1  0  0  0
 81 82  1  0  0  0
 81157  1  0  0  0
 81158  1  0  0  0
 82159  1  0  0  0
 82160  1  0  0  0
 85161  1  0  0  0
M  ISO  4   1 100  68 101  82 101  85 100
M  END
> <chiral flag>
0

> <version>
0

> <s_m_source_file>
/data/baiqing/PycharmProjects/Reinvent-master-3.2/result/LINK_invent/BTK/process_docking_weight1_custom_product_contain_oxygen_bond_distance_aromatic_linkinvent_7_9_3/rearranged_h_0117.sdf

> <i_m_source_file_index>
48

> <r_mmod_Potential_Energy-OPLS-2005>
-129.470779418945

> <r_mmod_Stretch_Energy-OPLS-2005>
47.234561920166

> <r_mmod_Bend_Energy-OPLS-2005>
127.027534484863

> <r_mmod_Torsional_Energy-OPLS-2005>
237.014862060547

> <r_mmod_Improper_Torsional_Energy-OPLS-2005>
2.79799962043762

> <r_mmod_Van_der_Waal_Energy-OPLS-2005>
163.983154296875

> <r_mmod_Electrostatic_Energy-OPLS-2005>
-484.704406738281

> <r_mmod_Solvation_Energy-OPLS-2005>
-239.034530639648

> <b_mmod_Minimization_Converged-OPLS-2005>
0

> <r_mmod_RMS_Derivative-OPLS-2005>
3.76330494880676

$$$$
48
                    3D
 Structure written by MMmdl.
159167  0  0  1  0            999 V2000
  -30.7669  -14.5417   20.4845 C   0  0  0  0  0  0
  -30.3969  -12.3173   19.4793 C   0  0  0  0  0  0
  -29.5041  -12.4864   18.2348 C   0  0  0  0  0  0
  -28.0218  -12.3634   18.6342 C   0  0  0  0  0  0
  -27.6548  -13.2384   19.8632 C   0  0  2  0  0  0
  -28.6999  -13.1400   20.9964 C   0  0  0  0  0  0
  -25.2554  -13.8223   20.5713 C   0  0  0  0  0  0
  -24.1852  -13.0476   20.9183 C   0  0  0  0  0  0
  -24.6452  -11.6947   20.8761 C   0  0  0  0  0  0
  -23.9129  -10.4336   21.0404 C   0  0  0  0  0  0
  -24.3651   -9.4229   21.9191 C   0  0  0  0  0  0
  -23.6295   -8.2273   22.0742 C   0  0  0  0  0  0
  -22.4264   -8.0329   21.3543 C   0  0  0  0  0  0
  -21.9943   -9.0310   20.4632 C   0  0  0  0  0  0
  -22.7296  -10.2176   20.3052 C   0  0  0  0  0  0
  -21.6874   -6.0759   22.5271 C   0  0  0  0  0  0
  -21.4016   -6.5644   23.8209 C   0  0  0  0  0  0
  -21.3653   -5.6780   24.9168 C   0  0  0  0  0  0
  -21.6047   -4.3042   24.7221 C   0  0  0  0  0  0
  -21.8812   -3.8147   23.4338 C   0  0  0  0  0  0
  -21.9185   -4.6976   22.3395 C   0  0  0  0  0  0
  -22.7870  -13.5223   21.1855 C   0  0  0  0  0  0
  -22.1657   -4.2154   21.0970 F   0  0  0  0  0  0
  -21.5642   -3.4531   25.7748 F   0  0  0  0  0  0
  -30.0297  -13.3888   20.4277 N   0  0  0  0  0  0
  -26.3027  -12.9463   20.3346 N   0  0  0  0  0  0
  -25.9394  -11.6579   20.5772 N   0  0  0  0  0  0
  -22.0552  -12.8188   22.0397 N   0  0  0  0  0  0
  -25.4234  -15.1967   20.4156 N   0  0  0  0  0  0
  -31.9113  -14.5080   20.0267 O   0  0  0  0  0  0
  -21.6635   -6.8915   21.4237 O   0  0  0  0  0  0
  -22.3563  -14.5548   20.6719 O   0  0  0  0  0  0
  -24.6216  -31.8637   23.2062 C   0  0  0  0  0  0
  -25.9082  -32.4781   23.8396 C   0  0  1  0  0  0
  -27.2244  -27.3732   20.1116 C   0  0  0  0  0  0
  -25.5943  -33.8594   24.2319 N   0  0  0  0  0  0
  -23.4141  -30.4875   21.5438 C   0  0  2  0  0  0
  -24.8647  -28.9612   20.1000 C   0  0  0  0  0  0
  -22.7493  -29.4615   22.4923 C   0  0  0  0  0  0
  -18.0301  -28.1399   22.8518 C   0  0  0  0  0  0
  -24.1481  -36.7281   23.2637 C   0  0  0  0  0  0
  -25.9518  -30.8119   21.3759 C   0  0  0  0  0  0
  -26.0283  -29.4467   20.7112 C   0  0  0  0  0  0
  -27.2133  -28.6618   20.7122 C   0  0  0  0  0  0
  -26.0492  -26.9426   19.4523 C   0  0  0  0  0  0
  -24.8785  -27.7204   19.4494 C   0  0  0  0  0  0
  -23.6307  -29.8304   20.1537 C   0  0  0  0  0  0
  -25.4100  -36.3100   24.0356 C   0  0  1  0  0  0
  -20.5909  -28.3678   23.1318 C   0  0  2  0  0  0
  -20.6784  -26.9404   22.5421 C   0  0  0  0  0  0
  -19.5742  -26.6393   21.5230 C   0  0  0  0  0  0
  -18.1930  -26.7955   22.1640 C   0  0  0  0  0  0
  -19.1557  -28.8855   23.2911 C   0  0  0  0  0  0
  -18.9467  -30.1477   23.8901 C   0  0  0  0  0  0
  -17.6462  -30.6584   24.0574 C   0  0  0  0  0  0
  -25.9044  -34.9470   23.5123 C   0  0  0  0  0  0
  -16.5357  -29.9078   23.6333 C   0  0  0  0  0  0
  -16.7299  -28.6506   23.0342 C   0  0  0  0  0  0
  -26.4504  -31.6600   25.0757 C   0  0  0  0  0  0
  -25.3762  -31.3711   26.1495 C   0  0  0  0  0  0
  -27.0316  -30.3041   24.6150 C   0  0  0  0  0  0
  -27.6081  -32.4314   25.7512 C   0  0  0  0  0  0
  -27.5568  -37.1797   24.8471 C   0  0  0  0  0  0
  -21.4204  -29.3023   22.3688 N   0  0  0  0  0  0
  -26.4286  -37.3784   23.9432 N   0  0  0  0  0  0
  -24.6802  -31.0715   22.0988 N   0  0  0  0  0  0
  -23.4273  -28.8144   23.2965 O   0  0  0  0  0  0
  -28.3394  -26.5382   20.1596 O   0  0  0  0  0  0
  -26.5557  -34.8928   22.4660 O   0  0  0  0  0  0
  -23.5393  -32.1399   23.7431 O   0  0  0  0  0  0
  -31.4410  -19.9775   22.9675 C   0  0  0  0  0  0
  -30.0779  -19.2102   20.6436 C   0  0  0  0  0  0
  -31.4419  -18.6201   22.5832 C   0  0  0  0  0  0
  -30.7351  -18.2044   21.4225 C   0  0  0  0  0  0
  -30.8017  -20.9645   22.1840 C   0  0  0  0  0  0
  -30.1250  -20.5966   20.9968 C   0  0  0  0  0  0
  -32.0226  -16.9372   24.3468 C   0  0  0  0  0  0
  -32.3517  -17.6938   23.2906 C   0  0  0  0  0  0
  -30.9296  -16.7744   20.9821 C   0  0  0  0  0  0
  -29.1388  -24.0973   20.3138 C   0  0  0  0  0  0
  -32.1382  -22.8343   22.7606 C   0  0  0  0  0  0
  -28.0414  -25.1700   20.6018 C   0  0  0  0  0  0
  -28.7590  -22.6114   20.6395 C   0  0  0  0  0  0
  -30.1494  -15.7325   20.9437 N   0  0  0  0  0  0
  -30.2469  -24.4067   19.8614 O   0  0  0  0  0  0
  -30.8472  -22.2942   22.5249 O   0  0  0  0  0  0
  -29.6576  -21.5876   20.1288 O   0  0  0  0  0  0
  -31.4484  -12.3180   19.1903 H   0  0  0  0  0  0
  -30.2360  -11.3437   19.9416 H   0  0  0  0  0  0
  -29.7517  -11.7311   17.4901 H   0  0  0  0  0  0
  -29.6863  -13.4572   17.7678 H   0  0  0  0  0  0
  -27.8338  -11.3159   18.8613 H   0  0  0  0  0  0
  -27.3791  -12.6075   17.7868 H   0  0  0  0  0  0
  -27.6661  -14.2710   19.5130 H   0  0  0  0  0  0
  -28.6786  -12.1548   21.4663 H   0  0  0  0  0  0
  -28.4682  -13.8563   21.7838 H   0  0  0  0  0  0
  -25.2817   -9.5684   22.4761 H   0  0  0  0  0  0
  -23.9988   -7.4669   22.7470 H   0  0  0  0  0  0
  -21.0881   -8.8880   19.8938 H   0  0  0  0  0  0
  -22.3797  -10.9732   19.6149 H   0  0  0  0  0  0
  -21.2004   -7.6160   23.9717 H   0  0  0  0  0  0
  -21.1478   -6.0517   25.9074 H   0  0  0  0  0  0
  -22.0584   -2.7611   23.2847 H   0  0  0  0  0  0
  -22.4128  -11.9761   22.4678 H   0  0  0  0  0  0
  -21.1217  -13.1219   22.2729 H   0  0  0  0  0  0
  -24.6605  -15.8536   20.5371 H   0  0  0  0  0  0
  -26.2935  -15.6383   20.1477 H   0  0  0  0  0  0
  -26.7171  -32.5452   23.1169 H   0  0  0  0  0  0
  -25.0227  -33.9786   25.0559 H   0  0  0  0  0  0
  -22.7048  -31.3066   21.4023 H   0  0  0  0  0  0
  -23.3748  -35.9608   23.3331 H   0  0  0  0  0  0
  -24.3588  -36.8849   22.2045 H   0  0  0  0  0  0
  -23.7261  -37.6508   23.6623 H   0  0  0  0  0  0
  -26.0901  -31.5807   20.6157 H   0  0  0  0  0  0
  -26.8336  -30.8554   22.0038 H   0  0  0  0  0  0
  -28.1073  -29.0262   21.1997 H   0  0  0  0  0  0
  -26.0215  -26.0038   18.9199 H   0  0  0  0  0  0
  -24.0019  -27.3639   18.9243 H   0  0  0  0  0  0
  -23.7499  -30.6088   19.3988 H   0  0  0  0  0  0
  -22.7564  -29.2533   19.8447 H   0  0  0  0  0  0
  -25.1293  -36.1928   25.0854 H   0  0  0  0  0  0
  -21.0030  -28.3212   24.1424 H   0  0  0  0  0  0
  -20.5710  -26.2268   23.3619 H   0  0  0  0  0  0
  -21.6648  -26.7428   22.1179 H   0  0  0  0  0  0
  -19.6877  -25.6304   21.1255 H   0  0  0  0  0  0
  -19.6681  -27.3221   20.6784 H   0  0  0  0  0  0
  -17.4214  -26.6770   21.4022 H   0  0  0  0  0  0
  -18.0278  -26.0096   22.9036 H   0  0  0  0  0  0
  -19.7921  -30.7327   24.2257 H   0  0  0  0  0  0
  -17.4983  -31.6259   24.5178 H   0  0  0  0  0  0
  -15.5345  -30.2959   23.7640 H   0  0  0  0  0  0
  -15.8721  -28.0822   22.7016 H   0  0  0  0  0  0
  -24.5986  -30.6996   25.7844 H   0  0  0  0  0  0
  -24.8903  -32.2867   26.4871 H   0  0  0  0  0  0
  -25.8150  -30.8952   27.0287 H   0  0  0  0  0  0
  -26.2857  -29.6823   24.1181 H   0  0  0  0  0  0
  -27.4062  -29.7259   25.4619 H   0  0  0  0  0  0
  -27.8756  -30.4361   23.9371 H   0  0  0  0  0  0
  -27.2715  -33.3640   26.2053 H   0  0  0  0  0  0
  -28.3906  -32.6806   25.0333 H   0  0  0  0  0  0
  -28.0745  -31.8460   26.5439 H   0  0  0  0  0  0
  -28.2582  -38.0083   24.7497 H   0  0  0  0  0  0
  -28.1067  -36.2628   24.6312 H   0  0  0  0  0  0
  -27.2315  -37.1458   25.8879 H   0  0  0  0  0  0
  -20.9373  -29.8789   21.6956 H   0  0  0  0  0  0
  -26.0151  -38.2865   24.1400 H   0  0  0  0  0  0
  -31.9872  -20.2616   23.8565 H   0  0  0  0  0  0
  -29.5932  -18.9187   19.7236 H   0  0  0  0  0  0
  -32.7361  -16.2474   24.7734 H   0  0  0  0  0  0
  -31.0443  -16.9867   24.7984 H   0  0  0  0  0  0
  -33.3548  -17.6133   22.8909 H   0  0  0  0  0  0
  -31.9996  -16.6585   20.7589 H   0  0  0  0  0  0
  -32.7446  -22.8118   21.8543 H   0  0  0  0  0  0
  -32.6716  -22.3206   23.5588 H   0  0  0  0  0  0
  -32.0379  -23.8797   23.0574 H   0  0  0  0  0  0
  -27.8661  -25.1917   21.6801 H   0  0  0  0  0  0
  -27.1245  -24.7883   20.1536 H   0  0  0  0  0  0
  -27.8044  -22.4147   20.1557 H   0  0  0  0  0  0
  -28.5941  -22.5181   21.7111 H   0  0  0  0  0  0
  1 25  1  0  0  0
  1 30  2  0  0  0
  1 84  1  0  0  0
  2  3  1  0  0  0
  2 25  1  0  0  0
  2 88  1  0  0  0
  2 89  1  0  0  0
  3  4  1  0  0  0
  3 90  1  0  0  0
  3 91  1  0  0  0
  4  5  1  0  0  0
  4 92  1  0  0  0
  4 93  1  0  0  0
  5  6  1  0  0  0
  5 26  1  0  0  0
  5 94  1  0  0  0
  6 25  1  0  0  0
  6 95  1  0  0  0
  6 96  1  0  0  0
  7  8  2  0  0  0
  7 26  1  0  0  0
  7 29  1  0  0  0
  8  9  1  0  0  0
  8 22  1  0  0  0
  9 10  1  0  0  0
  9 27  2  0  0  0
 10 11  2  0  0  0
 10 15  1  0  0  0
 11 12  1  0  0  0
 11 97  1  0  0  0
 12 13  2  0  0  0
 12 98  1  0  0  0
 13 14  1  0  0  0
 13 31  1  0  0  0
 14 15  2  0  0  0
 14 99  1  0  0  0
 15100  1  0  0  0
 16 17  2  0  0  0
 16 21  1  0  0  0
 16 31  1  0  0  0
 17 18  1  0  0  0
 17101  1  0  0  0
 18 19  2  0  0  0
 18102  1  0  0  0
 19 20  1  0  0  0
 19 24  1  0  0  0
 20 21  2  0  0  0
 20103  1  0  0  0
 21 23  1  0  0  0
 22 28  1  0  0  0
 22 32  2  0  0  0
 26 27  1  0  0  0
 28104  1  0  0  0
 28105  1  0  0  0
 29106  1  0  0  0
 29107  1  0  0  0
 33 34  1  0  0  0
 33 66  1  0  0  0
 33 70  2  0  0  0
 34 36  1  0  0  0
 34 59  1  0  0  0
 34108  1  0  0  0
 35 44  2  0  0  0
 35 45  1  0  0  0
 35 68  1  0  0  0
 36 56  1  0  0  0
 36109  1  0  0  0
 37 39  1  0  0  0
 37 47  1  0  0  0
 37 66  1  0  0  0
 37110  1  0  0  0
 38 43  2  0  0  0
 38 46  1  0  0  0
 38 47  1  0  0  0
 39 64  1  0  0  0
 39 67  2  0  0  0
 40 52  1  0  0  0
 40 53  2  0  0  0
 40 58  1  0  0  0
 41111  1  0  0  0
 41112  1  0  0  0
 41113  1  0  0  0
 41 48  1  0  0  0
 42 43  1  0  0  0
 42 66  1  0  0  0
 42114  1  0  0  0
 42115  1  0  0  0
 43 44  1  0  0  0
 44116  1  0  0  0
 45 46  2  0  0  0
 45117  1  0  0  0
 46118  1  0  0  0
 47119  1  0  0  0
 47120  1  0  0  0
 48 56  1  0  0  0
 48 65  1  0  0  0
 48121  1  0  0  0
 49 50  1  0  0  0
 49 53  1  0  0  0
 49 64  1  0  0  0
 49122  1  0  0  0
 50 51  1  0  0  0
 50123  1  0  0  0
 50124  1  0  0  0
 51 52  1  0  0  0
 51125  1  0  0  0
 51126  1  0  0  0
 52127  1  0  0  0
 52128  1  0  0  0
 53 54  1  0  0  0
 54 55  2  0  0  0
 54129  1  0  0  0
 55 57  1  0  0  0
 55130  1  0  0  0
 56 69  2  0  0  0
 57 58  2  0  0  0
 57131  1  0  0  0
 58132  1  0  0  0
 59 60  1  0  0  0
 59 61  1  0  0  0
 59 62  1  0  0  0
 60133  1  0  0  0
 60134  1  0  0  0
 60135  1  0  0  0
 61136  1  0  0  0
 61137  1  0  0  0
 61138  1  0  0  0
 62139  1  0  0  0
 62140  1  0  0  0
 62141  1  0  0  0
 63 65  1  0  0  0
 63142  1  0  0  0
 63143  1  0  0  0
 63144  1  0  0  0
 64145  1  0  0  0
 65146  1  0  0  0
 68 82  1  0  0  0
 71 73  2  0  0  0
 71 75  1  0  0  0
 71147  1  0  0  0
 72 74  2  0  0  0
 72 76  1  0  0  0
 72148  1  0  0  0
 73 74  1  0  0  0
 73 78  1  0  0  0
 74 79  1  0  0  0
 75 76  2  0  0  0
 75 86  1  0  0  0
 76 87  1  0  0  0
 77 78  2  0  0  0
 77149  1  0  0  0
 77150  1  0  0  0
 78151  1  0  0  0
 79 84  2  0  0  0
 79152  1  0  0  0
 80 82  1  0  0  0
 80 83  1  0  0  0
 80 85  2  0  0  0
 81 86  1  0  0  0
 81153  1  0  0  0
 81154  1  0  0  0
 81155  1  0  0  0
 82156  1  0  0  0
 82157  1  0  0  0
 83 87  1  0  0  0
 83158  1  0  0  0
 83159  1  0  0  0
M  ISO  4   1 100  68 101  82 101  84 100
M  END
> <chiral flag>
0

> <version>
0

> <s_m_source_file>
/data/baiqing/PycharmProjects/Reinvent-master-3.2/result/LINK_invent/BTK/process_docking_weight1_custom_product_contain_oxygen_bond_distance_aromatic_linkinvent_7_9_3/rearranged_h_0117.sdf

> <i_m_source_file_index>
49

> <r_mmod_Potential_Energy-OPLS-2005>
167.040588378906

> <r_mmod_Stretch_Energy-OPLS-2005>
65.4703674316406

> <r_mmod_Bend_Energy-OPLS-2005>
133.061050415039

> <r_mmod_Torsional_Energy-OPLS-2005>
279.776885986328

> <r_mmod_Improper_Torsional_Energy-OPLS-2005>
6.2970290184021

> <r_mmod_Van_der_Waal_Energy-OPLS-2005>
178.190200805664

> <r_mmod_Electrostatic_Energy-OPLS-2005>
-318.648376464844

> <r_mmod_Solvation_Energy-OPLS-2005>
-214.969985961914

> <b_mmod_Minimization_Converged-OPLS-2005>
0

> <r_mmod_RMS_Derivative-OPLS-2005>
6.28107500076294

$$$$
49
                    3D
 Structure written by MMmdl.
163171  0  0  1  0            999 V2000
  -30.6561  -14.6654   20.3674 C   0  0  0  0  0  0
  -30.4295  -12.3913   19.4293 C   0  0  0  0  0  0
  -29.4829  -12.4459   18.2118 C   0  0  0  0  0  0
  -28.0108  -12.3249   18.6516 C   0  0  0  0  0  0
  -27.6444  -13.2034   19.8816 C   0  0  2  0  0  0
  -28.7139  -13.1316   20.9774 C   0  0  0  0  0  0
  -25.2632  -13.8107   20.6112 C   0  0  0  0  0  0
  -24.1796  -13.0371   20.9277 C   0  0  0  0  0  0
  -24.6353  -11.6847   20.8813 C   0  0  0  0  0  0
  -23.9049  -10.4236   21.0437 C   0  0  0  0  0  0
  -24.3632   -9.4160   21.9194 C   0  0  0  0  0  0
  -23.6293   -8.2208   22.0755 C   0  0  0  0  0  0
  -22.4272   -8.0273   21.3538 C   0  0  0  0  0  0
  -21.9915   -9.0251   20.4650 C   0  0  0  0  0  0
  -22.7247  -10.2116   20.3068 C   0  0  0  0  0  0
  -21.6840   -6.0734   22.5273 C   0  0  0  0  0  0
  -21.3973   -6.5636   23.8208 C   0  0  0  0  0  0
  -21.3653   -5.6790   24.9179 C   0  0  0  0  0  0
  -21.6055   -4.3052   24.7224 C   0  0  0  0  0  0
  -21.8823   -3.8145   23.4342 C   0  0  0  0  0  0
  -21.9190   -4.6961   22.3402 C   0  0  0  0  0  0
  -22.7841  -13.5254   21.1824 C   0  0  0  0  0  0
  -22.1664   -4.2153   21.0975 F   0  0  0  0  0  0
  -21.5666   -3.4539   25.7733 F   0  0  0  0  0  0
  -30.0003  -13.4608   20.3480 N   0  0  0  0  0  0
  -26.2996  -12.9245   20.3638 N   0  0  0  0  0  0
  -25.9291  -11.6401   20.5896 N   0  0  0  0  0  0
  -22.0452  -12.8227   22.0353 N   0  0  0  0  0  0
  -25.4392  -15.1816   20.5106 N   0  0  0  0  0  0
  -31.8874  -14.6929   20.4138 O   0  0  0  0  0  0
  -21.6614   -6.8877   21.4239 O   0  0  0  0  0  0
  -22.3586  -14.5554   20.6649 O   0  0  0  0  0  0
  -24.6213  -31.8611   23.2037 C   0  0  0  0  0  0
  -25.9054  -32.4805   23.8363 C   0  0  1  0  0  0
  -27.2423  -27.3546   20.1282 C   0  0  0  0  0  0
  -25.5894  -33.8613   24.2291 N   0  0  0  0  0  0
  -23.4132  -30.4821   21.5461 C   0  0  2  0  0  0
  -24.8640  -28.9346   20.1103 C   0  0  0  0  0  0
  -22.7448  -29.4636   22.4987 C   0  0  0  0  0  0
  -18.0283  -28.1408   22.8512 C   0  0  0  0  0  0
  -24.1491  -36.7307   23.2642 C   0  0  0  0  0  0
  -25.9507  -30.8039   21.3657 C   0  0  0  0  0  0
  -26.0276  -29.4357   20.7066 C   0  0  0  0  0  0
  -27.2179  -28.6597   20.7007 C   0  0  0  0  0  0
  -26.0553  -26.8841   19.5196 C   0  0  0  0  0  0
  -24.8798  -27.6645   19.5068 C   0  0  0  0  0  0
  -23.6228  -29.8063   20.1630 C   0  0  0  0  0  0
  -25.4110  -36.3107   24.0327 C   0  0  1  0  0  0
  -20.5883  -28.3737   23.1432 C   0  0  2  0  0  0
  -20.6781  -26.9415   22.5659 C   0  0  0  0  0  0
  -19.5871  -26.6515   21.5306 C   0  0  0  0  0  0
  -18.2000  -26.7951   22.1635 C   0  0  0  0  0  0
  -19.1525  -28.8887   23.2958 C   0  0  0  0  0  0
  -18.9447  -30.1506   23.8923 C   0  0  0  0  0  0
  -17.6426  -30.6604   24.0558 C   0  0  0  0  0  0
  -25.9036  -34.9473   23.5121 C   0  0  0  0  0  0
  -16.5321  -29.9082   23.6319 C   0  0  0  0  0  0
  -16.7256  -28.6501   23.0323 C   0  0  0  0  0  0
  -26.4464  -31.6612   25.0730 C   0  0  0  0  0  0
  -25.3713  -31.3732   26.1472 C   0  0  0  0  0  0
  -27.0297  -30.3043   24.6154 C   0  0  0  0  0  0
  -27.6032  -32.4351   25.7499 C   0  0  0  0  0  0
  -27.5579  -37.1809   24.8463 C   0  0  0  0  0  0
  -21.4154  -29.3143   22.3856 N   0  0  0  0  0  0
  -26.4295  -37.3776   23.9417 N   0  0  0  0  0  0
  -24.6817  -31.0616   22.0990 N   0  0  0  0  0  0
  -23.4191  -28.8108   23.2985 O   0  0  0  0  0  0
  -28.3998  -26.5754   20.1711 O   0  0  0  0  0  0
  -26.5611  -34.8917   22.4702 O   0  0  0  0  0  0
  -23.5384  -32.1433   23.7359 O   0  0  0  0  0  0
  -29.8181  -18.1751   20.5564 C   0  0  0  0  0  0
  -27.0882  -18.2075   20.0546 C   0  0  0  0  0  0
  -29.2326  -17.0133   19.9324 C   0  0  0  0  0  0
  -27.8971  -17.2175   19.4517 C   0  0  0  0  0  0
  -29.0668  -19.3723   20.8281 C   0  0  0  0  0  0
  -27.6606  -19.2658   20.7793 C   0  0  0  0  0  0
  -29.5661  -24.4189   20.7538 C   0  0  0  0  0  0
  -29.9171  -23.0968   20.8447 C   0  0  0  0  0  0
  -30.0584  -15.8078   19.4547 C   0  0  0  0  0  0
  -25.9817  -16.9852   17.6744 C   0  0  0  0  0  0
  -25.7303  -19.7756   22.0567 C   0  0  0  0  0  0
  -27.3964  -16.5874   18.1350 C   0  0  0  0  0  0
  -28.2852  -25.1138   20.2280 C   0  0  0  0  0  0
  -29.1799  -21.8012   20.4523 C   0  0  0  0  0  0
  -30.3398  -15.7723   18.2217 N   0  0  0  0  0  0
  -26.8820  -20.2359   21.3635 O   0  0  0  0  0  0
  -29.6589  -20.6013   21.1567 O   0  0  0  0  0  0
  -31.4635  -12.5203   19.1047 H   0  0  0  0  0  0
  -30.3830  -11.4181   19.9200 H   0  0  0  0  0  0
  -29.7280  -11.6499   17.5091 H   0  0  0  0  0  0
  -29.6199  -13.3747   17.6611 H   0  0  0  0  0  0
  -27.8449  -11.2773   18.8964 H   0  0  0  0  0  0
  -27.3456  -12.5465   17.8189 H   0  0  0  0  0  0
  -27.6394  -14.2362   19.5839 H   0  0  0  0  0  0
  -28.7432  -12.1346   21.4182 H   0  0  0  0  0  0
  -28.4891  -13.8167   21.7953 H   0  0  0  0  0  0
  -25.2797   -9.5604   22.4745 H   0  0  0  0  0  0
  -24.0014   -7.4588   22.7447 H   0  0  0  0  0  0
  -21.0861   -8.8778   19.8940 H   0  0  0  0  0  0
  -22.3758  -10.9675   19.6174 H   0  0  0  0  0  0
  -21.1917   -7.6135   23.9706 H   0  0  0  0  0  0
  -21.1485   -6.0515   25.9078 H   0  0  0  0  0  0
  -22.0606   -2.7609   23.2831 H   0  0  0  0  0  0
  -22.4160  -11.9917   22.4681 H   0  0  0  0  0  0
  -21.1036  -13.1163   22.2524 H   0  0  0  0  0  0
  -24.6858  -15.8274   20.7148 H   0  0  0  0  0  0
  -26.3212  -15.6457   20.3419 H   0  0  0  0  0  0
  -26.7120  -32.5468   23.1096 H   0  0  0  0  0  0
  -25.0022  -33.9795   25.0421 H   0  0  0  0  0  0
  -22.7096  -31.3056   21.4039 H   0  0  0  0  0  0
  -23.3747  -35.9646   23.3308 H   0  0  0  0  0  0
  -24.3563  -36.8926   22.2056 H   0  0  0  0  0  0
  -23.7242  -37.6509   23.6654 H   0  0  0  0  0  0
  -26.0752  -31.5698   20.5995 H   0  0  0  0  0  0
  -26.8352  -30.8547   21.9897 H   0  0  0  0  0  0
  -28.1200  -29.0504   21.1529 H   0  0  0  0  0  0
  -26.0228  -25.9083   19.0516 H   0  0  0  0  0  0
  -23.9844  -27.2768   19.0413 H   0  0  0  0  0  0
  -23.7319  -30.5792   19.4019 H   0  0  0  0  0  0
  -22.7428  -29.2272   19.8737 H   0  0  0  0  0  0
  -25.1293  -36.1966   25.0809 H   0  0  0  0  0  0
  -20.9910  -28.3367   24.1559 H   0  0  0  0  0  0
  -20.5430  -26.2418   23.3929 H   0  0  0  0  0  0
  -21.6684  -26.7318   22.1613 H   0  0  0  0  0  0
  -19.7086  -25.6513   21.1170 H   0  0  0  0  0  0
  -19.6962  -27.3510   20.6999 H   0  0  0  0  0  0
  -17.4363  -26.6654   21.3954 H   0  0  0  0  0  0
  -18.0399  -26.0008   22.8973 H   0  0  0  0  0  0
  -19.7882  -30.7372   24.2380 H   0  0  0  0  0  0
  -17.4958  -31.6265   24.5153 H   0  0  0  0  0  0
  -15.5334  -30.3001   23.7647 H   0  0  0  0  0  0
  -15.8662  -28.0810   22.7002 H   0  0  0  0  0  0
  -24.5873  -30.7098   25.7796 H   0  0  0  0  0  0
  -24.8916  -32.2898   26.4924 H   0  0  0  0  0  0
  -25.8041  -30.8891   27.0237 H   0  0  0  0  0  0
  -26.2859  -29.6819   24.1167 H   0  0  0  0  0  0
  -27.4002  -29.7261   25.4631 H   0  0  0  0  0  0
  -27.8725  -30.4346   23.9357 H   0  0  0  0  0  0
  -27.2630  -33.3632   26.2096 H   0  0  0  0  0  0
  -28.3811  -32.6952   25.0313 H   0  0  0  0  0  0
  -28.0730  -31.8483   26.5398 H   0  0  0  0  0  0
  -28.2608  -38.0100   24.7509 H   0  0  0  0  0  0
  -28.1071  -36.2634   24.6296 H   0  0  0  0  0  0
  -27.2299  -37.1461   25.8866 H   0  0  0  0  0  0
  -20.9300  -29.9032   21.7247 H   0  0  0  0  0  0
  -26.0188  -38.2863   24.1394 H   0  0  0  0  0  0
  -30.8863  -18.1857   20.7219 H   0  0  0  0  0  0
  -26.0294  -18.2648   19.8475 H   0  0  0  0  0  0
  -30.3115  -25.1185   21.1104 H   0  0  0  0  0  0
  -30.8986  -22.8918   21.2499 H   0  0  0  0  0  0
  -25.9165  -18.0457   17.4315 H   0  0  0  0  0  0
  -25.2314  -16.7799   18.4328 H   0  0  0  0  0  0
  -25.6935  -16.4236   16.7878 H   0  0  0  0  0  0
  -25.9239  -18.8463   22.5972 H   0  0  0  0  0  0
  -24.8872  -19.6242   21.3818 H   0  0  0  0  0  0
  -25.4462  -20.5199   22.7956 H   0  0  0  0  0  0
  -28.0725  -16.9511   17.3625 H   0  0  0  0  0  0
  -27.5129  -15.5148   18.0686 H   0  0  0  0  0  0
  -27.4659  -24.8306   20.8900 H   0  0  0  0  0  0
  -28.0545  -24.7131   19.2401 H   0  0  0  0  0  0
  -28.1206  -22.0029   20.5750 H   0  0  0  0  0  0
  -29.3410  -21.6459   19.3861 H   0  0  0  0  0  0
  -29.9128  -16.5603   17.7528 H   0  0  0  0  0  0
  1 25  1  0  0  0
  1 30  2  0  0  0
  1 79  1  0  0  0
  2  3  1  0  0  0
  2 25  1  0  0  0
  2 88  1  0  0  0
  2 89  1  0  0  0
  3  4  1  0  0  0
  3 90  1  0  0  0
  3 91  1  0  0  0
  4  5  1  0  0  0
  4 92  1  0  0  0
  4 93  1  0  0  0
  5  6  1  0  0  0
  5 26  1  0  0  0
  5 94  1  0  0  0
  6 25  1  0  0  0
  6 95  1  0  0  0
  6 96  1  0  0  0
  7  8  2  0  0  0
  7 26  1  0  0  0
  7 29  1  0  0  0
  8  9  1  0  0  0
  8 22  1  0  0  0
  9 10  1  0  0  0
  9 27  2  0  0  0
 10 11  2  0  0  0
 10 15  1  0  0  0
 11 12  1  0  0  0
 11 97  1  0  0  0
 12 13  2  0  0  0
 12 98  1  0  0  0
 13 14  1  0  0  0
 13 31  1  0  0  0
 14 15  2  0  0  0
 14 99  1  0  0  0
 15100  1  0  0  0
 16 17  2  0  0  0
 16 21  1  0  0  0
 16 31  1  0  0  0
 17 18  1  0  0  0
 17101  1  0  0  0
 18 19  2  0  0  0
 18102  1  0  0  0
 19 20  1  0  0  0
 19 24  1  0  0  0
 20 21  2  0  0  0
 20103  1  0  0  0
 21 23  1  0  0  0
 22 28  1  0  0  0
 22 32  2  0  0  0
 26 27  1  0  0  0
 28104  1  0  0  0
 28105  1  0  0  0
 29106  1  0  0  0
 29107  1  0  0  0
 33 34  1  0  0  0
 33 66  1  0  0  0
 33 70  2  0  0  0
 34 36  1  0  0  0
 34 59  1  0  0  0
 34108  1  0  0  0
 35 44  2  0  0  0
 35 45  1  0  0  0
 35 68  1  0  0  0
 36 56  1  0  0  0
 36109  1  0  0  0
 37 39  1  0  0  0
 37 47  1  0  0  0
 37 66  1  0  0  0
 37110  1  0  0  0
 38 43  2  0  0  0
 38 46  1  0  0  0
 38 47  1  0  0  0
 39 64  1  0  0  0
 39 67  2  0  0  0
 40 52  1  0  0  0
 40 53  2  0  0  0
 40 58  1  0  0  0
 41111  1  0  0  0
 41112  1  0  0  0
 41113  1  0  0  0
 41 48  1  0  0  0
 42 43  1  0  0  0
 42 66  1  0  0  0
 42114  1  0  0  0
 42115  1  0  0  0
 43 44  1  0  0  0
 44116  1  0  0  0
 45 46  2  0  0  0
 45117  1  0  0  0
 46118  1  0  0  0
 47119  1  0  0  0
 47120  1  0  0  0
 48 56  1  0  0  0
 48 65  1  0  0  0
 48121  1  0  0  0
 49 50  1  0  0  0
 49 53  1  0  0  0
 49 64  1  0  0  0
 49122  1  0  0  0
 50 51  1  0  0  0
 50123  1  0  0  0
 50124  1  0  0  0
 51 52  1  0  0  0
 51125  1  0  0  0
 51126  1  0  0  0
 52127  1  0  0  0
 52128  1  0  0  0
 53 54  1  0  0  0
 54 55  2  0  0  0
 54129  1  0  0  0
 55 57  1  0  0  0
 55130  1  0  0  0
 56 69  2  0  0  0
 57 58  2  0  0  0
 57131  1  0  0  0
 58132  1  0  0  0
 59 60  1  0  0  0
 59 61  1  0  0  0
 59 62  1  0  0  0
 60133  1  0  0  0
 60134  1  0  0  0
 60135  1  0  0  0
 61136  1  0  0  0
 61137  1  0  0  0
 61138  1  0  0  0
 62139  1  0  0  0
 62140  1  0  0  0
 62141  1  0  0  0
 63 65  1  0  0  0
 63142  1  0  0  0
 63143  1  0  0  0
 63144  1  0  0  0
 64145  1  0  0  0
 65146  1  0  0  0
 68 83  1  0  0  0
 71 73  2  0  0  0
 71 75  1  0  0  0
 71147  1  0  0  0
 72 74  2  0  0  0
 72 76  1  0  0  0
 72148  1  0  0  0
 73 74  1  0  0  0
 73 79  1  0  0  0
 74 82  1  0  0  0
 75 76  2  0  0  0
 75 87  1  0  0  0
 76 86  1  0  0  0
 77 78  2  0  0  0
 77 83  1  0  0  0
 77149  1  0  0  0
 78 84  1  0  0  0
 78150  1  0  0  0
 79 85  2  0  0  0
 80 82  1  0  0  0
 80151  1  0  0  0
 80152  1  0  0  0
 80153  1  0  0  0
 81 86  1  0  0  0
 81154  1  0  0  0
 81155  1  0  0  0
 81156  1  0  0  0
 82157  1  0  0  0
 82158  1  0  0  0
 83159  1  0  0  0
 83160  1  0  0  0
 84 87  1  0  0  0
 84161  1  0  0  0
 84162  1  0  0  0
 85163  1  0  0  0
M  ISO  4   1 100  68 101  79 100  83 101
M  END
> <chiral flag>
0

> <version>
0

> <s_m_source_file>
/data/baiqing/PycharmProjects/Reinvent-master-3.2/result/LINK_invent/BTK/process_docking_weight1_custom_product_contain_oxygen_bond_distance_aromatic_linkinvent_7_9_3/rearranged_h_0117.sdf

> <i_m_source_file_index>
50

> <r_mmod_Potential_Energy-OPLS-2005>
443.349334716797

> <r_mmod_Stretch_Energy-OPLS-2005>
81.0299682617188

> <r_mmod_Bend_Energy-OPLS-2005>
160.733428955078

> <r_mmod_Torsional_Energy-OPLS-2005>
378.717529296875

> <r_mmod_Improper_Torsional_Energy-OPLS-2005>
37.2851371765137

> <r_mmod_Van_der_Waal_Energy-OPLS-2005>
154.137542724609

> <r_mmod_Electrostatic_Energy-OPLS-2005>
-233.51741027832

> <r_mmod_Solvation_Energy-OPLS-2005>
-201.572387695312

> <b_mmod_Minimization_Converged-OPLS-2005>
0

> <r_mmod_RMS_Derivative-OPLS-2005>
6.6820855140686

$$$$
50
                    3D
 Structure written by MMmdl.
154162  0  0  1  0            999 V2000
  -30.6007  -14.7618   20.4176 C   0  0  0  0  0  0
  -30.4418  -12.4405   19.4988 C   0  0  0  0  0  0
  -29.5232  -12.4187   18.2557 C   0  0  0  0  0  0
  -28.0380  -12.3114   18.6560 C   0  0  0  0  0  0
  -27.6437  -13.2296   19.8451 C   0  0  2  0  0  0
  -28.6856  -13.1784   20.9835 C   0  0  0  0  0  0
  -25.2524  -13.8204   20.5683 C   0  0  0  0  0  0
  -24.1812  -13.0452   20.9208 C   0  0  0  0  0  0
  -24.6399  -11.6930   20.8758 C   0  0  0  0  0  0
  -23.9075  -10.4303   21.0415 C   0  0  0  0  0  0
  -24.3625   -9.4212   21.9188 C   0  0  0  0  0  0
  -23.6299   -8.2247   22.0754 C   0  0  0  0  0  0
  -22.4280   -8.0286   21.3544 C   0  0  0  0  0  0
  -21.9919   -9.0262   20.4647 C   0  0  0  0  0  0
  -22.7249  -10.2142   20.3060 C   0  0  0  0  0  0
  -21.6856   -6.0738   22.5279 C   0  0  0  0  0  0
  -21.4016   -6.5641   23.8212 C   0  0  0  0  0  0
  -21.3660   -5.6793   24.9174 C   0  0  0  0  0  0
  -21.6045   -4.3055   24.7224 C   0  0  0  0  0  0
  -21.8819   -3.8148   23.4345 C   0  0  0  0  0  0
  -21.9193   -4.6965   22.3402 C   0  0  0  0  0  0
  -22.7831  -13.5231   21.1866 C   0  0  0  0  0  0
  -22.1660   -4.2151   21.0979 F   0  0  0  0  0  0
  -21.5630   -3.4538   25.7736 F   0  0  0  0  0  0
  -29.9880  -13.5254   20.4023 N   0  0  0  0  0  0
  -26.2949  -12.9409   20.3258 N   0  0  0  0  0  0
  -25.9329  -11.6559   20.5775 N   0  0  0  0  0  0
  -22.0474  -12.8221   22.0421 N   0  0  0  0  0  0
  -25.4213  -15.1927   20.4091 N   0  0  0  0  0  0
  -31.7954  -14.8454   20.1138 O   0  0  0  0  0  0
  -21.6643   -6.8882   21.4240 O   0  0  0  0  0  0
  -22.3512  -14.5532   20.6708 O   0  0  0  0  0  0
  -24.6304  -31.8556   23.1992 C   0  0  0  0  0  0
  -25.9135  -32.4754   23.8333 C   0  0  1  0  0  0
  -27.2203  -27.2646   20.1337 C   0  0  0  0  0  0
  -25.5932  -33.8557   24.2255 N   0  0  0  0  0  0
  -23.4270  -30.4786   21.5415 C   0  0  2  0  0  0
  -24.8753  -28.9284   20.1073 C   0  0  0  0  0  0
  -22.7499  -29.4605   22.4905 C   0  0  0  0  0  0
  -18.0293  -28.1388   22.8487 C   0  0  0  0  0  0
  -24.1491  -36.7285   23.2640 C   0  0  0  0  0  0
  -25.9725  -30.7698   21.3798 C   0  0  0  0  0  0
  -26.0449  -29.3930   20.7215 C   0  0  0  0  0  0
  -27.2180  -28.5728   20.7256 C   0  0  0  0  0  0
  -26.0321  -26.8764   19.4723 C   0  0  0  0  0  0
  -24.8745  -27.6785   19.4708 C   0  0  0  0  0  0
  -23.6453  -29.8141   20.1566 C   0  0  0  0  0  0
  -25.4117  -36.3068   24.0325 C   0  0  1  0  0  0
  -20.5897  -28.3701   23.1268 C   0  0  2  0  0  0
  -20.6781  -26.9417   22.5409 C   0  0  0  0  0  0
  -19.5755  -26.6385   21.5215 C   0  0  0  0  0  0
  -18.1936  -26.7931   22.1627 C   0  0  0  0  0  0
  -19.1547  -28.8861   23.2873 C   0  0  0  0  0  0
  -18.9467  -30.1462   23.8892 C   0  0  0  0  0  0
  -17.6466  -30.6588   24.0564 C   0  0  0  0  0  0
  -25.9057  -34.9438   23.5093 C   0  0  0  0  0  0
  -16.5357  -29.9085   23.6332 C   0  0  0  0  0  0
  -16.7280  -28.6503   23.0353 C   0  0  0  0  0  0
  -26.4504  -31.6579   25.0722 C   0  0  0  0  0  0
  -25.3725  -31.3731   26.1440 C   0  0  0  0  0  0
  -27.0355  -30.2993   24.6216 C   0  0  0  0  0  0
  -27.6053  -32.4324   25.7499 C   0  0  0  0  0  0
  -27.5579  -37.1798   24.8465 C   0  0  0  0  0  0
  -21.4207  -29.3045   22.3651 N   0  0  0  0  0  0
  -26.4292  -37.3766   23.9406 N   0  0  0  0  0  0
  -24.6954  -31.0527   22.0964 N   0  0  0  0  0  0
  -23.4202  -28.8148   23.3006 O   0  0  0  0  0  0
  -28.3148  -26.3710   20.2263 O   0  0  0  0  0  0
  -26.5630  -34.8913   22.4663 O   0  0  0  0  0  0
  -23.5456  -32.1380   23.7288 O   0  0  0  0  0  0
  -30.0035  -18.5197   17.8609 C   0  0  0  0  0  0
  -29.8180  -19.7139   18.5596 C   0  0  0  0  0  0
  -29.9649  -17.2794   18.5262 C   0  0  0  0  0  0
  -29.5994  -19.6971   19.9440 C   0  0  0  0  0  0
  -29.8473  -17.2394   19.9495 C   0  0  0  0  0  0
  -30.7364  -15.9103   16.5707 C   0  0  0  0  0  0
  -29.9929  -16.0791   17.6780 C   0  0  0  0  0  0
  -29.3592  -21.0717   20.6179 C   0  0  0  0  0  0
  -29.1643  -22.3165   20.0226 C   0  0  0  0  0  0
  -29.0667  -23.7791   20.6438 C   0  0  0  0  0  0
  -28.1256  -24.9017   19.9597 C   0  0  0  0  0  0
  -29.6294  -18.4627   20.6064 N   0  0  0  0  0  0
  -29.8156  -15.8983   20.6074 N   0  0  0  0  0  0
  -31.4810  -12.5657   19.1898 H   0  0  0  0  0  0
  -30.4024  -11.4821   20.0190 H   0  0  0  0  0  0
  -29.7878  -11.5703   17.6231 H   0  0  0  0  0  0
  -29.6951  -13.2916   17.6354 H   0  0  0  0  0  0
  -27.8623  -11.2705   18.9290 H   0  0  0  0  0  0
  -27.3976  -12.5071   17.7951 H   0  0  0  0  0  0
  -27.6348  -14.2460   19.4517 H   0  0  0  0  0  0
  -28.7195  -12.1860   21.4359 H   0  0  0  0  0  0
  -28.4173  -13.8692   21.7844 H   0  0  0  0  0  0
  -25.2768   -9.5688   22.4765 H   0  0  0  0  0  0
  -24.0008   -7.4638   22.7473 H   0  0  0  0  0  0
  -21.0849   -8.8786   19.8951 H   0  0  0  0  0  0
  -22.3708  -10.9684   19.6172 H   0  0  0  0  0  0
  -21.2008   -7.6149   23.9718 H   0  0  0  0  0  0
  -21.1482   -6.0522   25.9078 H   0  0  0  0  0  0
  -22.0596   -2.7610   23.2845 H   0  0  0  0  0  0
  -22.4088  -11.9884   22.4816 H   0  0  0  0  0  0
  -21.1091  -13.1246   22.2621 H   0  0  0  0  0  0
  -24.6506  -15.8432   20.5162 H   0  0  0  0  0  0
  -26.2622  -15.6336   20.0601 H   0  0  0  0  0  0
  -26.7200  -32.5406   23.1073 H   0  0  0  0  0  0
  -25.0066  -33.9695   25.0391 H   0  0  0  0  0  0
  -22.7234  -31.3009   21.3965 H   0  0  0  0  0  0
  -23.3751  -35.9620   23.3300 H   0  0  0  0  0  0
  -24.3580  -36.8911   22.2055 H   0  0  0  0  0  0
  -23.7250  -37.6487   23.6667 H   0  0  0  0  0  0
  -26.1121  -31.5314   20.6112 H   0  0  0  0  0  0
  -26.8497  -30.8174   22.0132 H   0  0  0  0  0  0
  -28.1095  -28.9204   21.2286 H   0  0  0  0  0  0
  -25.9647  -25.9283   18.9605 H   0  0  0  0  0  0
  -23.9818  -27.3212   18.9757 H   0  0  0  0  0  0
  -23.7682  -30.5919   19.4018 H   0  0  0  0  0  0
  -22.7640  -29.2470   19.8515 H   0  0  0  0  0  0
  -25.1300  -36.1913   25.0817 H   0  0  0  0  0  0
  -20.9994  -28.3283   24.1387 H   0  0  0  0  0  0
  -20.5687  -26.2311   23.3615 H   0  0  0  0  0  0
  -21.6648  -26.7443   22.1198 H   0  0  0  0  0  0
  -19.6916  -25.6294   21.1247 H   0  0  0  0  0  0
  -19.6691  -27.3193   20.6743 H   0  0  0  0  0  0
  -17.4206  -26.6680   21.4029 H   0  0  0  0  0  0
  -18.0334  -26.0073   22.9024 H   0  0  0  0  0  0
  -19.7941  -30.7281   24.2258 H   0  0  0  0  0  0
  -17.5018  -31.6268   24.5165 H   0  0  0  0  0  0
  -15.5356  -30.2986   23.7656 H   0  0  0  0  0  0
  -15.8681  -28.0821   22.7068 H   0  0  0  0  0  0
  -24.5905  -30.7074   25.7768 H   0  0  0  0  0  0
  -24.8911  -32.2900   26.4847 H   0  0  0  0  0  0
  -25.8038  -30.8921   27.0227 H   0  0  0  0  0  0
  -26.2941  -29.6733   24.1234 H   0  0  0  0  0  0
  -27.4024  -29.7262   25.4743 H   0  0  0  0  0  0
  -27.8825  -30.4261   23.9470 H   0  0  0  0  0  0
  -27.2655  -33.3627   26.2061 H   0  0  0  0  0  0
  -28.3872  -32.6879   25.0335 H   0  0  0  0  0  0
  -28.0712  -31.8460   26.5429 H   0  0  0  0  0  0
  -28.2594  -38.0096   24.7505 H   0  0  0  0  0  0
  -28.1076  -36.2626   24.6299 H   0  0  0  0  0  0
  -27.2295  -37.1456   25.8868 H   0  0  0  0  0  0
  -20.9389  -29.8762   21.6852 H   0  0  0  0  0  0
  -26.0169  -38.2840   24.1402 H   0  0  0  0  0  0
  -30.1160  -18.5640   16.7872 H   0  0  0  0  0  0
  -29.8347  -20.6329   17.9950 H   0  0  0  0  0  0
  -30.6681  -14.9997   15.9914 H   0  0  0  0  0  0
  -31.4261  -16.6656   16.2206 H   0  0  0  0  0  0
  -29.3072  -15.3012   17.9692 H   0  0  0  0  0  0
  -29.3945  -21.0467   21.6975 H   0  0  0  0  0  0
  -29.1167  -22.3456   18.9456 H   0  0  0  0  0  0
  -30.0848  -24.1671   20.6108 H   0  0  0  0  0  0
  -28.8245  -23.6957   21.7036 H   0  0  0  0  0  0
  -27.1104  -24.6150   20.2335 H   0  0  0  0  0  0
  -28.1909  -24.7803   18.8779 H   0  0  0  0  0  0
  -28.9552  -15.7143   21.0967 H   0  0  0  0  0  0
  1 25  1  0  0  0
  1 30  2  0  0  0
  1 83  1  0  0  0
  2  3  1  0  0  0
  2 25  1  0  0  0
  2 84  1  0  0  0
  2 85  1  0  0  0
  3  4  1  0  0  0
  3 86  1  0  0  0
  3 87  1  0  0  0
  4  5  1  0  0  0
  4 88  1  0  0  0
  4 89  1  0  0  0
  5  6  1  0  0  0
  5 26  1  0  0  0
  5 90  1  0  0  0
  6 25  1  0  0  0
  6 91  1  0  0  0
  6 92  1  0  0  0
  7  8  2  0  0  0
  7 26  1  0  0  0
  7 29  1  0  0  0
  8  9  1  0  0  0
  8 22  1  0  0  0
  9 10  1  0  0  0
  9 27  2  0  0  0
 10 11  2  0  0  0
 10 15  1  0  0  0
 11 12  1  0  0  0
 11 93  1  0  0  0
 12 13  2  0  0  0
 12 94  1  0  0  0
 13 14  1  0  0  0
 13 31  1  0  0  0
 14 15  2  0  0  0
 14 95  1  0  0  0
 15 96  1  0  0  0
 16 17  2  0  0  0
 16 21  1  0  0  0
 16 31  1  0  0  0
 17 18  1  0  0  0
 17 97  1  0  0  0
 18 19  2  0  0  0
 18 98  1  0  0  0
 19 20  1  0  0  0
 19 24  1  0  0  0
 20 21  2  0  0  0
 20 99  1  0  0  0
 21 23  1  0  0  0
 22 28  1  0  0  0
 22 32  2  0  0  0
 26 27  1  0  0  0
 28100  1  0  0  0
 28101  1  0  0  0
 29102  1  0  0  0
 29103  1  0  0  0
 33 34  1  0  0  0
 33 66  1  0  0  0
 33 70  2  0  0  0
 34 36  1  0  0  0
 34 59  1  0  0  0
 34104  1  0  0  0
 35 44  2  0  0  0
 35 45  1  0  0  0
 35 68  1  0  0  0
 36 56  1  0  0  0
 36105  1  0  0  0
 37 39  1  0  0  0
 37 47  1  0  0  0
 37 66  1  0  0  0
 37106  1  0  0  0
 38 43  2  0  0  0
 38 46  1  0  0  0
 38 47  1  0  0  0
 39 64  1  0  0  0
 39 67  2  0  0  0
 40 52  1  0  0  0
 40 53  2  0  0  0
 40 58  1  0  0  0
 41107  1  0  0  0
 41108  1  0  0  0
 41109  1  0  0  0
 41 48  1  0  0  0
 42 43  1  0  0  0
 42 66  1  0  0  0
 42110  1  0  0  0
 42111  1  0  0  0
 43 44  1  0  0  0
 44112  1  0  0  0
 45 46  2  0  0  0
 45113  1  0  0  0
 46114  1  0  0  0
 47115  1  0  0  0
 47116  1  0  0  0
 48 56  1  0  0  0
 48 65  1  0  0  0
 48117  1  0  0  0
 49 50  1  0  0  0
 49 53  1  0  0  0
 49 64  1  0  0  0
 49118  1  0  0  0
 50 51  1  0  0  0
 50119  1  0  0  0
 50120  1  0  0  0
 51 52  1  0  0  0
 51121  1  0  0  0
 51122  1  0  0  0
 52123  1  0  0  0
 52124  1  0  0  0
 53 54  1  0  0  0
 54 55  2  0  0  0
 54125  1  0  0  0
 55 57  1  0  0  0
 55126  1  0  0  0
 56 69  2  0  0  0
 57 58  2  0  0  0
 57127  1  0  0  0
 58128  1  0  0  0
 59 60  1  0  0  0
 59 61  1  0  0  0
 59 62  1  0  0  0
 60129  1  0  0  0
 60130  1  0  0  0
 60131  1  0  0  0
 61132  1  0  0  0
 61133  1  0  0  0
 61134  1  0  0  0
 62135  1  0  0  0
 62136  1  0  0  0
 62137  1  0  0  0
 63 65  1  0  0  0
 63138  1  0  0  0
 63139  1  0  0  0
 63140  1  0  0  0
 64141  1  0  0  0
 65142  1  0  0  0
 68 81  1  0  0  0
 71 72  2  0  0  0
 71 73  1  0  0  0
 71143  1  0  0  0
 72 74  1  0  0  0
 72144  1  0  0  0
 73 75  2  0  0  0
 73 77  1  0  0  0
 74 78  1  0  0  0
 74 82  2  0  0  0
 75 82  1  0  0  0
 75 83  1  0  0  0
 76 77  2  0  0  0
 76145  1  0  0  0
 76146  1  0  0  0
 77147  1  0  0  0
 78 79  2  0  0  0
 78148  1  0  0  0
 79 80  1  0  0  0
 79149  1  0  0  0
 80 81  1  0  0  0
 80150  1  0  0  0
 80151  1  0  0  0
 81152  1  0  0  0
 81153  1  0  0  0
 83154  1  0  0  0
M  ISO  4   1 100  68 101  81 101  83 100
M  END
> <chiral flag>
0

> <version>
0

> <s_m_source_file>
/data/baiqing/PycharmProjects/Reinvent-master-3.2/result/LINK_invent/BTK/process_docking_weight1_custom_product_contain_oxygen_bond_distance_aromatic_linkinvent_7_9_3/rearranged_h_0117.sdf

> <i_m_source_file_index>
51

> <r_mmod_Potential_Energy-OPLS-2005>
87.4377899169922

> <r_mmod_Stretch_Energy-OPLS-2005>
128.781768798828

> <r_mmod_Bend_Energy-OPLS-2005>
158.657730102539

> <r_mmod_Torsional_Energy-OPLS-2005>
260.394287109375

> <r_mmod_Improper_Torsional_Energy-OPLS-2005>
6.03709983825684

> <r_mmod_Van_der_Waal_Energy-OPLS-2005>
151.133453369141

> <r_mmod_Electrostatic_Energy-OPLS-2005>
-491.046997070312

> <r_mmod_Solvation_Energy-OPLS-2005>
-218.878021240234

> <b_mmod_Minimization_Converged-OPLS-2005>
0

> <r_mmod_RMS_Derivative-OPLS-2005>
0.340631932020187

$$$$
51
                    3D
 Structure written by MMmdl.
160169  0  0  1  0            999 V2000
  -30.6276  -14.7528   20.4407 C   0  0  0  0  0  0
  -30.4247  -12.4570   19.4828 C   0  0  0  0  0  0
  -29.5114  -12.5048   18.2389 C   0  0  0  0  0  0
  -28.0366  -12.3347   18.6493 C   0  0  0  0  0  0
  -27.6391  -13.2387   19.8476 C   0  0  2  0  0  0
  -28.6827  -13.1937   20.9853 C   0  0  0  0  0  0
  -25.2497  -13.8204   20.5689 C   0  0  0  0  0  0
  -24.1797  -13.0443   20.9215 C   0  0  0  0  0  0
  -24.6401  -11.6932   20.8741 C   0  0  0  0  0  0
  -23.9080  -10.4303   21.0400 C   0  0  0  0  0  0
  -24.3629   -9.4218   21.9182 C   0  0  0  0  0  0
  -23.6301   -8.2252   22.0752 C   0  0  0  0  0  0
  -22.4286   -8.0282   21.3541 C   0  0  0  0  0  0
  -21.9917   -9.0260   20.4650 C   0  0  0  0  0  0
  -22.7247  -10.2141   20.3060 C   0  0  0  0  0  0
  -21.6857   -6.0734   22.5281 C   0  0  0  0  0  0
  -21.4017   -6.5637   23.8213 C   0  0  0  0  0  0
  -21.3661   -5.6791   24.9175 C   0  0  0  0  0  0
  -21.6047   -4.3054   24.7226 C   0  0  0  0  0  0
  -21.8821   -3.8147   23.4346 C   0  0  0  0  0  0
  -21.9195   -4.6961   22.3403 C   0  0  0  0  0  0
  -22.7824  -13.5229   21.1866 C   0  0  0  0  0  0
  -22.1666   -4.2147   21.0977 F   0  0  0  0  0  0
  -21.5628   -3.4536   25.7735 F   0  0  0  0  0  0
  -29.9836  -13.5351   20.4002 N   0  0  0  0  0  0
  -26.2928  -12.9432   20.3269 N   0  0  0  0  0  0
  -25.9333  -11.6568   20.5752 N   0  0  0  0  0  0
  -22.0466  -12.8226   22.0422 N   0  0  0  0  0  0
  -25.4148  -15.1928   20.4075 N   0  0  0  0  0  0
  -31.8268  -14.7873   20.1566 O   0  0  0  0  0  0
  -21.6652   -6.8879   21.4245 O   0  0  0  0  0  0
  -22.3510  -14.5525   20.6699 O   0  0  0  0  0  0
  -24.6281  -31.8546   23.1960 C   0  0  0  0  0  0
  -25.9112  -32.4753   23.8310 C   0  0  1  0  0  0
  -27.2215  -27.2606   20.1224 C   0  0  0  0  0  0
  -25.5903  -33.8557   24.2236 N   0  0  0  0  0  0
  -23.4249  -30.4754   21.5388 C   0  0  2  0  0  0
  -24.8704  -28.9138   20.1124 C   0  0  0  0  0  0
  -22.7491  -29.4603   22.4911 C   0  0  0  0  0  0
  -18.0285  -28.1390   22.8480 C   0  0  0  0  0  0
  -24.1485  -36.7285   23.2645 C   0  0  0  0  0  0
  -25.9680  -30.7663   21.3726 C   0  0  0  0  0  0
  -26.0400  -29.3861   20.7188 C   0  0  0  0  0  0
  -27.2149  -28.5706   20.7127 C   0  0  0  0  0  0
  -26.0230  -26.8453   19.5016 C   0  0  0  0  0  0
  -24.8660  -27.6517   19.4969 C   0  0  0  0  0  0
  -23.6422  -29.8022   20.1569 C   0  0  0  0  0  0
  -25.4114  -36.3071   24.0328 C   0  0  1  0  0  0
  -20.5885  -28.3696   23.1273 C   0  0  2  0  0  0
  -20.6770  -26.9414   22.5412 C   0  0  0  0  0  0
  -19.5749  -26.6379   21.5211 C   0  0  0  0  0  0
  -18.1926  -26.7929   22.1617 C   0  0  0  0  0  0
  -19.1541  -28.8861   23.2867 C   0  0  0  0  0  0
  -18.9463  -30.1458   23.8890 C   0  0  0  0  0  0
  -17.6467  -30.6592   24.0561 C   0  0  0  0  0  0
  -25.9052  -34.9443   23.5091 C   0  0  0  0  0  0
  -16.5357  -29.9094   23.6326 C   0  0  0  0  0  0
  -16.7274  -28.6509   23.0350 C   0  0  0  0  0  0
  -26.4492  -31.6581   25.0700 C   0  0  0  0  0  0
  -25.3718  -31.3722   26.1424 C   0  0  0  0  0  0
  -27.0339  -30.3006   24.6160 C   0  0  0  0  0  0
  -27.6041  -32.4330   25.7470 C   0  0  0  0  0  0
  -27.5577  -37.1800   24.8468 C   0  0  0  0  0  0
  -21.4201  -29.3045   22.3670 N   0  0  0  0  0  0
  -26.4288  -37.3772   23.9410 N   0  0  0  0  0  0
  -24.6930  -31.0512   22.0924 N   0  0  0  0  0  0
  -23.4211  -28.8150   23.3003 O   0  0  0  0  0  0
  -28.3545  -26.4199   20.1849 O   0  0  0  0  0  0
  -26.5642  -34.8927   22.4670 O   0  0  0  0  0  0
  -23.5438  -32.1369   23.7269 O   0  0  0  0  0  0
  -29.3134  -18.4964   20.5095 C   0  0  0  0  0  0
  -30.8747  -20.0721   19.5046 C   0  0  0  0  0  0
  -31.4460  -17.6920   19.6804 C   0  0  0  0  0  0
  -29.6286  -19.8764   20.1330 C   0  0  0  0  0  0
  -30.2065  -17.3567   20.2859 C   0  0  0  0  0  0
  -31.7668  -19.0084   19.2967 C   0  0  0  0  0  0
  -28.7054  -21.1068   20.2417 C   0  0  0  0  0  0
  -30.1930  -23.8889   22.0727 C   0  0  0  0  0  0
  -28.6795  -24.1397   22.1069 C   0  0  0  0  0  0
  -30.4040  -22.7416   21.0706 C   0  0  0  0  0  0
  -28.2095  -23.7181   20.7145 C   0  0  2  0  0  0
  -28.4182  -24.9875   19.7185 C   0  0  0  0  0  0
  -29.0616  -22.4346   20.5313 N   0  0  0  0  0  0
  -29.8833  -15.9237   20.6049 N   0  0  0  0  0  0
  -27.4166  -20.8863   20.0071 N   0  3  0  0  0  0
  -32.9534  -19.2555   18.6922 F   0  0  0  0  0  0
  -31.4688  -12.5613   19.1822 H   0  0  0  0  0  0
  -30.3513  -11.4867   19.9751 H   0  0  0  0  0  0
  -29.7957  -11.7244   17.5312 H   0  0  0  0  0  0
  -29.6429  -13.4538   17.7167 H   0  0  0  0  0  0
  -27.8925  -11.2869   18.9140 H   0  0  0  0  0  0
  -27.3815  -12.5246   17.7983 H   0  0  0  0  0  0
  -27.6274  -14.2578   19.4603 H   0  0  0  0  0  0
  -28.7200  -12.2057   21.4446 H   0  0  0  0  0  0
  -28.4168  -13.8908   21.7815 H   0  0  0  0  0  0
  -25.2773   -9.5702   22.4760 H   0  0  0  0  0  0
  -24.0014   -7.4656   22.7470 H   0  0  0  0  0  0
  -21.0842   -8.8776   19.8964 H   0  0  0  0  0  0
  -22.3691  -10.9677   19.6175 H   0  0  0  0  0  0
  -21.2010   -7.6145   23.9714 H   0  0  0  0  0  0
  -21.1480   -6.0519   25.9075 H   0  0  0  0  0  0
  -22.0597   -2.7607   23.2844 H   0  0  0  0  0  0
  -22.4087  -11.9900   22.4835 H   0  0  0  0  0  0
  -21.1079  -13.1250   22.2602 H   0  0  0  0  0  0
  -24.6360  -15.8358   20.5030 H   0  0  0  0  0  0
  -26.2454  -15.6328   20.0344 H   0  0  0  0  0  0
  -26.7172  -32.5412   23.1048 H   0  0  0  0  0  0
  -25.0019  -33.9681   25.0361 H   0  0  0  0  0  0
  -22.7198  -31.2960   21.3896 H   0  0  0  0  0  0
  -23.3745  -35.9620   23.3320 H   0  0  0  0  0  0
  -24.3571  -36.8893   22.2055 H   0  0  0  0  0  0
  -23.7244  -37.6493   23.6663 H   0  0  0  0  0  0
  -26.1017  -31.5209   20.5970 H   0  0  0  0  0  0
  -26.8489  -30.8227   21.9996 H   0  0  0  0  0  0
  -28.1136  -28.9255   21.1972 H   0  0  0  0  0  0
  -25.9431  -25.8781   19.0315 H   0  0  0  0  0  0
  -23.9652  -27.2830   19.0258 H   0  0  0  0  0  0
  -23.7701  -30.5731   19.3953 H   0  0  0  0  0  0
  -22.7601  -29.2355   19.8534 H   0  0  0  0  0  0
  -25.1301  -36.1914   25.0820 H   0  0  0  0  0  0
  -20.9978  -28.3269   24.1391 H   0  0  0  0  0  0
  -20.5641  -26.2316   23.3617 H   0  0  0  0  0  0
  -21.6642  -26.7412   22.1227 H   0  0  0  0  0  0
  -19.6908  -25.6286   21.1243 H   0  0  0  0  0  0
  -19.6687  -27.3188   20.6738 H   0  0  0  0  0  0
  -17.4194  -26.6663   21.4018 H   0  0  0  0  0  0
  -18.0332  -26.0076   22.9018 H   0  0  0  0  0  0
  -19.7940  -30.7270   24.2261 H   0  0  0  0  0  0
  -17.5023  -31.6269   24.5169 H   0  0  0  0  0  0
  -15.5362  -30.3001   23.7656 H   0  0  0  0  0  0
  -15.8663  -28.0829   22.7082 H   0  0  0  0  0  0
  -24.5899  -30.7061   25.7760 H   0  0  0  0  0  0
  -24.8899  -32.2885   26.4845 H   0  0  0  0  0  0
  -25.8045  -30.8908   27.0202 H   0  0  0  0  0  0
  -26.2908  -29.6753   24.1192 H   0  0  0  0  0  0
  -27.4053  -29.7269   25.4661 H   0  0  0  0  0  0
  -27.8774  -30.4305   23.9375 H   0  0  0  0  0  0
  -27.2643  -33.3632   26.2039 H   0  0  0  0  0  0
  -28.3854  -32.6890   25.0300 H   0  0  0  0  0  0
  -28.0709  -31.8461   26.5389 H   0  0  0  0  0  0
  -28.2604  -38.0089   24.7518 H   0  0  0  0  0  0
  -28.1063  -36.2623   24.6293 H   0  0  0  0  0  0
  -27.2299  -37.1455   25.8873 H   0  0  0  0  0  0
  -20.9399  -29.8775   21.6873 H   0  0  0  0  0  0
  -26.0164  -38.2843   24.1418 H   0  0  0  0  0  0
  -28.3511  -18.3105   20.9657 H   0  0  0  0  0  0
  -31.1603  -21.0473   19.1408 H   0  0  0  0  0  0
  -32.1947  -16.9536   19.4556 H   0  0  0  0  0  0
  -30.5789  -23.6419   23.0611 H   0  0  0  0  0  0
  -30.7194  -24.7801   21.7280 H   0  0  0  0  0  0
  -28.4422  -25.1752   22.3513 H   0  0  0  0  0  0
  -28.1989  -23.5148   22.8610 H   0  0  0  0  0  0
  -30.8406  -21.8843   21.5868 H   0  0  0  0  0  0
  -31.0901  -23.0412   20.2766 H   0  0  0  0  0  0
  -27.1457  -23.4831   20.7592 H   0  0  0  0  0  0
  -27.7823  -24.8520   18.8463 H   0  0  0  0  0  0
  -29.4214  -24.8894   19.3029 H   0  0  0  0  0  0
  -28.9333  -15.7562   20.8987 H   0  0  0  0  0  0
  -27.1198  -19.9634   19.7302 H   0  0  0  0  0  0
  -26.7225  -21.6061   20.0979 H   0  0  0  0  0  0
  1 25  1  0  0  0
  1 30  2  0  0  0
  1 84  1  0  0  0
  2  3  1  0  0  0
  2 25  1  0  0  0
  2 87  1  0  0  0
  2 88  1  0  0  0
  3  4  1  0  0  0
  3 89  1  0  0  0
  3 90  1  0  0  0
  4  5  1  0  0  0
  4 91  1  0  0  0
  4 92  1  0  0  0
  5  6  1  0  0  0
  5 26  1  0  0  0
  5 93  1  0  0  0
  6 25  1  0  0  0
  6 94  1  0  0  0
  6 95  1  0  0  0
  7  8  2  0  0  0
  7 26  1  0  0  0
  7 29  1  0  0  0
  8  9  1  0  0  0
  8 22  1  0  0  0
  9 10  1  0  0  0
  9 27  2  0  0  0
 10 11  2  0  0  0
 10 15  1  0  0  0
 11 12  1  0  0  0
 11 96  1  0  0  0
 12 13  2  0  0  0
 12 97  1  0  0  0
 13 14  1  0  0  0
 13 31  1  0  0  0
 14 15  2  0  0  0
 14 98  1  0  0  0
 15 99  1  0  0  0
 16 17  2  0  0  0
 16 21  1  0  0  0
 16 31  1  0  0  0
 17 18  1  0  0  0
 17100  1  0  0  0
 18 19  2  0  0  0
 18101  1  0  0  0
 19 20  1  0  0  0
 19 24  1  0  0  0
 20 21  2  0  0  0
 20102  1  0  0  0
 21 23  1  0  0  0
 22 28  1  0  0  0
 22 32  2  0  0  0
 26 27  1  0  0  0
 28103  1  0  0  0
 28104  1  0  0  0
 29105  1  0  0  0
 29106  1  0  0  0
 33 34  1  0  0  0
 33 66  1  0  0  0
 33 70  2  0  0  0
 34 36  1  0  0  0
 34 59  1  0  0  0
 34107  1  0  0  0
 35 44  2  0  0  0
 35 45  1  0  0  0
 35 68  1  0  0  0
 36 56  1  0  0  0
 36108  1  0  0  0
 37 39  1  0  0  0
 37 47  1  0  0  0
 37 66  1  0  0  0
 37109  1  0  0  0
 38 43  2  0  0  0
 38 46  1  0  0  0
 38 47  1  0  0  0
 39 64  1  0  0  0
 39 67  2  0  0  0
 40 52  1  0  0  0
 40 53  2  0  0  0
 40 58  1  0  0  0
 41110  1  0  0  0
 41111  1  0  0  0
 41112  1  0  0  0
 41 48  1  0  0  0
 42 43  1  0  0  0
 42 66  1  0  0  0
 42113  1  0  0  0
 42114  1  0  0  0
 43 44  1  0  0  0
 44115  1  0  0  0
 45 46  2  0  0  0
 45116  1  0  0  0
 46117  1  0  0  0
 47118  1  0  0  0
 47119  1  0  0  0
 48 56  1  0  0  0
 48 65  1  0  0  0
 48120  1  0  0  0
 49 50  1  0  0  0
 49 53  1  0  0  0
 49 64  1  0  0  0
 49121  1  0  0  0
 50 51  1  0  0  0
 50122  1  0  0  0
 50123  1  0  0  0
 51 52  1  0  0  0
 51124  1  0  0  0
 51125  1  0  0  0
 52126  1  0  0  0
 52127  1  0  0  0
 53 54  1  0  0  0
 54 55  2  0  0  0
 54128  1  0  0  0
 55 57  1  0  0  0
 55129  1  0  0  0
 56 69  2  0  0  0
 57 58  2  0  0  0
 57130  1  0  0  0
 58131  1  0  0  0
 59 60  1  0  0  0
 59 61  1  0  0  0
 59 62  1  0  0  0
 60132  1  0  0  0
 60133  1  0  0  0
 60134  1  0  0  0
 61135  1  0  0  0
 61136  1  0  0  0
 61137  1  0  0  0
 62138  1  0  0  0
 62139  1  0  0  0
 62140  1  0  0  0
 63 65  1  0  0  0
 63141  1  0  0  0
 63142  1  0  0  0
 63143  1  0  0  0
 64144  1  0  0  0
 65145  1  0  0  0
 68 82  1  0  0  0
 71 74  2  0  0  0
 71 75  1  0  0  0
 71146  1  0  0  0
 72 74  1  0  0  0
 72 76  2  0  0  0
 72147  1  0  0  0
 73 75  2  0  0  0
 73 76  1  0  0  0
 73148  1  0  0  0
 74 77  1  0  0  0
 75 84  1  0  0  0
 76 86  1  0  0  0
 77 83  1  0  0  0
 77 85  2  0  0  0
 78 79  1  0  0  0
 78 80  1  0  0  0
 78149  1  0  0  0
 78150  1  0  0  0
 79 81  1  0  0  0
 79151  1  0  0  0
 79152  1  0  0  0
 80 83  1  0  0  0
 80153  1  0  0  0
 80154  1  0  0  0
 81 82  1  0  0  0
 81 83  1  0  0  0
 81155  1  0  0  0
 82156  1  0  0  0
 82157  1  0  0  0
 84158  1  0  0  0
 85159  1  0  0  0
 85160  1  0  0  0
M  CHG  1  85   1
M  ISO  4   1 100  68 101  82 101  84 100
M  END
> <chiral flag>
0

> <version>
0

> <s_m_source_file>
/data/baiqing/PycharmProjects/Reinvent-master-3.2/result/LINK_invent/BTK/process_docking_weight1_custom_product_contain_oxygen_bond_distance_aromatic_linkinvent_7_9_3/rearranged_h_0117.sdf

> <i_m_source_file_index>
52

> <r_mmod_Potential_Energy-OPLS-2005>
56.7558822631836

> <r_mmod_Stretch_Energy-OPLS-2005>
138.080474853516

> <r_mmod_Bend_Energy-OPLS-2005>
222.899108886719

> <r_mmod_Torsional_Energy-OPLS-2005>
284.005523681641

> <r_mmod_Improper_Torsional_Energy-OPLS-2005>
5.59113836288452

> <r_mmod_Van_der_Waal_Energy-OPLS-2005>
145.029403686523

> <r_mmod_Electrostatic_Energy-OPLS-2005>
-410.869018554688

> <r_mmod_Solvation_Energy-OPLS-2005>
-412.329528808594

> <b_mmod_Minimization_Converged-OPLS-2005>
0

> <r_mmod_RMS_Derivative-OPLS-2005>
1.69252848625183

$$$$
52
                    3D
 Structure written by MMmdl.
158166  0  0  1  0            999 V2000
  -30.6269  -14.6889   20.5182 C   0  0  0  0  0  0
  -30.4409  -12.4307   19.4700 C   0  0  0  0  0  0
  -29.5138  -12.5276   18.2355 C   0  0  0  0  0  0
  -28.0350  -12.3524   18.6372 C   0  0  0  0  0  0
  -27.6529  -13.2172   19.8664 C   0  0  2  0  0  0
  -28.6926  -13.0500   20.9926 C   0  0  0  0  0  0
  -25.2546  -13.8164   20.5677 C   0  0  0  0  0  0
  -24.1805  -13.0425   20.9158 C   0  0  0  0  0  0
  -24.6368  -11.6899   20.8693 C   0  0  0  0  0  0
  -23.9034  -10.4283   21.0370 C   0  0  0  0  0  0
  -24.3589   -9.4210   21.9160 C   0  0  0  0  0  0
  -23.6268   -8.2250   22.0747 C   0  0  0  0  0  0
  -22.4255   -8.0271   21.3539 C   0  0  0  0  0  0
  -21.9875   -9.0242   20.4639 C   0  0  0  0  0  0
  -22.7198  -10.2122   20.3036 C   0  0  0  0  0  0
  -21.6848   -6.0720   22.5278 C   0  0  0  0  0  0
  -21.4010   -6.5627   23.8211 C   0  0  0  0  0  0
  -21.3664   -5.6783   24.9174 C   0  0  0  0  0  0
  -21.6046   -4.3046   24.7231 C   0  0  0  0  0  0
  -21.8816   -3.8137   23.4350 C   0  0  0  0  0  0
  -21.9190   -4.6947   22.3404 C   0  0  0  0  0  0
  -22.7836  -13.5230   21.1842 C   0  0  0  0  0  0
  -22.1657   -4.2129   21.0980 F   0  0  0  0  0  0
  -21.5633   -3.4537   25.7752 F   0  0  0  0  0  0
  -30.0067  -13.4520   20.4553 N   0  0  0  0  0  0
  -26.2972  -12.9344   20.3307 N   0  0  0  0  0  0
  -25.9301  -11.6494   20.5716 N   0  0  0  0  0  0
  -22.0491  -12.8228   22.0412 N   0  0  0  0  0  0
  -25.4261  -15.1886   20.4127 N   0  0  0  0  0  0
  -31.7482  -14.8440   20.0211 O   0  0  0  0  0  0
  -21.6629   -6.8863   21.4239 O   0  0  0  0  0  0
  -22.3528  -14.5540   20.6699 O   0  0  0  0  0  0
  -24.6317  -31.8557   23.1988 C   0  0  0  0  0  0
  -25.9152  -32.4745   23.8321 C   0  0  1  0  0  0
  -27.2248  -27.2808   20.1040 C   0  0  0  0  0  0
  -25.5943  -33.8548   24.2243 N   0  0  0  0  0  0
  -23.4253  -30.4791   21.5453 C   0  0  2  0  0  0
  -24.8685  -28.9266   20.1127 C   0  0  0  0  0  0
  -22.7502  -29.4603   22.4949 C   0  0  0  0  0  0
  -18.0284  -28.1390   22.8481 C   0  0  0  0  0  0
  -24.1487  -36.7283   23.2636 C   0  0  0  0  0  0
  -25.9707  -30.7727   21.3732 C   0  0  0  0  0  0
  -26.0434  -29.3976   20.7126 C   0  0  0  0  0  0
  -27.2233  -28.5882   20.6950 C   0  0  0  0  0  0
  -26.0207  -26.8705   19.4859 C   0  0  0  0  0  0
  -24.8607  -27.6680   19.4936 C   0  0  0  0  0  0
  -23.6392  -29.8129   20.1619 C   0  0  0  0  0  0
  -25.4116  -36.3065   24.0319 C   0  0  1  0  0  0
  -20.5881  -28.3689   23.1289 C   0  0  2  0  0  0
  -20.6777  -26.9412   22.5420 C   0  0  0  0  0  0
  -19.5747  -26.6378   21.5223 C   0  0  0  0  0  0
  -18.1922  -26.7927   22.1625 C   0  0  0  0  0  0
  -19.1536  -28.8863   23.2867 C   0  0  0  0  0  0
  -18.9467  -30.1463   23.8882 C   0  0  0  0  0  0
  -17.6471  -30.6590   24.0567 C   0  0  0  0  0  0
  -25.9060  -34.9435   23.5088 C   0  0  0  0  0  0
  -16.5355  -29.9090   23.6344 C   0  0  0  0  0  0
  -16.7273  -28.6512   23.0350 C   0  0  0  0  0  0
  -26.4500  -31.6582   25.0722 C   0  0  0  0  0  0
  -25.3699  -31.3769   26.1434 C   0  0  0  0  0  0
  -27.0341  -30.2990   24.6220 C   0  0  0  0  0  0
  -27.6064  -32.4319   25.7486 C   0  0  0  0  0  0
  -27.5573  -37.1793   24.8462 C   0  0  0  0  0  0
  -21.4212  -29.3030   22.3692 N   0  0  0  0  0  0
  -26.4286  -37.3767   23.9409 N   0  0  0  0  0  0
  -24.6955  -31.0535   22.0956 N   0  0  0  0  0  0
  -23.4210  -28.8151   23.3048 O   0  0  0  0  0  0
  -28.3383  -26.4112   20.1432 O   0  0  0  0  0  0
  -26.5637  -34.8924   22.4661 O   0  0  0  0  0  0
  -23.5473  -32.1394   23.7283 O   0  0  0  0  0  0
  -29.9970  -17.7581   19.2735 C   0  0  0  0  0  0
  -29.9198  -19.2025   19.0843 C   0  0  0  0  0  0
  -29.9383  -17.3274   20.5801 C   0  0  0  0  0  0
  -29.7591  -19.9605   20.2420 C   0  0  0  0  0  0
  -30.0614  -19.8255   17.7488 C   0  0  0  0  0  0
  -29.1253  -22.3331   19.9356 C   0  0  0  0  0  0
  -29.8979  -15.9347   21.1938 C   0  0  0  0  0  0
  -30.7348  -19.3801   16.6620 C   0  0  0  0  0  0
  -30.6780  -20.1288   15.3436 C   0  0  0  0  0  0
  -31.5912  -18.1253   16.6047 C   0  0  0  0  0  0
  -29.2900  -23.8856   20.2824 C   0  0  0  0  0  0
  -28.1439  -24.9442   19.8934 C   0  0  0  0  0  0
  -29.3131  -15.8060   22.3106 N   0  0  0  0  0  0
  -29.7493  -21.3539   20.5435 N   0  0  0  0  0  0
  -29.7464  -18.7895   21.5842 S   0  0  0  0  0  0
  -31.4814  -12.5593   19.1661 H   0  0  0  0  0  0
  -30.3928  -11.4329   19.9091 H   0  0  0  0  0  0
  -29.7915  -11.7767   17.4944 H   0  0  0  0  0  0
  -29.6477  -13.4977   17.7542 H   0  0  0  0  0  0
  -27.8778  -11.2983   18.8677 H   0  0  0  0  0  0
  -27.3823  -12.5806   17.7944 H   0  0  0  0  0  0
  -27.6766  -14.2572   19.5422 H   0  0  0  0  0  0
  -28.7260  -12.0087   21.3163 H   0  0  0  0  0  0
  -28.3907  -13.5941   21.8828 H   0  0  0  0  0  0
  -25.2738   -9.5701   22.4720 H   0  0  0  0  0  0
  -23.9977   -7.4651   22.7479 H   0  0  0  0  0  0
  -21.0800   -8.8744   19.8958 H   0  0  0  0  0  0
  -22.3636  -10.9649   19.6139 H   0  0  0  0  0  0
  -21.1998   -7.6137   23.9706 H   0  0  0  0  0  0
  -21.1490   -6.0520   25.9076 H   0  0  0  0  0  0
  -22.0590   -2.7597   23.2864 H   0  0  0  0  0  0
  -22.4115  -11.9893   22.4791 H   0  0  0  0  0  0
  -21.1122  -13.1269   22.2644 H   0  0  0  0  0  0
  -24.6643  -15.8465   20.5353 H   0  0  0  0  0  0
  -26.2935  -15.6328   20.1392 H   0  0  0  0  0  0
  -26.7218  -32.5405   23.1066 H   0  0  0  0  0  0
  -25.0078  -33.9687   25.0376 H   0  0  0  0  0  0
  -22.7203  -31.3007   21.4000 H   0  0  0  0  0  0
  -23.3742  -35.9621   23.3308 H   0  0  0  0  0  0
  -24.3565  -36.8915   22.2049 H   0  0  0  0  0  0
  -23.7264  -37.6496   23.6661 H   0  0  0  0  0  0
  -26.1038  -31.5326   20.6012 H   0  0  0  0  0  0
  -26.8504  -30.8211   22.0036 H   0  0  0  0  0  0
  -28.1268  -28.9452   21.1696 H   0  0  0  0  0  0
  -25.9423  -25.9098   18.9997 H   0  0  0  0  0  0
  -23.9591  -27.2971   19.0260 H   0  0  0  0  0  0
  -23.7615  -30.5906   19.4066 H   0  0  0  0  0  0
  -22.7554  -29.2492   19.8578 H   0  0  0  0  0  0
  -25.1291  -36.1904   25.0805 H   0  0  0  0  0  0
  -20.9954  -28.3268   24.1418 H   0  0  0  0  0  0
  -20.5711  -26.2291   23.3625 H   0  0  0  0  0  0
  -21.6640  -26.7457   22.1196 H   0  0  0  0  0  0
  -19.6922  -25.6291   21.1257 H   0  0  0  0  0  0
  -19.6697  -27.3189   20.6756 H   0  0  0  0  0  0
  -17.4200  -26.6687   21.4018 H   0  0  0  0  0  0
  -18.0299  -26.0065   22.9016 H   0  0  0  0  0  0
  -19.7945  -30.7280   24.2240 H   0  0  0  0  0  0
  -17.5022  -31.6278   24.5158 H   0  0  0  0  0  0
  -15.5356  -30.2990   23.7684 H   0  0  0  0  0  0
  -15.8667  -28.0849   22.7055 H   0  0  0  0  0  0
  -24.5888  -30.7091   25.7784 H   0  0  0  0  0  0
  -24.8854  -32.2944   26.4785 H   0  0  0  0  0  0
  -25.7975  -30.9022   27.0270 H   0  0  0  0  0  0
  -26.2933  -29.6740   24.1218 H   0  0  0  0  0  0
  -27.3988  -29.7260   25.4756 H   0  0  0  0  0  0
  -27.8817  -30.4256   23.9481 H   0  0  0  0  0  0
  -27.2688  -33.3650   26.2008 H   0  0  0  0  0  0
  -28.3885  -32.6833   25.0307 H   0  0  0  0  0  0
  -28.0695  -31.8471   26.5444 H   0  0  0  0  0  0
  -28.2590  -38.0085   24.7493 H   0  0  0  0  0  0
  -28.1069  -36.2622   24.6295 H   0  0  0  0  0  0
  -27.2291  -37.1462   25.8865 H   0  0  0  0  0  0
  -20.9406  -29.8759   21.6902 H   0  0  0  0  0  0
  -26.0167  -38.2842   24.1410 H   0  0  0  0  0  0
  -30.0747  -17.0726   18.4435 H   0  0  0  0  0  0
  -29.5124  -20.7460   17.6283 H   0  0  0  0  0  0
  -28.4434  -22.1421   19.1035 H   0  0  0  0  0  0
  -30.0944  -21.0466   15.4194 H   0  0  0  0  0  0
  -30.2257  -19.5041   14.5719 H   0  0  0  0  0  0
  -31.6826  -20.3984   15.0148 H   0  0  0  0  0  0
  -32.0263  -17.8798   17.5725 H   0  0  0  0  0  0
  -32.4264  -18.2605   15.9168 H   0  0  0  0  0  0
  -31.0054  -17.2767   16.2487 H   0  0  0  0  0  0
  -30.2113  -24.2142   19.8026 H   0  0  0  0  0  0
  -29.4812  -23.9659   21.3524 H   0  0  0  0  0  0
  -27.2413  -24.6289   20.4194 H   0  0  0  0  0  0
  -27.9336  -24.8241   18.8295 H   0  0  0  0  0  0
  -28.9224  -16.6888   22.6159 H   0  0  0  0  0  0
  1 25  1  0  0  0
  1 30  2  0  0  0
  1 77  1  0  0  0
  2  3  1  0  0  0
  2 25  1  0  0  0
  2 86  1  0  0  0
  2 87  1  0  0  0
  3  4  1  0  0  0
  3 88  1  0  0  0
  3 89  1  0  0  0
  4  5  1  0  0  0
  4 90  1  0  0  0
  4 91  1  0  0  0
  5  6  1  0  0  0
  5 26  1  0  0  0
  5 92  1  0  0  0
  6 25  1  0  0  0
  6 93  1  0  0  0
  6 94  1  0  0  0
  7  8  2  0  0  0
  7 26  1  0  0  0
  7 29  1  0  0  0
  8  9  1  0  0  0
  8 22  1  0  0  0
  9 10  1  0  0  0
  9 27  2  0  0  0
 10 11  2  0  0  0
 10 15  1  0  0  0
 11 12  1  0  0  0
 11 95  1  0  0  0
 12 13  2  0  0  0
 12 96  1  0  0  0
 13 14  1  0  0  0
 13 31  1  0  0  0
 14 15  2  0  0  0
 14 97  1  0  0  0
 15 98  1  0  0  0
 16 17  2  0  0  0
 16 21  1  0  0  0
 16 31  1  0  0  0
 17 18  1  0  0  0
 17 99  1  0  0  0
 18 19  2  0  0  0
 18100  1  0  0  0
 19 20  1  0  0  0
 19 24  1  0  0  0
 20 21  2  0  0  0
 20101  1  0  0  0
 21 23  1  0  0  0
 22 28  1  0  0  0
 22 32  2  0  0  0
 26 27  1  0  0  0
 28102  1  0  0  0
 28103  1  0  0  0
 29104  1  0  0  0
 29105  1  0  0  0
 33 34  1  0  0  0
 33 66  1  0  0  0
 33 70  2  0  0  0
 34 36  1  0  0  0
 34 59  1  0  0  0
 34106  1  0  0  0
 35 44  2  0  0  0
 35 45  1  0  0  0
 35 68  1  0  0  0
 36 56  1  0  0  0
 36107  1  0  0  0
 37 39  1  0  0  0
 37 47  1  0  0  0
 37 66  1  0  0  0
 37108  1  0  0  0
 38 43  2  0  0  0
 38 46  1  0  0  0
 38 47  1  0  0  0
 39 64  1  0  0  0
 39 67  2  0  0  0
 40 52  1  0  0  0
 40 53  2  0  0  0
 40 58  1  0  0  0
 41109  1  0  0  0
 41110  1  0  0  0
 41111  1  0  0  0
 41 48  1  0  0  0
 42 43  1  0  0  0
 42 66  1  0  0  0
 42112  1  0  0  0
 42113  1  0  0  0
 43 44  1  0  0  0
 44114  1  0  0  0
 45 46  2  0  0  0
 45115  1  0  0  0
 46116  1  0  0  0
 47117  1  0  0  0
 47118  1  0  0  0
 48 56  1  0  0  0
 48 65  1  0  0  0
 48119  1  0  0  0
 49 50  1  0  0  0
 49 53  1  0  0  0
 49 64  1  0  0  0
 49120  1  0  0  0
 50 51  1  0  0  0
 50121  1  0  0  0
 50122  1  0  0  0
 51 52  1  0  0  0
 51123  1  0  0  0
 51124  1  0  0  0
 52125  1  0  0  0
 52126  1  0  0  0
 53 54  1  0  0  0
 54 55  2  0  0  0
 54127  1  0  0  0
 55 57  1  0  0  0
 55128  1  0  0  0
 56 69  2  0  0  0
 57 58  2  0  0  0
 57129  1  0  0  0
 58130  1  0  0  0
 59 60  1  0  0  0
 59 61  1  0  0  0
 59 62  1  0  0  0
 60131  1  0  0  0
 60132  1  0  0  0
 60133  1  0  0  0
 61134  1  0  0  0
 61135  1  0  0  0
 61136  1  0  0  0
 62137  1  0  0  0
 62138  1  0  0  0
 62139  1  0  0  0
 63 65  1  0  0  0
 63140  1  0  0  0
 63141  1  0  0  0
 63142  1  0  0  0
 64143  1  0  0  0
 65144  1  0  0  0
 68 82  1  0  0  0
 71 72  1  0  0  0
 71 73  2  0  0  0
 71145  1  0  0  0
 72 74  2  0  0  0
 72 75  1  0  0  0
 73 77  1  0  0  0
 73 85  1  0  0  0
 74 84  1  0  0  0
 74 85  1  0  0  0
 75 78  2  0  0  0
 75146  1  0  0  0
 76 81  1  0  0  0
 76 84  2  0  0  0
 76147  1  0  0  0
 77 83  2  0  0  0
 78 79  1  0  0  0
 78 80  1  0  0  0
 79148  1  0  0  0
 79149  1  0  0  0
 79150  1  0  0  0
 80151  1  0  0  0
 80152  1  0  0  0
 80153  1  0  0  0
 81 82  1  0  0  0
 81154  1  0  0  0
 81155  1  0  0  0
 82156  1  0  0  0
 82157  1  0  0  0
 83158  1  0  0  0
M  ISO  4   1 100  68 101  77 100  82 101
M  END
> <chiral flag>
0

> <version>
0

> <s_m_source_file>
/data/baiqing/PycharmProjects/Reinvent-master-3.2/result/LINK_invent/BTK/process_docking_weight1_custom_product_contain_oxygen_bond_distance_aromatic_linkinvent_7_9_3/rearranged_h_0117.sdf

> <i_m_source_file_index>
53

> <r_mmod_Potential_Energy-OPLS-2005>
242.197341918945

> <r_mmod_Stretch_Energy-OPLS-2005>
112.96061706543

> <r_mmod_Bend_Energy-OPLS-2005>
183.035354614258

> <r_mmod_Torsional_Energy-OPLS-2005>
212.672760009766

> <r_mmod_Improper_Torsional_Energy-OPLS-2005>
3.22744393348694

> <r_mmod_Van_der_Waal_Energy-OPLS-2005>
130.767166137695

> <r_mmod_Electrostatic_Energy-OPLS-2005>
-260.134155273438

> <r_mmod_Solvation_Energy-OPLS-2005>
-203.075622558594

> <b_mmod_Minimization_Converged-OPLS-2005>
0

> <r_mmod_RMS_Derivative-OPLS-2005>
1.71045517921448

$$$$
53
                    3D
 Structure written by MMmdl.
153161  0  0  1  0            999 V2000
  -30.6977  -14.4891   20.5637 C   0  0  0  0  0  0
  -30.4212  -12.3130   19.4401 C   0  0  0  0  0  0
  -29.4991  -12.5080   18.2160 C   0  0  0  0  0  0
  -28.0149  -12.3771   18.6145 C   0  0  0  0  0  0
  -27.6584  -13.2071   19.8760 C   0  0  2  0  0  0
  -28.6934  -12.9659   20.9939 C   0  0  0  0  0  0
  -25.2571  -13.8163   20.5675 C   0  0  0  0  0  0
  -24.1824  -13.0435   20.9168 C   0  0  0  0  0  0
  -24.6378  -11.6905   20.8731 C   0  0  0  0  0  0
  -23.9047  -10.4292   21.0408 C   0  0  0  0  0  0
  -24.3601   -9.4210   21.9189 C   0  0  0  0  0  0
  -23.6280   -8.2245   22.0758 C   0  0  0  0  0  0
  -22.4267   -8.0281   21.3543 C   0  0  0  0  0  0
  -21.9897   -9.0254   20.4648 C   0  0  0  0  0  0
  -22.7220  -10.2135   20.3059 C   0  0  0  0  0  0
  -21.6852   -6.0736   22.5278 C   0  0  0  0  0  0
  -21.4017   -6.5642   23.8212 C   0  0  0  0  0  0
  -21.3660   -5.6795   24.9173 C   0  0  0  0  0  0
  -21.6042   -4.3056   24.7225 C   0  0  0  0  0  0
  -21.8820   -3.8146   23.4346 C   0  0  0  0  0  0
  -21.9194   -4.6962   22.3401 C   0  0  0  0  0  0
  -22.7854  -13.5241   21.1845 C   0  0  0  0  0  0
  -22.1663   -4.2148   21.0978 F   0  0  0  0  0  0
  -21.5625   -3.4537   25.7737 F   0  0  0  0  0  0
  -30.0265  -13.3003   20.4627 N   0  0  0  0  0  0
  -26.2996  -12.9325   20.3349 N   0  0  0  0  0  0
  -25.9297  -11.6483   20.5737 N   0  0  0  0  0  0
  -22.0499  -12.8230   22.0403 N   0  0  0  0  0  0
  -25.4315  -15.1879   20.4100 N   0  0  0  0  0  0
  -31.8288  -14.6518   20.0919 O   0  0  0  0  0  0
  -21.6634   -6.8876   21.4238 O   0  0  0  0  0  0
  -22.3540  -14.5553   20.6709 O   0  0  0  0  0  0
  -24.6159  -31.8668   23.2080 C   0  0  0  0  0  0
  -25.9040  -32.4820   23.8397 C   0  0  1  0  0  0
  -27.2396  -27.4259   20.1035 C   0  0  0  0  0  0
  -25.5888  -33.8619   24.2331 N   0  0  0  0  0  0
  -23.4062  -30.4879   21.5484 C   0  0  2  0  0  0
  -24.8556  -28.9498   20.1162 C   0  0  0  0  0  0
  -22.7423  -29.4648   22.4981 C   0  0  0  0  0  0
  -18.0272  -28.1372   22.8487 C   0  0  0  0  0  0
  -24.1484  -36.7315   23.2643 C   0  0  0  0  0  0
  -25.9351  -30.8311   21.3611 C   0  0  0  0  0  0
  -26.0161  -29.4641   20.7088 C   0  0  0  0  0  0
  -27.2148  -28.7120   20.6933 C   0  0  0  0  0  0
  -26.0640  -26.9253   19.5063 C   0  0  0  0  0  0
  -24.8746  -27.6802   19.5104 C   0  0  0  0  0  0
  -23.6167  -29.8171   20.1645 C   0  0  0  0  0  0
  -25.4105  -36.3116   24.0344 C   0  0  1  0  0  0
  -20.5865  -28.3668   23.1307 C   0  0  2  0  0  0
  -20.6763  -26.9400   22.5420 C   0  0  0  0  0  0
  -19.5749  -26.6385   21.5208 C   0  0  0  0  0  0
  -18.1925  -26.7920   22.1617 C   0  0  0  0  0  0
  -19.1523  -28.8834   23.2897 C   0  0  0  0  0  0
  -18.9452  -30.1435   23.8918 C   0  0  0  0  0  0
  -17.6456  -30.6580   24.0562 C   0  0  0  0  0  0
  -25.9033  -34.9476   23.5138 C   0  0  0  0  0  0
  -16.5344  -29.9085   23.6316 C   0  0  0  0  0  0
  -16.7263  -28.6495   23.0346 C   0  0  0  0  0  0
  -26.4471  -31.6594   25.0723 C   0  0  0  0  0  0
  -25.3745  -31.3670   26.1473 C   0  0  0  0  0  0
  -27.0304  -30.3046   24.6078 C   0  0  0  0  0  0
  -27.6052  -32.4315   25.7475 C   0  0  0  0  0  0
  -27.5586  -37.1808   24.8465 C   0  0  0  0  0  0
  -21.4148  -29.3032   22.3715 N   0  0  0  0  0  0
  -26.4294  -37.3800   23.9413 N   0  0  0  0  0  0
  -24.6709  -31.0760   22.0982 N   0  0  0  0  0  0
  -23.4181  -28.8196   23.3041 O   0  0  0  0  0  0
  -28.3904  -26.6644   20.1027 O   0  0  0  0  0  0
  -26.5601  -34.8930   22.4704 O   0  0  0  0  0  0
  -23.5344  -32.1416   23.7464 O   0  0  0  0  0  0
  -29.6622  -18.2422   20.7364 C   0  0  0  0  0  0
  -29.9330  -16.7971   18.8053 C   0  0  0  0  0  0
  -29.6569  -19.2021   18.5019 C   0  0  0  0  0  0
  -29.8617  -16.9279   20.2146 C   0  0  0  0  0  0
  -29.5587  -19.3890   19.9020 C   0  0  0  0  0  0
  -29.8395  -17.9172   17.9631 C   0  0  0  0  0  0
  -28.4820  -24.1686   20.0806 C   0  0  0  0  0  0
  -29.2385  -23.1059   20.4459 C   0  0  0  0  0  0
  -29.9427  -15.7181   21.1208 C   0  0  0  0  0  0
  -28.3208  -25.4581   20.8894 C   0  0  0  0  0  0
  -29.3901  -21.8061   19.6549 C   0  0  0  0  0  0
  -29.4546  -15.7494   22.2923 N   0  0  0  0  0  0
  -29.3614  -20.6345   20.4912 O   0  0  0  0  0  0
  -29.9200  -17.7549   16.6211 F   0  0  0  0  0  0
  -31.4668  -12.4077   19.1428 H   0  0  0  0  0  0
  -30.3215  -11.3011   19.8354 H   0  0  0  0  0  0
  -29.7412  -11.7778   17.4428 H   0  0  0  0  0  0
  -29.6751  -13.4890   17.7730 H   0  0  0  0  0  0
  -27.8134  -11.3215   18.7990 H   0  0  0  0  0  0
  -27.3739  -12.6667   17.7809 H   0  0  0  0  0  0
  -27.7063  -14.2588   19.5935 H   0  0  0  0  0  0
  -28.6752  -11.9178   21.2961 H   0  0  0  0  0  0
  -28.4304  -13.5110   21.8971 H   0  0  0  0  0  0
  -25.2745   -9.5696   22.4762 H   0  0  0  0  0  0
  -23.9993   -7.4643   22.7485 H   0  0  0  0  0  0
  -21.0826   -8.8773   19.8954 H   0  0  0  0  0  0
  -22.3677  -10.9676   19.6171 H   0  0  0  0  0  0
  -21.2015   -7.6152   23.9714 H   0  0  0  0  0  0
  -21.1480   -6.0525   25.9077 H   0  0  0  0  0  0
  -22.0600   -2.7610   23.2846 H   0  0  0  0  0  0
  -22.4103  -11.9866   22.4753 H   0  0  0  0  0  0
  -21.1137  -13.1281   22.2650 H   0  0  0  0  0  0
  -24.6726  -15.8500   20.5286 H   0  0  0  0  0  0
  -26.2973  -15.6256   20.1215 H   0  0  0  0  0  0
  -26.7115  -32.5535   23.1166 H   0  0  0  0  0  0
  -25.0030  -33.9777   25.0469 H   0  0  0  0  0  0
  -22.6956  -31.3047   21.4062 H   0  0  0  0  0  0
  -23.3753  -35.9641   23.3300 H   0  0  0  0  0  0
  -24.3582  -36.8936   22.2060 H   0  0  0  0  0  0
  -23.7225  -37.6512   23.6662 H   0  0  0  0  0  0
  -26.0472  -31.5965   20.5922 H   0  0  0  0  0  0
  -26.8225  -30.8870   21.9797 H   0  0  0  0  0  0
  -28.1138  -29.1056   21.1475 H   0  0  0  0  0  0
  -26.0693  -25.9504   19.0399 H   0  0  0  0  0  0
  -23.9831  -27.2788   19.0485 H   0  0  0  0  0  0
  -23.7250  -30.5910   19.4038 H   0  0  0  0  0  0
  -22.7413  -29.2368   19.8696 H   0  0  0  0  0  0
  -25.1277  -36.1991   25.0836 H   0  0  0  0  0  0
  -20.9951  -28.3244   24.1430 H   0  0  0  0  0  0
  -20.5658  -26.2277   23.3614 H   0  0  0  0  0  0
  -21.6636  -26.7440   22.1224 H   0  0  0  0  0  0
  -19.6915  -25.6303   21.1230 H   0  0  0  0  0  0
  -19.6687  -27.3198   20.6740 H   0  0  0  0  0  0
  -17.4198  -26.6663   21.4016 H   0  0  0  0  0  0
  -18.0320  -26.0054   22.9004 H   0  0  0  0  0  0
  -19.7931  -30.7231   24.2313 H   0  0  0  0  0  0
  -17.5016  -31.6262   24.5166 H   0  0  0  0  0  0
  -15.5348  -30.2998   23.7624 H   0  0  0  0  0  0
  -15.8659  -28.0819   22.7058 H   0  0  0  0  0  0
  -24.5931  -30.7003   25.7804 H   0  0  0  0  0  0
  -24.8915  -32.2803   26.4957 H   0  0  0  0  0  0
  -25.8118  -30.8825   27.0211 H   0  0  0  0  0  0
  -26.2832  -29.6801   24.1166 H   0  0  0  0  0  0
  -27.4120  -29.7291   25.4519 H   0  0  0  0  0  0
  -27.8649  -30.4382   23.9189 H   0  0  0  0  0  0
  -27.2685  -33.3611   26.2075 H   0  0  0  0  0  0
  -28.3841  -32.6879   25.0282 H   0  0  0  0  0  0
  -28.0742  -31.8423   26.5366 H   0  0  0  0  0  0
  -28.2600  -38.0111   24.7538 H   0  0  0  0  0  0
  -28.1085  -36.2645   24.6263 H   0  0  0  0  0  0
  -27.2306  -37.1426   25.8868 H   0  0  0  0  0  0
  -20.9315  -29.8756   21.6935 H   0  0  0  0  0  0
  -26.0188  -38.2879   24.1425 H   0  0  0  0  0  0
  -29.5931  -18.3853   21.8054 H   0  0  0  0  0  0
  -30.0612  -15.8336   18.3355 H   0  0  0  0  0  0
  -29.5872  -20.0253   17.8076 H   0  0  0  0  0  0
  -27.9209  -24.1218   19.1586 H   0  0  0  0  0  0
  -29.8034  -23.1526   21.3665 H   0  0  0  0  0  0
  -29.1056  -25.5028   21.6457 H   0  0  0  0  0  0
  -27.3814  -25.3923   21.4416 H   0  0  0  0  0  0
  -30.3470  -21.8501   19.1327 H   0  0  0  0  0  0
  -28.6015  -21.7575   18.9020 H   0  0  0  0  0  0
  -29.0085  -16.6377   22.4829 H   0  0  0  0  0  0
  1 25  1  0  0  0
  1 30  2  0  0  0
  1 79  1  0  0  0
  2  3  1  0  0  0
  2 25  1  0  0  0
  2 85  1  0  0  0
  2 86  1  0  0  0
  3  4  1  0  0  0
  3 87  1  0  0  0
  3 88  1  0  0  0
  4  5  1  0  0  0
  4 89  1  0  0  0
  4 90  1  0  0  0
  5  6  1  0  0  0
  5 26  1  0  0  0
  5 91  1  0  0  0
  6 25  1  0  0  0
  6 92  1  0  0  0
  6 93  1  0  0  0
  7  8  2  0  0  0
  7 26  1  0  0  0
  7 29  1  0  0  0
  8  9  1  0  0  0
  8 22  1  0  0  0
  9 10  1  0  0  0
  9 27  2  0  0  0
 10 11  2  0  0  0
 10 15  1  0  0  0
 11 12  1  0  0  0
 11 94  1  0  0  0
 12 13  2  0  0  0
 12 95  1  0  0  0
 13 14  1  0  0  0
 13 31  1  0  0  0
 14 15  2  0  0  0
 14 96  1  0  0  0
 15 97  1  0  0  0
 16 17  2  0  0  0
 16 21  1  0  0  0
 16 31  1  0  0  0
 17 18  1  0  0  0
 17 98  1  0  0  0
 18 19  2  0  0  0
 18 99  1  0  0  0
 19 20  1  0  0  0
 19 24  1  0  0  0
 20 21  2  0  0  0
 20100  1  0  0  0
 21 23  1  0  0  0
 22 28  1  0  0  0
 22 32  2  0  0  0
 26 27  1  0  0  0
 28101  1  0  0  0
 28102  1  0  0  0
 29103  1  0  0  0
 29104  1  0  0  0
 33 34  1  0  0  0
 33 66  1  0  0  0
 33 70  2  0  0  0
 34 36  1  0  0  0
 34 59  1  0  0  0
 34105  1  0  0  0
 35 44  2  0  0  0
 35 45  1  0  0  0
 35 68  1  0  0  0
 36 56  1  0  0  0
 36106  1  0  0  0
 37 39  1  0  0  0
 37 47  1  0  0  0
 37 66  1  0  0  0
 37107  1  0  0  0
 38 43  2  0  0  0
 38 46  1  0  0  0
 38 47  1  0  0  0
 39 64  1  0  0  0
 39 67  2  0  0  0
 40 52  1  0  0  0
 40 53  2  0  0  0
 40 58  1  0  0  0
 41108  1  0  0  0
 41109  1  0  0  0
 41110  1  0  0  0
 41 48  1  0  0  0
 42 43  1  0  0  0
 42 66  1  0  0  0
 42111  1  0  0  0
 42112  1  0  0  0
 43 44  1  0  0  0
 44113  1  0  0  0
 45 46  2  0  0  0
 45114  1  0  0  0
 46115  1  0  0  0
 47116  1  0  0  0
 47117  1  0  0  0
 48 56  1  0  0  0
 48 65  1  0  0  0
 48118  1  0  0  0
 49 50  1  0  0  0
 49 53  1  0  0  0
 49 64  1  0  0  0
 49119  1  0  0  0
 50 51  1  0  0  0
 50120  1  0  0  0
 50121  1  0  0  0
 51 52  1  0  0  0
 51122  1  0  0  0
 51123  1  0  0  0
 52124  1  0  0  0
 52125  1  0  0  0
 53 54  1  0  0  0
 54 55  2  0  0  0
 54126  1  0  0  0
 55 57  1  0  0  0
 55127  1  0  0  0
 56 69  2  0  0  0
 57 58  2  0  0  0
 57128  1  0  0  0
 58129  1  0  0  0
 59 60  1  0  0  0
 59 61  1  0  0  0
 59 62  1  0  0  0
 60130  1  0  0  0
 60131  1  0  0  0
 60132  1  0  0  0
 61133  1  0  0  0
 61134  1  0  0  0
 61135  1  0  0  0
 62136  1  0  0  0
 62137  1  0  0  0
 62138  1  0  0  0
 63 65  1  0  0  0
 63139  1  0  0  0
 63140  1  0  0  0
 63141  1  0  0  0
 64142  1  0  0  0
 65143  1  0  0  0
 68 80  1  0  0  0
 71 74  2  0  0  0
 71 75  1  0  0  0
 71144  1  0  0  0
 72 74  1  0  0  0
 72 76  2  0  0  0
 72145  1  0  0  0
 73 75  2  0  0  0
 73 76  1  0  0  0
 73146  1  0  0  0
 74 79  1  0  0  0
 75 83  1  0  0  0
 76 84  1  0  0  0
 77 78  2  0  0  0
 77 80  1  0  0  0
 77147  1  0  0  0
 78 81  1  0  0  0
 78148  1  0  0  0
 79 82  2  0  0  0
 80149  1  0  0  0
 80150  1  0  0  0
 81 83  1  0  0  0
 81151  1  0  0  0
 81152  1  0  0  0
 82153  1  0  0  0
M  ISO  4   1 100  68 101  79 100  80 101
M  END
> <chiral flag>
0

> <version>
0

> <s_m_source_file>
/data/baiqing/PycharmProjects/Reinvent-master-3.2/result/LINK_invent/BTK/process_docking_weight1_custom_product_contain_oxygen_bond_distance_aromatic_linkinvent_7_9_3/rearranged_h_0117.sdf

> <i_m_source_file_index>
54

> <r_mmod_Potential_Energy-OPLS-2005>
93.9817504882812

> <r_mmod_Stretch_Energy-OPLS-2005>
47.6643447875977

> <r_mmod_Bend_Energy-OPLS-2005>
101.392166137695

> <r_mmod_Torsional_Energy-OPLS-2005>
217.950241088867

> <r_mmod_Improper_Torsional_Energy-OPLS-2005>
3.88736248016357

> <r_mmod_Van_der_Waal_Energy-OPLS-2005>
157.645599365234

> <r_mmod_Electrostatic_Energy-OPLS-2005>
-251.583786010742

> <r_mmod_Solvation_Energy-OPLS-2005>
-196.897598266602

> <b_mmod_Minimization_Converged-OPLS-2005>
0

> <r_mmod_RMS_Derivative-OPLS-2005>
0.941280722618103

$$$$
54
                    3D
 Structure written by MMmdl.
154162  0  0  1  0            999 V2000
  -30.7112  -14.4675   20.5789 C   0  0  0  0  0  0
  -30.4186  -12.3021   19.4421 C   0  0  0  0  0  0
  -29.5037  -12.5206   18.2175 C   0  0  0  0  0  0
  -28.0213  -12.3708   18.6138 C   0  0  0  0  0  0
  -27.6607  -13.2035   19.8725 C   0  0  2  0  0  0
  -28.6922  -12.9658   20.9953 C   0  0  0  0  0  0
  -25.2590  -13.8148   20.5654 C   0  0  0  0  0  0
  -24.1841  -13.0426   20.9149 C   0  0  0  0  0  0
  -24.6389  -11.6892   20.8700 C   0  0  0  0  0  0
  -23.9054  -10.4284   21.0385 C   0  0  0  0  0  0
  -24.3615   -9.4210   21.9167 C   0  0  0  0  0  0
  -23.6298   -8.2244   22.0748 C   0  0  0  0  0  0
  -22.4282   -8.0273   21.3536 C   0  0  0  0  0  0
  -21.9911   -9.0240   20.4636 C   0  0  0  0  0  0
  -22.7231  -10.2121   20.3034 C   0  0  0  0  0  0
  -21.6849   -6.0737   22.5277 C   0  0  0  0  0  0
  -21.4013   -6.5644   23.8212 C   0  0  0  0  0  0
  -21.3661   -5.6796   24.9176 C   0  0  0  0  0  0
  -21.6042   -4.3057   24.7222 C   0  0  0  0  0  0
  -21.8820   -3.8152   23.4344 C   0  0  0  0  0  0
  -21.9196   -4.6967   22.3401 C   0  0  0  0  0  0
  -22.7870  -13.5223   21.1835 C   0  0  0  0  0  0
  -22.1667   -4.2157   21.0976 F   0  0  0  0  0  0
  -21.5625   -3.4538   25.7738 F   0  0  0  0  0  0
  -30.0304  -13.2862   20.4684 N   0  0  0  0  0  0
  -26.3008  -12.9302   20.3305 N   0  0  0  0  0  0
  -25.9303  -11.6464   20.5706 N   0  0  0  0  0  0
  -22.0528  -12.8194   22.0389 N   0  0  0  0  0  0
  -25.4330  -15.1871   20.4105 N   0  0  0  0  0  0
  -31.8295  -14.6404   20.0820 O   0  0  0  0  0  0
  -21.6636   -6.8879   21.4242 O   0  0  0  0  0  0
  -22.3550  -14.5541   20.6712 O   0  0  0  0  0  0
  -24.6109  -31.8696   23.2116 C   0  0  0  0  0  0
  -25.9009  -32.4836   23.8406 C   0  0  1  0  0  0
  -27.2430  -27.4577   20.0970 C   0  0  0  0  0  0
  -25.5886  -33.8632   24.2341 N   0  0  0  0  0  0
  -23.3987  -30.4904   21.5526 C   0  0  2  0  0  0
  -24.8494  -28.9561   20.1179 C   0  0  0  0  0  0
  -22.7390  -29.4652   22.5013 C   0  0  0  0  0  0
  -18.0265  -28.1360   22.8495 C   0  0  0  0  0  0
  -24.1483  -36.7323   23.2640 C   0  0  0  0  0  0
  -25.9226  -30.8434   21.3576 C   0  0  0  0  0  0
  -26.0064  -29.4764   20.7114 C   0  0  0  0  0  0
  -27.2079  -28.7347   20.6980 C   0  0  0  0  0  0
  -26.0720  -26.9429   19.5023 C   0  0  0  0  0  0
  -24.8755  -27.6869   19.5114 C   0  0  0  0  0  0
  -23.6077  -29.8191   20.1676 C   0  0  0  0  0  0
  -25.4106  -36.3129   24.0340 C   0  0  1  0  0  0
  -20.5850  -28.3648   23.1338 C   0  0  2  0  0  0
  -20.6761  -26.9393   22.5423 C   0  0  0  0  0  0
  -19.5748  -26.6385   21.5210 C   0  0  0  0  0  0
  -18.1920  -26.7913   22.1616 C   0  0  0  0  0  0
  -19.1508  -28.8822   23.2914 C   0  0  0  0  0  0
  -18.9444  -30.1424   23.8932 C   0  0  0  0  0  0
  -17.6447  -30.6581   24.0562 C   0  0  0  0  0  0
  -25.9031  -34.9484   23.5143 C   0  0  0  0  0  0
  -16.5342  -29.9083   23.6314 C   0  0  0  0  0  0
  -16.7255  -28.6493   23.0352 C   0  0  0  0  0  0
  -26.4458  -31.6598   25.0709 C   0  0  0  0  0  0
  -25.3727  -31.3668   26.1449 C   0  0  0  0  0  0
  -27.0299  -30.3069   24.6030 C   0  0  0  0  0  0
  -27.6063  -32.4284   25.7465 C   0  0  0  0  0  0
  -27.5581  -37.1822   24.8462 C   0  0  0  0  0  0
  -21.4122  -29.3024   22.3757 N   0  0  0  0  0  0
  -26.4305  -37.3805   23.9400 N   0  0  0  0  0  0
  -24.6630  -31.0804   22.1006 N   0  0  0  0  0  0
  -23.4172  -28.8182   23.3040 O   0  0  0  0  0  0
  -28.4102  -26.7342   20.0729 O   0  0  0  0  0  0
  -26.5601  -34.8927   22.4706 O   0  0  0  0  0  0
  -23.5312  -32.1448   23.7526 O   0  0  0  0  0  0
  -29.6378  -18.1827   20.8673 C   0  0  0  0  0  0
  -29.8386  -16.7834   18.8949 C   0  0  0  0  0  0
  -29.5060  -19.1862   18.6546 C   0  0  0  0  0  0
  -29.8322  -16.8863   20.3092 C   0  0  0  0  0  0
  -29.4719  -19.3365   20.0611 C   0  0  0  0  0  0
  -29.6883  -17.9176   18.0801 C   0  0  0  0  0  0
  -29.9806  -15.6740   21.1958 C   0  0  0  0  0  0
  -28.7948  -24.3012   20.0177 C   0  0  0  0  0  0
  -28.9279  -22.9704   20.7802 C   0  0  0  0  0  0
  -28.3747  -25.5270   20.8457 C   0  0  0  0  0  0
  -29.1300  -21.7294   19.8858 C   0  0  0  0  0  0
  -29.5699  -15.6848   22.3973 N   0  0  0  0  0  0
  -29.0184  -24.3834   18.8045 O   0  0  0  0  0  0
  -29.2819  -20.5543   20.6940 O   0  0  0  0  0  0
  -29.7141  -17.7854   16.7321 F   0  0  0  0  0  0
  -31.4691  -12.3801   19.1571 H   0  0  0  0  0  0
  -30.2981  -11.2892   19.8290 H   0  0  0  0  0  0
  -29.7558  -11.8166   17.4237 H   0  0  0  0  0  0
  -29.6749  -13.5160   17.8050 H   0  0  0  0  0  0
  -27.8350  -11.3139   18.8044 H   0  0  0  0  0  0
  -27.3775  -12.6469   17.7781 H   0  0  0  0  0  0
  -27.7091  -14.2535   19.5841 H   0  0  0  0  0  0
  -28.6680  -11.9217   21.3105 H   0  0  0  0  0  0
  -28.4266  -13.5238   21.8898 H   0  0  0  0  0  0
  -25.2761   -9.5688   22.4735 H   0  0  0  0  0  0
  -24.0014   -7.4635   22.7468 H   0  0  0  0  0  0
  -21.0844   -8.8742   19.8943 H   0  0  0  0  0  0
  -22.3682  -10.9651   19.6138 H   0  0  0  0  0  0
  -21.2006   -7.6151   23.9718 H   0  0  0  0  0  0
  -21.1483   -6.0525   25.9078 H   0  0  0  0  0  0
  -22.0600   -2.7612   23.2839 H   0  0  0  0  0  0
  -22.4157  -11.9842   22.4737 H   0  0  0  0  0  0
  -21.1137  -13.1190   22.2601 H   0  0  0  0  0  0
  -24.6721  -15.8465   20.5267 H   0  0  0  0  0  0
  -26.2977  -15.6285   20.1240 H   0  0  0  0  0  0
  -26.7077  -32.5572   23.1184 H   0  0  0  0  0  0
  -25.0028  -33.9791   25.0480 H   0  0  0  0  0  0
  -22.6874  -31.3061   21.4126 H   0  0  0  0  0  0
  -23.3748  -35.9651   23.3305 H   0  0  0  0  0  0
  -24.3578  -36.8947   22.2053 H   0  0  0  0  0  0
  -23.7218  -37.6523   23.6655 H   0  0  0  0  0  0
  -26.0168  -31.6039   20.5812 H   0  0  0  0  0  0
  -26.8173  -30.9125   21.9646 H   0  0  0  0  0  0
  -28.1036  -29.1339   21.1529 H   0  0  0  0  0  0
  -26.0894  -25.9752   19.0208 H   0  0  0  0  0  0
  -23.9861  -27.2818   19.0478 H   0  0  0  0  0  0
  -23.7071  -30.5930   19.4056 H   0  0  0  0  0  0
  -22.7345  -29.2317   19.8777 H   0  0  0  0  0  0
  -25.1275  -36.2036   25.0837 H   0  0  0  0  0  0
  -20.9930  -28.3210   24.1461 H   0  0  0  0  0  0
  -20.5678  -26.2244   23.3593 H   0  0  0  0  0  0
  -21.6636  -26.7453   22.1216 H   0  0  0  0  0  0
  -19.6918  -25.6302   21.1224 H   0  0  0  0  0  0
  -19.6702  -27.3210   20.6751 H   0  0  0  0  0  0
  -17.4197  -26.6662   21.4011 H   0  0  0  0  0  0
  -18.0321  -26.0034   22.8996 H   0  0  0  0  0  0
  -19.7916  -30.7211   24.2351 H   0  0  0  0  0  0
  -17.5005  -31.6271   24.5144 H   0  0  0  0  0  0
  -15.5346  -30.3000   23.7611 H   0  0  0  0  0  0
  -15.8650  -28.0824   22.7064 H   0  0  0  0  0  0
  -24.5904  -30.7027   25.7752 H   0  0  0  0  0  0
  -24.8892  -32.2796   26.4933 H   0  0  0  0  0  0
  -25.8052  -30.8793   27.0190 H   0  0  0  0  0  0
  -26.2830  -29.6813   24.1122 H   0  0  0  0  0  0
  -27.4171  -29.7316   25.4447 H   0  0  0  0  0  0
  -27.8606  -30.4444   23.9099 H   0  0  0  0  0  0
  -27.2755  -33.3607   26.2051 H   0  0  0  0  0  0
  -28.3870  -32.6794   25.0271 H   0  0  0  0  0  0
  -28.0716  -31.8369   26.5365 H   0  0  0  0  0  0
  -28.2616  -38.0110   24.7532 H   0  0  0  0  0  0
  -28.1072  -36.2645   24.6281 H   0  0  0  0  0  0
  -27.2293  -37.1474   25.8867 H   0  0  0  0  0  0
  -20.9278  -29.8749   21.6989 H   0  0  0  0  0  0
  -26.0207  -38.2898   24.1394 H   0  0  0  0  0  0
  -29.6188  -18.3094   21.9406 H   0  0  0  0  0  0
  -29.9611  -15.8325   18.3993 H   0  0  0  0  0  0
  -29.3915  -20.0251   17.9854 H   0  0  0  0  0  0
  -28.0348  -22.8376   21.3901 H   0  0  0  0  0  0
  -29.7629  -23.0624   21.4730 H   0  0  0  0  0  0
  -29.0641  -25.6354   21.6833 H   0  0  0  0  0  0
  -27.3867  -25.3435   21.2686 H   0  0  0  0  0  0
  -30.0131  -21.8642   19.2580 H   0  0  0  0  0  0
  -28.2658  -21.6171   19.2288 H   0  0  0  0  0  0
  -29.1286  -16.5667   22.6270 H   0  0  0  0  0  0
  1 25  1  0  0  0
  1 30  2  0  0  0
  1 77  1  0  0  0
  2  3  1  0  0  0
  2 25  1  0  0  0
  2 86  1  0  0  0
  2 87  1  0  0  0
  3  4  1  0  0  0
  3 88  1  0  0  0
  3 89  1  0  0  0
  4  5  1  0  0  0
  4 90  1  0  0  0
  4 91  1  0  0  0
  5  6  1  0  0  0
  5 26  1  0  0  0
  5 92  1  0  0  0
  6 25  1  0  0  0
  6 93  1  0  0  0
  6 94  1  0  0  0
  7  8  2  0  0  0
  7 26  1  0  0  0
  7 29  1  0  0  0
  8  9  1  0  0  0
  8 22  1  0  0  0
  9 10  1  0  0  0
  9 27  2  0  0  0
 10 11  2  0  0  0
 10 15  1  0  0  0
 11 12  1  0  0  0
 11 95  1  0  0  0
 12 13  2  0  0  0
 12 96  1  0  0  0
 13 14  1  0  0  0
 13 31  1  0  0  0
 14 15  2  0  0  0
 14 97  1  0  0  0
 15 98  1  0  0  0
 16 17  2  0  0  0
 16 21  1  0  0  0
 16 31  1  0  0  0
 17 18  1  0  0  0
 17 99  1  0  0  0
 18 19  2  0  0  0
 18100  1  0  0  0
 19 20  1  0  0  0
 19 24  1  0  0  0
 20 21  2  0  0  0
 20101  1  0  0  0
 21 23  1  0  0  0
 22 28  1  0  0  0
 22 32  2  0  0  0
 26 27  1  0  0  0
 28102  1  0  0  0
 28103  1  0  0  0
 29104  1  0  0  0
 29105  1  0  0  0
 33 34  1  0  0  0
 33 66  1  0  0  0
 33 70  2  0  0  0
 34 36  1  0  0  0
 34 59  1  0  0  0
 34106  1  0  0  0
 35 44  2  0  0  0
 35 45  1  0  0  0
 35 68  1  0  0  0
 36 56  1  0  0  0
 36107  1  0  0  0
 37 39  1  0  0  0
 37 47  1  0  0  0
 37 66  1  0  0  0
 37108  1  0  0  0
 38 43  2  0  0  0
 38 46  1  0  0  0
 38 47  1  0  0  0
 39 64  1  0  0  0
 39 67  2  0  0  0
 40 52  1  0  0  0
 40 53  2  0  0  0
 40 58  1  0  0  0
 41109  1  0  0  0
 41110  1  0  0  0
 41111  1  0  0  0
 41 48  1  0  0  0
 42 43  1  0  0  0
 42 66  1  0  0  0
 42112  1  0  0  0
 42113  1  0  0  0
 43 44  1  0  0  0
 44114  1  0  0  0
 45 46  2  0  0  0
 45115  1  0  0  0
 46116  1  0  0  0
 47117  1  0  0  0
 47118  1  0  0  0
 48 56  1  0  0  0
 48 65  1  0  0  0
 48119  1  0  0  0
 49 50  1  0  0  0
 49 53  1  0  0  0
 49 64  1  0  0  0
 49120  1  0  0  0
 50 51  1  0  0  0
 50121  1  0  0  0
 50122  1  0  0  0
 51 52  1  0  0  0
 51123  1  0  0  0
 51124  1  0  0  0
 52125  1  0  0  0
 52126  1  0  0  0
 53 54  1  0  0  0
 54 55  2  0  0  0
 54127  1  0  0  0
 55 57  1  0  0  0
 55128  1  0  0  0
 56 69  2  0  0  0
 57 58  2  0  0  0
 57129  1  0  0  0
 58130  1  0  0  0
 59 60  1  0  0  0
 59 61  1  0  0  0
 59 62  1  0  0  0
 60131  1  0  0  0
 60132  1  0  0  0
 60133  1  0  0  0
 61134  1  0  0  0
 61135  1  0  0  0
 61136  1  0  0  0
 62137  1  0  0  0
 62138  1  0  0  0
 62139  1  0  0  0
 63 65  1  0  0  0
 63140  1  0  0  0
 63141  1  0  0  0
 63142  1  0  0  0
 64143  1  0  0  0
 65144  1  0  0  0
 68 80  1  0  0  0
 71 74  2  0  0  0
 71 75  1  0  0  0
 71145  1  0  0  0
 72 74  1  0  0  0
 72 76  2  0  0  0
 72146  1  0  0  0
 73 75  2  0  0  0
 73 76  1  0  0  0
 73147  1  0  0  0
 74 77  1  0  0  0
 75 84  1  0  0  0
 76 85  1  0  0  0
 77 82  2  0  0  0
 78 79  1  0  0  0
 78 80  1  0  0  0
 78 83  2  0  0  0
 79 81  1  0  0  0
 79148  1  0  0  0
 79149  1  0  0  0
 80150  1  0  0  0
 80151  1  0  0  0
 81 84  1  0  0  0
 81152  1  0  0  0
 81153  1  0  0  0
 82154  1  0  0  0
M  ISO  4   1 100  68 101  77 100  80 101
M  END
> <chiral flag>
0

> <version>
0

> <s_m_source_file>
/data/baiqing/PycharmProjects/Reinvent-master-3.2/result/LINK_invent/BTK/process_docking_weight1_custom_product_contain_oxygen_bond_distance_aromatic_linkinvent_7_9_3/rearranged_h_0117.sdf

> <i_m_source_file_index>
55

> <r_mmod_Potential_Energy-OPLS-2005>
68.9364013671875

> <r_mmod_Stretch_Energy-OPLS-2005>
42.1351127624512

> <r_mmod_Bend_Energy-OPLS-2005>
100.309204101562

> <r_mmod_Torsional_Energy-OPLS-2005>
223.388519287109

> <r_mmod_Improper_Torsional_Energy-OPLS-2005>
3.6457884311676

> <r_mmod_Van_der_Waal_Energy-OPLS-2005>
159.451873779297

> <r_mmod_Electrostatic_Energy-OPLS-2005>
-253.313735961914

> <r_mmod_Solvation_Energy-OPLS-2005>
-217.020690917969

> <b_mmod_Minimization_Converged-OPLS-2005>
0

> <r_mmod_RMS_Derivative-OPLS-2005>
1.6633974313736

$$$$
55
                    3D
 Structure written by MMmdl.
158166  0  0  1  0            999 V2000
  -30.6348  -14.6566   20.4771 C   0  0  0  0  0  0
  -30.4397  -12.3968   19.4530 C   0  0  0  0  0  0
  -29.5070  -12.4981   18.2250 C   0  0  0  0  0  0
  -28.0310  -12.3401   18.6418 C   0  0  0  0  0  0
  -27.6548  -13.2202   19.8638 C   0  0  2  0  0  0
  -28.7043  -13.0944   20.9921 C   0  0  0  0  0  0
  -25.2568  -13.8156   20.5670 C   0  0  0  0  0  0
  -24.1832  -13.0424   20.9159 C   0  0  0  0  0  0
  -24.6414  -11.6901   20.8733 C   0  0  0  0  0  0
  -23.9080  -10.4284   21.0392 C   0  0  0  0  0  0
  -24.3628   -9.4202   21.9172 C   0  0  0  0  0  0
  -23.6295   -8.2251   22.0765 C   0  0  0  0  0  0
  -22.4283   -8.0287   21.3547 C   0  0  0  0  0  0
  -21.9908   -9.0258   20.4654 C   0  0  0  0  0  0
  -22.7250  -10.2127   20.3047 C   0  0  0  0  0  0
  -21.6858   -6.0732   22.5273 C   0  0  0  0  0  0
  -21.4024   -6.5639   23.8204 C   0  0  0  0  0  0
  -21.3655   -5.6793   24.9166 C   0  0  0  0  0  0
  -21.6044   -4.3057   24.7219 C   0  0  0  0  0  0
  -21.8820   -3.8144   23.4344 C   0  0  0  0  0  0
  -21.9197   -4.6959   22.3400 C   0  0  0  0  0  0
  -22.7858  -13.5227   21.1827 C   0  0  0  0  0  0
  -22.1663   -4.2144   21.0975 F   0  0  0  0  0  0
  -21.5617   -3.4539   25.7729 F   0  0  0  0  0  0
  -30.0177  -13.4315   20.4195 N   0  0  0  0  0  0
  -26.3021  -12.9362   20.3359 N   0  0  0  0  0  0
  -25.9353  -11.6513   20.5787 N   0  0  0  0  0  0
  -22.0507  -12.8220   22.0386 N   0  0  0  0  0  0
  -25.4248  -15.1872   20.4085 N   0  0  0  0  0  0
  -31.8035  -14.7974   20.1088 O   0  0  0  0  0  0
  -21.6649   -6.8880   21.4238 O   0  0  0  0  0  0
  -22.3547  -14.5543   20.6696 O   0  0  0  0  0  0
  -24.6270  -31.8578   23.2021 C   0  0  0  0  0  0
  -25.9107  -32.4769   23.8348 C   0  0  1  0  0  0
  -27.2309  -27.3158   20.1165 C   0  0  0  0  0  0
  -25.5918  -33.8568   24.2285 N   0  0  0  0  0  0
  -23.4210  -30.4844   21.5413 C   0  0  2  0  0  0
  -24.8692  -28.9389   20.1089 C   0  0  0  0  0  0
  -22.7481  -29.4612   22.4879 C   0  0  0  0  0  0
  -18.0301  -28.1390   22.8487 C   0  0  0  0  0  0
  -24.1490  -36.7283   23.2643 C   0  0  0  0  0  0
  -25.9642  -30.7892   21.3723 C   0  0  0  0  0  0
  -26.0380  -29.4174   20.7143 C   0  0  0  0  0  0
  -27.2210  -28.6181   20.7070 C   0  0  0  0  0  0
  -26.0342  -26.8892   19.4940 C   0  0  0  0  0  0
  -24.8694  -27.6803   19.4905 C   0  0  0  0  0  0
  -23.6370  -29.8207   20.1562 C   0  0  0  0  0  0
  -25.4111  -36.3076   24.0342 C   0  0  1  0  0  0
  -20.5904  -28.3677   23.1276 C   0  0  2  0  0  0
  -20.6786  -26.9391   22.5416 C   0  0  0  0  0  0
  -19.5760  -26.6373   21.5213 C   0  0  0  0  0  0
  -18.1938  -26.7943   22.1615 C   0  0  0  0  0  0
  -19.1560  -28.8846   23.2887 C   0  0  0  0  0  0
  -18.9475  -30.1459   23.8886 C   0  0  0  0  0  0
  -17.6474  -30.6588   24.0571 C   0  0  0  0  0  0
  -25.9037  -34.9447   23.5114 C   0  0  0  0  0  0
  -16.5364  -29.9093   23.6338 C   0  0  0  0  0  0
  -16.7285  -28.6520   23.0338 C   0  0  0  0  0  0
  -26.4489  -31.6589   25.0721 C   0  0  0  0  0  0
  -25.3728  -31.3743   26.1454 C   0  0  0  0  0  0
  -27.0324  -30.3013   24.6171 C   0  0  0  0  0  0
  -27.6060  -32.4303   25.7490 C   0  0  0  0  0  0
  -27.5581  -37.1793   24.8467 C   0  0  0  0  0  0
  -21.4187  -29.3034   22.3657 N   0  0  0  0  0  0
  -26.4287  -37.3771   23.9423 N   0  0  0  0  0  0
  -24.6892  -31.0611   22.0955 N   0  0  0  0  0  0
  -23.4222  -28.8131   23.2933 O   0  0  0  0  0  0
  -28.3564  -26.4727   20.1626 O   0  0  0  0  0  0
  -26.5606  -34.8919   22.4678 O   0  0  0  0  0  0
  -23.5429  -32.1352   23.7351 O   0  0  0  0  0  0
  -31.0598  -17.8755   20.1067 C   0  0  0  0  0  0
  -28.8431  -19.4022   20.8594 C   0  0  0  0  0  0
  -31.0900  -19.3036   19.9722 C   0  0  0  0  0  0
  -29.9673  -20.1141   20.3576 C   0  0  0  0  0  0
  -29.9398  -17.1760   20.6229 C   0  0  0  0  0  0
  -28.8234  -17.9719   20.9983 C   0  0  0  0  0  0
  -33.5235  -19.3841   19.2708 C   0  0  0  0  0  0
  -32.3203  -19.9564   19.4612 C   0  0  0  0  0  0
  -29.1090  -22.4531   20.3392 C   0  0  0  0  0  0
  -26.6321  -18.0151   21.9938 C   0  0  0  0  0  0
  -29.3589  -24.0174   20.3629 C   0  0  0  0  0  0
  -28.1549  -25.0066   20.0308 C   0  0  0  0  0  0
  -30.0580  -21.5597   20.2925 N   0  0  0  0  0  0
  -29.8318  -15.7202   20.7971 N   0  0  0  0  0  0
  -27.7439  -17.2750   21.5061 O   0  0  0  0  0  0
  -31.4808  -12.5171   19.1467 H   0  0  0  0  0  0
  -30.3727  -11.4063   19.9072 H   0  0  0  0  0  0
  -29.7686  -11.7340   17.4912 H   0  0  0  0  0  0
  -29.6487  -13.4606   17.7291 H   0  0  0  0  0  0
  -27.8697  -11.2888   18.8844 H   0  0  0  0  0  0
  -27.3727  -12.5616   17.8007 H   0  0  0  0  0  0
  -27.6671  -14.2516   19.5119 H   0  0  0  0  0  0
  -28.7207  -12.0806   21.3954 H   0  0  0  0  0  0
  -28.4538  -13.7447   21.8320 H   0  0  0  0  0  0
  -25.2780   -9.5682   22.4736 H   0  0  0  0  0  0
  -24.0000   -7.4652   22.7497 H   0  0  0  0  0  0
  -21.0835   -8.8784   19.8970 H   0  0  0  0  0  0
  -22.3716  -10.9663   19.6152 H   0  0  0  0  0  0
  -21.2029   -7.6151   23.9702 H   0  0  0  0  0  0
  -21.1472   -6.0527   25.9065 H   0  0  0  0  0  0
  -22.0607   -2.7607   23.2844 H   0  0  0  0  0  0
  -22.4134  -11.9876   22.4763 H   0  0  0  0  0  0
  -21.1131  -13.1248   22.2600 H   0  0  0  0  0  0
  -24.6591  -15.8385   20.5321 H   0  0  0  0  0  0
  -26.2944  -15.6403   20.1568 H   0  0  0  0  0  0
  -26.7167  -32.5426   23.1085 H   0  0  0  0  0  0
  -25.0091  -33.9704   25.0456 H   0  0  0  0  0  0
  -22.7165  -31.3065   21.3987 H   0  0  0  0  0  0
  -23.3746  -35.9610   23.3297 H   0  0  0  0  0  0
  -24.3591  -36.8899   22.2056 H   0  0  0  0  0  0
  -23.7238  -37.6492   23.6653 H   0  0  0  0  0  0
  -26.1021  -31.5540   20.6056 H   0  0  0  0  0  0
  -26.8446  -30.8346   22.0023 H   0  0  0  0  0  0
  -28.1171  -28.9849   21.1865 H   0  0  0  0  0  0
  -25.9693  -25.9272   19.0097 H   0  0  0  0  0  0
  -23.9730  -27.3077   19.0125 H   0  0  0  0  0  0
  -23.7580  -30.5992   19.4022 H   0  0  0  0  0  0
  -22.7577  -29.2512   19.8495 H   0  0  0  0  0  0
  -25.1289  -36.1919   25.0830 H   0  0  0  0  0  0
  -21.0020  -28.3238   24.1387 H   0  0  0  0  0  0
  -20.5668  -26.2268   23.3602 H   0  0  0  0  0  0
  -21.6653  -26.7394   22.1205 H   0  0  0  0  0  0
  -19.6916  -25.6285   21.1237 H   0  0  0  0  0  0
  -19.6732  -27.3191   20.6755 H   0  0  0  0  0  0
  -17.4214  -26.6688   21.4013 H   0  0  0  0  0  0
  -18.0332  -26.0103   22.9017 H   0  0  0  0  0  0
  -19.7947  -30.7297   24.2221 H   0  0  0  0  0  0
  -17.5027  -31.6268   24.5171 H   0  0  0  0  0  0
  -15.5366  -30.2990   23.7682 H   0  0  0  0  0  0
  -15.8682  -28.0859   22.7020 H   0  0  0  0  0  0
  -24.5921  -30.7053   25.7818 H   0  0  0  0  0  0
  -24.8889  -32.2912   26.4820 H   0  0  0  0  0  0
  -25.8058  -30.8991   27.0262 H   0  0  0  0  0  0
  -26.2901  -29.6761   24.1189 H   0  0  0  0  0  0
  -27.4045  -29.7256   25.4658 H   0  0  0  0  0  0
  -27.8757  -30.4321   23.9385 H   0  0  0  0  0  0
  -27.2692  -33.3613   26.2056 H   0  0  0  0  0  0
  -28.3875  -32.6825   25.0314 H   0  0  0  0  0  0
  -28.0705  -31.8417   26.5411 H   0  0  0  0  0  0
  -28.2588  -38.0101   24.7506 H   0  0  0  0  0  0
  -28.1084  -36.2627   24.6281 H   0  0  0  0  0  0
  -27.2311  -37.1431   25.8876 H   0  0  0  0  0  0
  -20.9329  -29.8783   21.6908 H   0  0  0  0  0  0
  -26.0164  -38.2840   24.1427 H   0  0  0  0  0  0
  -31.9169  -17.2969   19.8038 H   0  0  0  0  0  0
  -27.9851  -19.9801   21.1642 H   0  0  0  0  0  0
  -34.3465  -19.9684   18.8848 H   0  0  0  0  0  0
  -33.7280  -18.3468   19.4894 H   0  0  0  0  0  0
  -32.2425  -21.0033   19.2029 H   0  0  0  0  0  0
  -28.0526  -22.1729   20.3842 H   0  0  0  0  0  0
  -25.9015  -17.3310   22.4249 H   0  0  0  0  0  0
  -26.1360  -18.5596   21.1899 H   0  0  0  0  0  0
  -26.9257  -18.7141   22.7776 H   0  0  0  0  0  0
  -30.1821  -24.2365   19.6835 H   0  0  0  0  0  0
  -29.7297  -24.2632   21.3580 H   0  0  0  0  0  0
  -27.3165  -24.7253   20.6708 H   0  0  0  0  0  0
  -27.8496  -24.8028   19.0042 H   0  0  0  0  0  0
  -28.9214  -15.4368   21.1264 H   0  0  0  0  0  0
  1 25  1  0  0  0
  1 30  2  0  0  0
  1 84  1  0  0  0
  2  3  1  0  0  0
  2 25  1  0  0  0
  2 86  1  0  0  0
  2 87  1  0  0  0
  3  4  1  0  0  0
  3 88  1  0  0  0
  3 89  1  0  0  0
  4  5  1  0  0  0
  4 90  1  0  0  0
  4 91  1  0  0  0
  5  6  1  0  0  0
  5 26  1  0  0  0
  5 92  1  0  0  0
  6 25  1  0  0  0
  6 93  1  0  0  0
  6 94  1  0  0  0
  7  8  2  0  0  0
  7 26  1  0  0  0
  7 29  1  0  0  0
  8  9  1  0  0  0
  8 22  1  0  0  0
  9 10  1  0  0  0
  9 27  2  0  0  0
 10 11  2  0  0  0
 10 15  1  0  0  0
 11 12  1  0  0  0
 11 95  1  0  0  0
 12 13  2  0  0  0
 12 96  1  0  0  0
 13 14  1  0  0  0
 13 31  1  0  0  0
 14 15  2  0  0  0
 14 97  1  0  0  0
 15 98  1  0  0  0
 16 17  2  0  0  0
 16 21  1  0  0  0
 16 31  1  0  0  0
 17 18  1  0  0  0
 17 99  1  0  0  0
 18 19  2  0  0  0
 18100  1  0  0  0
 19 20  1  0  0  0
 19 24  1  0  0  0
 20 21  2  0  0  0
 20101  1  0  0  0
 21 23  1  0  0  0
 22 28  1  0  0  0
 22 32  2  0  0  0
 26 27  1  0  0  0
 28102  1  0  0  0
 28103  1  0  0  0
 29104  1  0  0  0
 29105  1  0  0  0
 33 34  1  0  0  0
 33 66  1  0  0  0
 33 70  2  0  0  0
 34 36  1  0  0  0
 34 59  1  0  0  0
 34106  1  0  0  0
 35 44  2  0  0  0
 35 45  1  0  0  0
 35 68  1  0  0  0
 36 56  1  0  0  0
 36107  1  0  0  0
 37 39  1  0  0  0
 37 47  1  0  0  0
 37 66  1  0  0  0
 37108  1  0  0  0
 38 43  2  0  0  0
 38 46  1  0  0  0
 38 47  1  0  0  0
 39 64  1  0  0  0
 39 67  2  0  0  0
 40 52  1  0  0  0
 40 53  2  0  0  0
 40 58  1  0  0  0
 41109  1  0  0  0
 41110  1  0  0  0
 41111  1  0  0  0
 41 48  1  0  0  0
 42 43  1  0  0  0
 42 66  1  0  0  0
 42112  1  0  0  0
 42113  1  0  0  0
 43 44  1  0  0  0
 44114  1  0  0  0
 45 46  2  0  0  0
 45115  1  0  0  0
 46116  1  0  0  0
 47117  1  0  0  0
 47118  1  0  0  0
 48 56  1  0  0  0
 48 65  1  0  0  0
 48119  1  0  0  0
 49 50  1  0  0  0
 49 53  1  0  0  0
 49 64  1  0  0  0
 49120  1  0  0  0
 50 51  1  0  0  0
 50121  1  0  0  0
 50122  1  0  0  0
 51 52  1  0  0  0
 51123  1  0  0  0
 51124  1  0  0  0
 52125  1  0  0  0
 52126  1  0  0  0
 53 54  1  0  0  0
 54 55  2  0  0  0
 54127  1  0  0  0
 55 57  1  0  0  0
 55128  1  0  0  0
 56 69  2  0  0  0
 57 58  2  0  0  0
 57129  1  0  0  0
 58130  1  0  0  0
 59 60  1  0  0  0
 59 61  1  0  0  0
 59 62  1  0  0  0
 60131  1  0  0  0
 60132  1  0  0  0
 60133  1  0  0  0
 61134  1  0  0  0
 61135  1  0  0  0
 61136  1  0  0  0
 62137  1  0  0  0
 62138  1  0  0  0
 62139  1  0  0  0
 63 65  1  0  0  0
 63140  1  0  0  0
 63141  1  0  0  0
 63142  1  0  0  0
 64143  1  0  0  0
 65144  1  0  0  0
 68 82  1  0  0  0
 71 73  2  0  0  0
 71 75  1  0  0  0
 71145  1  0  0  0
 72 74  2  0  0  0
 72 76  1  0  0  0
 72146  1  0  0  0
 73 74  1  0  0  0
 73 78  1  0  0  0
 74 83  1  0  0  0
 75 76  2  0  0  0
 75 84  1  0  0  0
 76 85  1  0  0  0
 77 78  2  0  0  0
 77147  1  0  0  0
 77148  1  0  0  0
 78149  1  0  0  0
 79 81  1  0  0  0
 79 83  2  0  0  0
 79150  1  0  0  0
 80 85  1  0  0  0
 80151  1  0  0  0
 80152  1  0  0  0
 80153  1  0  0  0
 81 82  1  0  0  0
 81154  1  0  0  0
 81155  1  0  0  0
 82156  1  0  0  0
 82157  1  0  0  0
 84158  1  0  0  0
M  ISO  4   1 100  68 101  82 101  84 100
M  END
> <chiral flag>
0

> <version>
0

> <s_m_source_file>
/data/baiqing/PycharmProjects/Reinvent-master-3.2/result/LINK_invent/BTK/process_docking_weight1_custom_product_contain_oxygen_bond_distance_aromatic_linkinvent_7_9_3/rearranged_h_0117.sdf

> <i_m_source_file_index>
56

> <r_mmod_Potential_Energy-OPLS-2005>
29.9388771057129

> <r_mmod_Stretch_Energy-OPLS-2005>
89.6496047973633

> <r_mmod_Bend_Energy-OPLS-2005>
160.690490722656

> <r_mmod_Torsional_Energy-OPLS-2005>
211.678070068359

> <r_mmod_Improper_Torsional_Energy-OPLS-2005>
4.01127958297729

> <r_mmod_Van_der_Waal_Energy-OPLS-2005>
157.438110351562

> <r_mmod_Electrostatic_Energy-OPLS-2005>
-432.803405761719

> <r_mmod_Solvation_Energy-OPLS-2005>
-212.353561401367

> <b_mmod_Minimization_Converged-OPLS-2005>
0

> <r_mmod_RMS_Derivative-OPLS-2005>
2.24531650543213

$$$$
56
                    3D
 Structure written by MMmdl.
157165  0  0  1  0            999 V2000
  -30.6729  -14.5318   20.4810 C   0  0  0  0  0  0
  -30.4246  -12.3159   19.4529 C   0  0  0  0  0  0
  -29.5036  -12.4839   18.2245 C   0  0  0  0  0  0
  -28.0233  -12.3455   18.6329 C   0  0  0  0  0  0
  -27.6578  -13.2094   19.8702 C   0  0  2  0  0  0
  -28.7005  -13.0445   21.0019 C   0  0  0  0  0  0
  -25.2580  -13.8167   20.5695 C   0  0  0  0  0  0
  -24.1839  -13.0438   20.9190 C   0  0  0  0  0  0
  -24.6397  -11.6905   20.8736 C   0  0  0  0  0  0
  -23.9067  -10.4287   21.0408 C   0  0  0  0  0  0
  -24.3617   -9.4196   21.9180 C   0  0  0  0  0  0
  -23.6291   -8.2234   22.0748 C   0  0  0  0  0  0
  -22.4272   -8.0282   21.3538 C   0  0  0  0  0  0
  -21.9906   -9.0256   20.4636 C   0  0  0  0  0  0
  -22.7239  -10.2134   20.3050 C   0  0  0  0  0  0
  -21.6845   -6.0729   22.5270 C   0  0  0  0  0  0
  -21.4012   -6.5632   23.8206 C   0  0  0  0  0  0
  -21.3660   -5.6784   24.9170 C   0  0  0  0  0  0
  -21.6051   -4.3047   24.7212 C   0  0  0  0  0  0
  -21.8816   -3.8136   23.4331 C   0  0  0  0  0  0
  -21.9190   -4.6957   22.3389 C   0  0  0  0  0  0
  -22.7853  -13.5234   21.1846 C   0  0  0  0  0  0
  -22.1658   -4.2150   21.0963 F   0  0  0  0  0  0
  -21.5638   -3.4526   25.7722 F   0  0  0  0  0  0
  -30.0287  -13.3330   20.4407 N   0  0  0  0  0  0
  -26.3011  -12.9335   20.3363 N   0  0  0  0  0  0
  -25.9329  -11.6495   20.5783 N   0  0  0  0  0  0
  -22.0500  -12.8225   22.0404 N   0  0  0  0  0  0
  -25.4311  -15.1888   20.4098 N   0  0  0  0  0  0
  -31.8414  -14.6660   20.1065 O   0  0  0  0  0  0
  -21.6636   -6.8879   21.4238 O   0  0  0  0  0  0
  -22.3537  -14.5533   20.6686 O   0  0  0  0  0  0
  -24.6210  -31.8695   23.2085 C   0  0  0  0  0  0
  -25.9103  -32.4827   23.8379 C   0  0  1  0  0  0
  -27.2088  -27.3804   20.0975 C   0  0  0  0  0  0
  -25.5968  -33.8624   24.2313 N   0  0  0  0  0  0
  -23.4091  -30.5000   21.5509 C   0  0  2  0  0  0
  -24.8486  -28.9697   20.1105 C   0  0  0  0  0  0
  -22.7441  -29.4708   22.4955 C   0  0  0  0  0  0
  -18.0303  -28.1422   22.8502 C   0  0  0  0  0  0
  -24.1502  -36.7285   23.2632 C   0  0  0  0  0  0
  -25.9467  -30.8164   21.3736 C   0  0  0  0  0  0
  -26.0158  -29.4506   20.7158 C   0  0  0  0  0  0
  -27.1981  -28.6637   20.7089 C   0  0  0  0  0  0
  -26.0179  -26.9493   19.4588 C   0  0  0  0  0  0
  -24.8467  -27.7207   19.4789 C   0  0  0  0  0  0
  -23.6183  -29.8453   20.1625 C   0  0  0  0  0  0
  -25.4125  -36.3097   24.0326 C   0  0  1  0  0  0
  -20.5904  -28.3730   23.1298 C   0  0  2  0  0  0
  -20.6803  -26.9462   22.5409 C   0  0  0  0  0  0
  -19.5762  -26.6426   21.5226 C   0  0  0  0  0  0
  -18.1944  -26.7971   22.1636 C   0  0  0  0  0  0
  -19.1554  -28.8884   23.2905 C   0  0  0  0  0  0
  -18.9472  -30.1489   23.8917 C   0  0  0  0  0  0
  -17.6473  -30.6616   24.0596 C   0  0  0  0  0  0
  -25.9061  -34.9479   23.5106 C   0  0  0  0  0  0
  -16.5367  -29.9119   23.6348 C   0  0  0  0  0  0
  -16.7289  -28.6549   23.0347 C   0  0  0  0  0  0
  -26.4506  -31.6606   25.0716 C   0  0  0  0  0  0
  -25.3730  -31.3753   26.1427 C   0  0  0  0  0  0
  -27.0354  -30.3037   24.6138 C   0  0  0  0  0  0
  -27.6076  -32.4325   25.7489 C   0  0  0  0  0  0
  -27.5583  -37.1801   24.8469 C   0  0  0  0  0  0
  -21.4167  -29.3083   22.3667 N   0  0  0  0  0  0
  -26.4300  -37.3788   23.9411 N   0  0  0  0  0  0
  -24.6776  -31.0775   22.1014 N   0  0  0  0  0  0
  -23.4192  -28.8250   23.3012 O   0  0  0  0  0  0
  -28.3418  -26.5677   20.1530 O   0  0  0  0  0  0
  -26.5595  -34.8936   22.4653 O   0  0  0  0  0  0
  -23.5391  -32.1489   23.7447 O   0  0  0  0  0  0
  -29.6212  -18.4278   21.7381 C   0  0  0  0  0  0
  -29.4823  -20.8548   21.3994 C   0  0  0  0  0  0
  -29.7717  -19.3677   19.4887 C   0  0  0  0  0  0
  -29.7730  -18.2259   20.3516 C   0  0  0  0  0  0
  -29.6135  -20.7019   20.0000 C   0  0  0  0  0  0
  -29.4827  -19.7313   22.2526 C   0  0  0  0  0  0
  -30.9350  -19.6476   17.2889 C   0  0  0  0  0  0
  -29.9448  -19.1321   18.0368 C   0  0  0  0  0  0
  -29.4763  -23.0502   19.1170 C   0  0  0  0  0  0
  -29.9822  -16.8098   19.7665 C   0  0  0  0  0  0
  -29.2229  -24.1150   20.2033 C   0  0  0  0  0  0
  -28.1811  -25.1820   19.7299 C   0  0  0  0  0  0
  -29.6090  -21.7681   19.0610 N   0  0  0  0  0  0
  -29.8734  -15.6123   20.6363 N   0  0  0  0  0  0
  -29.3513  -19.9113   23.5874 F   0  0  0  0  0  0
  -31.4712  -12.4023   19.1544 H   0  0  0  0  0  0
  -30.3196  -11.3174   19.8792 H   0  0  0  0  0  0
  -29.7519  -11.7421   17.4640 H   0  0  0  0  0  0
  -29.6676  -13.4599   17.7670 H   0  0  0  0  0  0
  -27.8447  -11.2931   18.8542 H   0  0  0  0  0  0
  -27.3729  -12.5946   17.7938 H   0  0  0  0  0  0
  -27.6846  -14.2472   19.5392 H   0  0  0  0  0  0
  -28.6805  -12.0269   21.3967 H   0  0  0  0  0  0
  -28.4695  -13.6961   21.8462 H   0  0  0  0  0  0
  -25.2770   -9.5657   22.4747 H   0  0  0  0  0  0
  -23.9990   -7.4616   22.7462 H   0  0  0  0  0  0
  -21.0840   -8.8778   19.8937 H   0  0  0  0  0  0
  -22.3715  -10.9672   19.6147 H   0  0  0  0  0  0
  -21.2012   -7.6139   23.9707 H   0  0  0  0  0  0
  -21.1494   -6.0516   25.9076 H   0  0  0  0  0  0
  -22.0602   -2.7599   23.2821 H   0  0  0  0  0  0
  -22.4114  -11.9889   22.4786 H   0  0  0  0  0  0
  -21.1115  -13.1243   22.2609 H   0  0  0  0  0  0
  -24.6668  -15.8466   20.5260 H   0  0  0  0  0  0
  -26.2789  -15.6239   20.0694 H   0  0  0  0  0  0
  -26.7184  -32.5524   23.1141 H   0  0  0  0  0  0
  -25.0212  -33.9794   25.0521 H   0  0  0  0  0  0
  -22.6998  -31.3195   21.4152 H   0  0  0  0  0  0
  -23.3773  -35.9612   23.3309 H   0  0  0  0  0  0
  -24.3589  -36.8866   22.2040 H   0  0  0  0  0  0
  -23.7247  -37.6488   23.6638 H   0  0  0  0  0  0
  -26.0736  -31.5821   20.6073 H   0  0  0  0  0  0
  -26.8291  -30.8605   22.0001 H   0  0  0  0  0  0
  -28.0925  -29.0267   21.1957 H   0  0  0  0  0  0
  -25.9437  -26.0089   18.9351 H   0  0  0  0  0  0
  -23.9497  -27.3499   19.0019 H   0  0  0  0  0  0
  -23.7384  -30.6239   19.4084 H   0  0  0  0  0  0
  -22.7379  -29.2765   19.8600 H   0  0  0  0  0  0
  -25.1309  -36.1946   25.0816 H   0  0  0  0  0  0
  -21.0021  -28.3314   24.1412 H   0  0  0  0  0  0
  -20.5761  -26.2341   23.3606 H   0  0  0  0  0  0
  -21.6666  -26.7537   22.1163 H   0  0  0  0  0  0
  -19.6919  -25.6340   21.1245 H   0  0  0  0  0  0
  -19.6680  -27.3252   20.6765 H   0  0  0  0  0  0
  -17.4220  -26.6762   21.4023 H   0  0  0  0  0  0
  -18.0321  -26.0106   22.9023 H   0  0  0  0  0  0
  -19.7945  -30.7324   24.2262 H   0  0  0  0  0  0
  -17.5029  -31.6286   24.5219 H   0  0  0  0  0  0
  -15.5370  -30.3032   23.7652 H   0  0  0  0  0  0
  -15.8699  -28.0883   22.7019 H   0  0  0  0  0  0
  -24.5922  -30.7088   25.7741 H   0  0  0  0  0  0
  -24.8914  -32.2937   26.4795 H   0  0  0  0  0  0
  -25.8029  -30.8963   27.0228 H   0  0  0  0  0  0
  -26.2929  -29.6774   24.1179 H   0  0  0  0  0  0
  -27.4089  -29.7294   25.4624 H   0  0  0  0  0  0
  -27.8781  -30.4334   23.9343 H   0  0  0  0  0  0
  -27.2708  -33.3634   26.2065 H   0  0  0  0  0  0
  -28.3907  -32.6848   25.0325 H   0  0  0  0  0  0
  -28.0739  -31.8443   26.5404 H   0  0  0  0  0  0
  -28.2614  -38.0087   24.7528 H   0  0  0  0  0  0
  -28.1065  -36.2619   24.6304 H   0  0  0  0  0  0
  -27.2301  -37.1456   25.8871 H   0  0  0  0  0  0
  -20.9322  -29.8764   21.6852 H   0  0  0  0  0  0
  -26.0173  -38.2863   24.1405 H   0  0  0  0  0  0
  -29.6253  -17.5898   22.4213 H   0  0  0  0  0  0
  -29.3870  -21.8201   21.8602 H   0  0  0  0  0  0
  -31.6933  -20.2814   17.7275 H   0  0  0  0  0  0
  -31.0021  -19.4461   16.2298 H   0  0  0  0  0  0
  -29.2033  -18.5110   17.5539 H   0  0  0  0  0  0
  -29.5738  -23.5593   18.1556 H   0  0  0  0  0  0
  -30.9416  -16.8236   19.2457 H   0  0  0  0  0  0
  -29.2311  -16.6679   18.9876 H   0  0  0  0  0  0
  -30.1728  -24.6010   20.4203 H   0  0  0  0  0  0
  -28.8754  -23.6716   21.1314 H   0  0  0  0  0  0
  -27.2249  -24.7883   20.0771 H   0  0  0  0  0  0
  -28.1272  -25.2048   18.6398 H   0  0  0  0  0  0
  -28.9542  -15.4200   21.0038 H   0  0  0  0  0  0
  1 25  1  0  0  0
  1 30  2  0  0  0
  1 84  1  0  0  0
  2  3  1  0  0  0
  2 25  1  0  0  0
  2 86  1  0  0  0
  2 87  1  0  0  0
  3  4  1  0  0  0
  3 88  1  0  0  0
  3 89  1  0  0  0
  4  5  1  0  0  0
  4 90  1  0  0  0
  4 91  1  0  0  0
  5  6  1  0  0  0
  5 26  1  0  0  0
  5 92  1  0  0  0
  6 25  1  0  0  0
  6 93  1  0  0  0
  6 94  1  0  0  0
  7  8  2  0  0  0
  7 26  1  0  0  0
  7 29  1  0  0  0
  8  9  1  0  0  0
  8 22  1  0  0  0
  9 10  1  0  0  0
  9 27  2  0  0  0
 10 11  2  0  0  0
 10 15  1  0  0  0
 11 12  1  0  0  0
 11 95  1  0  0  0
 12 13  2  0  0  0
 12 96  1  0  0  0
 13 14  1  0  0  0
 13 31  1  0  0  0
 14 15  2  0  0  0
 14 97  1  0  0  0
 15 98  1  0  0  0
 16 17  2  0  0  0
 16 21  1  0  0  0
 16 31  1  0  0  0
 17 18  1  0  0  0
 17 99  1  0  0  0
 18 19  2  0  0  0
 18100  1  0  0  0
 19 20  1  0  0  0
 19 24  1  0  0  0
 20 21  2  0  0  0
 20101  1  0  0  0
 21 23  1  0  0  0
 22 28  1  0  0  0
 22 32  2  0  0  0
 26 27  1  0  0  0
 28102  1  0  0  0
 28103  1  0  0  0
 29104  1  0  0  0
 29105  1  0  0  0
 33 34  1  0  0  0
 33 66  1  0  0  0
 33 70  2  0  0  0
 34 36  1  0  0  0
 34 59  1  0  0  0
 34106  1  0  0  0
 35 44  2  0  0  0
 35 45  1  0  0  0
 35 68  1  0  0  0
 36 56  1  0  0  0
 36107  1  0  0  0
 37 39  1  0  0  0
 37 47  1  0  0  0
 37 66  1  0  0  0
 37108  1  0  0  0
 38 43  2  0  0  0
 38 46  1  0  0  0
 38 47  1  0  0  0
 39 64  1  0  0  0
 39 67  2  0  0  0
 40 52  1  0  0  0
 40 53  2  0  0  0
 40 58  1  0  0  0
 41109  1  0  0  0
 41110  1  0  0  0
 41111  1  0  0  0
 41 48  1  0  0  0
 42 43  1  0  0  0
 42 66  1  0  0  0
 42112  1  0  0  0
 42113  1  0  0  0
 43 44  1  0  0  0
 44114  1  0  0  0
 45 46  2  0  0  0
 45115  1  0  0  0
 46116  1  0  0  0
 47117  1  0  0  0
 47118  1  0  0  0
 48 56  1  0  0  0
 48 65  1  0  0  0
 48119  1  0  0  0
 49 50  1  0  0  0
 49 53  1  0  0  0
 49 64  1  0  0  0
 49120  1  0  0  0
 50 51  1  0  0  0
 50121  1  0  0  0
 50122  1  0  0  0
 51 52  1  0  0  0
 51123  1  0  0  0
 51124  1  0  0  0
 52125  1  0  0  0
 52126  1  0  0  0
 53 54  1  0  0  0
 54 55  2  0  0  0
 54127  1  0  0  0
 55 57  1  0  0  0
 55128  1  0  0  0
 56 69  2  0  0  0
 57 58  2  0  0  0
 57129  1  0  0  0
 58130  1  0  0  0
 59 60  1  0  0  0
 59 61  1  0  0  0
 59 62  1  0  0  0
 60131  1  0  0  0
 60132  1  0  0  0
 60133  1  0  0  0
 61134  1  0  0  0
 61135  1  0  0  0
 61136  1  0  0  0
 62137  1  0  0  0
 62138  1  0  0  0
 62139  1  0  0  0
 63 65  1  0  0  0
 63140  1  0  0  0
 63141  1  0  0  0
 63142  1  0  0  0
 64143  1  0  0  0
 65144  1  0  0  0
 68 82  1  0  0  0
 71 74  2  0  0  0
 71 76  1  0  0  0
 71145  1  0  0  0
 72 75  1  0  0  0
 72 76  2  0  0  0
 72146  1  0  0  0
 73 74  1  0  0  0
 73 75  2  0  0  0
 73 78  1  0  0  0
 74 80  1  0  0  0
 75 83  1  0  0  0
 76 85  1  0  0  0
 77 78  2  0  0  0
 77147  1  0  0  0
 77148  1  0  0  0
 78149  1  0  0  0
 79 81  1  0  0  0
 79 83  2  0  0  0
 79150  1  0  0  0
 80 84  1  0  0  0
 80151  1  0  0  0
 80152  1  0  0  0
 81 82  1  0  0  0
 81153  1  0  0  0
 81154  1  0  0  0
 82155  1  0  0  0
 82156  1  0  0  0
 84157  1  0  0  0
M  ISO  4   1 100  68 101  82 101  84 100
M  END
> <chiral flag>
0

> <version>
0

> <s_m_source_file>
/data/baiqing/PycharmProjects/Reinvent-master-3.2/result/LINK_invent/BTK/process_docking_weight1_custom_product_contain_oxygen_bond_distance_aromatic_linkinvent_7_9_3/rearranged_h_0117.sdf

> <i_m_source_file_index>
57

> <r_mmod_Potential_Energy-OPLS-2005>
38.9441604614258

> <r_mmod_Stretch_Energy-OPLS-2005>
52.5435523986816

> <r_mmod_Bend_Energy-OPLS-2005>
171.165344238281

> <r_mmod_Torsional_Energy-OPLS-2005>
241.172012329102

> <r_mmod_Improper_Torsional_Energy-OPLS-2005>
10.5325326919556

> <r_mmod_Van_der_Waal_Energy-OPLS-2005>
170.805938720703

> <r_mmod_Electrostatic_Energy-OPLS-2005>
-418.510925292969

> <r_mmod_Solvation_Energy-OPLS-2005>
-216.848205566406

> <b_mmod_Minimization_Converged-OPLS-2005>
0

> <r_mmod_RMS_Derivative-OPLS-2005>
2.0001802444458

$$$$
57
                    3D
 Structure written by MMmdl.
156164  0  0  1  0            999 V2000
  -30.6222  -14.6162   20.5686 C   0  0  0  0  0  0
  -30.4399  -12.3967   19.4537 C   0  0  0  0  0  0
  -29.5130  -12.5103   18.2253 C   0  0  0  0  0  0
  -28.0371  -12.3360   18.6341 C   0  0  0  0  0  0
  -27.6518  -13.2082   19.8591 C   0  0  2  0  0  0
  -28.6849  -13.0529   20.9940 C   0  0  0  0  0  0
  -25.2558  -13.8138   20.5625 C   0  0  0  0  0  0
  -24.1834  -13.0428   20.9171 C   0  0  0  0  0  0
  -24.6368  -11.6893   20.8716 C   0  0  0  0  0  0
  -23.9041  -10.4258   21.0393 C   0  0  0  0  0  0
  -24.3592   -9.4186   21.9179 C   0  0  0  0  0  0
  -23.6256   -8.2239   22.0751 C   0  0  0  0  0  0
  -22.4237   -8.0277   21.3551 C   0  0  0  0  0  0
  -21.9878   -9.0252   20.4655 C   0  0  0  0  0  0
  -22.7217  -10.2116   20.3045 C   0  0  0  0  0  0
  -21.6876   -6.0731   22.5273 C   0  0  0  0  0  0
  -21.4016   -6.5633   23.8206 C   0  0  0  0  0  0
  -21.3645   -5.6785   24.9159 C   0  0  0  0  0  0
  -21.6022   -4.3037   24.7206 C   0  0  0  0  0  0
  -21.8837   -3.8137   23.4331 C   0  0  0  0  0  0
  -21.9191   -4.6957   22.3390 C   0  0  0  0  0  0
  -22.7855  -13.5227   21.1822 C   0  0  0  0  0  0
  -22.1669   -4.2156   21.0966 F   0  0  0  0  0  0
  -21.5609   -3.4521   25.7707 F   0  0  0  0  0  0
  -30.0014  -13.4052   20.4338 N   0  0  0  0  0  0
  -26.2946  -12.9302   20.3202 N   0  0  0  0  0  0
  -25.9289  -11.6451   20.5687 N   0  0  0  0  0  0
  -22.0485  -12.8234   22.0379 N   0  0  0  0  0  0
  -25.4296  -15.1854   20.4077 N   0  0  0  0  0  0
  -31.7814  -14.8025   20.1758 O   0  0  0  0  0  0
  -21.6619   -6.8873   21.4240 O   0  0  0  0  0  0
  -22.3547  -14.5539   20.6669 O   0  0  0  0  0  0
  -24.6165  -31.8618   23.2024 C   0  0  0  0  0  0
  -25.9018  -32.4794   23.8363 C   0  0  1  0  0  0
  -27.2348  -27.3669   20.1247 C   0  0  0  0  0  0
  -25.5839  -33.8596   24.2268 N   0  0  0  0  0  0
  -23.4156  -30.4825   21.5423 C   0  0  2  0  0  0
  -24.8706  -28.9426   20.1112 C   0  0  0  0  0  0
  -22.7465  -29.4604   22.4919 C   0  0  0  0  0  0
  -18.0284  -28.1374   22.8471 C   0  0  0  0  0  0
  -24.1468  -36.7301   23.2645 C   0  0  0  0  0  0
  -25.9487  -30.8114   21.3711 C   0  0  0  0  0  0
  -26.0314  -29.4380   20.7214 C   0  0  0  0  0  0
  -27.2205  -28.6571   20.7266 C   0  0  0  0  0  0
  -26.0623  -26.9101   19.4920 C   0  0  0  0  0  0
  -24.8841  -27.6809   19.4919 C   0  0  0  0  0  0
  -23.6310  -29.8149   20.1569 C   0  0  0  0  0  0
  -25.4093  -36.3101   24.0326 C   0  0  1  0  0  0
  -20.5874  -28.3648   23.1286 C   0  0  2  0  0  0
  -20.6746  -26.9375   22.5414 C   0  0  0  0  0  0
  -19.5745  -26.6384   21.5183 C   0  0  0  0  0  0
  -18.1921  -26.7915   22.1605 C   0  0  0  0  0  0
  -19.1540  -28.8822   23.2866 C   0  0  0  0  0  0
  -18.9475  -30.1428   23.8890 C   0  0  0  0  0  0
  -17.6470  -30.6573   24.0567 C   0  0  0  0  0  0
  -25.9029  -34.9467   23.5114 C   0  0  0  0  0  0
  -16.5357  -29.9077   23.6334 C   0  0  0  0  0  0
  -16.7279  -28.6505   23.0336 C   0  0  0  0  0  0
  -26.4446  -31.6608   25.0713 C   0  0  0  0  0  0
  -25.3707  -31.3781   26.1472 C   0  0  0  0  0  0
  -27.0252  -30.3024   24.6129 C   0  0  0  0  0  0
  -27.6001  -32.4354   25.7486 C   0  0  0  0  0  0
  -27.5580  -37.1777   24.8449 C   0  0  0  0  0  0
  -21.4171  -29.3007   22.3686 N   0  0  0  0  0  0
  -26.4267  -37.3798   23.9438 N   0  0  0  0  0  0
  -24.6788  -31.0658   22.0975 N   0  0  0  0  0  0
  -23.4214  -28.8148   23.2987 O   0  0  0  0  0  0
  -28.3194  -26.4994   20.1537 O   0  0  0  0  0  0
  -26.5633  -34.8935   22.4701 O   0  0  0  0  0  0
  -23.5319  -32.1383   23.7345 O   0  0  0  0  0  0
  -30.4553  -19.5702   22.6237 C   0  0  0  0  0  0
  -29.6788  -18.1655   20.8134 C   0  0  0  0  0  0
  -30.7337  -17.1249   22.7710 C   0  0  0  0  0  0
  -29.8181  -19.4924   21.3579 C   0  0  0  0  0  0
  -30.9059  -18.4256   23.3134 C   0  0  0  0  0  0
  -30.1358  -16.9754   21.4863 C   0  0  0  0  0  0
  -28.6141  -24.3576   21.4397 C   0  0  0  0  0  0
  -28.4065  -25.7045   21.2906 C   0  0  0  0  0  0
  -29.4051  -21.8812   21.1002 C   0  0  0  0  0  0
  -31.0980  -15.9085   23.6259 C   0  0  0  0  0  0
  -28.8173  -23.1803   20.4463 C   0  0  0  0  0  0
  -29.3070  -20.6545   20.6655 N   0  0  0  0  0  0
  -31.5030  -18.6096   24.5643 N   0  0  0  0  0  0
  -29.8195  -15.6452   20.9792 N   0  0  0  0  0  0
  -31.4829  -12.5271   19.1605 H   0  0  0  0  0  0
  -30.3797  -11.4007   19.8982 H   0  0  0  0  0  0
  -29.7904  -11.7684   17.4751 H   0  0  0  0  0  0
  -29.6476  -13.4844   17.7543 H   0  0  0  0  0  0
  -27.8758  -11.2854   18.8721 H   0  0  0  0  0  0
  -27.3846  -12.5567   17.7902 H   0  0  0  0  0  0
  -27.6747  -14.2405   19.5136 H   0  0  0  0  0  0
  -28.6963  -12.0279   21.3686 H   0  0  0  0  0  0
  -28.4168  -13.6726   21.8510 H   0  0  0  0  0  0
  -25.2750   -9.5677   22.4732 H   0  0  0  0  0  0
  -23.9976   -7.4627   22.7469 H   0  0  0  0  0  0
  -21.0819   -8.8777   19.8956 H   0  0  0  0  0  0
  -22.3695  -10.9647   19.6128 H   0  0  0  0  0  0
  -21.2041   -7.6145   23.9713 H   0  0  0  0  0  0
  -21.1439   -6.0495   25.9057 H   0  0  0  0  0  0
  -22.0627   -2.7603   23.2816 H   0  0  0  0  0  0
  -22.4085  -11.9901   22.4797 H   0  0  0  0  0  0
  -21.1115  -13.1307   22.2571 H   0  0  0  0  0  0
  -24.6609  -15.8394   20.5115 H   0  0  0  0  0  0
  -26.2621  -15.6137   20.0222 H   0  0  0  0  0  0
  -26.7097  -32.5493   23.1132 H   0  0  0  0  0  0
  -24.9902  -33.9791   25.0348 H   0  0  0  0  0  0
  -22.7045  -31.2970   21.3981 H   0  0  0  0  0  0
  -23.3740  -35.9625   23.3295 H   0  0  0  0  0  0
  -24.3558  -36.8931   22.2064 H   0  0  0  0  0  0
  -23.7213  -37.6492   23.6671 H   0  0  0  0  0  0
  -26.0667  -31.5762   20.6002 H   0  0  0  0  0  0
  -26.8334  -30.8668   21.9959 H   0  0  0  0  0  0
  -28.1145  -29.0268   21.2117 H   0  0  0  0  0  0
  -26.0589  -25.9387   19.0205 H   0  0  0  0  0  0
  -23.9950  -27.2966   19.0145 H   0  0  0  0  0  0
  -23.7473  -30.5909   19.3987 H   0  0  0  0  0  0
  -22.7565  -29.2352   19.8556 H   0  0  0  0  0  0
  -25.1268  -36.1957   25.0817 H   0  0  0  0  0  0
  -20.9969  -28.3210   24.1392 H   0  0  0  0  0  0
  -20.5585  -26.2264   23.3600 H   0  0  0  0  0  0
  -21.6635  -26.7363   22.1253 H   0  0  0  0  0  0
  -19.6903  -25.6298   21.1202 H   0  0  0  0  0  0
  -19.6688  -27.3205   20.6724 H   0  0  0  0  0  0
  -17.4181  -26.6624   21.4018 H   0  0  0  0  0  0
  -18.0358  -26.0077   22.9027 H   0  0  0  0  0  0
  -19.7959  -30.7231   24.2261 H   0  0  0  0  0  0
  -17.5047  -31.6258   24.5180 H   0  0  0  0  0  0
  -15.5357  -30.2977   23.7681 H   0  0  0  0  0  0
  -15.8671  -28.0837   22.7017 H   0  0  0  0  0  0
  -24.5803  -30.7205   25.7848 H   0  0  0  0  0  0
  -24.8978  -32.2966   26.4958 H   0  0  0  0  0  0
  -25.8034  -30.8924   27.0223 H   0  0  0  0  0  0
  -26.2791  -29.6826   24.1125 H   0  0  0  0  0  0
  -27.3932  -29.7236   25.4614 H   0  0  0  0  0  0
  -27.8690  -30.4309   23.9338 H   0  0  0  0  0  0
  -27.2562  -33.3609   26.2136 H   0  0  0  0  0  0
  -28.3769  -32.7001   25.0297 H   0  0  0  0  0  0
  -28.0724  -31.8446   26.5349 H   0  0  0  0  0  0
  -28.2557  -38.0117   24.7563 H   0  0  0  0  0  0
  -28.1099  -36.2641   24.6161 H   0  0  0  0  0  0
  -27.2305  -37.1323   25.8852 H   0  0  0  0  0  0
  -20.9321  -29.8741   21.6917 H   0  0  0  0  0  0
  -26.0137  -38.2849   24.1526 H   0  0  0  0  0  0
  -30.5969  -20.5155   23.1254 H   0  0  0  0  0  0
  -29.1717  -18.0513   19.8651 H   0  0  0  0  0  0
  -28.6113  -24.0330   22.4726 H   0  0  0  0  0  0
  -28.2717  -26.3160   22.1749 H   0  0  0  0  0  0
  -29.9352  -22.1246   22.0231 H   0  0  0  0  0  0
  -31.9055  -16.1216   24.3234 H   0  0  0  0  0  0
  -31.4402  -15.0531   23.0524 H   0  0  0  0  0  0
  -30.2283  -15.5929   24.2027 H   0  0  0  0  0  0
  -29.4579  -23.4955   19.6231 H   0  0  0  0  0  0
  -27.8444  -22.9368   20.0188 H   0  0  0  0  0  0
  -31.4377  -19.4967   25.0542 H   0  0  0  0  0  0
  -31.7007  -17.8173   25.1666 H   0  0  0  0  0  0
  -28.8533  -15.3726   21.0832 H   0  0  0  0  0  0
  1 25  1  0  0  0
  1 30  2  0  0  0
  1 84  1  0  0  0
  2  3  1  0  0  0
  2 25  1  0  0  0
  2 85  1  0  0  0
  2 86  1  0  0  0
  3  4  1  0  0  0
  3 87  1  0  0  0
  3 88  1  0  0  0
  4  5  1  0  0  0
  4 89  1  0  0  0
  4 90  1  0  0  0
  5  6  1  0  0  0
  5 26  1  0  0  0
  5 91  1  0  0  0
  6 25  1  0  0  0
  6 92  1  0  0  0
  6 93  1  0  0  0
  7  8  2  0  0  0
  7 26  1  0  0  0
  7 29  1  0  0  0
  8  9  1  0  0  0
  8 22  1  0  0  0
  9 10  1  0  0  0
  9 27  2  0  0  0
 10 11  2  0  0  0
 10 15  1  0  0  0
 11 12  1  0  0  0
 11 94  1  0  0  0
 12 13  2  0  0  0
 12 95  1  0  0  0
 13 14  1  0  0  0
 13 31  1  0  0  0
 14 15  2  0  0  0
 14 96  1  0  0  0
 15 97  1  0  0  0
 16 17  2  0  0  0
 16 21  1  0  0  0
 16 31  1  0  0  0
 17 18  1  0  0  0
 17 98  1  0  0  0
 18 19  2  0  0  0
 18 99  1  0  0  0
 19 20  1  0  0  0
 19 24  1  0  0  0
 20 21  2  0  0  0
 20100  1  0  0  0
 21 23  1  0  0  0
 22 28  1  0  0  0
 22 32  2  0  0  0
 26 27  1  0  0  0
 28101  1  0  0  0
 28102  1  0  0  0
 29103  1  0  0  0
 29104  1  0  0  0
 33 34  1  0  0  0
 33 66  1  0  0  0
 33 70  2  0  0  0
 34 36  1  0  0  0
 34 59  1  0  0  0
 34105  1  0  0  0
 35 44  2  0  0  0
 35 45  1  0  0  0
 35 68  1  0  0  0
 36 56  1  0  0  0
 36106  1  0  0  0
 37 39  1  0  0  0
 37 47  1  0  0  0
 37 66  1  0  0  0
 37107  1  0  0  0
 38 43  2  0  0  0
 38 46  1  0  0  0
 38 47  1  0  0  0
 39 64  1  0  0  0
 39 67  2  0  0  0
 40 52  1  0  0  0
 40 53  2  0  0  0
 40 58  1  0  0  0
 41108  1  0  0  0
 41109  1  0  0  0
 41110  1  0  0  0
 41 48  1  0  0  0
 42 43  1  0  0  0
 42 66  1  0  0  0
 42111  1  0  0  0
 42112  1  0  0  0
 43 44  1  0  0  0
 44113  1  0  0  0
 45 46  2  0  0  0
 45114  1  0  0  0
 46115  1  0  0  0
 47116  1  0  0  0
 47117  1  0  0  0
 48 56  1  0  0  0
 48 65  1  0  0  0
 48118  1  0  0  0
 49 50  1  0  0  0
 49 53  1  0  0  0
 49 64  1  0  0  0
 49119  1  0  0  0
 50 51  1  0  0  0
 50120  1  0  0  0
 50121  1  0  0  0
 51 52  1  0  0  0
 51122  1  0  0  0
 51123  1  0  0  0
 52124  1  0  0  0
 52125  1  0  0  0
 53 54  1  0  0  0
 54 55  2  0  0  0
 54126  1  0  0  0
 55 57  1  0  0  0
 55127  1  0  0  0
 56 69  2  0  0  0
 57 58  2  0  0  0
 57128  1  0  0  0
 58129  1  0  0  0
 59 60  1  0  0  0
 59 61  1  0  0  0
 59 62  1  0  0  0
 60130  1  0  0  0
 60131  1  0  0  0
 60132  1  0  0  0
 61133  1  0  0  0
 61134  1  0  0  0
 61135  1  0  0  0
 62136  1  0  0  0
 62137  1  0  0  0
 62138  1  0  0  0
 63 65  1  0  0  0
 63139  1  0  0  0
 63140  1  0  0  0
 63141  1  0  0  0
 64142  1  0  0  0
 65143  1  0  0  0
 68 78  1  0  0  0
 71 74  2  0  0  0
 71 75  1  0  0  0
 71144  1  0  0  0
 72 74  1  0  0  0
 72 76  2  0  0  0
 72145  1  0  0  0
 73 75  2  0  0  0
 73 76  1  0  0  0
 73 80  1  0  0  0
 74 82  1  0  0  0
 75 83  1  0  0  0
 76 84  1  0  0  0
 77 78  2  0  0  0
 77 81  1  0  0  0
 77146  1  0  0  0
 78147  1  0  0  0
 79 81  1  0  0  0
 79 82  2  0  0  0
 79148  1  0  0  0
 80149  1  0  0  0
 80150  1  0  0  0
 80151  1  0  0  0
 81152  1  0  0  0
 81153  1  0  0  0
 83154  1  0  0  0
 83155  1  0  0  0
 84156  1  0  0  0
M  ISO  4   1 100  68 101  78 101  84 100
M  END
> <chiral flag>
0

> <version>
0

> <s_m_source_file>
/data/baiqing/PycharmProjects/Reinvent-master-3.2/result/LINK_invent/BTK/process_docking_weight1_custom_product_contain_oxygen_bond_distance_aromatic_linkinvent_7_9_3/rearranged_h_0117.sdf

> <i_m_source_file_index>
58

> <r_mmod_Potential_Energy-OPLS-2005>
87.0794982910156

> <r_mmod_Stretch_Energy-OPLS-2005>
70.8457641601562

> <r_mmod_Bend_Energy-OPLS-2005>
143.323455810547

> <r_mmod_Torsional_Energy-OPLS-2005>
252.680023193359

> <r_mmod_Improper_Torsional_Energy-OPLS-2005>
7.27232265472412

> <r_mmod_Van_der_Waal_Energy-OPLS-2005>
154.188674926758

> <r_mmod_Electrostatic_Energy-OPLS-2005>
-361.016723632812

> <r_mmod_Solvation_Energy-OPLS-2005>
-220.816879272461

> <b_mmod_Minimization_Converged-OPLS-2005>
0

> <r_mmod_RMS_Derivative-OPLS-2005>
5.10225057601929

$$$$
58
                    3D
 Structure written by MMmdl.
155163  0  0  1  0            999 V2000
  -30.6253  -14.6275   20.6072 C   0  0  0  0  0  0
  -30.4505  -12.4179   19.4468 C   0  0  0  0  0  0
  -29.5132  -12.5389   18.2210 C   0  0  0  0  0  0
  -28.0334  -12.3613   18.6214 C   0  0  0  0  0  0
  -27.6584  -13.2033   19.8680 C   0  0  2  0  0  0
  -28.6934  -12.9625   20.9818 C   0  0  0  0  0  0
  -25.2596  -13.8121   20.5643 C   0  0  0  0  0  0
  -24.1839  -13.0412   20.9160 C   0  0  0  0  0  0
  -24.6405  -11.6885   20.8739 C   0  0  0  0  0  0
  -23.9075  -10.4275   21.0423 C   0  0  0  0  0  0
  -24.3631   -9.4184   21.9190 C   0  0  0  0  0  0
  -23.6301   -8.2224   22.0762 C   0  0  0  0  0  0
  -22.4269   -8.0283   21.3554 C   0  0  0  0  0  0
  -21.9913   -9.0250   20.4650 C   0  0  0  0  0  0
  -22.7261  -10.2126   20.3051 C   0  0  0  0  0  0
  -21.6852   -6.0743   22.5289 C   0  0  0  0  0  0
  -21.4010   -6.5645   23.8222 C   0  0  0  0  0  0
  -21.3642   -5.6785   24.9183 C   0  0  0  0  0  0
  -21.6040   -4.3057   24.7225 C   0  0  0  0  0  0
  -21.8821   -3.8154   23.4347 C   0  0  0  0  0  0
  -21.9192   -4.6967   22.3411 C   0  0  0  0  0  0
  -22.7873  -13.5227   21.1853 C   0  0  0  0  0  0
  -22.1666   -4.2165   21.0984 F   0  0  0  0  0  0
  -21.5618   -3.4535   25.7734 F   0  0  0  0  0  0
  -30.0104  -13.3949   20.4720 N   0  0  0  0  0  0
  -26.3011  -12.9280   20.3273 N   0  0  0  0  0  0
  -25.9306  -11.6448   20.5716 N   0  0  0  0  0  0
  -22.0519  -12.8220   22.0410 N   0  0  0  0  0  0
  -25.4333  -15.1851   20.4099 N   0  0  0  0  0  0
  -31.7216  -14.8441   20.0756 O   0  0  0  0  0  0
  -21.6628   -6.8892   21.4248 O   0  0  0  0  0  0
  -22.3565  -14.5537   20.6713 O   0  0  0  0  0  0
  -24.6277  -31.8607   23.2019 C   0  0  0  0  0  0
  -25.9130  -32.4777   23.8349 C   0  0  1  0  0  0
  -27.2253  -27.3278   20.1201 C   0  0  0  0  0  0
  -25.5978  -33.8574   24.2312 N   0  0  0  0  0  0
  -23.4212  -30.4848   21.5453 C   0  0  2  0  0  0
  -24.8657  -28.9407   20.1126 C   0  0  0  0  0  0
  -22.7490  -29.4641   22.4945 C   0  0  0  0  0  0
  -18.0302  -28.1382   22.8498 C   0  0  0  0  0  0
  -24.1487  -36.7266   23.2624 C   0  0  0  0  0  0
  -25.9620  -30.7930   21.3745 C   0  0  0  0  0  0
  -26.0338  -29.4210   20.7175 C   0  0  0  0  0  0
  -27.2148  -28.6255   20.7129 C   0  0  0  0  0  0
  -26.0414  -26.9061   19.4772 C   0  0  0  0  0  0
  -24.8733  -27.6880   19.4812 C   0  0  0  0  0  0
  -23.6353  -29.8188   20.1609 C   0  0  0  0  0  0
  -25.4109  -36.3089   24.0338 C   0  0  1  0  0  0
  -20.5914  -28.3677   23.1301 C   0  0  2  0  0  0
  -20.6810  -26.9402   22.5412 C   0  0  0  0  0  0
  -19.5771  -26.6400   21.5214 C   0  0  0  0  0  0
  -18.1952  -26.7930   22.1621 C   0  0  0  0  0  0
  -19.1560  -28.8851   23.2890 C   0  0  0  0  0  0
  -18.9474  -30.1468   23.8877 C   0  0  0  0  0  0
  -17.6462  -30.6580   24.0555 C   0  0  0  0  0  0
  -25.9067  -34.9460   23.5122 C   0  0  0  0  0  0
  -16.5361  -29.9076   23.6332 C   0  0  0  0  0  0
  -16.7292  -28.6493   23.0344 C   0  0  0  0  0  0
  -26.4526  -31.6539   25.0702 C   0  0  0  0  0  0
  -25.3785  -31.3635   26.1430 C   0  0  0  0  0  0
  -27.0307  -30.2960   24.6096 C   0  0  0  0  0  0
  -27.6125  -32.4243   25.7450 C   0  0  0  0  0  0
  -27.5591  -37.1756   24.8460 C   0  0  0  0  0  0
  -21.4216  -29.3037   22.3686 N   0  0  0  0  0  0
  -26.4265  -37.3814   23.9459 N   0  0  0  0  0  0
  -24.6882  -31.0637   22.0967 N   0  0  0  0  0  0
  -23.4232  -28.8196   23.3027 O   0  0  0  0  0  0
  -28.3505  -26.4927   20.1454 O   0  0  0  0  0  0
  -26.5576  -34.8940   22.4661 O   0  0  0  0  0  0
  -23.5447  -32.1384   23.7374 O   0  0  0  0  0  0
  -29.7917  -18.2561   22.0803 C   0  0  0  0  0  0
  -29.9550  -19.1802   19.4905 C   0  0  0  0  0  0
  -29.7287  -19.6636   21.8399 C   0  0  0  0  0  0
  -29.9469  -17.2579   21.0680 C   0  0  0  0  0  0
  -29.8126  -20.1689   20.5066 C   0  0  0  0  0  0
  -30.0059  -17.7749   19.7473 C   0  0  0  0  0  0
  -28.8414  -20.2930   24.1022 C   0  0  0  0  0  0
  -29.5574  -20.5674   22.9964 C   0  0  0  0  0  0
  -29.1209  -22.5318   20.5379 C   0  0  0  0  0  0
  -29.9215  -15.7619   21.4640 C   0  0  0  0  0  0
  -29.3353  -24.0502   20.1771 C   0  0  0  0  0  0
  -28.1404  -25.0555   20.4402 C   0  0  0  0  0  0
  -29.3620  -15.4762   22.5690 N   0  0  0  0  0  0
  -29.8858  -21.5607   20.1316 N   0  0  0  0  0  0
  -30.0825  -16.9298   18.6904 F   0  0  0  0  0  0
  -31.4855  -12.5754   19.1408 H   0  0  0  0  0  0
  -30.4268  -11.4048   19.8509 H   0  0  0  0  0  0
  -29.7879  -11.8039   17.4638 H   0  0  0  0  0  0
  -29.6482  -13.5161   17.7576 H   0  0  0  0  0  0
  -27.8728  -11.3041   18.8347 H   0  0  0  0  0  0
  -27.3781  -12.6037   17.7837 H   0  0  0  0  0  0
  -27.7042  -14.2530   19.5785 H   0  0  0  0  0  0
  -28.7263  -11.8988   21.2210 H   0  0  0  0  0  0
  -28.3710  -13.4120   21.9135 H   0  0  0  0  0  0
  -25.2785   -9.5643   22.4774 H   0  0  0  0  0  0
  -24.0006   -7.4602   22.7466 H   0  0  0  0  0  0
  -21.0856   -8.8783   19.8955 H   0  0  0  0  0  0
  -22.3746  -10.9664   19.6160 H   0  0  0  0  0  0
  -21.2003   -7.6157   23.9739 H   0  0  0  0  0  0
  -21.1455   -6.0517   25.9089 H   0  0  0  0  0  0
  -22.0616   -2.7622   23.2841 H   0  0  0  0  0  0
  -22.4127  -11.9849   22.4757 H   0  0  0  0  0  0
  -21.1143  -13.1265   22.2634 H   0  0  0  0  0  0
  -24.6749  -15.8479   20.5354 H   0  0  0  0  0  0
  -26.2985  -15.6247   20.1243 H   0  0  0  0  0  0
  -26.7211  -32.5450   23.1104 H   0  0  0  0  0  0
  -25.0250  -33.9707   25.0548 H   0  0  0  0  0  0
  -22.7127  -31.3023   21.4022 H   0  0  0  0  0  0
  -23.3786  -35.9556   23.3239 H   0  0  0  0  0  0
  -24.3610  -36.8915   22.2056 H   0  0  0  0  0  0
  -23.7179  -37.6444   23.6639 H   0  0  0  0  0  0
  -26.0925  -31.5548   20.6048 H   0  0  0  0  0  0
  -26.8419  -30.8408   22.0033 H   0  0  0  0  0  0
  -28.1101  -28.9881   21.1963 H   0  0  0  0  0  0
  -26.0017  -25.9667   18.9471 H   0  0  0  0  0  0
  -23.9871  -27.3181   18.9854 H   0  0  0  0  0  0
  -23.7623  -30.5948   19.4048 H   0  0  0  0  0  0
  -22.7555  -29.2502   19.8546 H   0  0  0  0  0  0
  -25.1269  -36.1925   25.0818 H   0  0  0  0  0  0
  -20.9986  -28.3235   24.1430 H   0  0  0  0  0  0
  -20.5732  -26.2268   23.3605 H   0  0  0  0  0  0
  -21.6670  -26.7457   22.1163 H   0  0  0  0  0  0
  -19.6916  -25.6315   21.1229 H   0  0  0  0  0  0
  -19.6697  -27.3236   20.6766 H   0  0  0  0  0  0
  -17.4219  -26.6714   21.4020 H   0  0  0  0  0  0
  -18.0309  -26.0065   22.9005 H   0  0  0  0  0  0
  -19.7952  -30.7319   24.2208 H   0  0  0  0  0  0
  -17.5006  -31.6231   24.5184 H   0  0  0  0  0  0
  -15.5353  -30.2944   23.7670 H   0  0  0  0  0  0
  -15.8705  -28.0810   22.7036 H   0  0  0  0  0  0
  -24.6084  -30.6820   25.7790 H   0  0  0  0  0  0
  -24.8797  -32.2749   26.4732 H   0  0  0  0  0  0
  -25.8164  -30.8963   27.0261 H   0  0  0  0  0  0
  -26.2808  -29.6734   24.1195 H   0  0  0  0  0  0
  -27.4115  -29.7201   25.4538 H   0  0  0  0  0  0
  -27.8665  -30.4225   23.9218 H   0  0  0  0  0  0
  -27.2801  -33.3605   26.1938 H   0  0  0  0  0  0
  -28.3978  -32.6651   25.0277 H   0  0  0  0  0  0
  -28.0719  -31.8370   26.5415 H   0  0  0  0  0  0
  -28.2539  -38.0126   24.7645 H   0  0  0  0  0  0
  -28.1160  -36.2675   24.6094 H   0  0  0  0  0  0
  -27.2325  -37.1175   25.8858 H   0  0  0  0  0  0
  -20.9388  -29.8720   21.6852 H   0  0  0  0  0  0
  -26.0147  -38.2864   24.1547 H   0  0  0  0  0  0
  -29.7404  -17.9374   23.1109 H   0  0  0  0  0  0
  -30.0302  -19.4977   18.4609 H   0  0  0  0  0  0
  -28.7767  -21.0040   24.9143 H   0  0  0  0  0  0
  -28.2998  -19.3666   24.2243 H   0  0  0  0  0  0
  -30.0742  -21.5151   22.9533 H   0  0  0  0  0  0
  -28.2661  -22.3492   21.1937 H   0  0  0  0  0  0
  -29.6072  -24.1088   19.1227 H   0  0  0  0  0  0
  -30.2080  -24.4007   20.7298 H   0  0  0  0  0  0
  -27.8645  -24.9899   21.4930 H   0  0  0  0  0  0
  -27.2846  -24.6561   19.9008 H   0  0  0  0  0  0
  -28.9642  -16.3001   23.0006 H   0  0  0  0  0  0
  1 25  1  0  0  0
  1 30  2  0  0  0
  1 80  1  0  0  0
  2  3  1  0  0  0
  2 25  1  0  0  0
  2 86  1  0  0  0
  2 87  1  0  0  0
  3  4  1  0  0  0
  3 88  1  0  0  0
  3 89  1  0  0  0
  4  5  1  0  0  0
  4 90  1  0  0  0
  4 91  1  0  0  0
  5  6  1  0  0  0
  5 26  1  0  0  0
  5 92  1  0  0  0
  6 25  1  0  0  0
  6 93  1  0  0  0
  6 94  1  0  0  0
  7  8  2  0  0  0
  7 26  1  0  0  0
  7 29  1  0  0  0
  8  9  1  0  0  0
  8 22  1  0  0  0
  9 10  1  0  0  0
  9 27  2  0  0  0
 10 11  2  0  0  0
 10 15  1  0  0  0
 11 12  1  0  0  0
 11 95  1  0  0  0
 12 13  2  0  0  0
 12 96  1  0  0  0
 13 14  1  0  0  0
 13 31  1  0  0  0
 14 15  2  0  0  0
 14 97  1  0  0  0
 15 98  1  0  0  0
 16 17  2  0  0  0
 16 21  1  0  0  0
 16 31  1  0  0  0
 17 18  1  0  0  0
 17 99  1  0  0  0
 18 19  2  0  0  0
 18100  1  0  0  0
 19 20  1  0  0  0
 19 24  1  0  0  0
 20 21  2  0  0  0
 20101  1  0  0  0
 21 23  1  0  0  0
 22 28  1  0  0  0
 22 32  2  0  0  0
 26 27  1  0  0  0
 28102  1  0  0  0
 28103  1  0  0  0
 29104  1  0  0  0
 29105  1  0  0  0
 33 34  1  0  0  0
 33 66  1  0  0  0
 33 70  2  0  0  0
 34 36  1  0  0  0
 34 59  1  0  0  0
 34106  1  0  0  0
 35 44  2  0  0  0
 35 45  1  0  0  0
 35 68  1  0  0  0
 36 56  1  0  0  0
 36107  1  0  0  0
 37 39  1  0  0  0
 37 47  1  0  0  0
 37 66  1  0  0  0
 37108  1  0  0  0
 38 43  2  0  0  0
 38 46  1  0  0  0
 38 47  1  0  0  0
 39 64  1  0  0  0
 39 67  2  0  0  0
 40 52  1  0  0  0
 40 53  2  0  0  0
 40 58  1  0  0  0
 41109  1  0  0  0
 41110  1  0  0  0
 41111  1  0  0  0
 41 48  1  0  0  0
 42 43  1  0  0  0
 42 66  1  0  0  0
 42112  1  0  0  0
 42113  1  0  0  0
 43 44  1  0  0  0
 44114  1  0  0  0
 45 46  2  0  0  0
 45115  1  0  0  0
 46116  1  0  0  0
 47117  1  0  0  0
 47118  1  0  0  0
 48 56  1  0  0  0
 48 65  1  0  0  0
 48119  1  0  0  0
 49 50  1  0  0  0
 49 53  1  0  0  0
 49 64  1  0  0  0
 49120  1  0  0  0
 50 51  1  0  0  0
 50121  1  0  0  0
 50122  1  0  0  0
 51 52  1  0  0  0
 51123  1  0  0  0
 51124  1  0  0  0
 52125  1  0  0  0
 52126  1  0  0  0
 53 54  1  0  0  0
 54 55  2  0  0  0
 54127  1  0  0  0
 55 57  1  0  0  0
 55128  1  0  0  0
 56 69  2  0  0  0
 57 58  2  0  0  0
 57129  1  0  0  0
 58130  1  0  0  0
 59 60  1  0  0  0
 59 61  1  0  0  0
 59 62  1  0  0  0
 60131  1  0  0  0
 60132  1  0  0  0
 60133  1  0  0  0
 61134  1  0  0  0
 61135  1  0  0  0
 61136  1  0  0  0
 62137  1  0  0  0
 62138  1  0  0  0
 62139  1  0  0  0
 63 65  1  0  0  0
 63140  1  0  0  0
 63141  1  0  0  0
 63142  1  0  0  0
 64143  1  0  0  0
 65144  1  0  0  0
 68 82  1  0  0  0
 71 73  2  0  0  0
 71 74  1  0  0  0
 71145  1  0  0  0
 72 75  2  0  0  0
 72 76  1  0  0  0
 72146  1  0  0  0
 73 75  1  0  0  0
 73 78  1  0  0  0
 74 76  2  0  0  0
 74 80  1  0  0  0
 75 84  1  0  0  0
 76 85  1  0  0  0
 77 78  2  0  0  0
 77147  1  0  0  0
 77148  1  0  0  0
 78149  1  0  0  0
 79 81  1  0  0  0
 79 84  2  0  0  0
 79150  1  0  0  0
 80 83  2  0  0  0
 81 82  1  0  0  0
 81151  1  0  0  0
 81152  1  0  0  0
 82153  1  0  0  0
 82154  1  0  0  0
 83155  1  0  0  0
M  ISO  4   1 100  68 101  80 100  82 101
M  END
> <chiral flag>
0

> <version>
0

> <s_m_source_file>
/data/baiqing/PycharmProjects/Reinvent-master-3.2/result/LINK_invent/BTK/process_docking_weight1_custom_product_contain_oxygen_bond_distance_aromatic_linkinvent_7_9_3/rearranged_h_0117.sdf

> <i_m_source_file_index>
59

> <r_mmod_Potential_Energy-OPLS-2005>
209.733917236328

> <r_mmod_Stretch_Energy-OPLS-2005>
93.3915786743164

> <r_mmod_Bend_Energy-OPLS-2005>
156.274551391602

> <r_mmod_Torsional_Energy-OPLS-2005>
220.8046875

> <r_mmod_Improper_Torsional_Energy-OPLS-2005>
3.05551838874817

> <r_mmod_Van_der_Waal_Energy-OPLS-2005>
164.679000854492

> <r_mmod_Electrostatic_Energy-OPLS-2005>
-269.820037841797

> <r_mmod_Solvation_Energy-OPLS-2005>
-201.391220092773

> <b_mmod_Minimization_Converged-OPLS-2005>
0

> <r_mmod_RMS_Derivative-OPLS-2005>
3.45269775390625

$$$$
59
                    3D
 Structure written by MMmdl.
157165  0  0  1  0            999 V2000
  -30.6840  -14.4624   20.5951 C   0  0  0  0  0  0
  -30.4310  -12.3096   19.4116 C   0  0  0  0  0  0
  -29.4966  -12.5199   18.2011 C   0  0  0  0  0  0
  -28.0159  -12.3826   18.6096 C   0  0  0  0  0  0
  -27.6660  -13.2034   19.8790 C   0  0  2  0  0  0
  -28.7058  -12.9464   20.9923 C   0  0  0  0  0  0
  -25.2629  -13.8159   20.5708 C   0  0  0  0  0  0
  -24.1862  -13.0444   20.9169 C   0  0  0  0  0  0
  -24.6389  -11.6906   20.8712 C   0  0  0  0  0  0
  -23.9052  -10.4294   21.0389 C   0  0  0  0  0  0
  -24.3599   -9.4210   21.9170 C   0  0  0  0  0  0
  -23.6284   -8.2238   22.0739 C   0  0  0  0  0  0
  -22.4263   -8.0279   21.3535 C   0  0  0  0  0  0
  -21.9897   -9.0253   20.4633 C   0  0  0  0  0  0
  -22.7219  -10.2136   20.3049 C   0  0  0  0  0  0
  -21.6854   -6.0736   22.5269 C   0  0  0  0  0  0
  -21.4023   -6.5624   23.8209 C   0  0  0  0  0  0
  -21.3669   -5.6769   24.9162 C   0  0  0  0  0  0
  -21.6042   -4.3034   24.7193 C   0  0  0  0  0  0
  -21.8826   -3.8135   23.4313 C   0  0  0  0  0  0
  -21.9200   -4.6966   22.3383 C   0  0  0  0  0  0
  -22.7884  -13.5262   21.1824 C   0  0  0  0  0  0
  -22.1669   -4.2171   21.0952 F   0  0  0  0  0  0
  -21.5631   -3.4504   25.7701 F   0  0  0  0  0  0
  -30.0411  -13.2707   20.4532 N   0  0  0  0  0  0
  -26.3049  -12.9309   20.3379 N   0  0  0  0  0  0
  -25.9311  -11.6474   20.5722 N   0  0  0  0  0  0
  -22.0487  -12.8293   22.0377 N   0  0  0  0  0  0
  -25.4370  -15.1881   20.4190 N   0  0  0  0  0  0
  -31.7871  -14.6911   20.0935 O   0  0  0  0  0  0
  -21.6631   -6.8877   21.4232 O   0  0  0  0  0  0
  -22.3579  -14.5565   20.6648 O   0  0  0  0  0  0
  -24.6114  -31.8678   23.2097 C   0  0  0  0  0  0
  -25.9006  -32.4822   23.8377 C   0  0  1  0  0  0
  -27.2281  -27.4375   20.0969 C   0  0  0  0  0  0
  -25.5891  -33.8627   24.2331 N   0  0  0  0  0  0
  -23.3998  -30.4882   21.5526 C   0  0  2  0  0  0
  -24.8462  -28.9536   20.1157 C   0  0  0  0  0  0
  -22.7417  -29.4613   22.5004 C   0  0  0  0  0  0
  -18.0306  -28.1356   22.8514 C   0  0  0  0  0  0
  -24.1492  -36.7308   23.2632 C   0  0  0  0  0  0
  -25.9268  -30.8318   21.3643 C   0  0  0  0  0  0
  -26.0061  -29.4674   20.7102 C   0  0  0  0  0  0
  -27.2044  -28.7166   20.6964 C   0  0  0  0  0  0
  -26.0544  -26.9325   19.5028 C   0  0  0  0  0  0
  -24.8643  -27.6847   19.5087 C   0  0  0  0  0  0
  -23.6082  -29.8199   20.1665 C   0  0  0  0  0  0
  -25.4118  -36.3118   24.0341 C   0  0  1  0  0  0
  -20.5884  -28.3615   23.1341 C   0  0  2  0  0  0
  -20.6792  -26.9354   22.5427 C   0  0  0  0  0  0
  -19.5762  -26.6361   21.5221 C   0  0  0  0  0  0
  -18.1935  -26.7907   22.1634 C   0  0  0  0  0  0
  -19.1552  -28.8808   23.2927 C   0  0  0  0  0  0
  -18.9490  -30.1415   23.8935 C   0  0  0  0  0  0
  -17.6486  -30.6564   24.0590 C   0  0  0  0  0  0
  -25.9035  -34.9481   23.5131 C   0  0  0  0  0  0
  -16.5369  -29.9071   23.6347 C   0  0  0  0  0  0
  -16.7298  -28.6482   23.0380 C   0  0  0  0  0  0
  -26.4458  -31.6591   25.0691 C   0  0  0  0  0  0
  -25.3752  -31.3664   26.1461 C   0  0  0  0  0  0
  -27.0268  -30.3038   24.6015 C   0  0  0  0  0  0
  -27.6024  -32.4321   25.7448 C   0  0  0  0  0  0
  -27.5597  -37.1806   24.8461 C   0  0  0  0  0  0
  -21.4150  -29.2992   22.3769 N   0  0  0  0  0  0
  -26.4314  -37.3801   23.9410 N   0  0  0  0  0  0
  -24.6644  -31.0771   22.1002 N   0  0  0  0  0  0
  -23.4223  -28.8159   23.3023 O   0  0  0  0  0  0
  -28.3692  -26.6698   20.0936 O   0  0  0  0  0  0
  -26.5581  -34.8918   22.4684 O   0  0  0  0  0  0
  -23.5311  -32.1419   23.7495 O   0  0  0  0  0  0
  -29.5046  -17.4462   22.4491 C   0  0  0  0  0  0
  -30.5101  -19.0124   20.3711 C   0  0  0  0  0  0
  -29.4499  -18.8549   22.5650 C   0  0  0  0  0  0
  -29.9747  -19.6603   21.5079 C   0  0  0  0  0  0
  -30.0524  -16.8002   21.3220 C   0  0  0  0  0  0
  -30.5327  -17.6042   20.2588 C   0  0  0  0  0  0
  -29.1633  -20.4950   24.4900 C   0  0  0  0  0  0
  -28.8811  -19.3542   23.8372 C   0  0  0  0  0  0
  -28.9607  -21.7372   21.3202 C   0  0  0  0  0  0
  -28.8100  -23.2076   21.7060 C   0  0  0  0  0  0
  -28.6264  -24.2222   20.5497 C   0  0  0  0  0  0
  -28.3790  -25.6485   21.1010 C   0  0  0  0  0  0
  -30.0155  -21.0652   21.5739 N   0  0  0  0  0  0
  -29.9971  -15.3712   21.3142 N   0  0  0  0  0  0
  -30.9749  -17.0540   19.1033 F   0  0  0  0  0  0
  -31.4740  -12.4216   19.1093 H   0  0  0  0  0  0
  -30.3435  -11.2902   19.7931 H   0  0  0  0  0  0
  -29.7339  -11.8015   17.4143 H   0  0  0  0  0  0
  -29.6656  -13.5100   17.7752 H   0  0  0  0  0  0
  -27.8177  -11.3242   18.7851 H   0  0  0  0  0  0
  -27.3701  -12.6793   17.7831 H   0  0  0  0  0  0
  -27.7209  -14.2581   19.6053 H   0  0  0  0  0  0
  -28.6818  -11.8978   21.2937 H   0  0  0  0  0  0
  -28.4534  -13.5043   21.8939 H   0  0  0  0  0  0
  -25.2746   -9.5689   22.4745 H   0  0  0  0  0  0
  -23.9999   -7.4622   22.7452 H   0  0  0  0  0  0
  -21.0829   -8.8758   19.8933 H   0  0  0  0  0  0
  -22.3673  -10.9667   19.6151 H   0  0  0  0  0  0
  -21.2016   -7.6135   23.9728 H   0  0  0  0  0  0
  -21.1493   -6.0484   25.9078 H   0  0  0  0  0  0
  -22.0606   -2.7606   23.2782 H   0  0  0  0  0  0
  -22.4074  -11.9987   22.4839 H   0  0  0  0  0  0
  -21.1103  -13.1358   22.2524 H   0  0  0  0  0  0
  -24.6741  -15.8465   20.5341 H   0  0  0  0  0  0
  -26.3002  -15.6280   20.1228 H   0  0  0  0  0  0
  -26.7068  -32.5535   23.1129 H   0  0  0  0  0  0
  -25.0111  -33.9809   25.0520 H   0  0  0  0  0  0
  -22.6848  -31.3025   21.4170 H   0  0  0  0  0  0
  -23.3765  -35.9628   23.3287 H   0  0  0  0  0  0
  -24.3589  -36.8916   22.2043 H   0  0  0  0  0  0
  -23.7218  -37.6505   23.6643 H   0  0  0  0  0  0
  -26.0427  -31.5981   20.5981 H   0  0  0  0  0  0
  -26.8151  -30.8820   21.9819 H   0  0  0  0  0  0
  -28.1014  -29.1057   21.1581 H   0  0  0  0  0  0
  -26.0598  -25.9551   19.0416 H   0  0  0  0  0  0
  -23.9731  -27.2815   19.0501 H   0  0  0  0  0  0
  -23.7160  -30.5949   19.4080 H   0  0  0  0  0  0
  -22.7319  -29.2406   19.8713 H   0  0  0  0  0  0
  -25.1290  -36.1999   25.0840 H   0  0  0  0  0  0
  -20.9991  -28.3167   24.1456 H   0  0  0  0  0  0
  -20.5708  -26.2179   23.3575 H   0  0  0  0  0  0
  -21.6646  -26.7400   22.1193 H   0  0  0  0  0  0
  -19.6909  -25.6300   21.1187 H   0  0  0  0  0  0
  -19.6734  -27.3214   20.6796 H   0  0  0  0  0  0
  -17.4203  -26.6689   21.4025 H   0  0  0  0  0  0
  -18.0312  -26.0048   22.9017 H   0  0  0  0  0  0
  -19.7988  -30.7214   24.2300 H   0  0  0  0  0  0
  -17.5063  -31.6260   24.5172 H   0  0  0  0  0  0
  -15.5381  -30.2974   23.7639 H   0  0  0  0  0  0
  -15.8712  -28.0790   22.7080 H   0  0  0  0  0  0
  -24.5952  -30.6975   25.7798 H   0  0  0  0  0  0
  -24.8920  -32.2798   26.4925 H   0  0  0  0  0  0
  -25.8155  -30.8831   27.0190 H   0  0  0  0  0  0
  -26.2759  -29.6822   24.1117 H   0  0  0  0  0  0
  -27.4095  -29.7250   25.4425 H   0  0  0  0  0  0
  -27.8575  -30.4350   23.9088 H   0  0  0  0  0  0
  -27.2629  -33.3613   26.2029 H   0  0  0  0  0  0
  -28.3822  -32.6897   25.0273 H   0  0  0  0  0  0
  -28.0700  -31.8452   26.5363 H   0  0  0  0  0  0
  -28.2599  -38.0118   24.7565 H   0  0  0  0  0  0
  -28.1124  -36.2661   24.6248 H   0  0  0  0  0  0
  -27.2324  -37.1391   25.8864 H   0  0  0  0  0  0
  -20.9278  -29.8768   21.7056 H   0  0  0  0  0  0
  -26.0201  -38.2876   24.1445 H   0  0  0  0  0  0
  -29.1178  -16.8411   23.2577 H   0  0  0  0  0  0
  -30.8993  -19.6028   19.5548 H   0  0  0  0  0  0
  -28.6531  -20.7378   25.4114 H   0  0  0  0  0  0
  -29.8988  -21.2021   24.1349 H   0  0  0  0  0  0
  -28.1319  -18.7127   24.2821 H   0  0  0  0  0  0
  -28.0662  -21.2856   20.8803 H   0  0  0  0  0  0
  -29.6742  -23.4999   22.3041 H   0  0  0  0  0  0
  -27.9533  -23.2697   22.3781 H   0  0  0  0  0  0
  -27.7867  -23.9230   19.9203 H   0  0  0  0  0  0
  -29.5130  -24.2239   19.9139 H   0  0  0  0  0  0
  -27.4548  -25.6453   21.6838 H   0  0  0  0  0  0
  -29.1645  -25.9045   21.8126 H   0  0  0  0  0  0
  -29.2369  -14.9721   21.8420 H   0  0  0  0  0  0
  1 25  1  0  0  0
  1 30  2  0  0  0
  1 84  1  0  0  0
  2  3  1  0  0  0
  2 25  1  0  0  0
  2 86  1  0  0  0
  2 87  1  0  0  0
  3  4  1  0  0  0
  3 88  1  0  0  0
  3 89  1  0  0  0
  4  5  1  0  0  0
  4 90  1  0  0  0
  4 91  1  0  0  0
  5  6  1  0  0  0
  5 26  1  0  0  0
  5 92  1  0  0  0
  6 25  1  0  0  0
  6 93  1  0  0  0
  6 94  1  0  0  0
  7  8  2  0  0  0
  7 26  1  0  0  0
  7 29  1  0  0  0
  8  9  1  0  0  0
  8 22  1  0  0  0
  9 10  1  0  0  0
  9 27  2  0  0  0
 10 11  2  0  0  0
 10 15  1  0  0  0
 11 12  1  0  0  0
 11 95  1  0  0  0
 12 13  2  0  0  0
 12 96  1  0  0  0
 13 14  1  0  0  0
 13 31  1  0  0  0
 14 15  2  0  0  0
 14 97  1  0  0  0
 15 98  1  0  0  0
 16 17  2  0  0  0
 16 21  1  0  0  0
 16 31  1  0  0  0
 17 18  1  0  0  0
 17 99  1  0  0  0
 18 19  2  0  0  0
 18100  1  0  0  0
 19 20  1  0  0  0
 19 24  1  0  0  0
 20 21  2  0  0  0
 20101  1  0  0  0
 21 23  1  0  0  0
 22 28  1  0  0  0
 22 32  2  0  0  0
 26 27  1  0  0  0
 28102  1  0  0  0
 28103  1  0  0  0
 29104  1  0  0  0
 29105  1  0  0  0
 33 34  1  0  0  0
 33 66  1  0  0  0
 33 70  2  0  0  0
 34 36  1  0  0  0
 34 59  1  0  0  0
 34106  1  0  0  0
 35 44  2  0  0  0
 35 45  1  0  0  0
 35 68  1  0  0  0
 36 56  1  0  0  0
 36107  1  0  0  0
 37 39  1  0  0  0
 37 47  1  0  0  0
 37 66  1  0  0  0
 37108  1  0  0  0
 38 43  2  0  0  0
 38 46  1  0  0  0
 38 47  1  0  0  0
 39 64  1  0  0  0
 39 67  2  0  0  0
 40 52  1  0  0  0
 40 53  2  0  0  0
 40 58  1  0  0  0
 41109  1  0  0  0
 41110  1  0  0  0
 41111  1  0  0  0
 41 48  1  0  0  0
 42 43  1  0  0  0
 42 66  1  0  0  0
 42112  1  0  0  0
 42113  1  0  0  0
 43 44  1  0  0  0
 44114  1  0  0  0
 45 46  2  0  0  0
 45115  1  0  0  0
 46116  1  0  0  0
 47117  1  0  0  0
 47118  1  0  0  0
 48 56  1  0  0  0
 48 65  1  0  0  0
 48119  1  0  0  0
 49 50  1  0  0  0
 49 53  1  0  0  0
 49 64  1  0  0  0
 49120  1  0  0  0
 50 51  1  0  0  0
 50121  1  0  0  0
 50122  1  0  0  0
 51 52  1  0  0  0
 51123  1  0  0  0
 51124  1  0  0  0
 52125  1  0  0  0
 52126  1  0  0  0
 53 54  1  0  0  0
 54 55  2  0  0  0
 54127  1  0  0  0
 55 57  1  0  0  0
 55128  1  0  0  0
 56 69  2  0  0  0
 57 58  2  0  0  0
 57129  1  0  0  0
 58130  1  0  0  0
 59 60  1  0  0  0
 59 61  1  0  0  0
 59 62  1  0  0  0
 60131  1  0  0  0
 60132  1  0  0  0
 60133  1  0  0  0
 61134  1  0  0  0
 61135  1  0  0  0
 61136  1  0  0  0
 62137  1  0  0  0
 62138  1  0  0  0
 62139  1  0  0  0
 63 65  1  0  0  0
 63140  1  0  0  0
 63141  1  0  0  0
 63142  1  0  0  0
 64143  1  0  0  0
 65144  1  0  0  0
 68 82  1  0  0  0
 71 73  2  0  0  0
 71 75  1  0  0  0
 71145  1  0  0  0
 72 74  2  0  0  0
 72 76  1  0  0  0
 72146  1  0  0  0
 73 74  1  0  0  0
 73 78  1  0  0  0
 74 83  1  0  0  0
 75 76  2  0  0  0
 75 84  1  0  0  0
 76 85  1  0  0  0
 77 78  2  0  0  0
 77147  1  0  0  0
 77148  1  0  0  0
 78149  1  0  0  0
 79 80  1  0  0  0
 79 83  2  0  0  0
 79150  1  0  0  0
 80 81  1  0  0  0
 80151  1  0  0  0
 80152  1  0  0  0
 81 82  1  0  0  0
 81153  1  0  0  0
 81154  1  0  0  0
 82155  1  0  0  0
 82156  1  0  0  0
 84157  1  0  0  0
M  ISO  4   1 100  68 101  82 101  84 100
M  END
> <chiral flag>
0

> <version>
0

> <s_m_source_file>
/data/baiqing/PycharmProjects/Reinvent-master-3.2/result/LINK_invent/BTK/process_docking_weight1_custom_product_contain_oxygen_bond_distance_aromatic_linkinvent_7_9_3/rearranged_h_0117.sdf

> <i_m_source_file_index>
60

> <r_mmod_Potential_Energy-OPLS-2005>
-41.2932739257812

> <r_mmod_Stretch_Energy-OPLS-2005>
38.0821418762207

> <r_mmod_Bend_Energy-OPLS-2005>
108.912071228027

> <r_mmod_Torsional_Energy-OPLS-2005>
271.248199462891

> <r_mmod_Improper_Torsional_Energy-OPLS-2005>
3.09247374534607

> <r_mmod_Van_der_Waal_Energy-OPLS-2005>
156.301391601562

> <r_mmod_Electrostatic_Energy-OPLS-2005>
-413.946411132812

> <r_mmod_Solvation_Energy-OPLS-2005>
-216.461578369141

> <b_mmod_Minimization_Converged-OPLS-2005>
0

> <r_mmod_RMS_Derivative-OPLS-2005>
2.72731566429138

$$$$
60
                    3D
 Structure written by MMmdl.
153161  0  0  1  0            999 V2000
  -30.7230  -14.4515   20.5507 C   0  0  0  0  0  0
  -30.4142  -12.2768   19.4421 C   0  0  0  0  0  0
  -29.5023  -12.4796   18.2150 C   0  0  0  0  0  0
  -28.0199  -12.3499   18.6185 C   0  0  0  0  0  0
  -27.6578  -13.2059   19.8625 C   0  0  2  0  0  0
  -28.6948  -13.0164   20.9901 C   0  0  0  0  0  0
  -25.2589  -13.8154   20.5656 C   0  0  0  0  0  0
  -24.1838  -13.0440   20.9156 C   0  0  0  0  0  0
  -24.6385  -11.6904   20.8721 C   0  0  0  0  0  0
  -23.9049  -10.4298   21.0409 C   0  0  0  0  0  0
  -24.3606   -9.4216   21.9186 C   0  0  0  0  0  0
  -23.6291   -8.2247   22.0761 C   0  0  0  0  0  0
  -22.4273   -8.0278   21.3550 C   0  0  0  0  0  0
  -21.9902   -9.0247   20.4651 C   0  0  0  0  0  0
  -22.7224  -10.2130   20.3059 C   0  0  0  0  0  0
  -21.6844   -6.0739   22.5286 C   0  0  0  0  0  0
  -21.4004   -6.5645   23.8217 C   0  0  0  0  0  0
  -21.3661   -5.6802   24.9182 C   0  0  0  0  0  0
  -21.6043   -4.3063   24.7236 C   0  0  0  0  0  0
  -21.8820   -3.8153   23.4359 C   0  0  0  0  0  0
  -21.9192   -4.6968   22.3412 C   0  0  0  0  0  0
  -22.7867  -13.5244   21.1842 C   0  0  0  0  0  0
  -22.1659   -4.2149   21.0990 F   0  0  0  0  0  0
  -21.5637   -3.4551   25.7752 F   0  0  0  0  0  0
  -30.0311  -13.2856   20.4409 N   0  0  0  0  0  0
  -26.3004  -12.9319   20.3288 N   0  0  0  0  0  0
  -25.9300  -11.6479   20.5718 N   0  0  0  0  0  0
  -22.0512  -12.8231   22.0393 N   0  0  0  0  0  0
  -25.4350  -15.1875   20.4094 N   0  0  0  0  0  0
  -31.8822  -14.5468   20.1400 O   0  0  0  0  0  0
  -21.6635   -6.8878   21.4246 O   0  0  0  0  0  0
  -22.3556  -14.5564   20.6706 O   0  0  0  0  0  0
  -24.6122  -31.8712   23.2102 C   0  0  0  0  0  0
  -25.9029  -32.4835   23.8389 C   0  0  1  0  0  0
  -27.2314  -27.4589   20.1001 C   0  0  0  0  0  0
  -25.5889  -33.8625   24.2329 N   0  0  0  0  0  0
  -23.3974  -30.4920   21.5524 C   0  0  2  0  0  0
  -24.8453  -28.9588   20.1133 C   0  0  0  0  0  0
  -22.7396  -29.4672   22.5035 C   0  0  0  0  0  0
  -18.0268  -28.1378   22.8502 C   0  0  0  0  0  0
  -24.1491  -36.7335   23.2639 C   0  0  0  0  0  0
  -25.9205  -30.8453   21.3567 C   0  0  0  0  0  0
  -26.0008  -29.4773   20.7119 C   0  0  0  0  0  0
  -27.1988  -28.7314   20.7091 C   0  0  0  0  0  0
  -26.0685  -26.9479   19.4926 C   0  0  0  0  0  0
  -24.8724  -27.6912   19.5011 C   0  0  0  0  0  0
  -23.6030  -29.8199   20.1670 C   0  0  0  0  0  0
  -25.4106  -36.3119   24.0338 C   0  0  1  0  0  0
  -20.5849  -28.3662   23.1355 C   0  0  2  0  0  0
  -20.6759  -26.9417   22.5432 C   0  0  0  0  0  0
  -19.5738  -26.6393   21.5227 C   0  0  0  0  0  0
  -18.1912  -26.7928   22.1633 C   0  0  0  0  0  0
  -19.1511  -28.8838   23.2925 C   0  0  0  0  0  0
  -18.9439  -30.1441   23.8939 C   0  0  0  0  0  0
  -17.6450  -30.6593   24.0568 C   0  0  0  0  0  0
  -25.9027  -34.9481   23.5137 C   0  0  0  0  0  0
  -16.5338  -29.9101   23.6321 C   0  0  0  0  0  0
  -16.7258  -28.6508   23.0347 C   0  0  0  0  0  0
  -26.4462  -31.6592   25.0699 C   0  0  0  0  0  0
  -25.3728  -31.3667   26.1439 C   0  0  0  0  0  0
  -27.0293  -30.3054   24.6023 C   0  0  0  0  0  0
  -27.6068  -32.4288   25.7448 C   0  0  0  0  0  0
  -27.5586  -37.1811   24.8460 C   0  0  0  0  0  0
  -21.4131  -29.3034   22.3778 N   0  0  0  0  0  0
  -26.4296  -37.3791   23.9403 N   0  0  0  0  0  0
  -24.6619  -31.0828   22.0995 N   0  0  0  0  0  0
  -23.4196  -28.8209   23.3058 O   0  0  0  0  0  0
  -28.3894  -26.7264   20.0769 O   0  0  0  0  0  0
  -26.5615  -34.8936   22.4712 O   0  0  0  0  0  0
  -23.5322  -32.1468   23.7510 O   0  0  0  0  0  0
  -29.0537  -18.6200   20.9402 C   0  0  0  0  0  0
  -28.9759  -19.9970   20.5368 C   0  0  0  0  0  0
  -29.4423  -17.7753   19.9276 C   0  0  0  0  0  0
  -29.3370  -20.1695   19.2179 C   0  0  0  0  0  0
  -29.8072  -16.3643   19.9098 C   0  0  0  0  0  0
  -28.1971  -24.3505   20.6486 C   0  0  0  0  0  0
  -27.9152  -23.3177   21.4660 C   0  0  0  0  0  0
  -29.5292  -21.4350   18.4454 C   0  0  0  0  0  0
  -28.4974  -25.7626   21.1263 C   0  0  0  0  0  0
  -27.6234  -21.8944   21.0203 C   0  0  0  0  0  0
  -29.9897  -15.5792   20.9075 N   0  0  0  0  0  0
  -28.6940  -21.0195   21.3854 O   0  0  0  0  0  0
  -29.6543  -18.6471   18.4372 S   0  0  0  0  0  0
  -31.4643  -12.3395   19.1490 H   0  0  0  0  0  0
  -30.2834  -11.2748   19.8546 H   0  0  0  0  0  0
  -29.7440  -11.7446   17.4455 H   0  0  0  0  0  0
  -29.6829  -13.4604   17.7720 H   0  0  0  0  0  0
  -27.8314  -11.2963   18.8286 H   0  0  0  0  0  0
  -27.3756  -12.6107   17.7783 H   0  0  0  0  0  0
  -27.6961  -14.2476   19.5458 H   0  0  0  0  0  0
  -28.6573  -11.9960   21.3751 H   0  0  0  0  0  0
  -28.4673  -13.6650   21.8373 H   0  0  0  0  0  0
  -25.2755   -9.5698   22.4748 H   0  0  0  0  0  0
  -24.0007   -7.4646   22.7484 H   0  0  0  0  0  0
  -21.0832   -8.8765   19.8957 H   0  0  0  0  0  0
  -22.3688  -10.9664   19.6163 H   0  0  0  0  0  0
  -21.1982   -7.6152   23.9715 H   0  0  0  0  0  0
  -21.1481   -6.0537   25.9081 H   0  0  0  0  0  0
  -22.0593   -2.7613   23.2865 H   0  0  0  0  0  0
  -22.4129  -11.9875   22.4759 H   0  0  0  0  0  0
  -21.1132  -13.1260   22.2617 H   0  0  0  0  0  0
  -24.6806  -15.8532   20.5340 H   0  0  0  0  0  0
  -26.3084  -15.6201   20.1356 H   0  0  0  0  0  0
  -26.7113  -32.5584   23.1178 H   0  0  0  0  0  0
  -24.9982  -33.9769   25.0433 H   0  0  0  0  0  0
  -22.6843  -31.3074   21.4147 H   0  0  0  0  0  0
  -23.3739  -35.9685   23.3293 H   0  0  0  0  0  0
  -24.3577  -36.8958   22.2053 H   0  0  0  0  0  0
  -23.7267  -37.6547   23.6662 H   0  0  0  0  0  0
  -26.0126  -31.6073   20.5807 H   0  0  0  0  0  0
  -26.8156  -30.9131   21.9629 H   0  0  0  0  0  0
  -28.0922  -29.1236   21.1749 H   0  0  0  0  0  0
  -26.0922  -25.9795   19.0116 H   0  0  0  0  0  0
  -23.9867  -27.2880   19.0310 H   0  0  0  0  0  0
  -23.7019  -30.5932   19.4047 H   0  0  0  0  0  0
  -22.7274  -29.2342   19.8796 H   0  0  0  0  0  0
  -25.1284  -36.1985   25.0833 H   0  0  0  0  0  0
  -20.9921  -28.3221   24.1482 H   0  0  0  0  0  0
  -20.5669  -26.2284   23.3610 H   0  0  0  0  0  0
  -21.6636  -26.7480   22.1217 H   0  0  0  0  0  0
  -19.6910  -25.6309   21.1255 H   0  0  0  0  0  0
  -19.6662  -27.3213   20.6768 H   0  0  0  0  0  0
  -17.4182  -26.6685   21.4029 H   0  0  0  0  0  0
  -18.0291  -26.0065   22.9020 H   0  0  0  0  0  0
  -19.7923  -30.7229   24.2335 H   0  0  0  0  0  0
  -17.5015  -31.6278   24.5169 H   0  0  0  0  0  0
  -15.5339  -30.3018   23.7627 H   0  0  0  0  0  0
  -15.8656  -28.0847   22.7044 H   0  0  0  0  0  0
  -24.5917  -30.7010   25.7748 H   0  0  0  0  0  0
  -24.8886  -32.2797   26.4924 H   0  0  0  0  0  0
  -25.8071  -30.8805   27.0186 H   0  0  0  0  0  0
  -26.2811  -29.6785   24.1151 H   0  0  0  0  0  0
  -27.4179  -29.7313   25.4449 H   0  0  0  0  0  0
  -27.8592  -30.4398   23.9076 H   0  0  0  0  0  0
  -27.2739  -33.3601   26.2051 H   0  0  0  0  0  0
  -28.3858  -32.6813   25.0238 H   0  0  0  0  0  0
  -28.0757  -31.8377   26.5327 H   0  0  0  0  0  0
  -28.2604  -38.0110   24.7509 H   0  0  0  0  0  0
  -28.1077  -36.2636   24.6281 H   0  0  0  0  0  0
  -27.2294  -37.1465   25.8861 H   0  0  0  0  0  0
  -20.9300  -29.8752   21.6992 H   0  0  0  0  0  0
  -26.0194  -38.2883   24.1381 H   0  0  0  0  0  0
  -28.8732  -18.3077   21.9581 H   0  0  0  0  0  0
  -29.9876  -16.0047   18.8883 H   0  0  0  0  0  0
  -28.2367  -24.1933   19.5800 H   0  0  0  0  0  0
  -27.8946  -23.4823   22.5340 H   0  0  0  0  0  0
  -28.6289  -21.6953   17.8885 H   0  0  0  0  0  0
  -30.3478  -21.3335   17.7311 H   0  0  0  0  0  0
  -29.7796  -22.2629   19.1081 H   0  0  0  0  0  0
  -29.5242  -25.7870   21.4911 H   0  0  0  0  0  0
  -27.8626  -26.0085   21.9818 H   0  0  0  0  0  0
  -27.4033  -21.8890   19.9535 H   0  0  0  0  0  0
  -26.7139  -21.5584   21.5187 H   0  0  0  0  0  0
  1 25  1  0  0  0
  1 30  2  0  0  0
  1 81  1  0  0  0
  2  3  1  0  0  0
  2 25  1  0  0  0
  2 84  1  0  0  0
  2 85  1  0  0  0
  3  4  1  0  0  0
  3 86  1  0  0  0
  3 87  1  0  0  0
  4  5  1  0  0  0
  4 88  1  0  0  0
  4 89  1  0  0  0
  5  6  1  0  0  0
  5 26  1  0  0  0
  5 90  1  0  0  0
  6 25  1  0  0  0
  6 91  1  0  0  0
  6 92  1  0  0  0
  7  8  2  0  0  0
  7 26  1  0  0  0
  7 29  1  0  0  0
  8  9  1  0  0  0
  8 22  1  0  0  0
  9 10  1  0  0  0
  9 27  2  0  0  0
 10 11  2  0  0  0
 10 15  1  0  0  0
 11 12  1  0  0  0
 11 93  1  0  0  0
 12 13  2  0  0  0
 12 94  1  0  0  0
 13 14  1  0  0  0
 13 31  1  0  0  0
 14 15  2  0  0  0
 14 95  1  0  0  0
 15 96  1  0  0  0
 16 17  2  0  0  0
 16 21  1  0  0  0
 16 31  1  0  0  0
 17 18  1  0  0  0
 17 97  1  0  0  0
 18 19  2  0  0  0
 18 98  1  0  0  0
 19 20  1  0  0  0
 19 24  1  0  0  0
 20 21  2  0  0  0
 20 99  1  0  0  0
 21 23  1  0  0  0
 22 28  1  0  0  0
 22 32  2  0  0  0
 26 27  1  0  0  0
 28100  1  0  0  0
 28101  1  0  0  0
 29102  1  0  0  0
 29103  1  0  0  0
 33 34  1  0  0  0
 33 66  1  0  0  0
 33 70  2  0  0  0
 34 36  1  0  0  0
 34 59  1  0  0  0
 34104  1  0  0  0
 35 44  2  0  0  0
 35 45  1  0  0  0
 35 68  1  0  0  0
 36 56  1  0  0  0
 36105  1  0  0  0
 37 39  1  0  0  0
 37 47  1  0  0  0
 37 66  1  0  0  0
 37106  1  0  0  0
 38 43  2  0  0  0
 38 46  1  0  0  0
 38 47  1  0  0  0
 39 64  1  0  0  0
 39 67  2  0  0  0
 40 52  1  0  0  0
 40 53  2  0  0  0
 40 58  1  0  0  0
 41107  1  0  0  0
 41108  1  0  0  0
 41109  1  0  0  0
 41 48  1  0  0  0
 42 43  1  0  0  0
 42 66  1  0  0  0
 42110  1  0  0  0
 42111  1  0  0  0
 43 44  1  0  0  0
 44112  1  0  0  0
 45 46  2  0  0  0
 45113  1  0  0  0
 46114  1  0  0  0
 47115  1  0  0  0
 47116  1  0  0  0
 48 56  1  0  0  0
 48 65  1  0  0  0
 48117  1  0  0  0
 49 50  1  0  0  0
 49 53  1  0  0  0
 49 64  1  0  0  0
 49118  1  0  0  0
 50 51  1  0  0  0
 50119  1  0  0  0
 50120  1  0  0  0
 51 52  1  0  0  0
 51121  1  0  0  0
 51122  1  0  0  0
 52123  1  0  0  0
 52124  1  0  0  0
 53 54  1  0  0  0
 54 55  2  0  0  0
 54125  1  0  0  0
 55 57  1  0  0  0
 55126  1  0  0  0
 56 69  2  0  0  0
 57 58  2  0  0  0
 57127  1  0  0  0
 58128  1  0  0  0
 59 60  1  0  0  0
 59 61  1  0  0  0
 59 62  1  0  0  0
 60129  1  0  0  0
 60130  1  0  0  0
 60131  1  0  0  0
 61132  1  0  0  0
 61133  1  0  0  0
 61134  1  0  0  0
 62135  1  0  0  0
 62136  1  0  0  0
 62137  1  0  0  0
 63 65  1  0  0  0
 63138  1  0  0  0
 63139  1  0  0  0
 63140  1  0  0  0
 64141  1  0  0  0
 65142  1  0  0  0
 68 79  1  0  0  0
 71 72  1  0  0  0
 71 73  2  0  0  0
 71143  1  0  0  0
 72 74  2  0  0  0
 72 82  1  0  0  0
 73 75  1  0  0  0
 73 83  1  0  0  0
 74 78  1  0  0  0
 74 83  1  0  0  0
 75 81  2  0  0  0
 75144  1  0  0  0
 76 77  2  0  0  0
 76 79  1  0  0  0
 76145  1  0  0  0
 77 80  1  0  0  0
 77146  1  0  0  0
 78147  1  0  0  0
 78148  1  0  0  0
 78149  1  0  0  0
 79150  1  0  0  0
 79151  1  0  0  0
 80 82  1  0  0  0
 80152  1  0  0  0
 80153  1  0  0  0
M  ISO  4   1 100  68 101  79 101  81 100
M  END
> <chiral flag>
0

> <version>
0

> <s_m_source_file>
/data/baiqing/PycharmProjects/Reinvent-master-3.2/result/LINK_invent/BTK/process_docking_weight1_custom_product_contain_oxygen_bond_distance_aromatic_linkinvent_7_9_3/rearranged_h_0117.sdf

> <i_m_source_file_index>
61

> <r_mmod_Potential_Energy-OPLS-2005>
-49.7406044006348

> <r_mmod_Stretch_Energy-OPLS-2005>
32.6037673950195

> <r_mmod_Bend_Energy-OPLS-2005>
94.2160720825195

> <r_mmod_Torsional_Energy-OPLS-2005>
220.099105834961

> <r_mmod_Improper_Torsional_Energy-OPLS-2005>
6.50091791152954

> <r_mmod_Van_der_Waal_Energy-OPLS-2005>
132.631622314453

> <r_mmod_Electrostatic_Energy-OPLS-2005>
-367.032928466797

> <r_mmod_Solvation_Energy-OPLS-2005>
-182.804809570312

> <b_mmod_Minimization_Converged-OPLS-2005>
0

> <r_mmod_RMS_Derivative-OPLS-2005>
1.69277226924896

$$$$
61
                    3D
 Structure written by MMmdl.
165173  0  0  1  0            999 V2000
  -30.7562  -14.4155   20.5140 C   0  0  0  0  0  0
  -30.3915  -12.2511   19.4400 C   0  0  0  0  0  0
  -29.4910  -12.4870   18.2115 C   0  0  0  0  0  0
  -28.0058  -12.3844   18.6104 C   0  0  0  0  0  0
  -27.6566  -13.2190   19.8738 C   0  0  2  0  0  0
  -28.6954  -13.0127   20.9978 C   0  0  0  0  0  0
  -25.2550  -13.8190   20.5685 C   0  0  0  0  0  0
  -24.1814  -13.0453   20.9177 C   0  0  0  0  0  0
  -24.6376  -11.6925   20.8730 C   0  0  0  0  0  0
  -23.9046  -10.4305   21.0398 C   0  0  0  0  0  0
  -24.3609   -9.4221   21.9173 C   0  0  0  0  0  0
  -23.6300   -8.2248   22.0748 C   0  0  0  0  0  0
  -22.4276   -8.0278   21.3542 C   0  0  0  0  0  0
  -21.9905   -9.0243   20.4646 C   0  0  0  0  0  0
  -22.7218  -10.2135   20.3050 C   0  0  0  0  0  0
  -21.6848   -6.0729   22.5274 C   0  0  0  0  0  0
  -21.4010   -6.5636   23.8208 C   0  0  0  0  0  0
  -21.3671   -5.6791   24.9174 C   0  0  0  0  0  0
  -21.6046   -4.3054   24.7220 C   0  0  0  0  0  0
  -21.8823   -3.8139   23.4339 C   0  0  0  0  0  0
  -21.9192   -4.6957   22.3398 C   0  0  0  0  0  0
  -22.7843  -13.5243   21.1854 C   0  0  0  0  0  0
  -22.1664   -4.2144   21.0974 F   0  0  0  0  0  0
  -21.5639   -3.4538   25.7732 F   0  0  0  0  0  0
  -30.0315  -13.2681   20.4417 N   0  0  0  0  0  0
  -26.2996  -12.9385   20.3370 N   0  0  0  0  0  0
  -25.9304  -11.6523   20.5751 N   0  0  0  0  0  0
  -22.0484  -12.8235   22.0416 N   0  0  0  0  0  0
  -25.4263  -15.1912   20.4106 N   0  0  0  0  0  0
  -31.9261  -14.4464   20.1228 O   0  0  0  0  0  0
  -21.6648   -6.8873   21.4238 O   0  0  0  0  0  0
  -22.3528  -14.5549   20.6708 O   0  0  0  0  0  0
  -24.6113  -31.8708   23.2119 C   0  0  0  0  0  0
  -25.9020  -32.4834   23.8408 C   0  0  1  0  0  0
  -27.2288  -27.4617   20.0864 C   0  0  0  0  0  0
  -25.5887  -33.8631   24.2332 N   0  0  0  0  0  0
  -23.3963  -30.4958   21.5523 C   0  0  2  0  0  0
  -24.8390  -28.9664   20.1123 C   0  0  0  0  0  0
  -22.7392  -29.4667   22.5000 C   0  0  0  0  0  0
  -18.0264  -28.1371   22.8496 C   0  0  0  0  0  0
  -24.1485  -36.7327   23.2640 C   0  0  0  0  0  0
  -25.9227  -30.8432   21.3624 C   0  0  0  0  0  0
  -25.9969  -29.4807   20.7076 C   0  0  0  0  0  0
  -27.1925  -28.7343   20.6926 C   0  0  0  0  0  0
  -26.0540  -26.9589   19.4786 C   0  0  0  0  0  0
  -24.8609  -27.7035   19.4960 C   0  0  0  0  0  0
  -23.6017  -29.8305   20.1654 C   0  0  0  0  0  0
  -25.4102  -36.3114   24.0342 C   0  0  1  0  0  0
  -20.5853  -28.3650   23.1336 C   0  0  2  0  0  0
  -20.6751  -26.9388   22.5432 C   0  0  0  0  0  0
  -19.5734  -26.6379   21.5221 C   0  0  0  0  0  0
  -18.1909  -26.7919   22.1624 C   0  0  0  0  0  0
  -19.1515  -28.8825   23.2912 C   0  0  0  0  0  0
  -18.9447  -30.1435   23.8916 C   0  0  0  0  0  0
  -17.6449  -30.6580   24.0563 C   0  0  0  0  0  0
  -25.9030  -34.9482   23.5131 C   0  0  0  0  0  0
  -16.5339  -29.9084   23.6320 C   0  0  0  0  0  0
  -16.7256  -28.6500   23.0345 C   0  0  0  0  0  0
  -26.4458  -31.6603   25.0729 C   0  0  0  0  0  0
  -25.3742  -31.3721   26.1500 C   0  0  0  0  0  0
  -27.0271  -30.3038   24.6093 C   0  0  0  0  0  0
  -27.6043  -32.4322   25.7478 C   0  0  0  0  0  0
  -27.5582  -37.1812   24.8458 C   0  0  0  0  0  0
  -21.4124  -29.3022   22.3744 N   0  0  0  0  0  0
  -26.4288  -37.3798   23.9411 N   0  0  0  0  0  0
  -24.6614  -31.0843   22.1003 N   0  0  0  0  0  0
  -23.4187  -28.8216   23.3026 O   0  0  0  0  0  0
  -28.4189  -26.7714   20.1078 O   0  0  0  0  0  0
  -26.5593  -34.8931   22.4693 O   0  0  0  0  0  0
  -23.5319  -32.1446   23.7540 O   0  0  0  0  0  0
  -30.5997  -20.5496   19.9795 C   0  0  0  0  0  0
  -29.1250  -20.0576   21.8385 C   0  0  0  0  0  0
  -30.2856  -18.2281   20.6992 C   0  0  0  0  0  0
  -30.8600  -19.1800   19.8073 C   0  0  0  0  0  0
  -29.7420  -21.0107   21.0025 C   0  0  0  0  0  0
  -29.3751  -18.6669   21.6962 C   0  0  0  0  0  0
  -30.6777  -16.8116   20.5444 C   0  0  0  0  0  0
  -30.0485  -15.6517   20.8488 C   0  0  0  0  0  0
  -29.6828  -23.2601   20.3708 C   0  0  0  0  0  0
  -31.0232  -18.1108   17.4885 C   0  0  0  0  0  0
  -27.2977  -16.8543   24.1537 C   0  0  0  0  0  0
  -31.7752  -18.7931   18.6413 C   0  0  0  0  0  0
  -29.5709  -24.7428   20.6320 C   0  0  0  0  0  0
  -27.8384  -18.1160   23.4783 C   0  0  0  0  0  0
  -28.3876  -25.3644   19.8878 C   0  0  0  0  0  0
  -29.5145  -22.3709   21.2687 N   0  0  0  0  0  0
  -28.8055  -17.7150   22.5175 O   0  0  0  0  0  0
  -31.4431  -12.2776   19.1497 H   0  0  0  0  0  0
  -30.2299  -11.2518   19.8464 H   0  0  0  0  0  0
  -29.7202  -11.7587   17.4327 H   0  0  0  0  0  0
  -29.6926  -13.4698   17.7815 H   0  0  0  0  0  0
  -27.7828  -11.3314   18.7838 H   0  0  0  0  0  0
  -27.3739  -12.6946   17.7775 H   0  0  0  0  0  0
  -27.6983  -14.2676   19.5790 H   0  0  0  0  0  0
  -28.6479  -11.9896   21.3727 H   0  0  0  0  0  0
  -28.4785  -13.6441   21.8602 H   0  0  0  0  0  0
  -25.2748   -9.5716   22.4742 H   0  0  0  0  0  0
  -24.0021   -7.4637   22.7463 H   0  0  0  0  0  0
  -21.0836   -8.8746   19.8951 H   0  0  0  0  0  0
  -22.3657  -10.9667   19.6171 H   0  0  0  0  0  0
  -21.1999   -7.6145   23.9715 H   0  0  0  0  0  0
  -21.1501   -6.0513   25.9078 H   0  0  0  0  0  0
  -22.0593   -2.7604   23.2827 H   0  0  0  0  0  0
  -22.4103  -11.9907   22.4818 H   0  0  0  0  0  0
  -21.1104  -13.1267   22.2618 H   0  0  0  0  0  0
  -24.6618  -15.8480   20.5214 H   0  0  0  0  0  0
  -26.2868  -15.6318   20.1107 H   0  0  0  0  0  0
  -26.7092  -32.5557   23.1181 H   0  0  0  0  0  0
  -25.0023  -33.9792   25.0465 H   0  0  0  0  0  0
  -22.6832  -31.3116   21.4163 H   0  0  0  0  0  0
  -23.3741  -35.9667   23.3305 H   0  0  0  0  0  0
  -24.3576  -36.8939   22.2052 H   0  0  0  0  0  0
  -23.7250  -37.6539   23.6652 H   0  0  0  0  0  0
  -26.0358  -31.6124   20.5973 H   0  0  0  0  0  0
  -26.8110  -30.8918   21.9808 H   0  0  0  0  0  0
  -28.0885  -29.1287   21.1520 H   0  0  0  0  0  0
  -26.0435  -26.0030   18.9763 H   0  0  0  0  0  0
  -23.9722  -27.3041   19.0265 H   0  0  0  0  0  0
  -23.7084  -30.6065   19.4064 H   0  0  0  0  0  0
  -22.7271  -29.2488   19.8701 H   0  0  0  0  0  0
  -25.1277  -36.1973   25.0837 H   0  0  0  0  0  0
  -20.9945  -28.3208   24.1458 H   0  0  0  0  0  0
  -20.5631  -26.2265   23.3620 H   0  0  0  0  0  0
  -21.6628  -26.7421   22.1240 H   0  0  0  0  0  0
  -19.6890  -25.6290   21.1246 H   0  0  0  0  0  0
  -19.6681  -27.3201   20.6760 H   0  0  0  0  0  0
  -17.4188  -26.6686   21.4012 H   0  0  0  0  0  0
  -18.0287  -26.0047   22.9004 H   0  0  0  0  0  0
  -19.7923  -30.7241   24.2301 H   0  0  0  0  0  0
  -17.5006  -31.6264   24.5160 H   0  0  0  0  0  0
  -15.5338  -30.2999   23.7623 H   0  0  0  0  0  0
  -15.8655  -28.0829   22.7044 H   0  0  0  0  0  0
  -24.5906  -30.7064   25.7862 H   0  0  0  0  0  0
  -24.8950  -32.2888   26.4951 H   0  0  0  0  0  0
  -25.8122  -30.8905   27.0254 H   0  0  0  0  0  0
  -26.2801  -29.6821   24.1145 H   0  0  0  0  0  0
  -27.4025  -29.7251   25.4542 H   0  0  0  0  0  0
  -27.8648  -30.4341   23.9238 H   0  0  0  0  0  0
  -27.2653  -33.3604   26.2094 H   0  0  0  0  0  0
  -28.3828  -32.6919   25.0290 H   0  0  0  0  0  0
  -28.0743  -31.8432   26.5365 H   0  0  0  0  0  0
  -28.2607  -38.0101   24.7493 H   0  0  0  0  0  0
  -28.1069  -36.2636   24.6284 H   0  0  0  0  0  0
  -27.2311  -37.1467   25.8864 H   0  0  0  0  0  0
  -20.9269  -29.8766   21.6997 H   0  0  0  0  0  0
  -26.0180  -38.2881   24.1406 H   0  0  0  0  0  0
  -31.1007  -21.2431   19.3189 H   0  0  0  0  0  0
  -28.4711  -20.4245   22.6151 H   0  0  0  0  0  0
  -31.6645  -16.7210   20.1253 H   0  0  0  0  0  0
  -29.0652  -15.6497   21.2901 H   0  0  0  0  0  0
  -29.9257  -23.0264   19.3303 H   0  0  0  0  0  0
  -31.7017  -17.8870   16.6648 H   0  0  0  0  0  0
  -30.2331  -18.7536   17.0988 H   0  0  0  0  0  0
  -30.5659  -17.1709   17.7975 H   0  0  0  0  0  0
  -26.5848  -17.1058   24.9395 H   0  0  0  0  0  0
  -28.1047  -16.2771   24.6055 H   0  0  0  0  0  0
  -26.7895  -16.2118   23.4332 H   0  0  0  0  0  0
  -32.6068  -18.1786   18.9848 H   0  0  0  0  0  0
  -32.2581  -19.6865   18.2434 H   0  0  0  0  0  0
  -30.5001  -25.2182   20.3191 H   0  0  0  0  0  0
  -29.4717  -24.9211   21.7032 H   0  0  0  0  0  0
  -28.2947  -18.7696   24.2234 H   0  0  0  0  0  0
  -27.0172  -18.6568   23.0049 H   0  0  0  0  0  0
  -27.4738  -24.9062   20.2701 H   0  0  0  0  0  0
  -28.4480  -25.1654   18.8161 H   0  0  0  0  0  0
  1 25  1  0  0  0
  1 30  2  0  0  0
  1 78  1  0  0  0
  2  3  1  0  0  0
  2 25  1  0  0  0
  2 88  1  0  0  0
  2 89  1  0  0  0
  3  4  1  0  0  0
  3 90  1  0  0  0
  3 91  1  0  0  0
  4  5  1  0  0  0
  4 92  1  0  0  0
  4 93  1  0  0  0
  5  6  1  0  0  0
  5 26  1  0  0  0
  5 94  1  0  0  0
  6 25  1  0  0  0
  6 95  1  0  0  0
  6 96  1  0  0  0
  7  8  2  0  0  0
  7 26  1  0  0  0
  7 29  1  0  0  0
  8  9  1  0  0  0
  8 22  1  0  0  0
  9 10  1  0  0  0
  9 27  2  0  0  0
 10 11  2  0  0  0
 10 15  1  0  0  0
 11 12  1  0  0  0
 11 97  1  0  0  0
 12 13  2  0  0  0
 12 98  1  0  0  0
 13 14  1  0  0  0
 13 31  1  0  0  0
 14 15  2  0  0  0
 14 99  1  0  0  0
 15100  1  0  0  0
 16 17  2  0  0  0
 16 21  1  0  0  0
 16 31  1  0  0  0
 17 18  1  0  0  0
 17101  1  0  0  0
 18 19  2  0  0  0
 18102  1  0  0  0
 19 20  1  0  0  0
 19 24  1  0  0  0
 20 21  2  0  0  0
 20103  1  0  0  0
 21 23  1  0  0  0
 22 28  1  0  0  0
 22 32  2  0  0  0
 26 27  1  0  0  0
 28104  1  0  0  0
 28105  1  0  0  0
 29106  1  0  0  0
 29107  1  0  0  0
 33 34  1  0  0  0
 33 66  1  0  0  0
 33 70  2  0  0  0
 34 36  1  0  0  0
 34 59  1  0  0  0
 34108  1  0  0  0
 35 44  2  0  0  0
 35 45  1  0  0  0
 35 68  1  0  0  0
 36 56  1  0  0  0
 36109  1  0  0  0
 37 39  1  0  0  0
 37 47  1  0  0  0
 37 66  1  0  0  0
 37110  1  0  0  0
 38 43  2  0  0  0
 38 46  1  0  0  0
 38 47  1  0  0  0
 39 64  1  0  0  0
 39 67  2  0  0  0
 40 52  1  0  0  0
 40 53  2  0  0  0
 40 58  1  0  0  0
 41111  1  0  0  0
 41112  1  0  0  0
 41113  1  0  0  0
 41 48  1  0  0  0
 42 43  1  0  0  0
 42 66  1  0  0  0
 42114  1  0  0  0
 42115  1  0  0  0
 43 44  1  0  0  0
 44116  1  0  0  0
 45 46  2  0  0  0
 45117  1  0  0  0
 46118  1  0  0  0
 47119  1  0  0  0
 47120  1  0  0  0
 48 56  1  0  0  0
 48 65  1  0  0  0
 48121  1  0  0  0
 49 50  1  0  0  0
 49 53  1  0  0  0
 49 64  1  0  0  0
 49122  1  0  0  0
 50 51  1  0  0  0
 50123  1  0  0  0
 50124  1  0  0  0
 51 52  1  0  0  0
 51125  1  0  0  0
 51126  1  0  0  0
 52127  1  0  0  0
 52128  1  0  0  0
 53 54  1  0  0  0
 54 55  2  0  0  0
 54129  1  0  0  0
 55 57  1  0  0  0
 55130  1  0  0  0
 56 69  2  0  0  0
 57 58  2  0  0  0
 57131  1  0  0  0
 58132  1  0  0  0
 59 60  1  0  0  0
 59 61  1  0  0  0
 59 62  1  0  0  0
 60133  1  0  0  0
 60134  1  0  0  0
 60135  1  0  0  0
 61136  1  0  0  0
 61137  1  0  0  0
 61138  1  0  0  0
 62139  1  0  0  0
 62140  1  0  0  0
 62141  1  0  0  0
 63 65  1  0  0  0
 63142  1  0  0  0
 63143  1  0  0  0
 63144  1  0  0  0
 64145  1  0  0  0
 65146  1  0  0  0
 68 85  1  0  0  0
 71 74  2  0  0  0
 71 75  1  0  0  0
 71147  1  0  0  0
 72 75  2  0  0  0
 72 76  1  0  0  0
 72148  1  0  0  0
 73 74  1  0  0  0
 73 76  2  0  0  0
 73 77  1  0  0  0
 74 82  1  0  0  0
 75 86  1  0  0  0
 76 87  1  0  0  0
 77 78  2  0  0  0
 77149  1  0  0  0
 78150  1  0  0  0
 79 83  1  0  0  0
 79 86  2  0  0  0
 79151  1  0  0  0
 80 82  1  0  0  0
 80152  1  0  0  0
 80153  1  0  0  0
 80154  1  0  0  0
 81 84  1  0  0  0
 81155  1  0  0  0
 81156  1  0  0  0
 81157  1  0  0  0
 82158  1  0  0  0
 82159  1  0  0  0
 83 85  1  0  0  0
 83160  1  0  0  0
 83161  1  0  0  0
 84 87  1  0  0  0
 84162  1  0  0  0
 84163  1  0  0  0
 85164  1  0  0  0
 85165  1  0  0  0
M  ISO  4   1 100  68 101  78 100  85 101
M  END
> <chiral flag>
0

> <version>
0

> <s_m_source_file>
/data/baiqing/PycharmProjects/Reinvent-master-3.2/result/LINK_invent/BTK/process_docking_weight1_custom_product_contain_oxygen_bond_distance_aromatic_linkinvent_7_9_3/rearranged_h_0117.sdf

> <i_m_source_file_index>
62

> <r_mmod_Potential_Energy-OPLS-2005>
-5.91109466552734

> <r_mmod_Stretch_Energy-OPLS-2005>
36.1148872375488

> <r_mmod_Bend_Energy-OPLS-2005>
120.941360473633

> <r_mmod_Torsional_Energy-OPLS-2005>
187.538513183594

> <r_mmod_Improper_Torsional_Energy-OPLS-2005>
4.96945142745972

> <r_mmod_Van_der_Waal_Energy-OPLS-2005>
187.20182800293

> <r_mmod_Electrostatic_Energy-OPLS-2005>
-363.701904296875

> <r_mmod_Solvation_Energy-OPLS-2005>
-198.137710571289

> <b_mmod_Minimization_Converged-OPLS-2005>
0

> <r_mmod_RMS_Derivative-OPLS-2005>
1.48285973072052

$$$$
62
                    3D
 Structure written by MMmdl.
161169  0  0  1  0            999 V2000
  -30.6778  -14.4883   20.5560 C   0  0  0  0  0  0
  -30.4321  -12.3078   19.4265 C   0  0  0  0  0  0
  -29.4983  -12.4842   18.2089 C   0  0  0  0  0  0
  -28.0150  -12.3689   18.6161 C   0  0  0  0  0  0
  -27.6641  -13.2012   19.8789 C   0  0  2  0  0  0
  -28.7074  -12.9726   20.9968 C   0  0  0  0  0  0
  -25.2592  -13.8147   20.5630 C   0  0  0  0  0  0
  -24.1848  -13.0435   20.9151 C   0  0  0  0  0  0
  -24.6403  -11.6898   20.8736 C   0  0  0  0  0  0
  -23.9065  -10.4288   21.0413 C   0  0  0  0  0  0
  -24.3622   -9.4203   21.9190 C   0  0  0  0  0  0
  -23.6290   -8.2245   22.0764 C   0  0  0  0  0  0
  -22.4270   -8.0286   21.3554 C   0  0  0  0  0  0
  -21.9906   -9.0260   20.4654 C   0  0  0  0  0  0
  -22.7243  -10.2134   20.3058 C   0  0  0  0  0  0
  -21.6858   -6.0737   22.5276 C   0  0  0  0  0  0
  -21.4028   -6.5645   23.8211 C   0  0  0  0  0  0
  -21.3654   -5.6793   24.9171 C   0  0  0  0  0  0
  -21.6039   -4.3056   24.7220 C   0  0  0  0  0  0
  -21.8819   -3.8146   23.4345 C   0  0  0  0  0  0
  -21.9196   -4.6964   22.3401 C   0  0  0  0  0  0
  -22.7873  -13.5245   21.1817 C   0  0  0  0  0  0
  -22.1661   -4.2152   21.0978 F   0  0  0  0  0  0
  -21.5618   -3.4535   25.7733 F   0  0  0  0  0  0
  -30.0386  -13.2892   20.4493 N   0  0  0  0  0  0
  -26.3037  -12.9305   20.3376 N   0  0  0  0  0  0
  -25.9325  -11.6470   20.5785 N   0  0  0  0  0  0
  -22.0510  -12.8256   22.0395 N   0  0  0  0  0  0
  -25.4297  -15.1867   20.3979 N   0  0  0  0  0  0
  -31.7986  -14.6982   20.0841 O   0  0  0  0  0  0
  -21.6634   -6.8887   21.4247 O   0  0  0  0  0  0
  -22.3557  -14.5539   20.6655 O   0  0  0  0  0  0
  -24.6146  -31.8673   23.2090 C   0  0  0  0  0  0
  -25.9035  -32.4818   23.8394 C   0  0  1  0  0  0
  -27.2460  -27.4326   20.0797 C   0  0  0  0  0  0
  -25.5882  -33.8614   24.2321 N   0  0  0  0  0  0
  -23.4038  -30.4893   21.5502 C   0  0  2  0  0  0
  -24.8516  -28.9558   20.1134 C   0  0  0  0  0  0
  -22.7416  -29.4639   22.4979 C   0  0  0  0  0  0
  -18.0274  -28.1361   22.8498 C   0  0  0  0  0  0
  -24.1478  -36.7317   23.2641 C   0  0  0  0  0  0
  -25.9337  -30.8309   21.3645 C   0  0  0  0  0  0
  -26.0113  -29.4655   20.7086 C   0  0  0  0  0  0
  -27.2049  -28.7070   20.6961 C   0  0  0  0  0  0
  -26.0565  -26.9303   19.5006 C   0  0  0  0  0  0
  -24.8684  -27.6861   19.5116 C   0  0  0  0  0  0
  -23.6135  -29.8228   20.1643 C   0  0  0  0  0  0
  -25.4100  -36.3109   24.0340 C   0  0  1  0  0  0
  -20.5866  -28.3650   23.1314 C   0  0  2  0  0  0
  -20.6755  -26.9382   22.5416 C   0  0  0  0  0  0
  -19.5733  -26.6370   21.5210 C   0  0  0  0  0  0
  -18.1915  -26.7909   22.1627 C   0  0  0  0  0  0
  -19.1526  -28.8821   23.2904 C   0  0  0  0  0  0
  -18.9452  -30.1428   23.8916 C   0  0  0  0  0  0
  -17.6456  -30.6574   24.0559 C   0  0  0  0  0  0
  -25.9032  -34.9475   23.5132 C   0  0  0  0  0  0
  -16.5347  -29.9078   23.6317 C   0  0  0  0  0  0
  -16.7266  -28.6486   23.0357 C   0  0  0  0  0  0
  -26.4459  -31.6605   25.0728 C   0  0  0  0  0  0
  -25.3727  -31.3740   26.1484 C   0  0  0  0  0  0
  -27.0281  -30.3042   24.6113 C   0  0  0  0  0  0
  -27.6032  -32.4335   25.7483 C   0  0  0  0  0  0
  -27.5577  -37.1804   24.8459 C   0  0  0  0  0  0
  -21.4141  -29.3017   22.3720 N   0  0  0  0  0  0
  -26.4282  -37.3796   23.9413 N   0  0  0  0  0  0
  -24.6688  -31.0761   22.1000 N   0  0  0  0  0  0
  -23.4176  -28.8189   23.3038 O   0  0  0  0  0  0
  -28.4269  -26.7121   20.1256 O   0  0  0  0  0  0
  -26.5602  -34.8924   22.4698 O   0  0  0  0  0  0
  -23.5333  -32.1423   23.7477 O   0  0  0  0  0  0
  -30.0349  -17.8077   21.8058 C   0  0  0  0  0  0
  -29.7960  -19.1804   21.5809 C   0  0  0  0  0  0
  -29.5597  -17.3221   19.4597 C   0  0  0  0  0  0
  -29.3466  -18.7162   19.2300 C   0  0  0  0  0  0
  -29.9082  -16.8630   20.7644 C   0  0  0  0  0  0
  -29.4230  -19.6478   20.3002 C   0  0  0  0  0  0
  -28.2349  -16.1938   17.6612 C   0  0  0  0  0  0
  -29.3689  -16.3490   18.3660 C   0  0  0  0  0  0
  -29.3889  -22.1506   20.6612 C   0  0  0  0  0  0
  -29.0386  -19.2314   17.8230 C   0  0  0  0  0  0
  -28.6176  -23.4317   20.2742 C   0  0  0  0  0  0
  -29.5064  -24.5275   19.6340 C   0  0  0  0  0  0
  -28.7489  -25.7675   19.0934 C   0  0  0  0  0  0
  -29.0005  -21.0012   20.0733 N   0  0  0  0  0  0
  -29.9474  -15.4721   21.1177 N   0  0  0  0  0  0
  -30.3211  -22.2218   21.4652 O   0  0  0  0  0  0
  -31.4733  -12.4232   19.1212 H   0  0  0  0  0  0
  -30.3507  -11.2976   19.8314 H   0  0  0  0  0  0
  -29.7307  -11.7355   17.4497 H   0  0  0  0  0  0
  -29.6772  -13.4521   17.7421 H   0  0  0  0  0  0
  -27.8031  -11.3148   18.7959 H   0  0  0  0  0  0
  -27.3754  -12.6667   17.7841 H   0  0  0  0  0  0
  -27.7074  -14.2507   19.5941 H   0  0  0  0  0  0
  -28.6866  -11.9309   21.3220 H   0  0  0  0  0  0
  -28.4665  -13.5578   21.8849 H   0  0  0  0  0  0
  -25.2780   -9.5658   22.4752 H   0  0  0  0  0  0
  -23.9989   -7.4634   22.7489 H   0  0  0  0  0  0
  -21.0832   -8.8795   19.8960 H   0  0  0  0  0  0
  -22.3733  -10.9674   19.6152 H   0  0  0  0  0  0
  -21.2046   -7.6160   23.9716 H   0  0  0  0  0  0
  -21.1461   -6.0529   25.9069 H   0  0  0  0  0  0
  -22.0600   -2.7607   23.2852 H   0  0  0  0  0  0
  -22.4128  -11.9930   22.4800 H   0  0  0  0  0  0
  -21.1113  -13.1271   22.2548 H   0  0  0  0  0  0
  -24.6558  -15.8377   20.4745 H   0  0  0  0  0  0
  -26.2823  -15.6197   20.0649 H   0  0  0  0  0  0
  -26.7109  -32.5530   23.1167 H   0  0  0  0  0  0
  -25.0003  -33.9777   25.0441 H   0  0  0  0  0  0
  -22.6921  -31.3057   21.4110 H   0  0  0  0  0  0
  -23.3732  -35.9657   23.3308 H   0  0  0  0  0  0
  -24.3571  -36.8925   22.2054 H   0  0  0  0  0  0
  -23.7233  -37.6524   23.6650 H   0  0  0  0  0  0
  -26.0482  -31.5997   20.5986 H   0  0  0  0  0  0
  -26.8199  -30.8818   21.9853 H   0  0  0  0  0  0
  -28.0998  -29.0971   21.1612 H   0  0  0  0  0  0
  -26.0082  -25.9440   19.0657 H   0  0  0  0  0  0
  -23.9704  -27.2787   19.0675 H   0  0  0  0  0  0
  -23.7228  -30.6000   19.4075 H   0  0  0  0  0  0
  -22.7378  -29.2445   19.8643 H   0  0  0  0  0  0
  -25.1275  -36.1977   25.0834 H   0  0  0  0  0  0
  -20.9960  -28.3214   24.1435 H   0  0  0  0  0  0
  -20.5646  -26.2259   23.3606 H   0  0  0  0  0  0
  -21.6626  -26.7404   22.1219 H   0  0  0  0  0  0
  -19.6890  -25.6287   21.1219 H   0  0  0  0  0  0
  -19.6670  -27.3193   20.6752 H   0  0  0  0  0  0
  -17.4184  -26.6669   21.4030 H   0  0  0  0  0  0
  -18.0313  -26.0040   22.9013 H   0  0  0  0  0  0
  -19.7929  -30.7229   24.2305 H   0  0  0  0  0  0
  -17.5014  -31.6257   24.5157 H   0  0  0  0  0  0
  -15.5350  -30.2991   23.7617 H   0  0  0  0  0  0
  -15.8670  -28.0802   22.7079 H   0  0  0  0  0  0
  -24.5874  -30.7112   25.7834 H   0  0  0  0  0  0
  -24.8951  -32.2913   26.4944 H   0  0  0  0  0  0
  -25.8078  -30.8899   27.0234 H   0  0  0  0  0  0
  -26.2827  -29.6819   24.1148 H   0  0  0  0  0  0
  -27.4019  -29.7272   25.4580 H   0  0  0  0  0  0
  -27.8676  -30.4353   23.9282 H   0  0  0  0  0  0
  -27.2642  -33.3624   26.2087 H   0  0  0  0  0  0
  -28.3824  -32.6922   25.0299 H   0  0  0  0  0  0
  -28.0718  -31.8449   26.5379 H   0  0  0  0  0  0
  -28.2595  -38.0102   24.7508 H   0  0  0  0  0  0
  -28.1069  -36.2633   24.6269 H   0  0  0  0  0  0
  -27.2298  -37.1437   25.8863 H   0  0  0  0  0  0
  -20.9303  -29.8759   21.6959 H   0  0  0  0  0  0
  -26.0171  -38.2871   24.1425 H   0  0  0  0  0  0
  -30.2686  -17.4789   22.8082 H   0  0  0  0  0  0
  -29.8516  -19.8601   22.4195 H   0  0  0  0  0  0
  -28.1689  -15.4663   16.8640 H   0  0  0  0  0  0
  -27.3561  -16.7850   17.8705 H   0  0  0  0  0  0
  -30.2238  -15.7402   18.1128 H   0  0  0  0  0  0
  -29.5164  -18.6226   17.0554 H   0  0  0  0  0  0
  -29.4148  -20.2427   17.6689 H   0  0  0  0  0  0
  -27.9639  -19.2374   17.6419 H   0  0  0  0  0  0
  -28.1422  -23.8266   21.1730 H   0  0  0  0  0  0
  -27.8044  -23.1772   19.5934 H   0  0  0  0  0  0
  -30.0308  -24.0750   18.7915 H   0  0  0  0  0  0
  -30.2848  -24.8419   20.3304 H   0  0  0  0  0  0
  -27.9163  -25.4430   18.4757 H   0  0  0  0  0  0
  -29.4132  -26.2964   18.4087 H   0  0  0  0  0  0
  -28.3075  -21.1161   19.3465 H   0  0  0  0  0  0
  -29.1410  -15.1425   21.6247 H   0  0  0  0  0  0
  1 25  1  0  0  0
  1 30  2  0  0  0
  1 85  1  0  0  0
  2  3  1  0  0  0
  2 25  1  0  0  0
  2 87  1  0  0  0
  2 88  1  0  0  0
  3  4  1  0  0  0
  3 89  1  0  0  0
  3 90  1  0  0  0
  4  5  1  0  0  0
  4 91  1  0  0  0
  4 92  1  0  0  0
  5  6  1  0  0  0
  5 26  1  0  0  0
  5 93  1  0  0  0
  6 25  1  0  0  0
  6 94  1  0  0  0
  6 95  1  0  0  0
  7  8  2  0  0  0
  7 26  1  0  0  0
  7 29  1  0  0  0
  8  9  1  0  0  0
  8 22  1  0  0  0
  9 10  1  0  0  0
  9 27  2  0  0  0
 10 11  2  0  0  0
 10 15  1  0  0  0
 11 12  1  0  0  0
 11 96  1  0  0  0
 12 13  2  0  0  0
 12 97  1  0  0  0
 13 14  1  0  0  0
 13 31  1  0  0  0
 14 15  2  0  0  0
 14 98  1  0  0  0
 15 99  1  0  0  0
 16 17  2  0  0  0
 16 21  1  0  0  0
 16 31  1  0  0  0
 17 18  1  0  0  0
 17100  1  0  0  0
 18 19  2  0  0  0
 18101  1  0  0  0
 19 20  1  0  0  0
 19 24  1  0  0  0
 20 21  2  0  0  0
 20102  1  0  0  0
 21 23  1  0  0  0
 22 28  1  0  0  0
 22 32  2  0  0  0
 26 27  1  0  0  0
 28103  1  0  0  0
 28104  1  0  0  0
 29105  1  0  0  0
 29106  1  0  0  0
 33 34  1  0  0  0
 33 66  1  0  0  0
 33 70  2  0  0  0
 34 36  1  0  0  0
 34 59  1  0  0  0
 34107  1  0  0  0
 35 44  2  0  0  0
 35 45  1  0  0  0
 35 68  1  0  0  0
 36 56  1  0  0  0
 36108  1  0  0  0
 37 39  1  0  0  0
 37 47  1  0  0  0
 37 66  1  0  0  0
 37109  1  0  0  0
 38 43  2  0  0  0
 38 46  1  0  0  0
 38 47  1  0  0  0
 39 64  1  0  0  0
 39 67  2  0  0  0
 40 52  1  0  0  0
 40 53  2  0  0  0
 40 58  1  0  0  0
 41110  1  0  0  0
 41111  1  0  0  0
 41112  1  0  0  0
 41 48  1  0  0  0
 42 43  1  0  0  0
 42 66  1  0  0  0
 42113  1  0  0  0
 42114  1  0  0  0
 43 44  1  0  0  0
 44115  1  0  0  0
 45 46  2  0  0  0
 45116  1  0  0  0
 46117  1  0  0  0
 47118  1  0  0  0
 47119  1  0  0  0
 48 56  1  0  0  0
 48 65  1  0  0  0
 48120  1  0  0  0
 49 50  1  0  0  0
 49 53  1  0  0  0
 49 64  1  0  0  0
 49121  1  0  0  0
 50 51  1  0  0  0
 50122  1  0  0  0
 50123  1  0  0  0
 51 52  1  0  0  0
 51124  1  0  0  0
 51125  1  0  0  0
 52126  1  0  0  0
 52127  1  0  0  0
 53 54  1  0  0  0
 54 55  2  0  0  0
 54128  1  0  0  0
 55 57  1  0  0  0
 55129  1  0  0  0
 56 69  2  0  0  0
 57 58  2  0  0  0
 57130  1  0  0  0
 58131  1  0  0  0
 59 60  1  0  0  0
 59 61  1  0  0  0
 59 62  1  0  0  0
 60132  1  0  0  0
 60133  1  0  0  0
 60134  1  0  0  0
 61135  1  0  0  0
 61136  1  0  0  0
 61137  1  0  0  0
 62138  1  0  0  0
 62139  1  0  0  0
 62140  1  0  0  0
 63 65  1  0  0  0
 63141  1  0  0  0
 63142  1  0  0  0
 63143  1  0  0  0
 64144  1  0  0  0
 65145  1  0  0  0
 68 83  1  0  0  0
 71 72  2  0  0  0
 71 75  1  0  0  0
 71146  1  0  0  0
 72 76  1  0  0  0
 72147  1  0  0  0
 73 74  1  0  0  0
 73 75  2  0  0  0
 73 78  1  0  0  0
 74 76  2  0  0  0
 74 80  1  0  0  0
 75 85  1  0  0  0
 76 84  1  0  0  0
 77 78  2  0  0  0
 77148  1  0  0  0
 77149  1  0  0  0
 78150  1  0  0  0
 79 81  1  0  0  0
 79 84  1  0  0  0
 79 86  2  0  0  0
 80151  1  0  0  0
 80152  1  0  0  0
 80153  1  0  0  0
 81 82  1  0  0  0
 81154  1  0  0  0
 81155  1  0  0  0
 82 83  1  0  0  0
 82156  1  0  0  0
 82157  1  0  0  0
 83158  1  0  0  0
 83159  1  0  0  0
 84160  1  0  0  0
 85161  1  0  0  0
M  ISO  4   1 100  68 101  83 101  85 100
M  END
> <chiral flag>
0

> <version>
0

> <s_m_source_file>
/data/baiqing/PycharmProjects/Reinvent-master-3.2/result/LINK_invent/BTK/process_docking_weight1_custom_product_contain_oxygen_bond_distance_aromatic_linkinvent_7_9_3/rearranged_h_0117.sdf

> <i_m_source_file_index>
63

> <r_mmod_Potential_Energy-OPLS-2005>
-81.1626358032227

> <r_mmod_Stretch_Energy-OPLS-2005>
42.6771430969238

> <r_mmod_Bend_Energy-OPLS-2005>
110.404251098633

> <r_mmod_Torsional_Energy-OPLS-2005>
290.1474609375

> <r_mmod_Improper_Torsional_Energy-OPLS-2005>
5.58562469482422

> <r_mmod_Van_der_Waal_Energy-OPLS-2005>
155.38981628418

> <r_mmod_Electrostatic_Energy-OPLS-2005>
-468.045471191406

> <r_mmod_Solvation_Energy-OPLS-2005>
-231.509857177734

> <b_mmod_Minimization_Converged-OPLS-2005>
0

> <r_mmod_RMS_Derivative-OPLS-2005>
1.82465744018555

$$$$
63
                    3D
 Structure written by MMmdl.
160168  0  0  1  0            999 V2000
  -30.6808  -14.5395   20.4518 C   0  0  0  0  0  0
  -30.4222  -12.3116   19.4462 C   0  0  0  0  0  0
  -29.4912  -12.4204   18.2189 C   0  0  0  0  0  0
  -28.0113  -12.3203   18.6342 C   0  0  0  0  0  0
  -27.6505  -13.2098   19.8545 C   0  0  2  0  0  0
  -28.6974  -13.0721   20.9830 C   0  0  0  0  0  0
  -25.2554  -13.8181   20.5689 C   0  0  0  0  0  0
  -24.1818  -13.0451   20.9206 C   0  0  0  0  0  0
  -24.6377  -11.6920   20.8768 C   0  0  0  0  0  0
  -23.9050  -10.4299   21.0424 C   0  0  0  0  0  0
  -24.3606   -9.4210   21.9194 C   0  0  0  0  0  0
  -23.6285   -8.2243   22.0758 C   0  0  0  0  0  0
  -22.4268   -8.0281   21.3548 C   0  0  0  0  0  0
  -21.9905   -9.0255   20.4650 C   0  0  0  0  0  0
  -22.7229  -10.2137   20.3065 C   0  0  0  0  0  0
  -21.6850   -6.0733   22.5276 C   0  0  0  0  0  0
  -21.4013   -6.5635   23.8211 C   0  0  0  0  0  0
  -21.3660   -5.6790   24.9174 C   0  0  0  0  0  0
  -21.6043   -4.3053   24.7226 C   0  0  0  0  0  0
  -21.8818   -3.8145   23.4347 C   0  0  0  0  0  0
  -21.9192   -4.6960   22.3402 C   0  0  0  0  0  0
  -22.7837  -13.5240   21.1858 C   0  0  0  0  0  0
  -22.1659   -4.2144   21.0980 F   0  0  0  0  0  0
  -21.5630   -3.4539   25.7740 F   0  0  0  0  0  0
  -30.0200  -13.3505   20.4071 N   0  0  0  0  0  0
  -26.2973  -12.9354   20.3317 N   0  0  0  0  0  0
  -25.9302  -11.6518   20.5803 N   0  0  0  0  0  0
  -22.0474  -12.8238   22.0412 N   0  0  0  0  0  0
  -25.4263  -15.1903   20.4078 N   0  0  0  0  0  0
  -31.8850  -14.6304   20.2076 O   0  0  0  0  0  0
  -21.6636   -6.8876   21.4239 O   0  0  0  0  0  0
  -22.3524  -14.5540   20.6695 O   0  0  0  0  0  0
  -24.6153  -31.8671   23.2089 C   0  0  0  0  0  0
  -25.9035  -32.4825   23.8397 C   0  0  1  0  0  0
  -27.2339  -27.4218   20.1141 C   0  0  0  0  0  0
  -25.5883  -33.8625   24.2326 N   0  0  0  0  0  0
  -23.4052  -30.4897   21.5483 C   0  0  2  0  0  0
  -24.8551  -28.9527   20.1159 C   0  0  0  0  0  0
  -22.7414  -29.4659   22.4975 C   0  0  0  0  0  0
  -18.0271  -28.1383   22.8498 C   0  0  0  0  0  0
  -24.1482  -36.7320   23.2638 C   0  0  0  0  0  0
  -25.9345  -30.8314   21.3629 C   0  0  0  0  0  0
  -26.0153  -29.4634   20.7136 C   0  0  0  0  0  0
  -27.2118  -28.7064   20.7070 C   0  0  0  0  0  0
  -26.0602  -26.9280   19.5084 C   0  0  0  0  0  0
  -24.8731  -27.6851   19.5078 C   0  0  0  0  0  0
  -23.6163  -29.8198   20.1639 C   0  0  0  0  0  0
  -25.4106  -36.3120   24.0337 C   0  0  1  0  0  0
  -20.5863  -28.3678   23.1310 C   0  0  2  0  0  0
  -20.6760  -26.9411   22.5418 C   0  0  0  0  0  0
  -19.5739  -26.6391   21.5216 C   0  0  0  0  0  0
  -18.1916  -26.7931   22.1626 C   0  0  0  0  0  0
  -19.1521  -28.8845   23.2903 C   0  0  0  0  0  0
  -18.9453  -30.1449   23.8919 C   0  0  0  0  0  0
  -17.6455  -30.6592   24.0571 C   0  0  0  0  0  0
  -25.9033  -34.9480   23.5134 C   0  0  0  0  0  0
  -16.5345  -29.9097   23.6326 C   0  0  0  0  0  0
  -16.7262  -28.6509   23.0357 C   0  0  0  0  0  0
  -26.4458  -31.6608   25.0730 C   0  0  0  0  0  0
  -25.3724  -31.3705   26.1478 C   0  0  0  0  0  0
  -27.0289  -30.3053   24.6106 C   0  0  0  0  0  0
  -27.6038  -32.4325   25.7488 C   0  0  0  0  0  0
  -27.5580  -37.1816   24.8465 C   0  0  0  0  0  0
  -21.4139  -29.3043   22.3716 N   0  0  0  0  0  0
  -26.4296  -37.3802   23.9407 N   0  0  0  0  0  0
  -24.6698  -31.0769   22.0988 N   0  0  0  0  0  0
  -23.4176  -28.8202   23.3026 O   0  0  0  0  0  0
  -28.3711  -26.6425   20.1111 O   0  0  0  0  0  0
  -26.5607  -34.8930   22.4703 O   0  0  0  0  0  0
  -23.5341  -32.1420   23.7476 O   0  0  0  0  0  0
  -30.7819  -19.6316   19.2211 C   0  0  0  0  0  0
  -31.1963  -18.5519   18.4223 C   0  0  0  0  0  0
  -30.8109  -17.2368   18.7836 C   0  0  0  0  0  0
  -29.7387  -18.1147   20.8128 C   0  0  0  0  0  0
  -29.9820  -19.4574   20.3747 C   0  0  0  0  0  0
  -30.1816  -16.9883   20.0446 C   0  0  0  0  0  0
  -31.9964  -19.9758   16.4998 C   0  0  0  0  0  0
  -31.9655  -18.8194   17.1855 C   0  0  0  0  0  0
  -28.8606  -24.2916   20.3936 C   0  0  0  0  0  0
  -28.3017  -25.4529   20.8115 C   0  0  0  0  0  0
  -29.2929  -21.7366   20.5475 C   0  0  0  0  0  0
  -28.7986  -23.0318   21.1925 C   0  0  0  0  0  0
  -31.0120  -16.1269   17.7561 C   0  0  0  0  0  0
  -28.9787  -17.8634   22.1121 C   0  0  0  0  0  0
  -29.4773  -20.5783   21.0941 N   0  0  0  0  0  0
  -29.8911  -15.6432   20.5111 N   0  0  0  0  0  0
  -28.3753  -23.0231   22.3561 O   0  0  0  0  0  0
  -31.4643  -12.4090   19.1358 H   0  0  0  0  0  0
  -30.3371  -11.3262   19.9068 H   0  0  0  0  0  0
  -29.7255  -11.6272   17.5074 H   0  0  0  0  0  0
  -29.6597  -13.3496   17.6833 H   0  0  0  0  0  0
  -27.8181  -11.2741   18.8736 H   0  0  0  0  0  0
  -27.3645  -12.5597   17.7892 H   0  0  0  0  0  0
  -27.6698  -14.2401   19.4999 H   0  0  0  0  0  0
  -28.6798  -12.0662   21.4045 H   0  0  0  0  0  0
  -28.4722  -13.7511   21.8073 H   0  0  0  0  0  0
  -25.2751   -9.5683   22.4769 H   0  0  0  0  0  0
  -23.9995   -7.4633   22.7478 H   0  0  0  0  0  0
  -21.0838   -8.8773   19.8953 H   0  0  0  0  0  0
  -22.3689  -10.9678   19.6176 H   0  0  0  0  0  0
  -21.2004   -7.6143   23.9713 H   0  0  0  0  0  0
  -21.1483   -6.0522   25.9077 H   0  0  0  0  0  0
  -22.0597   -2.7607   23.2852 H   0  0  0  0  0  0
  -22.4082  -11.9901   22.4812 H   0  0  0  0  0  0
  -21.1091  -13.1272   22.2609 H   0  0  0  0  0  0
  -24.6573  -15.8430   20.5142 H   0  0  0  0  0  0
  -26.2695  -15.6290   20.0611 H   0  0  0  0  0  0
  -26.7112  -32.5542   23.1169 H   0  0  0  0  0  0
  -25.0022  -33.9790   25.0462 H   0  0  0  0  0  0
  -22.6949  -31.3067   21.4062 H   0  0  0  0  0  0
  -23.3745  -35.9652   23.3316 H   0  0  0  0  0  0
  -24.3569  -36.8927   22.2051 H   0  0  0  0  0  0
  -23.7235  -37.6527   23.6648 H   0  0  0  0  0  0
  -26.0452  -31.5951   20.5916 H   0  0  0  0  0  0
  -26.8221  -30.8892   21.9810 H   0  0  0  0  0  0
  -28.1088  -29.0940   21.1689 H   0  0  0  0  0  0
  -26.0678  -25.9525   19.0428 H   0  0  0  0  0  0
  -23.9821  -27.2854   19.0432 H   0  0  0  0  0  0
  -23.7244  -30.5927   19.4021 H   0  0  0  0  0  0
  -22.7410  -29.2381   19.8691 H   0  0  0  0  0  0
  -25.1282  -36.1991   25.0829 H   0  0  0  0  0  0
  -20.9960  -28.3250   24.1428 H   0  0  0  0  0  0
  -20.5665  -26.2287   23.3609 H   0  0  0  0  0  0
  -21.6632  -26.7448   22.1215 H   0  0  0  0  0  0
  -19.6900  -25.6304   21.1243 H   0  0  0  0  0  0
  -19.6679  -27.3203   20.6748 H   0  0  0  0  0  0
  -17.4187  -26.6690   21.4024 H   0  0  0  0  0  0
  -18.0311  -26.0064   22.9011 H   0  0  0  0  0  0
  -19.7928  -30.7261   24.2299 H   0  0  0  0  0  0
  -17.5012  -31.6273   24.5173 H   0  0  0  0  0  0
  -15.5349  -30.3014   23.7634 H   0  0  0  0  0  0
  -15.8658  -28.0836   22.7071 H   0  0  0  0  0  0
  -24.5901  -30.7047   25.7815 H   0  0  0  0  0  0
  -24.8903  -32.2852   26.4936 H   0  0  0  0  0  0
  -25.8079  -30.8872   27.0233 H   0  0  0  0  0  0
  -26.2832  -29.6823   24.1149 H   0  0  0  0  0  0
  -27.4050  -29.7281   25.4564 H   0  0  0  0  0  0
  -27.8668  -30.4379   23.9257 H   0  0  0  0  0  0
  -27.2667  -33.3623   26.2080 H   0  0  0  0  0  0
  -28.3831  -32.6891   25.0300 H   0  0  0  0  0  0
  -28.0718  -31.8438   26.5388 H   0  0  0  0  0  0
  -28.2612  -38.0101   24.7512 H   0  0  0  0  0  0
  -28.1066  -36.2636   24.6296 H   0  0  0  0  0  0
  -27.2297  -37.1477   25.8868 H   0  0  0  0  0  0
  -20.9298  -29.8778   21.6950 H   0  0  0  0  0  0
  -26.0190  -38.2882   24.1412 H   0  0  0  0  0  0
  -31.0896  -20.6200   18.9189 H   0  0  0  0  0  0
  -32.6108  -20.0704   15.6156 H   0  0  0  0  0  0
  -31.4200  -20.8422   16.7885 H   0  0  0  0  0  0
  -32.5840  -18.0130   16.8160 H   0  0  0  0  0  0
  -29.3832  -24.2596   19.4491 H   0  0  0  0  0  0
  -27.7565  -25.5534   21.7421 H   0  0  0  0  0  0
  -29.4922  -21.8608   19.4810 H   0  0  0  0  0  0
  -30.8988  -16.4894   16.7349 H   0  0  0  0  0  0
  -30.2443  -15.3701   17.8636 H   0  0  0  0  0  0
  -31.9960  -15.6683   17.8482 H   0  0  0  0  0  0
  -28.9389  -18.7401   22.7573 H   0  0  0  0  0  0
  -29.4544  -17.0747   22.6954 H   0  0  0  0  0  0
  -27.9547  -17.5596   21.8947 H   0  0  0  0  0  0
  -28.9555  -15.4833   20.8489 H   0  0  0  0  0  0
  1 25  1  0  0  0
  1 30  2  0  0  0
  1 86  1  0  0  0
  2  3  1  0  0  0
  2 25  1  0  0  0
  2 88  1  0  0  0
  2 89  1  0  0  0
  3  4  1  0  0  0
  3 90  1  0  0  0
  3 91  1  0  0  0
  4  5  1  0  0  0
  4 92  1  0  0  0
  4 93  1  0  0  0
  5  6  1  0  0  0
  5 26  1  0  0  0
  5 94  1  0  0  0
  6 25  1  0  0  0
  6 95  1  0  0  0
  6 96  1  0  0  0
  7  8  2  0  0  0
  7 26  1  0  0  0
  7 29  1  0  0  0
  8  9  1  0  0  0
  8 22  1  0  0  0
  9 10  1  0  0  0
  9 27  2  0  0  0
 10 11  2  0  0  0
 10 15  1  0  0  0
 11 12  1  0  0  0
 11 97  1  0  0  0
 12 13  2  0  0  0
 12 98  1  0  0  0
 13 14  1  0  0  0
 13 31  1  0  0  0
 14 15  2  0  0  0
 14 99  1  0  0  0
 15100  1  0  0  0
 16 17  2  0  0  0
 16 21  1  0  0  0
 16 31  1  0  0  0
 17 18  1  0  0  0
 17101  1  0  0  0
 18 19  2  0  0  0
 18102  1  0  0  0
 19 20  1  0  0  0
 19 24  1  0  0  0
 20 21  2  0  0  0
 20103  1  0  0  0
 21 23  1  0  0  0
 22 28  1  0  0  0
 22 32  2  0  0  0
 26 27  1  0  0  0
 28104  1  0  0  0
 28105  1  0  0  0
 29106  1  0  0  0
 29107  1  0  0  0
 33 34  1  0  0  0
 33 66  1  0  0  0
 33 70  2  0  0  0
 34 36  1  0  0  0
 34 59  1  0  0  0
 34108  1  0  0  0
 35 44  2  0  0  0
 35 45  1  0  0  0
 35 68  1  0  0  0
 36 56  1  0  0  0
 36109  1  0  0  0
 37 39  1  0  0  0
 37 47  1  0  0  0
 37 66  1  0  0  0
 37110  1  0  0  0
 38 43  2  0  0  0
 38 46  1  0  0  0
 38 47  1  0  0  0
 39 64  1  0  0  0
 39 67  2  0  0  0
 40 52  1  0  0  0
 40 53  2  0  0  0
 40 58  1  0  0  0
 41111  1  0  0  0
 41112  1  0  0  0
 41113  1  0  0  0
 41 48  1  0  0  0
 42 43  1  0  0  0
 42 66  1  0  0  0
 42114  1  0  0  0
 42115  1  0  0  0
 43 44  1  0  0  0
 44116  1  0  0  0
 45 46  2  0  0  0
 45117  1  0  0  0
 46118  1  0  0  0
 47119  1  0  0  0
 47120  1  0  0  0
 48 56  1  0  0  0
 48 65  1  0  0  0
 48121  1  0  0  0
 49 50  1  0  0  0
 49 53  1  0  0  0
 49 64  1  0  0  0
 49122  1  0  0  0
 50 51  1  0  0  0
 50123  1  0  0  0
 50124  1  0  0  0
 51 52  1  0  0  0
 51125  1  0  0  0
 51126  1  0  0  0
 52127  1  0  0  0
 52128  1  0  0  0
 53 54  1  0  0  0
 54 55  2  0  0  0
 54129  1  0  0  0
 55 57  1  0  0  0
 55130  1  0  0  0
 56 69  2  0  0  0
 57 58  2  0  0  0
 57131  1  0  0  0
 58132  1  0  0  0
 59 60  1  0  0  0
 59 61  1  0  0  0
 59 62  1  0  0  0
 60133  1  0  0  0
 60134  1  0  0  0
 60135  1  0  0  0
 61136  1  0  0  0
 61137  1  0  0  0
 61138  1  0  0  0
 62139  1  0  0  0
 62140  1  0  0  0
 62141  1  0  0  0
 63 65  1  0  0  0
 63142  1  0  0  0
 63143  1  0  0  0
 63144  1  0  0  0
 64145  1  0  0  0
 65146  1  0  0  0
 68 80  1  0  0  0
 71 72  2  0  0  0
 71 75  1  0  0  0
 71147  1  0  0  0
 72 73  1  0  0  0
 72 78  1  0  0  0
 73 76  2  0  0  0
 73 83  1  0  0  0
 74 75  2  0  0  0
 74 76  1  0  0  0
 74 84  1  0  0  0
 75 85  1  0  0  0
 76 86  1  0  0  0
 77 78  2  0  0  0
 77148  1  0  0  0
 77149  1  0  0  0
 78150  1  0  0  0
 79 80  2  0  0  0
 79 82  1  0  0  0
 79151  1  0  0  0
 80152  1  0  0  0
 81 82  1  0  0  0
 81 85  2  0  0  0
 81153  1  0  0  0
 82 87  2  0  0  0
 83154  1  0  0  0
 83155  1  0  0  0
 83156  1  0  0  0
 84157  1  0  0  0
 84158  1  0  0  0
 84159  1  0  0  0
 86160  1  0  0  0
M  ISO  4   1 100  68 101  80 101  86 100
M  END
> <chiral flag>
0

> <version>
0

> <s_m_source_file>
/data/baiqing/PycharmProjects/Reinvent-master-3.2/result/LINK_invent/BTK/process_docking_weight1_custom_product_contain_oxygen_bond_distance_aromatic_linkinvent_7_9_3/rearranged_h_0117.sdf

> <i_m_source_file_index>
64

> <r_mmod_Potential_Energy-OPLS-2005>
30.1199150085449

> <r_mmod_Stretch_Energy-OPLS-2005>
52.2316703796387

> <r_mmod_Bend_Energy-OPLS-2005>
102.234596252441

> <r_mmod_Torsional_Energy-OPLS-2005>
262.475891113281

> <r_mmod_Improper_Torsional_Energy-OPLS-2005>
7.06368017196655

> <r_mmod_Van_der_Waal_Energy-OPLS-2005>
176.254608154297

> <r_mmod_Electrostatic_Energy-OPLS-2005>
-366.521850585938

> <r_mmod_Solvation_Energy-OPLS-2005>
-231.436019897461

> <b_mmod_Minimization_Converged-OPLS-2005>
0

> <r_mmod_RMS_Derivative-OPLS-2005>
0.586012363433838

$$$$
64
                    3D
 Structure written by MMmdl.
160168  0  0  1  0            999 V2000
  -30.5811  -14.7692   20.4465 C   0  0  0  0  0  0
  -30.4400  -12.4705   19.4534 C   0  0  0  0  0  0
  -29.5060  -12.5001   18.2247 C   0  0  0  0  0  0
  -28.0316  -12.3206   18.6424 C   0  0  0  0  0  0
  -27.6342  -13.2260   19.8386 C   0  0  2  0  0  0
  -28.6857  -13.1674   20.9669 C   0  0  0  0  0  0
  -25.2490  -13.8183   20.5703 C   0  0  0  0  0  0
  -24.1779  -13.0427   20.9232 C   0  0  0  0  0  0
  -24.6368  -11.6910   20.8765 C   0  0  0  0  0  0
  -23.9054  -10.4289   21.0428 C   0  0  0  0  0  0
  -24.3610   -9.4202   21.9196 C   0  0  0  0  0  0
  -23.6292   -8.2227   22.0746 C   0  0  0  0  0  0
  -22.4273   -8.0268   21.3531 C   0  0  0  0  0  0
  -21.9908   -9.0249   20.4635 C   0  0  0  0  0  0
  -22.7234  -10.2129   20.3066 C   0  0  0  0  0  0
  -21.6849   -6.0729   22.5273 C   0  0  0  0  0  0
  -21.4008   -6.5634   23.8210 C   0  0  0  0  0  0
  -21.3664   -5.6786   24.9170 C   0  0  0  0  0  0
  -21.6057   -4.3051   24.7220 C   0  0  0  0  0  0
  -21.8817   -3.8139   23.4341 C   0  0  0  0  0  0
  -21.9188   -4.6956   22.3397 C   0  0  0  0  0  0
  -22.7807  -13.5211   21.1900 C   0  0  0  0  0  0
  -22.1658   -4.2148   21.0975 F   0  0  0  0  0  0
  -21.5640   -3.4535   25.7735 F   0  0  0  0  0  0
  -29.9774  -13.5335   20.3698 N   0  0  0  0  0  0
  -26.2895  -12.9366   20.3236 N   0  0  0  0  0  0
  -25.9288  -11.6520   20.5743 N   0  0  0  0  0  0
  -22.0438  -12.8200   22.0449 N   0  0  0  0  0  0
  -25.4187  -15.1912   20.4158 N   0  0  0  0  0  0
  -31.7984  -14.8699   20.2591 O   0  0  0  0  0  0
  -21.6630   -6.8867   21.4232 O   0  0  0  0  0  0
  -22.3493  -14.5516   20.6739 O   0  0  0  0  0  0
  -24.6369  -31.8525   23.1942 C   0  0  0  0  0  0
  -25.9176  -32.4745   23.8300 C   0  0  1  0  0  0
  -27.2229  -27.2242   20.1200 C   0  0  0  0  0  0
  -25.5957  -33.8542   24.2229 N   0  0  0  0  0  0
  -23.4367  -30.4764   21.5385 C   0  0  2  0  0  0
  -24.8817  -28.9199   20.1095 C   0  0  0  0  0  0
  -22.7540  -29.4602   22.4877 C   0  0  0  0  0  0
  -18.0297  -28.1406   22.8489 C   0  0  0  0  0  0
  -24.1478  -36.7256   23.2637 C   0  0  0  0  0  0
  -25.9867  -30.7546   21.3773 C   0  0  0  0  0  0
  -26.0584  -29.3742   20.7163 C   0  0  0  0  0  0
  -27.2312  -28.5431   20.7043 C   0  0  0  0  0  0
  -26.0080  -26.8462   19.4997 C   0  0  0  0  0  0
  -24.8637  -27.6643   19.4892 C   0  0  0  0  0  0
  -23.6568  -29.8134   20.1542 C   0  0  0  0  0  0
  -25.4110  -36.3056   24.0326 C   0  0  1  0  0  0
  -20.5913  -28.3719   23.1251 C   0  0  2  0  0  0
  -20.6779  -26.9431   22.5397 C   0  0  0  0  0  0
  -19.5746  -26.6400   21.5208 C   0  0  0  0  0  0
  -18.1933  -26.7950   22.1630 C   0  0  0  0  0  0
  -19.1559  -28.8874   23.2870 C   0  0  0  0  0  0
  -18.9484  -30.1466   23.8900 C   0  0  0  0  0  0
  -17.6485  -30.6605   24.0569 C   0  0  0  0  0  0
  -25.9064  -34.9438   23.5079 C   0  0  0  0  0  0
  -16.5370  -29.9111   23.6336 C   0  0  0  0  0  0
  -16.7286  -28.6525   23.0367 C   0  0  0  0  0  0
  -26.4527  -31.6585   25.0703 C   0  0  0  0  0  0
  -25.3743  -31.3764   26.1423 C   0  0  0  0  0  0
  -27.0359  -30.2990   24.6201 C   0  0  0  0  0  0
  -27.6070  -32.4338   25.7487 C   0  0  0  0  0  0
  -27.5574  -37.1776   24.8475 C   0  0  0  0  0  0
  -21.4238  -29.3063   22.3634 N   0  0  0  0  0  0
  -26.4275  -37.3768   23.9434 N   0  0  0  0  0  0
  -24.7067  -31.0464   22.0931 N   0  0  0  0  0  0
  -23.4223  -28.8125   23.2984 O   0  0  0  0  0  0
  -28.3166  -26.3060   20.1797 O   0  0  0  0  0  0
  -26.5634  -34.8934   22.4647 O   0  0  0  0  0  0
  -23.5504  -32.1353   23.7211 O   0  0  0  0  0  0
  -29.4934  -17.2463   22.3027 C   0  0  0  0  0  0
  -29.2450  -18.4420   22.9987 C   0  0  0  0  0  0
  -29.2873  -19.6797   22.3024 C   0  0  0  0  0  0
  -29.7522  -17.2338   20.9229 C   0  0  0  0  0  0
  -29.4921  -19.6774   20.9012 C   0  0  0  0  0  0
  -27.9022  -18.9847   25.0454 C   0  0  0  0  0  0
  -28.8739  -18.2994   24.4191 C   0  0  0  0  0  0
  -29.2367  -20.9944   23.0724 C   0  0  0  0  0  0
  -28.2443  -24.7827   18.2683 C   0  0  0  0  0  0
  -29.0866  -23.6215   20.3820 C   0  0  0  0  0  0
  -28.6417  -22.0487   20.2039 C   0  0  0  0  0  0
  -28.1471  -24.8375   19.8072 C   0  0  1  0  0  0
  -29.7250  -18.4617   20.2495 N   0  0  0  0  0  0
  -29.7438  -15.8747   20.3352 N   0  0  0  0  0  0
  -29.6152  -20.8979   20.1613 O   0  0  0  0  0  0
  -31.4742  -12.6227   19.1410 H   0  0  0  0  0  0
  -30.4105  -11.4969   19.9474 H   0  0  0  0  0  0
  -29.7932  -11.7228   17.5151 H   0  0  0  0  0  0
  -29.6220  -13.4507   17.7017 H   0  0  0  0  0  0
  -27.8901  -11.2732   18.9122 H   0  0  0  0  0  0
  -27.3735  -12.5059   17.7917 H   0  0  0  0  0  0
  -27.6171  -14.2430   19.4482 H   0  0  0  0  0  0
  -28.7303  -12.1688   21.4051 H   0  0  0  0  0  0
  -28.4192  -13.8478   21.7776 H   0  0  0  0  0  0
  -25.2750   -9.5681   22.4780 H   0  0  0  0  0  0
  -24.0007   -7.4613   22.7457 H   0  0  0  0  0  0
  -21.0839   -8.8768   19.8942 H   0  0  0  0  0  0
  -22.3693  -10.9673   19.6184 H   0  0  0  0  0  0
  -21.1990   -7.6142   23.9714 H   0  0  0  0  0  0
  -21.1503   -6.0513   25.9078 H   0  0  0  0  0  0
  -22.0596   -2.7602   23.2833 H   0  0  0  0  0  0
  -22.4029  -11.9862   22.4851 H   0  0  0  0  0  0
  -21.1061  -13.1235   22.2648 H   0  0  0  0  0  0
  -24.6542  -15.8450   20.5502 H   0  0  0  0  0  0
  -26.2664  -15.6423   20.0994 H   0  0  0  0  0  0
  -26.7242  -32.5386   23.1034 H   0  0  0  0  0  0
  -25.0140  -33.9675   25.0400 H   0  0  0  0  0  0
  -22.7340  -31.2989   21.3913 H   0  0  0  0  0  0
  -23.3757  -35.9574   23.3301 H   0  0  0  0  0  0
  -24.3559  -36.8872   22.2051 H   0  0  0  0  0  0
  -23.7221  -37.6453   23.6656 H   0  0  0  0  0  0
  -26.1300  -31.5125   20.6067 H   0  0  0  0  0  0
  -26.8628  -30.8031   22.0126 H   0  0  0  0  0  0
  -28.1344  -28.8915   21.1839 H   0  0  0  0  0  0
  -25.8900  -25.8835   19.0291 H   0  0  0  0  0  0
  -23.9629  -27.3069   19.0099 H   0  0  0  0  0  0
  -23.7915  -30.5907   19.4012 H   0  0  0  0  0  0
  -22.7728  -29.2535   19.8434 H   0  0  0  0  0  0
  -25.1289  -36.1876   25.0815 H   0  0  0  0  0  0
  -21.0012  -28.3287   24.1371 H   0  0  0  0  0  0
  -20.5667  -26.2330   23.3605 H   0  0  0  0  0  0
  -21.6645  -26.7444   22.1193 H   0  0  0  0  0  0
  -19.6906  -25.6311   21.1232 H   0  0  0  0  0  0
  -19.6674  -27.3214   20.6739 H   0  0  0  0  0  0
  -17.4195  -26.6696   21.4040 H   0  0  0  0  0  0
  -18.0339  -26.0099   22.9030 H   0  0  0  0  0  0
  -19.7959  -30.7277   24.2279 H   0  0  0  0  0  0
  -17.5045  -31.6288   24.5170 H   0  0  0  0  0  0
  -15.5375  -30.3020   23.7662 H   0  0  0  0  0  0
  -15.8682  -28.0839   22.7098 H   0  0  0  0  0  0
  -24.5930  -30.7089   25.7767 H   0  0  0  0  0  0
  -24.8926  -32.2939   26.4802 H   0  0  0  0  0  0
  -25.8062  -30.8989   27.0224 H   0  0  0  0  0  0
  -26.2930  -29.6745   24.1218 H   0  0  0  0  0  0
  -27.4022  -29.7248   25.4719 H   0  0  0  0  0  0
  -27.8824  -30.4250   23.9451 H   0  0  0  0  0  0
  -27.2668  -33.3650   26.2030 H   0  0  0  0  0  0
  -28.3905  -32.6876   25.0335 H   0  0  0  0  0  0
  -28.0707  -31.8482   26.5437 H   0  0  0  0  0  0
  -28.2593  -38.0072   24.7531 H   0  0  0  0  0  0
  -28.1063  -36.2605   24.6279 H   0  0  0  0  0  0
  -27.2294  -37.1400   25.8879 H   0  0  0  0  0  0
  -20.9422  -29.8810   21.6861 H   0  0  0  0  0  0
  -26.0140  -38.2829   24.1470 H   0  0  0  0  0  0
  -29.4214  -16.3120   22.8433 H   0  0  0  0  0  0
  -27.6961  -18.8217   26.0939 H   0  0  0  0  0  0
  -27.2940  -19.7101   24.5248 H   0  0  0  0  0  0
  -29.4450  -17.5825   24.9939 H   0  0  0  0  0  0
  -28.2170  -21.3723   23.1363 H   0  0  0  0  0  0
  -29.8624  -21.7504   22.6008 H   0  0  0  0  0  0
  -29.6275  -20.8775   24.0832 H   0  0  0  0  0  0
  -27.9224  -23.8150   17.8845 H   0  0  0  0  0  0
  -29.2727  -24.9409   17.9419 H   0  0  0  0  0  0
  -27.6404  -25.5382   17.7704 H   0  0  0  0  0  0
  -30.0786  -23.7366   19.9424 H   0  0  0  0  0  0
  -29.2429  -23.7932   21.4470 H   0  0  0  0  0  0
  -28.1448  -21.9765   19.2370 H   0  0  0  0  0  0
  -27.8417  -21.8257   20.9092 H   0  0  0  0  0  0
  -27.1446  -24.5525   20.1229 H   0  0  0  0  0  0
  -28.8148  -15.5911   20.0746 H   0  0  0  0  0  0
  1 25  1  0  0  0
  1 30  2  0  0  0
  1 84  1  0  0  0
  2  3  1  0  0  0
  2 25  1  0  0  0
  2 86  1  0  0  0
  2 87  1  0  0  0
  3  4  1  0  0  0
  3 88  1  0  0  0
  3 89  1  0  0  0
  4  5  1  0  0  0
  4 90  1  0  0  0
  4 91  1  0  0  0
  5  6  1  0  0  0
  5 26  1  0  0  0
  5 92  1  0  0  0
  6 25  1  0  0  0
  6 93  1  0  0  0
  6 94  1  0  0  0
  7  8  2  0  0  0
  7 26  1  0  0  0
  7 29  1  0  0  0
  8  9  1  0  0  0
  8 22  1  0  0  0
  9 10  1  0  0  0
  9 27  2  0  0  0
 10 11  2  0  0  0
 10 15  1  0  0  0
 11 12  1  0  0  0
 11 95  1  0  0  0
 12 13  2  0  0  0
 12 96  1  0  0  0
 13 14  1  0  0  0
 13 31  1  0  0  0
 14 15  2  0  0  0
 14 97  1  0  0  0
 15 98  1  0  0  0
 16 17  2  0  0  0
 16 21  1  0  0  0
 16 31  1  0  0  0
 17 18  1  0  0  0
 17 99  1  0  0  0
 18 19  2  0  0  0
 18100  1  0  0  0
 19 20  1  0  0  0
 19 24  1  0  0  0
 20 21  2  0  0  0
 20101  1  0  0  0
 21 23  1  0  0  0
 22 28  1  0  0  0
 22 32  2  0  0  0
 26 27  1  0  0  0
 28102  1  0  0  0
 28103  1  0  0  0
 29104  1  0  0  0
 29105  1  0  0  0
 33 34  1  0  0  0
 33 66  1  0  0  0
 33 70  2  0  0  0
 34 36  1  0  0  0
 34 59  1  0  0  0
 34106  1  0  0  0
 35 44  2  0  0  0
 35 45  1  0  0  0
 35 68  1  0  0  0
 36 56  1  0  0  0
 36107  1  0  0  0
 37 39  1  0  0  0
 37 47  1  0  0  0
 37 66  1  0  0  0
 37108  1  0  0  0
 38 43  2  0  0  0
 38 46  1  0  0  0
 38 47  1  0  0  0
 39 64  1  0  0  0
 39 67  2  0  0  0
 40 52  1  0  0  0
 40 53  2  0  0  0
 40 58  1  0  0  0
 41109  1  0  0  0
 41110  1  0  0  0
 41111  1  0  0  0
 41 48  1  0  0  0
 42 43  1  0  0  0
 42 66  1  0  0  0
 42112  1  0  0  0
 42113  1  0  0  0
 43 44  1  0  0  0
 44114  1  0  0  0
 45 46  2  0  0  0
 45115  1  0  0  0
 46116  1  0  0  0
 47117  1  0  0  0
 47118  1  0  0  0
 48 56  1  0  0  0
 48 65  1  0  0  0
 48119  1  0  0  0
 49 50  1  0  0  0
 49 53  1  0  0  0
 49 64  1  0  0  0
 49120  1  0  0  0
 50 51  1  0  0  0
 50121  1  0  0  0
 50122  1  0  0  0
 51 52  1  0  0  0
 51123  1  0  0  0
 51124  1  0  0  0
 52125  1  0  0  0
 52126  1  0  0  0
 53 54  1  0  0  0
 54 55  2  0  0  0
 54127  1  0  0  0
 55 57  1  0  0  0
 55128  1  0  0  0
 56 69  2  0  0  0
 57 58  2  0  0  0
 57129  1  0  0  0
 58130  1  0  0  0
 59 60  1  0  0  0
 59 61  1  0  0  0
 59 62  1  0  0  0
 60131  1  0  0  0
 60132  1  0  0  0
 60133  1  0  0  0
 61134  1  0  0  0
 61135  1  0  0  0
 61136  1  0  0  0
 62137  1  0  0  0
 62138  1  0  0  0
 62139  1  0  0  0
 63 65  1  0  0  0
 63140  1  0  0  0
 63141  1  0  0  0
 63142  1  0  0  0
 64143  1  0  0  0
 65144  1  0  0  0
 68 82  1  0  0  0
 71 72  2  0  0  0
 71 74  1  0  0  0
 71145  1  0  0  0
 72 73  1  0  0  0
 72 77  1  0  0  0
 73 75  2  0  0  0
 73 78  1  0  0  0
 74 83  2  0  0  0
 74 84  1  0  0  0
 75 83  1  0  0  0
 75 85  1  0  0  0
 76 77  2  0  0  0
 76146  1  0  0  0
 76147  1  0  0  0
 77148  1  0  0  0
 78149  1  0  0  0
 78150  1  0  0  0
 78151  1  0  0  0
 79152  1  0  0  0
 79153  1  0  0  0
 79154  1  0  0  0
 79 82  1  0  0  0
 80 81  1  0  0  0
 80 82  1  0  0  0
 80155  1  0  0  0
 80156  1  0  0  0
 81 85  1  0  0  0
 81157  1  0  0  0
 81158  1  0  0  0
 82159  1  0  0  0
 84160  1  0  0  0
M  ISO  4   1 100  68 101  82 101  84 100
M  END
> <chiral flag>
0

> <version>
0

> <s_m_source_file>
/data/baiqing/PycharmProjects/Reinvent-master-3.2/result/LINK_invent/BTK/process_docking_weight1_custom_product_contain_oxygen_bond_distance_aromatic_linkinvent_7_9_3/rearranged_h_0117.sdf

> <i_m_source_file_index>
65

> <r_mmod_Potential_Energy-OPLS-2005>
123.305168151855

> <r_mmod_Stretch_Energy-OPLS-2005>
148.863067626953

> <r_mmod_Bend_Energy-OPLS-2005>
202.084106445312

> <r_mmod_Torsional_Energy-OPLS-2005>
290.042907714844

> <r_mmod_Improper_Torsional_Energy-OPLS-2005>
15.0741891860962

> <r_mmod_Van_der_Waal_Energy-OPLS-2005>
147.289916992188

> <r_mmod_Electrostatic_Energy-OPLS-2005>
-557.010925292969

> <r_mmod_Solvation_Energy-OPLS-2005>
-229.1318359375

> <b_mmod_Minimization_Converged-OPLS-2005>
0

> <r_mmod_RMS_Derivative-OPLS-2005>
1.80931901931763

$$$$
65
                    3D
 Structure written by MMmdl.
155163  0  0  1  0            999 V2000
  -30.6255  -14.6276   20.5141 C   0  0  0  0  0  0
  -30.4417  -12.3877   19.4507 C   0  0  0  0  0  0
  -29.5097  -12.5119   18.2243 C   0  0  0  0  0  0
  -28.0317  -12.3505   18.6347 C   0  0  0  0  0  0
  -27.6566  -13.2153   19.8675 C   0  0  2  0  0  0
  -28.7009  -13.0546   20.9957 C   0  0  0  0  0  0
  -25.2566  -13.8155   20.5674 C   0  0  0  0  0  0
  -24.1828  -13.0428   20.9172 C   0  0  0  0  0  0
  -24.6399  -11.6900   20.8728 C   0  0  0  0  0  0
  -23.9066  -10.4287   21.0400 C   0  0  0  0  0  0
  -24.3616   -9.4204   21.9180 C   0  0  0  0  0  0
  -23.6289   -8.2241   22.0755 C   0  0  0  0  0  0
  -22.4270   -8.0280   21.3547 C   0  0  0  0  0  0
  -21.9905   -9.0254   20.4650 C   0  0  0  0  0  0
  -22.7236  -10.2131   20.3053 C   0  0  0  0  0  0
  -21.6852   -6.0734   22.5279 C   0  0  0  0  0  0
  -21.4015   -6.5637   23.8212 C   0  0  0  0  0  0
  -21.3658   -5.6790   24.9174 C   0  0  0  0  0  0
  -21.6045   -4.3053   24.7225 C   0  0  0  0  0  0
  -21.8819   -3.8145   23.4346 C   0  0  0  0  0  0
  -21.9193   -4.6962   22.3403 C   0  0  0  0  0  0
  -22.7852  -13.5230   21.1843 C   0  0  0  0  0  0
  -22.1661   -4.2149   21.0980 F   0  0  0  0  0  0
  -21.5628   -3.4537   25.7737 F   0  0  0  0  0  0
  -30.0197  -13.4002   20.4384 N   0  0  0  0  0  0
  -26.3006  -12.9343   20.3334 N   0  0  0  0  0  0
  -25.9332  -11.6497   20.5756 N   0  0  0  0  0  0
  -22.0494  -12.8223   22.0402 N   0  0  0  0  0  0
  -25.4266  -15.1867   20.4098 N   0  0  0  0  0  0
  -31.7755  -14.8035   20.1014 O   0  0  0  0  0  0
  -21.6636   -6.8875   21.4240 O   0  0  0  0  0  0
  -22.3533  -14.5537   20.6696 O   0  0  0  0  0  0
  -24.6260  -31.8609   23.2036 C   0  0  0  0  0  0
  -25.9108  -32.4783   23.8365 C   0  0  1  0  0  0
  -27.2240  -27.3278   20.1091 C   0  0  0  0  0  0
  -25.5925  -33.8582   24.2293 N   0  0  0  0  0  0
  -23.4190  -30.4866   21.5466 C   0  0  2  0  0  0
  -24.8644  -28.9456   20.1113 C   0  0  0  0  0  0
  -22.7474  -29.4637   22.4937 C   0  0  0  0  0  0
  -18.0290  -28.1389   22.8490 C   0  0  0  0  0  0
  -24.1488  -36.7298   23.2638 C   0  0  0  0  0  0
  -25.9604  -30.7953   21.3731 C   0  0  0  0  0  0
  -26.0346  -29.4241   20.7140 C   0  0  0  0  0  0
  -27.2178  -28.6273   20.7029 C   0  0  0  0  0  0
  -26.0268  -26.9029   19.4847 C   0  0  0  0  0  0
  -24.8622  -27.6901   19.4886 C   0  0  0  0  0  0
  -23.6326  -29.8248   20.1609 C   0  0  0  0  0  0
  -25.4110  -36.3087   24.0334 C   0  0  1  0  0  0
  -20.5891  -28.3695   23.1285 C   0  0  2  0  0  0
  -20.6779  -26.9418   22.5413 C   0  0  0  0  0  0
  -19.5752  -26.6392   21.5216 C   0  0  0  0  0  0
  -18.1933  -26.7933   22.1630 C   0  0  0  0  0  0
  -19.1542  -28.8858   23.2885 C   0  0  0  0  0  0
  -18.9463  -30.1459   23.8902 C   0  0  0  0  0  0
  -17.6462  -30.6588   24.0568 C   0  0  0  0  0  0
  -25.9046  -34.9453   23.5112 C   0  0  0  0  0  0
  -16.5354  -29.9088   23.6329 C   0  0  0  0  0  0
  -16.7278  -28.6508   23.0348 C   0  0  0  0  0  0
  -26.4490  -31.6586   25.0730 C   0  0  0  0  0  0
  -25.3724  -31.3722   26.1459 C   0  0  0  0  0  0
  -27.0329  -30.3011   24.6174 C   0  0  0  0  0  0
  -27.6058  -32.4310   25.7497 C   0  0  0  0  0  0
  -27.5580  -37.1804   24.8464 C   0  0  0  0  0  0
  -21.4189  -29.3050   22.3678 N   0  0  0  0  0  0
  -26.4290  -37.3782   23.9411 N   0  0  0  0  0  0
  -24.6874  -31.0635   22.0981 N   0  0  0  0  0  0
  -23.4201  -28.8172   23.3011 O   0  0  0  0  0  0
  -28.3434  -26.4800   20.1551 O   0  0  0  0  0  0
  -26.5616  -34.8917   22.4679 O   0  0  0  0  0  0
  -23.5425  -32.1403   23.7368 O   0  0  0  0  0  0
  -28.7880  -19.3211   21.2255 C   0  0  0  0  0  0
  -30.8510  -17.8248   20.0690 C   0  0  0  0  0  0
  -28.8314  -17.9005   21.4032 C   0  0  0  0  0  0
  -29.7688  -20.0298   20.4855 C   0  0  0  0  0  0
  -29.8660  -17.1109   20.8048 C   0  0  0  0  0  0
  -30.8069  -19.2424   19.9236 C   0  0  0  0  0  0
  -26.5663  -17.7579   22.5031 C   0  0  0  0  0  0
  -27.7689  -17.2408   22.1949 C   0  0  0  0  0  0
  -28.8629  -22.4572   20.4873 C   0  0  0  0  0  0
  -29.2598  -23.9837   20.3630 C   0  0  0  0  0  0
  -28.0997  -25.0226   20.0446 C   0  0  0  0  0  0
  -29.8151  -21.4859   20.3256 N   0  0  0  0  0  0
  -29.8273  -15.6505   20.9476 N   0  0  0  0  0  0
  -27.6884  -22.1717   20.7295 O   0  0  0  0  0  0
  -31.7868  -19.8627   19.2218 F   0  0  0  0  0  0
  -31.4828  -12.5150   19.1481 H   0  0  0  0  0  0
  -30.3774  -11.3885   19.8838 H   0  0  0  0  0  0
  -29.7725  -11.7654   17.4737 H   0  0  0  0  0  0
  -29.6540  -13.4844   17.7507 H   0  0  0  0  0  0
  -27.8647  -11.2963   18.8590 H   0  0  0  0  0  0
  -27.3787  -12.5882   17.7942 H   0  0  0  0  0  0
  -27.6789  -14.2533   19.5349 H   0  0  0  0  0  0
  -28.7097  -12.0272   21.3629 H   0  0  0  0  0  0
  -28.4436  -13.6713   21.8578 H   0  0  0  0  0  0
  -25.2764   -9.5678   22.4751 H   0  0  0  0  0  0
  -24.0002   -7.4631   22.7472 H   0  0  0  0  0  0
  -21.0837   -8.8772   19.8955 H   0  0  0  0  0  0
  -22.3697  -10.9669   19.6161 H   0  0  0  0  0  0
  -21.2007   -7.6145   23.9715 H   0  0  0  0  0  0
  -21.1481   -6.0521   25.9077 H   0  0  0  0  0  0
  -22.0600   -2.7608   23.2846 H   0  0  0  0  0  0
  -22.4104  -11.9884   22.4794 H   0  0  0  0  0  0
  -21.1116  -13.1258   22.2613 H   0  0  0  0  0  0
  -24.6697  -15.8443   20.5586 H   0  0  0  0  0  0
  -26.2916  -15.6389   20.1434 H   0  0  0  0  0  0
  -26.7179  -32.5458   23.1119 H   0  0  0  0  0  0
  -25.0064  -33.9728   25.0433 H   0  0  0  0  0  0
  -22.7130  -31.3076   21.4054 H   0  0  0  0  0  0
  -23.3746  -35.9634   23.3299 H   0  0  0  0  0  0
  -24.3584  -36.8916   22.2052 H   0  0  0  0  0  0
  -23.7241  -37.6502   23.6656 H   0  0  0  0  0  0
  -26.0901  -31.5595   20.6053 H   0  0  0  0  0  0
  -26.8414  -30.8437   22.0013 H   0  0  0  0  0  0
  -28.1158  -28.9906   21.1827 H   0  0  0  0  0  0
  -25.9547  -25.9460   18.9907 H   0  0  0  0  0  0
  -23.9655  -27.3183   19.0119 H   0  0  0  0  0  0
  -23.7517  -30.6023   19.4054 H   0  0  0  0  0  0
  -22.7523  -29.2550   19.8582 H   0  0  0  0  0  0
  -25.1285  -36.1944   25.0827 H   0  0  0  0  0  0
  -20.9993  -28.3270   24.1402 H   0  0  0  0  0  0
  -20.5690  -26.2301   23.3611 H   0  0  0  0  0  0
  -21.6646  -26.7453   22.1200 H   0  0  0  0  0  0
  -19.6912  -25.6304   21.1243 H   0  0  0  0  0  0
  -19.6684  -27.3205   20.6747 H   0  0  0  0  0  0
  -17.4203  -26.6686   21.4031 H   0  0  0  0  0  0
  -18.0330  -26.0074   22.9025 H   0  0  0  0  0  0
  -19.7936  -30.7277   24.2274 H   0  0  0  0  0  0
  -17.5015  -31.6266   24.5173 H   0  0  0  0  0  0
  -15.5355  -30.2992   23.7645 H   0  0  0  0  0  0
  -15.8681  -28.0829   22.7057 H   0  0  0  0  0  0
  -24.5904  -30.7061   25.7795 H   0  0  0  0  0  0
  -24.8903  -32.2885   26.4881 H   0  0  0  0  0  0
  -25.8052  -30.8911   27.0239 H   0  0  0  0  0  0
  -26.2903  -29.6767   24.1194 H   0  0  0  0  0  0
  -27.4027  -29.7261   25.4673 H   0  0  0  0  0  0
  -27.8772  -30.4301   23.9396 H   0  0  0  0  0  0
  -27.2684  -33.3613   26.2079 H   0  0  0  0  0  0
  -28.3869  -32.6862   25.0321 H   0  0  0  0  0  0
  -28.0726  -31.8425   26.5406 H   0  0  0  0  0  0
  -28.2597  -38.0101   24.7512 H   0  0  0  0  0  0
  -28.1075  -36.2633   24.6284 H   0  0  0  0  0  0
  -27.2302  -37.1453   25.8867 H   0  0  0  0  0  0
  -20.9363  -29.8773   21.6891 H   0  0  0  0  0  0
  -26.0170  -38.2858   24.1407 H   0  0  0  0  0  0
  -28.0028  -19.8869   21.7006 H   0  0  0  0  0  0
  -31.6626  -17.2957   19.5936 H   0  0  0  0  0  0
  -25.8691  -17.1933   23.1060 H   0  0  0  0  0  0
  -26.2433  -18.7325   22.1687 H   0  0  0  0  0  0
  -27.9866  -16.2583   22.5878 H   0  0  0  0  0  0
  -30.0424  -24.0822   19.6107 H   0  0  0  0  0  0
  -29.7173  -24.2623   21.3119 H   0  0  0  0  0  0
  -27.2551  -24.7821   20.6931 H   0  0  0  0  0  0
  -27.7770  -24.8110   19.0247 H   0  0  0  0  0  0
  -30.7162  -21.8277   20.0188 H   0  0  0  0  0  0
  -28.9644  -15.3078   21.3395 H   0  0  0  0  0  0
  1 25  1  0  0  0
  1 30  2  0  0  0
  1 83  1  0  0  0
  2  3  1  0  0  0
  2 25  1  0  0  0
  2 86  1  0  0  0
  2 87  1  0  0  0
  3  4  1  0  0  0
  3 88  1  0  0  0
  3 89  1  0  0  0
  4  5  1  0  0  0
  4 90  1  0  0  0
  4 91  1  0  0  0
  5  6  1  0  0  0
  5 26  1  0  0  0
  5 92  1  0  0  0
  6 25  1  0  0  0
  6 93  1  0  0  0
  6 94  1  0  0  0
  7  8  2  0  0  0
  7 26  1  0  0  0
  7 29  1  0  0  0
  8  9  1  0  0  0
  8 22  1  0  0  0
  9 10  1  0  0  0
  9 27  2  0  0  0
 10 11  2  0  0  0
 10 15  1  0  0  0
 11 12  1  0  0  0
 11 95  1  0  0  0
 12 13  2  0  0  0
 12 96  1  0  0  0
 13 14  1  0  0  0
 13 31  1  0  0  0
 14 15  2  0  0  0
 14 97  1  0  0  0
 15 98  1  0  0  0
 16 17  2  0  0  0
 16 21  1  0  0  0
 16 31  1  0  0  0
 17 18  1  0  0  0
 17 99  1  0  0  0
 18 19  2  0  0  0
 18100  1  0  0  0
 19 20  1  0  0  0
 19 24  1  0  0  0
 20 21  2  0  0  0
 20101  1  0  0  0
 21 23  1  0  0  0
 22 28  1  0  0  0
 22 32  2  0  0  0
 26 27  1  0  0  0
 28102  1  0  0  0
 28103  1  0  0  0
 29104  1  0  0  0
 29105  1  0  0  0
 33 34  1  0  0  0
 33 66  1  0  0  0
 33 70  2  0  0  0
 34 36  1  0  0  0
 34 59  1  0  0  0
 34106  1  0  0  0
 35 44  2  0  0  0
 35 45  1  0  0  0
 35 68  1  0  0  0
 36 56  1  0  0  0
 36107  1  0  0  0
 37 39  1  0  0  0
 37 47  1  0  0  0
 37 66  1  0  0  0
 37108  1  0  0  0
 38 43  2  0  0  0
 38 46  1  0  0  0
 38 47  1  0  0  0
 39 64  1  0  0  0
 39 67  2  0  0  0
 40 52  1  0  0  0
 40 53  2  0  0  0
 40 58  1  0  0  0
 41109  1  0  0  0
 41110  1  0  0  0
 41111  1  0  0  0
 41 48  1  0  0  0
 42 43  1  0  0  0
 42 66  1  0  0  0
 42112  1  0  0  0
 42113  1  0  0  0
 43 44  1  0  0  0
 44114  1  0  0  0
 45 46  2  0  0  0
 45115  1  0  0  0
 46116  1  0  0  0
 47117  1  0  0  0
 47118  1  0  0  0
 48 56  1  0  0  0
 48 65  1  0  0  0
 48119  1  0  0  0
 49 50  1  0  0  0
 49 53  1  0  0  0
 49 64  1  0  0  0
 49120  1  0  0  0
 50 51  1  0  0  0
 50121  1  0  0  0
 50122  1  0  0  0
 51 52  1  0  0  0
 51123  1  0  0  0
 51124  1  0  0  0
 52125  1  0  0  0
 52126  1  0  0  0
 53 54  1  0  0  0
 54 55  2  0  0  0
 54127  1  0  0  0
 55 57  1  0  0  0
 55128  1  0  0  0
 56 69  2  0  0  0
 57 58  2  0  0  0
 57129  1  0  0  0
 58130  1  0  0  0
 59 60  1  0  0  0
 59 61  1  0  0  0
 59 62  1  0  0  0
 60131  1  0  0  0
 60132  1  0  0  0
 60133  1  0  0  0
 61134  1  0  0  0
 61135  1  0  0  0
 61136  1  0  0  0
 62137  1  0  0  0
 62138  1  0  0  0
 62139  1  0  0  0
 63 65  1  0  0  0
 63140  1  0  0  0
 63141  1  0  0  0
 63142  1  0  0  0
 64143  1  0  0  0
 65144  1  0  0  0
 68 81  1  0  0  0
 71 73  2  0  0  0
 71 74  1  0  0  0
 71145  1  0  0  0
 72 75  2  0  0  0
 72 76  1  0  0  0
 72146  1  0  0  0
 73 75  1  0  0  0
 73 78  1  0  0  0
 74 76  2  0  0  0
 74 82  1  0  0  0
 75 83  1  0  0  0
 76 85  1  0  0  0
 77 78  2  0  0  0
 77147  1  0  0  0
 77148  1  0  0  0
 78149  1  0  0  0
 79 80  1  0  0  0
 79 82  1  0  0  0
 79 84  2  0  0  0
 80 81  1  0  0  0
 80150  1  0  0  0
 80151  1  0  0  0
 81152  1  0  0  0
 81153  1  0  0  0
 82154  1  0  0  0
 83155  1  0  0  0
M  ISO  4   1 100  68 101  81 101  83 100
M  END
> <chiral flag>
0

> <version>
0

> <s_m_source_file>
/data/baiqing/PycharmProjects/Reinvent-master-3.2/result/LINK_invent/BTK/process_docking_weight1_custom_product_contain_oxygen_bond_distance_aromatic_linkinvent_7_9_3/rearranged_h_0117.sdf

> <i_m_source_file_index>
66

> <r_mmod_Potential_Energy-OPLS-2005>
-28.724214553833

> <r_mmod_Stretch_Energy-OPLS-2005>
78.1089172363281

> <r_mmod_Bend_Energy-OPLS-2005>
139.248123168945

> <r_mmod_Torsional_Energy-OPLS-2005>
223.6865234375

> <r_mmod_Improper_Torsional_Energy-OPLS-2005>
3.53249049186707

> <r_mmod_Van_der_Waal_Energy-OPLS-2005>
152.152435302734

> <r_mmod_Electrostatic_Energy-OPLS-2005>
-450.878540039062

> <r_mmod_Solvation_Energy-OPLS-2005>
-219.025833129883

> <b_mmod_Minimization_Converged-OPLS-2005>
0

> <r_mmod_RMS_Derivative-OPLS-2005>
0.528450071811676

$$$$
66
                    3D
 Structure written by MMmdl.
157165  0  0  1  0            999 V2000
  -30.6854  -14.5655   20.4910 C   0  0  0  0  0  0
  -30.4283  -12.3474   19.4361 C   0  0  0  0  0  0
  -29.5025  -12.5198   18.2142 C   0  0  0  0  0  0
  -28.0225  -12.3727   18.6162 C   0  0  0  0  0  0
  -27.6584  -13.2085   19.8733 C   0  0  2  0  0  0
  -28.7105  -13.0470   20.9955 C   0  0  0  0  0  0
  -25.2616  -13.8143   20.5680 C   0  0  0  0  0  0
  -24.1858  -13.0438   20.9171 C   0  0  0  0  0  0
  -24.6417  -11.6915   20.8723 C   0  0  0  0  0  0
  -23.9083  -10.4314   21.0375 C   0  0  0  0  0  0
  -24.3641   -9.4224   21.9157 C   0  0  0  0  0  0
  -23.6327   -8.2246   22.0754 C   0  0  0  0  0  0
  -22.4303   -8.0313   21.3549 C   0  0  0  0  0  0
  -21.9948   -9.0278   20.4638 C   0  0  0  0  0  0
  -22.7253  -10.2172   20.3021 C   0  0  0  0  0  0
  -21.6871   -6.0763   22.5275 C   0  0  0  0  0  0
  -21.4014   -6.5655   23.8216 C   0  0  0  0  0  0
  -21.3670   -5.6796   24.9167 C   0  0  0  0  0  0
  -21.6034   -4.3056   24.7200 C   0  0  0  0  0  0
  -21.8818   -3.8164   23.4326 C   0  0  0  0  0  0
  -21.9214   -4.6997   22.3392 C   0  0  0  0  0  0
  -22.7873  -13.5229   21.1829 C   0  0  0  0  0  0
  -22.1633   -4.2187   21.0966 F   0  0  0  0  0  0
  -21.5651   -3.4535   25.7703 F   0  0  0  0  0  0
  -30.0362  -13.3631   20.4312 N   0  0  0  0  0  0
  -26.3037  -12.9297   20.3374 N   0  0  0  0  0  0
  -25.9351  -11.6464   20.5793 N   0  0  0  0  0  0
  -22.0489  -12.8251   22.0378 N   0  0  0  0  0  0
  -25.4415  -15.1862   20.4094 N   0  0  0  0  0  0
  -31.8449  -14.7008   20.0843 O   0  0  0  0  0  0
  -21.6655   -6.8917   21.4243 O   0  0  0  0  0  0
  -22.3535  -14.5515   20.6675 O   0  0  0  0  0  0
  -24.6203  -31.8623   23.2058 C   0  0  0  0  0  0
  -25.9050  -32.4810   23.8364 C   0  0  1  0  0  0
  -27.2408  -27.3578   20.0941 C   0  0  0  0  0  0
  -25.5859  -33.8611   24.2271 N   0  0  0  0  0  0
  -23.4143  -30.4868   21.5507 C   0  0  2  0  0  0
  -24.8613  -28.9434   20.1188 C   0  0  0  0  0  0
  -22.7456  -29.4626   22.4973 C   0  0  0  0  0  0
  -18.0290  -28.1411   22.8501 C   0  0  0  0  0  0
  -24.1464  -36.7305   23.2637 C   0  0  0  0  0  0
  -25.9508  -30.8063   21.3684 C   0  0  0  0  0  0
  -26.0279  -29.4318   20.7200 C   0  0  0  0  0  0
  -27.2130  -28.6446   20.7097 C   0  0  0  0  0  0
  -26.0515  -26.9234   19.4613 C   0  0  0  0  0  0
  -24.8704  -27.6891   19.4928 C   0  0  0  0  0  0
  -23.6293  -29.8223   20.1660 C   0  0  0  0  0  0
  -25.4085  -36.3099   24.0336 C   0  0  1  0  0  0
  -20.5883  -28.3681   23.1309 C   0  0  2  0  0  0
  -20.6788  -26.9407   22.5441 C   0  0  0  0  0  0
  -19.5746  -26.6386   21.5259 C   0  0  0  0  0  0
  -18.1922  -26.7954   22.1655 C   0  0  0  0  0  0
  -19.1542  -28.8866   23.2903 C   0  0  0  0  0  0
  -18.9466  -30.1477   23.8898 C   0  0  0  0  0  0
  -17.6471  -30.6617   24.0575 C   0  0  0  0  0  0
  -25.9038  -34.9482   23.5111 C   0  0  0  0  0  0
  -16.5359  -29.9122   23.6338 C   0  0  0  0  0  0
  -16.7275  -28.6550   23.0327 C   0  0  0  0  0  0
  -26.4428  -31.6613   25.0729 C   0  0  0  0  0  0
  -25.3666  -31.3784   26.1472 C   0  0  0  0  0  0
  -27.0256  -30.3036   24.6150 C   0  0  0  0  0  0
  -27.5988  -32.4324   25.7510 C   0  0  0  0  0  0
  -27.5569  -37.1805   24.8455 C   0  0  0  0  0  0
  -21.4168  -29.3038   22.3703 N   0  0  0  0  0  0
  -26.4248  -37.3801   23.9438 N   0  0  0  0  0  0
  -24.6818  -31.0665   22.1012 N   0  0  0  0  0  0
  -23.4202  -28.8152   23.3028 O   0  0  0  0  0  0
  -28.4055  -26.5795   20.1272 O   0  0  0  0  0  0
  -26.5638  -34.8933   22.4689 O   0  0  0  0  0  0
  -23.5364  -32.1404   23.7392 O   0  0  0  0  0  0
  -29.1688  -19.1795   18.7156 C   0  0  0  0  0  0
  -29.0453  -16.7855   18.9769 C   0  0  0  0  0  0
  -28.7156  -17.9394   18.2504 C   0  0  0  0  0  0
  -29.8974  -19.2477   19.9215 C   0  0  0  0  0  0
  -29.8000  -16.8708   20.1627 C   0  0  0  0  0  0
  -28.8757  -24.2300   21.9384 C   0  0  0  0  0  0
  -30.4064  -20.6167   20.3859 C   0  0  0  0  0  0
  -29.1375  -24.1848   20.6198 C   0  0  0  0  0  0
  -27.8575  -17.8329   17.0059 C   0  0  0  0  0  0
  -30.1502  -23.1412   20.0723 C   0  0  0  0  0  0
  -28.4275  -25.1810   19.6645 C   0  0  0  0  0  0
  -30.2049  -18.1000   20.6201 N   0  0  0  0  0  0
  -29.9492  -15.6356   20.8877 N   0  0  0  0  0  0
  -29.6973  -21.7211   20.0227 N   0  0  0  0  0  0
  -31.4468  -20.6973   21.0517 O   0  0  0  0  0  0
  -31.4736  -12.4378   19.1354 H   0  0  0  0  0  0
  -30.3275  -11.3423   19.8491 H   0  0  0  0  0  0
  -29.7553  -11.7889   17.4440 H   0  0  0  0  0  0
  -29.6632  -13.5033   17.7696 H   0  0  0  0  0  0
  -27.8302  -11.3153   18.7934 H   0  0  0  0  0  0
  -27.3770  -12.6522   17.7819 H   0  0  0  0  0  0
  -27.6746  -14.2492   19.5677 H   0  0  0  0  0  0
  -28.7044  -12.0223   21.3714 H   0  0  0  0  0  0
  -28.4721  -13.6872   21.8466 H   0  0  0  0  0  0
  -25.2786   -9.5689   22.4753 H   0  0  0  0  0  0
  -24.0046   -7.4630   22.7463 H   0  0  0  0  0  0
  -21.0888   -8.8792   19.8949 H   0  0  0  0  0  0
  -22.3702  -10.9723   19.6143 H   0  0  0  0  0  0
  -21.1990   -7.6168   23.9735 H   0  0  0  0  0  0
  -21.1467   -6.0506   25.9078 H   0  0  0  0  0  0
  -22.0613   -2.7641   23.2792 H   0  0  0  0  0  0
  -22.4054  -11.9902   22.4773 H   0  0  0  0  0  0
  -21.1115  -13.1291   22.2580 H   0  0  0  0  0  0
  -24.6921  -15.8568   20.5377 H   0  0  0  0  0  0
  -26.3073  -15.6229   20.1210 H   0  0  0  0  0  0
  -26.7147  -32.5518   23.1159 H   0  0  0  0  0  0
  -24.9931  -33.9759   25.0356 H   0  0  0  0  0  0
  -22.7086  -31.3082   21.4103 H   0  0  0  0  0  0
  -23.3735  -35.9628   23.3264 H   0  0  0  0  0  0
  -24.3562  -36.8959   22.2064 H   0  0  0  0  0  0
  -23.7203  -37.6481   23.6678 H   0  0  0  0  0  0
  -26.0620  -31.5668   20.5946 H   0  0  0  0  0  0
  -26.8378  -30.8688   21.9842 H   0  0  0  0  0  0
  -28.1030  -29.0174   21.1946 H   0  0  0  0  0  0
  -25.9941  -25.9964   18.9163 H   0  0  0  0  0  0
  -23.9757  -27.3081   19.0188 H   0  0  0  0  0  0
  -23.7547  -30.6018   19.4145 H   0  0  0  0  0  0
  -22.7480  -29.2567   19.8559 H   0  0  0  0  0  0
  -25.1265  -36.1942   25.0827 H   0  0  0  0  0  0
  -20.9978  -28.3268   24.1423 H   0  0  0  0  0  0
  -20.5713  -26.2300   23.3638 H   0  0  0  0  0  0
  -21.6651  -26.7478   22.1200 H   0  0  0  0  0  0
  -19.6905  -25.6291   21.1283 H   0  0  0  0  0  0
  -19.6682  -27.3210   20.6787 H   0  0  0  0  0  0
  -17.4195  -26.6683   21.4049 H   0  0  0  0  0  0
  -18.0293  -26.0123   22.9064 H   0  0  0  0  0  0
  -19.7943  -30.7302   24.2230 H   0  0  0  0  0  0
  -17.5032  -31.6291   24.5181 H   0  0  0  0  0  0
  -15.5354  -30.3036   23.7664 H   0  0  0  0  0  0
  -15.8662  -28.0904   22.6991 H   0  0  0  0  0  0
  -24.5807  -30.7165   25.7802 H   0  0  0  0  0  0
  -24.8913  -32.2995   26.4869 H   0  0  0  0  0  0
  -25.7983  -30.8970   27.0267 H   0  0  0  0  0  0
  -26.2857  -29.6849   24.1077 H   0  0  0  0  0  0
  -27.3850  -29.7206   25.4642 H   0  0  0  0  0  0
  -27.8745  -30.4303   23.9431 H   0  0  0  0  0  0
  -27.2581  -33.3599   26.2112 H   0  0  0  0  0  0
  -28.3799  -32.6928   25.0361 H   0  0  0  0  0  0
  -28.0655  -31.8452   26.5429 H   0  0  0  0  0  0
  -28.2552  -38.0133   24.7555 H   0  0  0  0  0  0
  -28.1087  -36.2687   24.6187 H   0  0  0  0  0  0
  -27.2313  -37.1339   25.8852 H   0  0  0  0  0  0
  -20.9315  -29.8795   21.6958 H   0  0  0  0  0  0
  -26.0128  -38.2837   24.1522 H   0  0  0  0  0  0
  -28.9673  -20.0746   18.1417 H   0  0  0  0  0  0
  -28.7020  -15.8317   18.6120 H   0  0  0  0  0  0
  -29.3510  -23.5562   22.6370 H   0  0  0  0  0  0
  -28.1742  -24.9461   22.3413 H   0  0  0  0  0  0
  -27.9299  -18.7235   16.3808 H   0  0  0  0  0  0
  -26.8149  -17.7007   17.2930 H   0  0  0  0  0  0
  -28.1509  -16.9738   16.4020 H   0  0  0  0  0  0
  -31.0464  -23.2067   20.6934 H   0  0  0  0  0  0
  -30.4812  -23.4414   19.0751 H   0  0  0  0  0  0
  -27.4409  -24.7389   19.5471 H   0  0  0  0  0  0
  -28.8948  -25.1544   18.6770 H   0  0  0  0  0  0
  -29.0978  -15.3430   21.3430 H   0  0  0  0  0  0
  -28.8548  -21.5273   19.4977 H   0  0  0  0  0  0
  1 25  1  0  0  0
  1 30  2  0  0  0
  1 83  1  0  0  0
  2  3  1  0  0  0
  2 25  1  0  0  0
  2 86  1  0  0  0
  2 87  1  0  0  0
  3  4  1  0  0  0
  3 88  1  0  0  0
  3 89  1  0  0  0
  4  5  1  0  0  0
  4 90  1  0  0  0
  4 91  1  0  0  0
  5  6  1  0  0  0
  5 26  1  0  0  0
  5 92  1  0  0  0
  6 25  1  0  0  0
  6 93  1  0  0  0
  6 94  1  0  0  0
  7  8  2  0  0  0
  7 26  1  0  0  0
  7 29  1  0  0  0
  8  9  1  0  0  0
  8 22  1  0  0  0
  9 10  1  0  0  0
  9 27  2  0  0  0
 10 11  2  0  0  0
 10 15  1  0  0  0
 11 12  1  0  0  0
 11 95  1  0  0  0
 12 13  2  0  0  0
 12 96  1  0  0  0
 13 14  1  0  0  0
 13 31  1  0  0  0
 14 15  2  0  0  0
 14 97  1  0  0  0
 15 98  1  0  0  0
 16 17  2  0  0  0
 16 21  1  0  0  0
 16 31  1  0  0  0
 17 18  1  0  0  0
 17 99  1  0  0  0
 18 19  2  0  0  0
 18100  1  0  0  0
 19 20  1  0  0  0
 19 24  1  0  0  0
 20 21  2  0  0  0
 20101  1  0  0  0
 21 23  1  0  0  0
 22 28  1  0  0  0
 22 32  2  0  0  0
 26 27  1  0  0  0
 28102  1  0  0  0
 28103  1  0  0  0
 29104  1  0  0  0
 29105  1  0  0  0
 33 34  1  0  0  0
 33 66  1  0  0  0
 33 70  2  0  0  0
 34 36  1  0  0  0
 34 59  1  0  0  0
 34106  1  0  0  0
 35 44  2  0  0  0
 35 45  1  0  0  0
 35 68  1  0  0  0
 36 56  1  0  0  0
 36107  1  0  0  0
 37 39  1  0  0  0
 37 47  1  0  0  0
 37 66  1  0  0  0
 37108  1  0  0  0
 38 43  2  0  0  0
 38 46  1  0  0  0
 38 47  1  0  0  0
 39 64  1  0  0  0
 39 67  2  0  0  0
 40 52  1  0  0  0
 40 53  2  0  0  0
 40 58  1  0  0  0
 41109  1  0  0  0
 41110  1  0  0  0
 41111  1  0  0  0
 41 48  1  0  0  0
 42 43  1  0  0  0
 42 66  1  0  0  0
 42112  1  0  0  0
 42113  1  0  0  0
 43 44  1  0  0  0
 44114  1  0  0  0
 45 46  2  0  0  0
 45115  1  0  0  0
 46116  1  0  0  0
 47117  1  0  0  0
 47118  1  0  0  0
 48 56  1  0  0  0
 48 65  1  0  0  0
 48119  1  0  0  0
 49 50  1  0  0  0
 49 53  1  0  0  0
 49 64  1  0  0  0
 49120  1  0  0  0
 50 51  1  0  0  0
 50121  1  0  0  0
 50122  1  0  0  0
 51 52  1  0  0  0
 51123  1  0  0  0
 51124  1  0  0  0
 52125  1  0  0  0
 52126  1  0  0  0
 53 54  1  0  0  0
 54 55  2  0  0  0
 54127  1  0  0  0
 55 57  1  0  0  0
 55128  1  0  0  0
 56 69  2  0  0  0
 57 58  2  0  0  0
 57129  1  0  0  0
 58130  1  0  0  0
 59 60  1  0  0  0
 59 61  1  0  0  0
 59 62  1  0  0  0
 60131  1  0  0  0
 60132  1  0  0  0
 60133  1  0  0  0
 61134  1  0  0  0
 61135  1  0  0  0
 61136  1  0  0  0
 62137  1  0  0  0
 62138  1  0  0  0
 62139  1  0  0  0
 63 65  1  0  0  0
 63140  1  0  0  0
 63141  1  0  0  0
 63142  1  0  0  0
 64143  1  0  0  0
 65144  1  0  0  0
 68 81  1  0  0  0
 71 73  2  0  0  0
 71 74  1  0  0  0
 71145  1  0  0  0
 72 73  1  0  0  0
 72 75  2  0  0  0
 72146  1  0  0  0
 73 79  1  0  0  0
 74 77  1  0  0  0
 74 82  2  0  0  0
 75 82  1  0  0  0
 75 83  1  0  0  0
 76 78  2  0  0  0
 76147  1  0  0  0
 76148  1  0  0  0
 77 84  1  0  0  0
 77 85  2  0  0  0
 78 80  1  0  0  0
 78 81  1  0  0  0
 79149  1  0  0  0
 79150  1  0  0  0
 79151  1  0  0  0
 80 84  1  0  0  0
 80152  1  0  0  0
 80153  1  0  0  0
 81154  1  0  0  0
 81155  1  0  0  0
 83156  1  0  0  0
 84157  1  0  0  0
M  ISO  4   1 100  68 101  81 101  83 100
M  END
> <chiral flag>
0

> <version>
0

> <s_m_source_file>
/data/baiqing/PycharmProjects/Reinvent-master-3.2/result/LINK_invent/BTK/process_docking_weight1_custom_product_contain_oxygen_bond_distance_aromatic_linkinvent_7_9_3/rearranged_h_0117.sdf

> <i_m_source_file_index>
67

> <r_mmod_Potential_Energy-OPLS-2005>
-133.513534545898

> <r_mmod_Stretch_Energy-OPLS-2005>
61.9251899719238

> <r_mmod_Bend_Energy-OPLS-2005>
126.523406982422

> <r_mmod_Torsional_Energy-OPLS-2005>
267.773956298828

> <r_mmod_Improper_Torsional_Energy-OPLS-2005>
7.46700572967529

> <r_mmod_Van_der_Waal_Energy-OPLS-2005>
147.674896240234

> <r_mmod_Electrostatic_Energy-OPLS-2005>
-509.181335449219

> <r_mmod_Solvation_Energy-OPLS-2005>
-264.730041503906

> <b_mmod_Minimization_Converged-OPLS-2005>
0

> <r_mmod_RMS_Derivative-OPLS-2005>
5.51839208602905

$$$$
67
                    3D
 Structure written by MMmdl.
157165  0  0  1  0            999 V2000
  -30.6676  -14.7168   20.3610 C   0  0  0  0  0  0
  -30.4591  -12.4295   19.4008 C   0  0  0  0  0  0
  -29.4896  -12.3996   18.1968 C   0  0  0  0  0  0
  -28.0131  -12.2896   18.6401 C   0  0  0  0  0  0
  -27.6391  -13.2028   19.8387 C   0  0  2  0  0  0
  -28.7234  -13.1670   20.9391 C   0  0  0  0  0  0
  -25.2521  -13.8002   20.5765 C   0  0  0  0  0  0
  -24.1795  -13.0336   20.9292 C   0  0  0  0  0  0
  -24.6355  -11.6813   20.8879 C   0  0  0  0  0  0
  -23.8996  -10.4224   21.0495 C   0  0  0  0  0  0
  -24.3550   -9.4115   21.9240 C   0  0  0  0  0  0
  -23.6228   -8.2156   22.0771 C   0  0  0  0  0  0
  -22.4224   -8.0233   21.3550 C   0  0  0  0  0  0
  -21.9870   -9.0187   20.4659 C   0  0  0  0  0  0
  -22.7190  -10.2076   20.3091 C   0  0  0  0  0  0
  -21.6818   -6.0698   22.5276 C   0  0  0  0  0  0
  -21.3978   -6.5607   23.8210 C   0  0  0  0  0  0
  -21.3659   -5.6777   24.9181 C   0  0  0  0  0  0
  -21.6082   -4.3042   24.7250 C   0  0  0  0  0  0
  -21.8816   -3.8116   23.4360 C   0  0  0  0  0  0
  -21.9167   -4.6915   22.3419 C   0  0  0  0  0  0
  -22.7820  -13.5164   21.1931 C   0  0  0  0  0  0
  -22.1665   -4.2105   21.0994 F   0  0  0  0  0  0
  -21.5639   -3.4529   25.7761 F   0  0  0  0  0  0
  -30.0212  -13.4968   20.3241 N   0  0  0  0  0  0
  -26.2971  -12.9204   20.3414 N   0  0  0  0  0  0
  -25.9297  -11.6392   20.5910 N   0  0  0  0  0  0
  -22.0431  -12.8174   22.0469 N   0  0  0  0  0  0
  -25.4181  -15.1680   20.4057 N   0  0  0  0  0  0
  -31.8974  -14.7790   20.3465 O   0  0  0  0  0  0
  -21.6603   -6.8820   21.4241 O   0  0  0  0  0  0
  -22.3543  -14.5481   20.6778 O   0  0  0  0  0  0
  -24.6197  -31.8631   23.2063 C   0  0  0  0  0  0
  -25.9033  -32.4821   23.8407 C   0  0  1  0  0  0
  -27.2583  -27.3612   20.1165 C   0  0  0  0  0  0
  -25.5873  -33.8607   24.2340 N   0  0  0  0  0  0
  -23.4174  -30.4866   21.5442 C   0  0  2  0  0  0
  -24.8744  -28.9410   20.1236 C   0  0  0  0  0  0
  -22.7470  -29.4654   22.4904 C   0  0  0  0  0  0
  -18.0278  -28.1364   22.8479 C   0  0  0  0  0  0
  -24.1484  -36.7343   23.2651 C   0  0  0  0  0  0
  -25.9551  -30.8108   21.3738 C   0  0  0  0  0  0
  -26.0407  -29.4401   20.7168 C   0  0  0  0  0  0
  -27.2350  -28.6670   20.6956 C   0  0  0  0  0  0
  -26.0632  -26.8985   19.5150 C   0  0  0  0  0  0
  -24.8846  -27.6721   19.5198 C   0  0  0  0  0  0
  -23.6402  -29.8227   20.1609 C   0  0  0  0  0  0
  -25.4098  -36.3110   24.0341 C   0  0  1  0  0  0
  -20.5894  -28.3699   23.1245 C   0  0  2  0  0  0
  -20.6750  -26.9403   22.5388 C   0  0  0  0  0  0
  -19.5727  -26.6372   21.5192 C   0  0  0  0  0  0
  -18.1924  -26.7914   22.1597 C   0  0  0  0  0  0
  -19.1533  -28.8839   23.2881 C   0  0  0  0  0  0
  -18.9454  -30.1453   23.8880 C   0  0  0  0  0  0
  -17.6464  -30.6575   24.0547 C   0  0  0  0  0  0
  -25.9016  -34.9460   23.5128 C   0  0  0  0  0  0
  -16.5347  -29.9053   23.6359 C   0  0  0  0  0  0
  -16.7272  -28.6476   23.0365 C   0  0  0  0  0  0
  -26.4427  -31.6606   25.0742 C   0  0  0  0  0  0
  -25.3673  -31.3695   26.1490 C   0  0  0  0  0  0
  -27.0350  -30.3059   24.6187 C   0  0  0  0  0  0
  -27.6011  -32.4365   25.7491 C   0  0  0  0  0  0
  -27.5588  -37.1802   24.8459 C   0  0  0  0  0  0
  -21.4184  -29.3055   22.3619 N   0  0  0  0  0  0
  -26.4290  -37.3771   23.9413 N   0  0  0  0  0  0
  -24.6813  -31.0666   22.1018 N   0  0  0  0  0  0
  -23.4182  -28.8164   23.2956 O   0  0  0  0  0  0
  -28.4223  -26.5829   20.1064 O   0  0  0  0  0  0
  -26.5595  -34.8898   22.4705 O   0  0  0  0  0  0
  -23.5355  -32.1403   23.7387 O   0  0  0  0  0  0
  -31.1514  -18.1608   20.2932 C   0  0  0  0  0  0
  -28.7941  -19.6625   20.2873 C   0  0  0  0  0  0
  -29.9440  -17.4229   20.1371 C   0  0  0  0  0  0
  -28.7546  -18.2370   20.1896 C   0  0  0  0  0  0
  -30.0101  -20.3901   20.3554 C   0  0  0  0  0  0
  -31.1838  -19.5839   20.4119 C   0  0  0  0  0  0
  -29.2755  -22.6595   19.8593 C   0  0  0  0  0  0
  -29.9100  -15.9359   19.6780 C   0  0  0  0  0  0
  -27.3717  -17.6074   20.1592 C   0  0  0  0  0  0
  -29.5415  -24.5845   18.2118 C   0  0  0  0  0  0
  -28.3424  -25.1303   20.3593 C   0  0  0  0  0  0
  -29.4585  -24.2206   19.7055 C   0  0  1  0  0  0
  -29.3315  -15.7225   18.5710 N   0  0  0  0  0  0
  -30.1192  -21.8269   20.3931 N   0  0  0  0  0  0
  -32.3887  -20.1937   20.5505 F   0  0  0  0  0  0
  -31.4733  -12.6078   19.0374 H   0  0  0  0  0  0
  -30.4826  -11.4676   19.9120 H   0  0  0  0  0  0
  -29.7247  -11.5432   17.5603 H   0  0  0  0  0  0
  -29.6358  -13.2744   17.5639 H   0  0  0  0  0  0
  -27.8413  -11.2470   18.9107 H   0  0  0  0  0  0
  -27.3509  -12.4940   17.7976 H   0  0  0  0  0  0
  -27.5949  -14.2091   19.4424 H   0  0  0  0  0  0
  -28.7723  -12.1777   21.3998 H   0  0  0  0  0  0
  -28.4934  -13.8750   21.7358 H   0  0  0  0  0  0
  -25.2693   -9.5571   22.4808 H   0  0  0  0  0  0
  -23.9948   -7.4513   22.7439 H   0  0  0  0  0  0
  -21.0826   -8.8663   19.8925 H   0  0  0  0  0  0
  -22.3646  -10.9610   19.6185 H   0  0  0  0  0  0
  -21.1967   -7.6120   23.9684 H   0  0  0  0  0  0
  -21.1517   -6.0534   25.9088 H   0  0  0  0  0  0
  -22.0604   -2.7568   23.2882 H   0  0  0  0  0  0
  -22.4006  -11.9813   22.4883 H   0  0  0  0  0  0
  -21.1051  -13.1231   22.2625 H   0  0  0  0  0  0
  -24.6505  -15.8272   20.4679 H   0  0  0  0  0  0
  -26.2709  -15.5716   20.0474 H   0  0  0  0  0  0
  -26.7108  -32.5523   23.1183 H   0  0  0  0  0  0
  -24.9978  -33.9768   25.0451 H   0  0  0  0  0  0
  -22.7109  -31.3062   21.4011 H   0  0  0  0  0  0
  -23.3718  -35.9700   23.3284 H   0  0  0  0  0  0
  -24.3566  -36.8987   22.2069 H   0  0  0  0  0  0
  -23.7271  -37.6539   23.6702 H   0  0  0  0  0  0
  -26.0839  -31.5772   20.6115 H   0  0  0  0  0  0
  -26.8348  -30.8635   22.0040 H   0  0  0  0  0  0
  -28.1360  -29.0668   21.1439 H   0  0  0  0  0  0
  -26.0252  -25.9374   19.0292 H   0  0  0  0  0  0
  -23.9872  -27.2814   19.0591 H   0  0  0  0  0  0
  -23.7657  -30.6044   19.4103 H   0  0  0  0  0  0
  -22.7614  -29.2545   19.8514 H   0  0  0  0  0  0
  -25.1263  -36.1972   25.0826 H   0  0  0  0  0  0
  -21.0033  -28.3278   24.1343 H   0  0  0  0  0  0
  -20.5622  -26.2312   23.3592 H   0  0  0  0  0  0
  -21.6629  -26.7400   22.1201 H   0  0  0  0  0  0
  -19.6901  -25.6301   21.1193 H   0  0  0  0  0  0
  -19.6661  -27.3197   20.6740 H   0  0  0  0  0  0
  -17.4195  -26.6704   21.3983 H   0  0  0  0  0  0
  -18.0291  -26.0056   22.8970 H   0  0  0  0  0  0
  -19.7937  -30.7279   24.2215 H   0  0  0  0  0  0
  -17.5009  -31.6260   24.5149 H   0  0  0  0  0  0
  -15.5332  -30.2915   23.7749 H   0  0  0  0  0  0
  -15.8673  -28.0787   22.7077 H   0  0  0  0  0  0
  -24.5833  -30.7072   25.7808 H   0  0  0  0  0  0
  -24.8842  -32.2820   26.4979 H   0  0  0  0  0  0
  -25.7977  -30.8810   27.0243 H   0  0  0  0  0  0
  -26.2950  -29.6711   24.1309 H   0  0  0  0  0  0
  -27.4214  -29.7392   25.4665 H   0  0  0  0  0  0
  -27.8704  -30.4389   23.9328 H   0  0  0  0  0  0
  -27.2657  -33.3693   26.2029 H   0  0  0  0  0  0
  -28.3807  -32.6889   25.0304 H   0  0  0  0  0  0
  -28.0701  -31.8528   26.5410 H   0  0  0  0  0  0
  -28.2587  -38.0128   24.7544 H   0  0  0  0  0  0
  -28.1123  -36.2647   24.6262 H   0  0  0  0  0  0
  -27.2289  -37.1415   25.8860 H   0  0  0  0  0  0
  -20.9346  -29.8809   21.6864 H   0  0  0  0  0  0
  -26.0182  -38.2849   24.1390 H   0  0  0  0  0  0
  -32.0952  -17.6400   20.2582 H   0  0  0  0  0  0
  -27.8591  -20.2041   20.3046 H   0  0  0  0  0  0
  -28.3665  -22.3009   19.3691 H   0  0  0  0  0  0
  -27.1563  -17.1975   21.1459 H   0  0  0  0  0  0
  -27.2918  -16.8103   19.4260 H   0  0  0  0  0  0
  -26.5898  -18.3285   19.9134 H   0  0  0  0  0  0
  -30.3060  -24.0057   17.6867 H   0  0  0  0  0  0
  -29.7862  -25.6431   18.0845 H   0  0  0  0  0  0
  -28.5849  -24.4142   17.7153 H   0  0  0  0  0  0
  -28.4101  -25.0024   21.4404 H   0  0  0  0  0  0
  -27.3794  -24.7217   20.0691 H   0  0  0  0  0  0
  -30.4147  -24.4838   20.1560 H   0  0  0  0  0  0
  -28.9388  -16.5748   18.1909 H   0  0  0  0  0  0
  1 25  1  0  0  0
  1 30  2  0  0  0
  1 78  1  0  0  0
  2  3  1  0  0  0
  2 25  1  0  0  0
  2 86  1  0  0  0
  2 87  1  0  0  0
  3  4  1  0  0  0
  3 88  1  0  0  0
  3 89  1  0  0  0
  4  5  1  0  0  0
  4 90  1  0  0  0
  4 91  1  0  0  0
  5  6  1  0  0  0
  5 26  1  0  0  0
  5 92  1  0  0  0
  6 25  1  0  0  0
  6 93  1  0  0  0
  6 94  1  0  0  0
  7  8  2  0  0  0
  7 26  1  0  0  0
  7 29  1  0  0  0
  8  9  1  0  0  0
  8 22  1  0  0  0
  9 10  1  0  0  0
  9 27  2  0  0  0
 10 11  2  0  0  0
 10 15  1  0  0  0
 11 12  1  0  0  0
 11 95  1  0  0  0
 12 13  2  0  0  0
 12 96  1  0  0  0
 13 14  1  0  0  0
 13 31  1  0  0  0
 14 15  2  0  0  0
 14 97  1  0  0  0
 15 98  1  0  0  0
 16 17  2  0  0  0
 16 21  1  0  0  0
 16 31  1  0  0  0
 17 18  1  0  0  0
 17 99  1  0  0  0
 18 19  2  0  0  0
 18100  1  0  0  0
 19 20  1  0  0  0
 19 24  1  0  0  0
 20 21  2  0  0  0
 20101  1  0  0  0
 21 23  1  0  0  0
 22 28  1  0  0  0
 22 32  2  0  0  0
 26 27  1  0  0  0
 28102  1  0  0  0
 28103  1  0  0  0
 29104  1  0  0  0
 29105  1  0  0  0
 33 34  1  0  0  0
 33 66  1  0  0  0
 33 70  2  0  0  0
 34 36  1  0  0  0
 34 59  1  0  0  0
 34106  1  0  0  0
 35 44  2  0  0  0
 35 45  1  0  0  0
 35 68  1  0  0  0
 36 56  1  0  0  0
 36107  1  0  0  0
 37 39  1  0  0  0
 37 47  1  0  0  0
 37 66  1  0  0  0
 37108  1  0  0  0
 38 43  2  0  0  0
 38 46  1  0  0  0
 38 47  1  0  0  0
 39 64  1  0  0  0
 39 67  2  0  0  0
 40 52  1  0  0  0
 40 53  2  0  0  0
 40 58  1  0  0  0
 41109  1  0  0  0
 41110  1  0  0  0
 41111  1  0  0  0
 41 48  1  0  0  0
 42 43  1  0  0  0
 42 66  1  0  0  0
 42112  1  0  0  0
 42113  1  0  0  0
 43 44  1  0  0  0
 44114  1  0  0  0
 45 46  2  0  0  0
 45115  1  0  0  0
 46116  1  0  0  0
 47117  1  0  0  0
 47118  1  0  0  0
 48 56  1  0  0  0
 48 65  1  0  0  0
 48119  1  0  0  0
 49 50  1  0  0  0
 49 53  1  0  0  0
 49 64  1  0  0  0
 49120  1  0  0  0
 50 51  1  0  0  0
 50121  1  0  0  0
 50122  1  0  0  0
 51 52  1  0  0  0
 51123  1  0  0  0
 51124  1  0  0  0
 52125  1  0  0  0
 52126  1  0  0  0
 53 54  1  0  0  0
 54 55  2  0  0  0
 54127  1  0  0  0
 55 57  1  0  0  0
 55128  1  0  0  0
 56 69  2  0  0  0
 57 58  2  0  0  0
 57129  1  0  0  0
 58130  1  0  0  0
 59 60  1  0  0  0
 59 61  1  0  0  0
 59 62  1  0  0  0
 60131  1  0  0  0
 60132  1  0  0  0
 60133  1  0  0  0
 61134  1  0  0  0
 61135  1  0  0  0
 61136  1  0  0  0
 62137  1  0  0  0
 62138  1  0  0  0
 62139  1  0  0  0
 63 65  1  0  0  0
 63140  1  0  0  0
 63141  1  0  0  0
 63142  1  0  0  0
 64143  1  0  0  0
 65144  1  0  0  0
 68 81  1  0  0  0
 71 73  2  0  0  0
 71 76  1  0  0  0
 71145  1  0  0  0
 72 74  2  0  0  0
 72 75  1  0  0  0
 72146  1  0  0  0
 73 74  1  0  0  0
 73 78  1  0  0  0
 74 79  1  0  0  0
 75 76  2  0  0  0
 75 84  1  0  0  0
 76 85  1  0  0  0
 77 82  1  0  0  0
 77 84  2  0  0  0
 77147  1  0  0  0
 78 83  2  0  0  0
 79148  1  0  0  0
 79149  1  0  0  0
 79150  1  0  0  0
 80151  1  0  0  0
 80152  1  0  0  0
 80153  1  0  0  0
 80 82  1  0  0  0
 81 82  1  0  0  0
 81154  1  0  0  0
 81155  1  0  0  0
 82156  1  0  0  0
 83157  1  0  0  0
M  ISO  4   1 100  68 101  78 100  81 101
M  END
> <chiral flag>
0

> <version>
0

> <s_m_source_file>
/data/baiqing/PycharmProjects/Reinvent-master-3.2/result/LINK_invent/BTK/process_docking_weight1_custom_product_contain_oxygen_bond_distance_aromatic_linkinvent_7_9_3/rearranged_h_0117.sdf

> <i_m_source_file_index>
68

> <r_mmod_Potential_Energy-OPLS-2005>
356.558410644531

> <r_mmod_Stretch_Energy-OPLS-2005>
94.2568588256836

> <r_mmod_Bend_Energy-OPLS-2005>
153.510162353516

> <r_mmod_Torsional_Energy-OPLS-2005>
275.388153076172

> <r_mmod_Improper_Torsional_Energy-OPLS-2005>
27.381534576416

> <r_mmod_Van_der_Waal_Energy-OPLS-2005>
152.767944335938

> <r_mmod_Electrostatic_Energy-OPLS-2005>
-218.681060791016

> <r_mmod_Solvation_Energy-OPLS-2005>
-198.923156738281

> <b_mmod_Minimization_Converged-OPLS-2005>
0

> <r_mmod_RMS_Derivative-OPLS-2005>
6.45139646530151

$$$$
68
                    3D
 Structure written by MMmdl.
155163  0  0  1  0            999 V2000
  -30.6505  -14.5339   20.6008 C   0  0  0  0  0  0
  -30.4451  -12.3591   19.4246 C   0  0  0  0  0  0
  -29.5053  -12.5338   18.2104 C   0  0  0  0  0  0
  -28.0275  -12.3668   18.6213 C   0  0  0  0  0  0
  -27.6614  -13.2018   19.8780 C   0  0  2  0  0  0
  -28.7047  -12.9780   20.9972 C   0  0  0  0  0  0
  -25.2582  -13.8137   20.5706 C   0  0  0  0  0  0
  -24.1802  -13.0426   20.9149 C   0  0  0  0  0  0
  -24.6344  -11.6887   20.8690 C   0  0  0  0  0  0
  -23.9000  -10.4280   21.0389 C   0  0  0  0  0  0
  -24.3571   -9.4207   21.9177 C   0  0  0  0  0  0
  -23.6265   -8.2230   22.0753 C   0  0  0  0  0  0
  -22.4245   -8.0259   21.3540 C   0  0  0  0  0  0
  -21.9855   -9.0231   20.4650 C   0  0  0  0  0  0
  -22.7168  -10.2122   20.3049 C   0  0  0  0  0  0
  -21.6843   -6.0713   22.5261 C   0  0  0  0  0  0
  -21.4039   -6.5628   23.8196 C   0  0  0  0  0  0
  -21.3669   -5.6777   24.9154 C   0  0  0  0  0  0
  -21.6026   -4.3032   24.7197 C   0  0  0  0  0  0
  -21.8832   -3.8125   23.4325 C   0  0  0  0  0  0
  -21.9201   -4.6945   22.3388 C   0  0  0  0  0  0
  -22.7830  -13.5245   21.1804 C   0  0  0  0  0  0
  -22.1660   -4.2132   21.0955 F   0  0  0  0  0  0
  -21.5618   -3.4529   25.7720 F   0  0  0  0  0  0
  -30.0294  -13.3271   20.4520 N   0  0  0  0  0  0
  -26.3009  -12.9292   20.3362 N   0  0  0  0  0  0
  -25.9275  -11.6465   20.5702 N   0  0  0  0  0  0
  -22.0464  -12.8284   22.0385 N   0  0  0  0  0  0
  -25.4287  -15.1876   20.4221 N   0  0  0  0  0  0
  -31.7805  -14.7607   20.1572 O   0  0  0  0  0  0
  -21.6621   -6.8844   21.4215 O   0  0  0  0  0  0
  -22.3525  -14.5559   20.6647 O   0  0  0  0  0  0
  -24.6174  -31.8672   23.2100 C   0  0  0  0  0  0
  -25.9065  -32.4815   23.8398 C   0  0  1  0  0  0
  -27.2227  -27.3977   20.1095 C   0  0  0  0  0  0
  -25.5903  -33.8612   24.2324 N   0  0  0  0  0  0
  -23.4059  -30.4944   21.5493 C   0  0  2  0  0  0
  -24.8502  -28.9648   20.1104 C   0  0  0  0  0  0
  -22.7419  -29.4670   22.4960 C   0  0  0  0  0  0
  -18.0281  -28.1385   22.8489 C   0  0  0  0  0  0
  -24.1473  -36.7322   23.2634 C   0  0  0  0  0  0
  -25.9391  -30.8251   21.3678 C   0  0  0  0  0  0
  -26.0143  -29.4586   20.7125 C   0  0  0  0  0  0
  -27.2017  -28.6835   20.7068 C   0  0  0  0  0  0
  -26.0387  -26.9429   19.4777 C   0  0  0  0  0  0
  -24.8600  -27.7086   19.4872 C   0  0  0  0  0  0
  -23.6154  -29.8351   20.1627 C   0  0  0  0  0  0
  -25.4087  -36.3109   24.0341 C   0  0  1  0  0  0
  -20.5873  -28.3682   23.1308 C   0  0  2  0  0  0
  -20.6776  -26.9421   22.5411 C   0  0  0  0  0  0
  -19.5749  -26.6389   21.5213 C   0  0  0  0  0  0
  -18.1931  -26.7929   22.1633 C   0  0  0  0  0  0
  -19.1531  -28.8846   23.2899 C   0  0  0  0  0  0
  -18.9457  -30.1445   23.8915 C   0  0  0  0  0  0
  -17.6462  -30.6592   24.0564 C   0  0  0  0  0  0
  -25.9020  -34.9474   23.5128 C   0  0  0  0  0  0
  -16.5351  -29.9092   23.6325 C   0  0  0  0  0  0
  -16.7271  -28.6511   23.0346 C   0  0  0  0  0  0
  -26.4481  -31.6595   25.0727 C   0  0  0  0  0  0
  -25.3743  -31.3743   26.1477 C   0  0  0  0  0  0
  -27.0314  -30.3023   24.6132 C   0  0  0  0  0  0
  -27.6047  -32.4314   25.7498 C   0  0  0  0  0  0
  -27.5574  -37.1808   24.8462 C   0  0  0  0  0  0
  -21.4143  -29.3049   22.3705 N   0  0  0  0  0  0
  -26.4275  -37.3791   23.9421 N   0  0  0  0  0  0
  -24.6730  -31.0750   22.1016 N   0  0  0  0  0  0
  -23.4175  -28.8200   23.3008 O   0  0  0  0  0  0
  -28.3684  -26.6115   20.1701 O   0  0  0  0  0  0
  -26.5584  -34.8936   22.4690 O   0  0  0  0  0  0
  -23.5361  -32.1434   23.7481 O   0  0  0  0  0  0
  -30.2820  -19.5335   22.4291 C   0  0  0  0  0  0
  -29.7795  -17.9562   20.6428 C   0  0  0  0  0  0
  -30.5600  -17.1341   22.8018 C   0  0  0  0  0  0
  -29.8500  -19.3102   21.1007 C   0  0  0  0  0  0
  -30.6286  -18.4619   23.2747 C   0  0  0  0  0  0
  -30.1372  -16.8617   21.4843 C   0  0  0  0  0  0
  -29.1605  -22.7845   20.0861 C   0  0  0  0  0  0
  -29.4094  -20.4811   20.2251 C   0  0  0  0  0  0
  -31.0231  -18.7358   24.7119 C   0  0  0  0  0  0
  -29.3287  -24.2623   20.4990 C   0  0  0  0  0  0
  -28.1990  -25.1851   19.9559 C   0  0  0  0  0  0
  -29.6261  -21.7742   20.7363 N   0  0  0  0  0  0
  -29.8565  -15.5020   21.1270 N   0  0  0  0  0  0
  -28.8943  -20.2138   19.1348 O   0  0  0  0  0  0
  -31.4877  -12.4924   19.1253 H   0  0  0  0  0  0
  -30.3771  -11.3444   19.8238 H   0  0  0  0  0  0
  -29.7602  -11.8177   17.4292 H   0  0  0  0  0  0
  -29.6513  -13.5236   17.7728 H   0  0  0  0  0  0
  -27.8523  -11.3084   18.8205 H   0  0  0  0  0  0
  -27.3693  -12.6284   17.7893 H   0  0  0  0  0  0
  -27.7022  -14.2494   19.5818 H   0  0  0  0  0  0
  -28.6970  -11.9331   21.3109 H   0  0  0  0  0  0
  -28.4522  -13.5464   21.8945 H   0  0  0  0  0  0
  -25.2729   -9.5707   22.4726 H   0  0  0  0  0  0
  -23.9982   -7.4635   22.7489 H   0  0  0  0  0  0
  -21.0767   -8.8747   19.8969 H   0  0  0  0  0  0
  -22.3618  -10.9652   19.6144 H   0  0  0  0  0  0
  -21.2065   -7.6138   23.9701 H   0  0  0  0  0  0
  -21.1464   -6.0500   25.9058 H   0  0  0  0  0  0
  -22.0604   -2.7594   23.2816 H   0  0  0  0  0  0
  -22.4063  -11.9997   22.4887 H   0  0  0  0  0  0
  -21.1089  -13.1354   22.2539 H   0  0  0  0  0  0
  -24.6654  -15.8399   20.5585 H   0  0  0  0  0  0
  -26.2886  -15.6385   20.1360 H   0  0  0  0  0  0
  -26.7137  -32.5515   23.1163 H   0  0  0  0  0  0
  -25.0053  -33.9765   25.0474 H   0  0  0  0  0  0
  -22.6971  -31.3139   21.4135 H   0  0  0  0  0  0
  -23.3732  -35.9656   23.3283 H   0  0  0  0  0  0
  -24.3582  -36.8945   22.2053 H   0  0  0  0  0  0
  -23.7234  -37.6525   23.6659 H   0  0  0  0  0  0
  -26.0492  -31.5912   20.5988 H   0  0  0  0  0  0
  -26.8272  -30.8802   21.9845 H   0  0  0  0  0  0
  -28.0954  -29.0550   21.1880 H   0  0  0  0  0  0
  -25.9930  -25.9883   18.9765 H   0  0  0  0  0  0
  -23.9664  -27.3257   19.0118 H   0  0  0  0  0  0
  -23.7307  -30.6135   19.4083 H   0  0  0  0  0  0
  -22.7370  -29.2614   19.8594 H   0  0  0  0  0  0
  -25.1258  -36.1967   25.0833 H   0  0  0  0  0  0
  -20.9967  -28.3256   24.1424 H   0  0  0  0  0  0
  -20.5704  -26.2286   23.3596 H   0  0  0  0  0  0
  -21.6650  -26.7478   22.1192 H   0  0  0  0  0  0
  -19.6919  -25.6295   21.1254 H   0  0  0  0  0  0
  -19.6688  -27.3191   20.6736 H   0  0  0  0  0  0
  -17.4197  -26.6664   21.4041 H   0  0  0  0  0  0
  -18.0346  -26.0071   22.9033 H   0  0  0  0  0  0
  -19.7927  -30.7258   24.2294 H   0  0  0  0  0  0
  -17.5019  -31.6284   24.5153 H   0  0  0  0  0  0
  -15.5354  -30.3011   23.7636 H   0  0  0  0  0  0
  -15.8668  -28.0844   22.7051 H   0  0  0  0  0  0
  -24.5863  -30.7143   25.7837 H   0  0  0  0  0  0
  -24.8995  -32.2922   26.4947 H   0  0  0  0  0  0
  -25.8069  -30.8887   27.0233 H   0  0  0  0  0  0
  -26.2876  -29.6783   24.1152 H   0  0  0  0  0  0
  -27.4038  -29.7258   25.4618 H   0  0  0  0  0  0
  -27.8737  -30.4329   23.9328 H   0  0  0  0  0  0
  -27.2651  -33.3598   26.2109 H   0  0  0  0  0  0
  -28.3843  -32.6898   25.0317 H   0  0  0  0  0  0
  -28.0735  -31.8417   26.5386 H   0  0  0  0  0  0
  -28.2582  -38.0113   24.7511 H   0  0  0  0  0  0
  -28.1074  -36.2645   24.6262 H   0  0  0  0  0  0
  -27.2309  -37.1441   25.8870 H   0  0  0  0  0  0
  -20.9291  -29.8776   21.6942 H   0  0  0  0  0  0
  -26.0162  -38.2868   24.1425 H   0  0  0  0  0  0
  -30.3215  -20.5396   22.8227 H   0  0  0  0  0  0
  -29.3969  -17.7515   19.6513 H   0  0  0  0  0  0
  -30.7850  -16.3210   23.4770 H   0  0  0  0  0  0
  -28.5956  -22.6771   19.1547 H   0  0  0  0  0  0
  -31.2599  -19.7889   24.8718 H   0  0  0  0  0  0
  -31.8947  -18.1454   24.9964 H   0  0  0  0  0  0
  -30.2020  -18.4705   25.3784 H   0  0  0  0  0  0
  -30.2937  -24.6121   20.1360 H   0  0  0  0  0  0
  -29.3597  -24.3270   21.5875 H   0  0  0  0  0  0
  -27.2748  -24.8490   20.4282 H   0  0  0  0  0  0
  -28.0893  -25.0224   18.8830 H   0  0  0  0  0  0
  -28.9462  -15.1659   21.4017 H   0  0  0  0  0  0
  1 25  1  0  0  0
  1 30  2  0  0  0
  1 83  1  0  0  0
  2  3  1  0  0  0
  2 25  1  0  0  0
  2 85  1  0  0  0
  2 86  1  0  0  0
  3  4  1  0  0  0
  3 87  1  0  0  0
  3 88  1  0  0  0
  4  5  1  0  0  0
  4 89  1  0  0  0
  4 90  1  0  0  0
  5  6  1  0  0  0
  5 26  1  0  0  0
  5 91  1  0  0  0
  6 25  1  0  0  0
  6 92  1  0  0  0
  6 93  1  0  0  0
  7  8  2  0  0  0
  7 26  1  0  0  0
  7 29  1  0  0  0
  8  9  1  0  0  0
  8 22  1  0  0  0
  9 10  1  0  0  0
  9 27  2  0  0  0
 10 11  2  0  0  0
 10 15  1  0  0  0
 11 12  1  0  0  0
 11 94  1  0  0  0
 12 13  2  0  0  0
 12 95  1  0  0  0
 13 14  1  0  0  0
 13 31  1  0  0  0
 14 15  2  0  0  0
 14 96  1  0  0  0
 15 97  1  0  0  0
 16 17  2  0  0  0
 16 21  1  0  0  0
 16 31  1  0  0  0
 17 18  1  0  0  0
 17 98  1  0  0  0
 18 19  2  0  0  0
 18 99  1  0  0  0
 19 20  1  0  0  0
 19 24  1  0  0  0
 20 21  2  0  0  0
 20100  1  0  0  0
 21 23  1  0  0  0
 22 28  1  0  0  0
 22 32  2  0  0  0
 26 27  1  0  0  0
 28101  1  0  0  0
 28102  1  0  0  0
 29103  1  0  0  0
 29104  1  0  0  0
 33 34  1  0  0  0
 33 66  1  0  0  0
 33 70  2  0  0  0
 34 36  1  0  0  0
 34 59  1  0  0  0
 34105  1  0  0  0
 35 44  2  0  0  0
 35 45  1  0  0  0
 35 68  1  0  0  0
 36 56  1  0  0  0
 36106  1  0  0  0
 37 39  1  0  0  0
 37 47  1  0  0  0
 37 66  1  0  0  0
 37107  1  0  0  0
 38 43  2  0  0  0
 38 46  1  0  0  0
 38 47  1  0  0  0
 39 64  1  0  0  0
 39 67  2  0  0  0
 40 52  1  0  0  0
 40 53  2  0  0  0
 40 58  1  0  0  0
 41108  1  0  0  0
 41109  1  0  0  0
 41110  1  0  0  0
 41 48  1  0  0  0
 42 43  1  0  0  0
 42 66  1  0  0  0
 42111  1  0  0  0
 42112  1  0  0  0
 43 44  1  0  0  0
 44113  1  0  0  0
 45 46  2  0  0  0
 45114  1  0  0  0
 46115  1  0  0  0
 47116  1  0  0  0
 47117  1  0  0  0
 48 56  1  0  0  0
 48 65  1  0  0  0
 48118  1  0  0  0
 49 50  1  0  0  0
 49 53  1  0  0  0
 49 64  1  0  0  0
 49119  1  0  0  0
 50 51  1  0  0  0
 50120  1  0  0  0
 50121  1  0  0  0
 51 52  1  0  0  0
 51122  1  0  0  0
 51123  1  0  0  0
 52124  1  0  0  0
 52125  1  0  0  0
 53 54  1  0  0  0
 54 55  2  0  0  0
 54126  1  0  0  0
 55 57  1  0  0  0
 55127  1  0  0  0
 56 69  2  0  0  0
 57 58  2  0  0  0
 57128  1  0  0  0
 58129  1  0  0  0
 59 60  1  0  0  0
 59 61  1  0  0  0
 59 62  1  0  0  0
 60130  1  0  0  0
 60131  1  0  0  0
 60132  1  0  0  0
 61133  1  0  0  0
 61134  1  0  0  0
 61135  1  0  0  0
 62136  1  0  0  0
 62137  1  0  0  0
 62138  1  0  0  0
 63 65  1  0  0  0
 63139  1  0  0  0
 63140  1  0  0  0
 63141  1  0  0  0
 64142  1  0  0  0
 65143  1  0  0  0
 68 81  1  0  0  0
 71 74  2  0  0  0
 71 75  1  0  0  0
 71144  1  0  0  0
 72 74  1  0  0  0
 72 76  2  0  0  0
 72145  1  0  0  0
 73 75  2  0  0  0
 73 76  1  0  0  0
 73146  1  0  0  0
 74 78  1  0  0  0
 75 79  1  0  0  0
 76 83  1  0  0  0
 77 80  1  0  0  0
 77 82  2  0  0  0
 77147  1  0  0  0
 78 82  1  0  0  0
 78 84  2  0  0  0
 79148  1  0  0  0
 79149  1  0  0  0
 79150  1  0  0  0
 80 81  1  0  0  0
 80151  1  0  0  0
 80152  1  0  0  0
 81153  1  0  0  0
 81154  1  0  0  0
 83155  1  0  0  0
M  ISO  4   1 100  68 101  81 101  83 100
M  END
> <chiral flag>
0

> <version>
0

> <s_m_source_file>
/data/baiqing/PycharmProjects/Reinvent-master-3.2/result/LINK_invent/BTK/process_docking_weight1_custom_product_contain_oxygen_bond_distance_aromatic_linkinvent_7_9_3/rearranged_h_0117.sdf

> <i_m_source_file_index>
69

> <r_mmod_Potential_Energy-OPLS-2005>
-31.9739971160889

> <r_mmod_Stretch_Energy-OPLS-2005>
50.3372917175293

> <r_mmod_Bend_Energy-OPLS-2005>
105.528434753418

> <r_mmod_Torsional_Energy-OPLS-2005>
233.85285949707

> <r_mmod_Improper_Torsional_Energy-OPLS-2005>
5.13353776931763

> <r_mmod_Van_der_Waal_Energy-OPLS-2005>
166.762771606445

> <r_mmod_Electrostatic_Energy-OPLS-2005>
-402.966003417969

> <r_mmod_Solvation_Energy-OPLS-2005>
-213.615707397461

> <b_mmod_Minimization_Converged-OPLS-2005>
0

> <r_mmod_RMS_Derivative-OPLS-2005>
3.32118487358093

$$$$
69
                    3D
 Structure written by MMmdl.
162170  0  0  1  0            999 V2000
  -30.5604  -14.8928   20.4953 C   0  0  0  0  0  0
  -30.4468  -12.5590   19.5083 C   0  0  0  0  0  0
  -29.5269  -12.5535   18.2630 C   0  0  0  0  0  0
  -28.0556  -12.3391   18.6661 C   0  0  0  0  0  0
  -27.6432  -13.2394   19.8585 C   0  0  2  0  0  0
  -28.6806  -13.1846   20.9996 C   0  0  0  0  0  0
  -25.2500  -13.8195   20.5680 C   0  0  0  0  0  0
  -24.1799  -13.0435   20.9197 C   0  0  0  0  0  0
  -24.6398  -11.6916   20.8735 C   0  0  0  0  0  0
  -23.9074  -10.4290   21.0398 C   0  0  0  0  0  0
  -24.3619   -9.4207   21.9179 C   0  0  0  0  0  0
  -23.6287   -8.2246   22.0751 C   0  0  0  0  0  0
  -22.4272   -8.0281   21.3541 C   0  0  0  0  0  0
  -21.9911   -9.0254   20.4644 C   0  0  0  0  0  0
  -22.7244  -10.2131   20.3048 C   0  0  0  0  0  0
  -21.6855   -6.0727   22.5274 C   0  0  0  0  0  0
  -21.4016   -6.5633   23.8207 C   0  0  0  0  0  0
  -21.3660   -5.6788   24.9171 C   0  0  0  0  0  0
  -21.6046   -4.3051   24.7226 C   0  0  0  0  0  0
  -21.8819   -3.8140   23.4349 C   0  0  0  0  0  0
  -21.9192   -4.6955   22.3401 C   0  0  0  0  0  0
  -22.7822  -13.5217   21.1868 C   0  0  0  0  0  0
  -22.1659   -4.2138   21.0980 F   0  0  0  0  0  0
  -21.5631   -3.4537   25.7741 F   0  0  0  0  0  0
  -29.9760  -13.6210   20.4475 N   0  0  0  0  0  0
  -26.2940  -12.9415   20.3288 N   0  0  0  0  0  0
  -25.9334  -11.6549   20.5739 N   0  0  0  0  0  0
  -22.0472  -12.8202   22.0423 N   0  0  0  0  0  0
  -25.4166  -15.1911   20.4045 N   0  0  0  0  0  0
  -31.6794  -15.0292   19.9849 O   0  0  0  0  0  0
  -21.6641   -6.8874   21.4237 O   0  0  0  0  0  0
  -22.3507  -14.5525   20.6724 O   0  0  0  0  0  0
  -24.6416  -31.8454   23.1907 C   0  0  0  0  0  0
  -25.9196  -32.4704   23.8284 C   0  0  1  0  0  0
  -27.2203  -27.1531   20.1398 C   0  0  0  0  0  0
  -25.5947  -33.8511   24.2194 N   0  0  0  0  0  0
  -23.4444  -30.4666   21.5356 C   0  0  2  0  0  0
  -24.8959  -28.9019   20.1059 C   0  0  0  0  0  0
  -22.7557  -29.4544   22.4857 C   0  0  0  0  0  0
  -18.0297  -28.1395   22.8474 C   0  0  0  0  0  0
  -24.1491  -36.7260   23.2642 C   0  0  0  0  0  0
  -26.0011  -30.7227   21.3900 C   0  0  0  0  0  0
  -26.0719  -29.3362   20.7299 C   0  0  0  0  0  0
  -27.2324  -28.4760   20.7369 C   0  0  0  0  0  0
  -26.0238  -26.8319   19.4561 C   0  0  0  0  0  0
  -24.8847  -27.6617   19.4545 C   0  0  0  0  0  0
  -23.6702  -29.7998   20.1532 C   0  0  0  0  0  0
  -25.4122  -36.3038   24.0315 C   0  0  1  0  0  0
  -20.5909  -28.3711   23.1243 C   0  0  2  0  0  0
  -20.6783  -26.9414   22.5405 C   0  0  0  0  0  0
  -19.5757  -26.6375   21.5214 C   0  0  0  0  0  0
  -18.1934  -26.7934   22.1620 C   0  0  0  0  0  0
  -19.1555  -28.8872   23.2851 C   0  0  0  0  0  0
  -18.9474  -30.1470   23.8876 C   0  0  0  0  0  0
  -17.6473  -30.6594   24.0562 C   0  0  0  0  0  0
  -25.9074  -34.9413   23.5062 C   0  0  0  0  0  0
  -16.5363  -29.9085   23.6346 C   0  0  0  0  0  0
  -16.7283  -28.6506   23.0357 C   0  0  0  0  0  0
  -26.4526  -31.6568   25.0717 C   0  0  0  0  0  0
  -25.3707  -31.3736   26.1406 C   0  0  0  0  0  0
  -27.0398  -30.2971   24.6285 C   0  0  0  0  0  0
  -27.6055  -32.4341   25.7495 C   0  0  0  0  0  0
  -27.5576  -37.1783   24.8465 C   0  0  0  0  0  0
  -21.4251  -29.3046   22.3622 N   0  0  0  0  0  0
  -26.4285  -37.3748   23.9412 N   0  0  0  0  0  0
  -24.7154  -31.0321   22.0938 N   0  0  0  0  0  0
  -23.4210  -28.8081   23.2989 O   0  0  0  0  0  0
  -28.2648  -26.1617   20.2360 O   0  0  0  0  0  0
  -26.5659  -34.8907   22.4640 O   0  0  0  0  0  0
  -23.5541  -32.1328   23.7134 O   0  0  0  0  0  0
  -30.4545  -18.5333   20.0339 C   0  0  0  0  0  0
  -28.2872  -19.9029   21.0593 C   0  0  0  0  0  0
  -29.5936  -17.6944   20.8251 C   0  0  0  0  0  0
  -28.4659  -18.4845   21.3030 C   0  0  0  0  0  0
  -29.1448  -20.7297   20.2816 C   0  0  0  0  0  0
  -30.2351  -19.9562   19.7379 C   0  0  0  0  0  0
  -32.0207  -22.0629   16.6319 C   0  0  0  0  0  0
  -32.4013  -20.7955   16.8637 C   0  0  0  0  0  0
  -28.7723  -23.3201   20.4128 C   0  0  0  0  0  0
  -29.8674  -16.1564   21.2941 C   0  0  0  0  0  0
  -27.3543  -18.1872   23.5822 C   0  0  0  0  0  0
  -27.3110  -17.8561   22.0831 C   0  0  0  0  0  0
  -31.9075  -19.9258   18.0035 C   0  0  0  0  0  0
  -27.9963  -24.6801   19.8566 C   0  0  0  0  0  0
  -29.5623  -15.9023   22.4973 N   0  0  0  0  0  0
  -28.7458  -22.1024   19.8432 N   0  0  0  0  0  0
  -31.0569  -20.6575   18.8813 O   0  0  0  0  0  0
  -31.4832  -12.7104   19.2035 H   0  0  0  0  0  0
  -30.4320  -11.5842   19.9982 H   0  0  0  0  0  0
  -29.8400  -11.7774   17.5636 H   0  0  0  0  0  0
  -29.6265  -13.5023   17.7338 H   0  0  0  0  0  0
  -27.9358  -11.2898   18.9392 H   0  0  0  0  0  0
  -27.3973  -12.5103   17.8132 H   0  0  0  0  0  0
  -27.6336  -14.2610   19.4782 H   0  0  0  0  0  0
  -28.7547  -12.1738   21.4036 H   0  0  0  0  0  0
  -28.3504  -13.8020   21.8318 H   0  0  0  0  0  0
  -25.2762   -9.5686   22.4753 H   0  0  0  0  0  0
  -23.9994   -7.4641   22.7477 H   0  0  0  0  0  0
  -21.0841   -8.8775   19.8952 H   0  0  0  0  0  0
  -22.3701  -10.9667   19.6154 H   0  0  0  0  0  0
  -21.2006   -7.6142   23.9708 H   0  0  0  0  0  0
  -21.1484   -6.0519   25.9073 H   0  0  0  0  0  0
  -22.0596   -2.7600   23.2855 H   0  0  0  0  0  0
  -22.4091  -11.9857   22.4800 H   0  0  0  0  0  0
  -21.1092  -13.1224   22.2639 H   0  0  0  0  0  0
  -24.6448  -15.8412   20.5018 H   0  0  0  0  0  0
  -26.2605  -15.6256   20.0549 H   0  0  0  0  0  0
  -26.7255  -32.5318   23.1008 H   0  0  0  0  0  0
  -25.0074  -33.9628   25.0329 H   0  0  0  0  0  0
  -22.7457  -31.2920   21.3830 H   0  0  0  0  0  0
  -23.3762  -35.9582   23.3288 H   0  0  0  0  0  0
  -24.3580  -36.8909   22.2060 H   0  0  0  0  0  0
  -23.7238  -37.6445   23.6697 H   0  0  0  0  0  0
  -26.1555  -31.4774   20.6177 H   0  0  0  0  0  0
  -26.8729  -30.7728   22.0306 H   0  0  0  0  0  0
  -28.1232  -28.8003   21.2566 H   0  0  0  0  0  0
  -25.9230  -25.8981   18.9254 H   0  0  0  0  0  0
  -23.9914  -27.3289   18.9448 H   0  0  0  0  0  0
  -23.8001  -30.5769   19.3991 H   0  0  0  0  0  0
  -22.7867  -29.2385   19.8451 H   0  0  0  0  0  0
  -25.1305  -36.1865   25.0806 H   0  0  0  0  0  0
  -21.0001  -28.3298   24.1364 H   0  0  0  0  0  0
  -20.5683  -26.2315   23.3615 H   0  0  0  0  0  0
  -21.6648  -26.7421   22.1195 H   0  0  0  0  0  0
  -19.6922  -25.6281   21.1249 H   0  0  0  0  0  0
  -19.6708  -27.3182   20.6740 H   0  0  0  0  0  0
  -17.4203  -26.6679   21.4022 H   0  0  0  0  0  0
  -18.0338  -26.0080   22.9020 H   0  0  0  0  0  0
  -19.7950  -30.7292   24.2234 H   0  0  0  0  0  0
  -17.5025  -31.6276   24.5156 H   0  0  0  0  0  0
  -15.5363  -30.2979   23.7689 H   0  0  0  0  0  0
  -15.8677  -28.0824   22.7085 H   0  0  0  0  0  0
  -24.5908  -30.7066   25.7714 H   0  0  0  0  0  0
  -24.8871  -32.2907   26.4788 H   0  0  0  0  0  0
  -25.7988  -30.8934   27.0215 H   0  0  0  0  0  0
  -26.3019  -29.6685   24.1293 H   0  0  0  0  0  0
  -27.4025  -29.7279   25.4853 H   0  0  0  0  0  0
  -27.8915  -30.4219   23.9594 H   0  0  0  0  0  0
  -27.2661  -33.3680   26.1993 H   0  0  0  0  0  0
  -28.3907  -32.6843   25.0345 H   0  0  0  0  0  0
  -28.0679  -31.8515   26.5475 H   0  0  0  0  0  0
  -28.2569  -38.0101   24.7532 H   0  0  0  0  0  0
  -28.1095  -36.2632   24.6269 H   0  0  0  0  0  0
  -27.2295  -37.1396   25.8865 H   0  0  0  0  0  0
  -20.9456  -29.8772   21.6815 H   0  0  0  0  0  0
  -26.0151  -38.2810   24.1435 H   0  0  0  0  0  0
  -31.3330  -18.0441   19.6408 H   0  0  0  0  0  0
  -27.3928  -20.3692   21.4477 H   0  0  0  0  0  0
  -32.4152  -22.6169   15.7921 H   0  0  0  0  0  0
  -31.3093  -22.5675   17.2714 H   0  0  0  0  0  0
  -33.1118  -20.3281   16.1950 H   0  0  0  0  0  0
  -29.2854  -23.4761   21.3652 H   0  0  0  0  0  0
  -26.5156  -17.7222   24.1017 H   0  0  0  0  0  0
  -27.2871  -19.2620   23.7515 H   0  0  0  0  0  0
  -28.2711  -17.8352   24.0540 H   0  0  0  0  0  0
  -27.2416  -16.7819   21.9236 H   0  0  0  0  0  0
  -26.3766  -18.2415   21.6725 H   0  0  0  0  0  0
  -32.7689  -19.5439   18.5525 H   0  0  0  0  0  0
  -31.3827  -19.0784   17.5583 H   0  0  0  0  0  0
  -26.9591  -24.4777   20.1198 H   0  0  0  0  0  0
  -28.0333  -24.6367   18.7680 H   0  0  0  0  0  0
  -29.1679  -16.7222   22.9420 H   0  0  0  0  0  0
  1 25  1  0  0  0
  1 30  2  0  0  0
  1 80  1  0  0  0
  2  3  1  0  0  0
  2 25  1  0  0  0
  2 88  1  0  0  0
  2 89  1  0  0  0
  3  4  1  0  0  0
  3 90  1  0  0  0
  3 91  1  0  0  0
  4  5  1  0  0  0
  4 92  1  0  0  0
  4 93  1  0  0  0
  5  6  1  0  0  0
  5 26  1  0  0  0
  5 94  1  0  0  0
  6 25  1  0  0  0
  6 95  1  0  0  0
  6 96  1  0  0  0
  7  8  2  0  0  0
  7 26  1  0  0  0
  7 29  1  0  0  0
  8  9  1  0  0  0
  8 22  1  0  0  0
  9 10  1  0  0  0
  9 27  2  0  0  0
 10 11  2  0  0  0
 10 15  1  0  0  0
 11 12  1  0  0  0
 11 97  1  0  0  0
 12 13  2  0  0  0
 12 98  1  0  0  0
 13 14  1  0  0  0
 13 31  1  0  0  0
 14 15  2  0  0  0
 14 99  1  0  0  0
 15100  1  0  0  0
 16 17  2  0  0  0
 16 21  1  0  0  0
 16 31  1  0  0  0
 17 18  1  0  0  0
 17101  1  0  0  0
 18 19  2  0  0  0
 18102  1  0  0  0
 19 20  1  0  0  0
 19 24  1  0  0  0
 20 21  2  0  0  0
 20103  1  0  0  0
 21 23  1  0  0  0
 22 28  1  0  0  0
 22 32  2  0  0  0
 26 27  1  0  0  0
 28104  1  0  0  0
 28105  1  0  0  0
 29106  1  0  0  0
 29107  1  0  0  0
 33 34  1  0  0  0
 33 66  1  0  0  0
 33 70  2  0  0  0
 34 36  1  0  0  0
 34 59  1  0  0  0
 34108  1  0  0  0
 35 44  2  0  0  0
 35 45  1  0  0  0
 35 68  1  0  0  0
 36 56  1  0  0  0
 36109  1  0  0  0
 37 39  1  0  0  0
 37 47  1  0  0  0
 37 66  1  0  0  0
 37110  1  0  0  0
 38 43  2  0  0  0
 38 46  1  0  0  0
 38 47  1  0  0  0
 39 64  1  0  0  0
 39 67  2  0  0  0
 40 52  1  0  0  0
 40 53  2  0  0  0
 40 58  1  0  0  0
 41111  1  0  0  0
 41112  1  0  0  0
 41113  1  0  0  0
 41 48  1  0  0  0
 42 43  1  0  0  0
 42 66  1  0  0  0
 42114  1  0  0  0
 42115  1  0  0  0
 43 44  1  0  0  0
 44116  1  0  0  0
 45 46  2  0  0  0
 45117  1  0  0  0
 46118  1  0  0  0
 47119  1  0  0  0
 47120  1  0  0  0
 48 56  1  0  0  0
 48 65  1  0  0  0
 48121  1  0  0  0
 49 50  1  0  0  0
 49 53  1  0  0  0
 49 64  1  0  0  0
 49122  1  0  0  0
 50 51  1  0  0  0
 50123  1  0  0  0
 50124  1  0  0  0
 51 52  1  0  0  0
 51125  1  0  0  0
 51126  1  0  0  0
 52127  1  0  0  0
 52128  1  0  0  0
 53 54  1  0  0  0
 54 55  2  0  0  0
 54129  1  0  0  0
 55 57  1  0  0  0
 55130  1  0  0  0
 56 69  2  0  0  0
 57 58  2  0  0  0
 57131  1  0  0  0
 58132  1  0  0  0
 59 60  1  0  0  0
 59 61  1  0  0  0
 59 62  1  0  0  0
 60133  1  0  0  0
 60134  1  0  0  0
 60135  1  0  0  0
 61136  1  0  0  0
 61137  1  0  0  0
 61138  1  0  0  0
 62139  1  0  0  0
 62140  1  0  0  0
 62141  1  0  0  0
 63 65  1  0  0  0
 63142  1  0  0  0
 63143  1  0  0  0
 63144  1  0  0  0
 64145  1  0  0  0
 65146  1  0  0  0
 68 84  1  0  0  0
 71 73  2  0  0  0
 71 76  1  0  0  0
 71147  1  0  0  0
 72 74  2  0  0  0
 72 75  1  0  0  0
 72148  1  0  0  0
 73 74  1  0  0  0
 73 80  1  0  0  0
 74 82  1  0  0  0
 75 76  2  0  0  0
 75 86  1  0  0  0
 76 87  1  0  0  0
 77 78  2  0  0  0
 77149  1  0  0  0
 77150  1  0  0  0
 78 83  1  0  0  0
 78151  1  0  0  0
 79 84  1  0  0  0
 79 86  2  0  0  0
 79152  1  0  0  0
 80 85  2  0  0  0
 81 82  1  0  0  0
 81153  1  0  0  0
 81154  1  0  0  0
 81155  1  0  0  0
 82156  1  0  0  0
 82157  1  0  0  0
 83 87  1  0  0  0
 83158  1  0  0  0
 83159  1  0  0  0
 84160  1  0  0  0
 84161  1  0  0  0
 85162  1  0  0  0
M  ISO  4   1 100  68 101  80 100  84 101
M  END
> <chiral flag>
0

> <version>
0

> <s_m_source_file>
/data/baiqing/PycharmProjects/Reinvent-master-3.2/result/LINK_invent/BTK/process_docking_weight1_custom_product_contain_oxygen_bond_distance_aromatic_linkinvent_7_9_3/rearranged_h_0117.sdf

> <i_m_source_file_index>
70

> <r_mmod_Potential_Energy-OPLS-2005>
640.626831054688

> <r_mmod_Stretch_Energy-OPLS-2005>
246.508773803711

> <r_mmod_Bend_Energy-OPLS-2005>
285.093475341797

> <r_mmod_Torsional_Energy-OPLS-2005>
232.725387573242

> <r_mmod_Improper_Torsional_Energy-OPLS-2005>
6.7292332649231

> <r_mmod_Van_der_Waal_Energy-OPLS-2005>
148.347198486328

> <r_mmod_Electrostatic_Energy-OPLS-2005>
-236.815216064453

> <r_mmod_Solvation_Energy-OPLS-2005>
-207.706115722656

> <b_mmod_Minimization_Converged-OPLS-2005>
0

> <r_mmod_RMS_Derivative-OPLS-2005>
1.06736123561859

$$$$
70
                    3D
 Structure written by MMmdl.
154162  0  0  1  0            999 V2000
  -30.5858  -14.6706   20.5911 C   0  0  0  0  0  0
  -30.4629  -12.4427   19.4269 C   0  0  0  0  0  0
  -29.5106  -12.5468   18.2133 C   0  0  0  0  0  0
  -28.0332  -12.3709   18.6279 C   0  0  0  0  0  0
  -27.6653  -13.2077   19.8823 C   0  0  2  0  0  0
  -28.7193  -12.9857   20.9896 C   0  0  0  0  0  0
  -25.2618  -13.8150   20.5702 C   0  0  0  0  0  0
  -24.1860  -13.0431   20.9186 C   0  0  0  0  0  0
  -24.6410  -11.6898   20.8743 C   0  0  0  0  0  0
  -23.9063  -10.4289   21.0399 C   0  0  0  0  0  0
  -24.3610   -9.4207   21.9176 C   0  0  0  0  0  0
  -23.6284   -8.2247   22.0752 C   0  0  0  0  0  0
  -22.4269   -8.0281   21.3542 C   0  0  0  0  0  0
  -21.9908   -9.0253   20.4642 C   0  0  0  0  0  0
  -22.7239  -10.2130   20.3048 C   0  0  0  0  0  0
  -21.6852   -6.0730   22.5278 C   0  0  0  0  0  0
  -21.4014   -6.5634   23.8212 C   0  0  0  0  0  0
  -21.3662   -5.6787   24.9176 C   0  0  0  0  0  0
  -21.6050   -4.3050   24.7226 C   0  0  0  0  0  0
  -21.8822   -3.8142   23.4346 C   0  0  0  0  0  0
  -21.9196   -4.6958   22.3400 C   0  0  0  0  0  0
  -22.7880  -13.5235   21.1834 C   0  0  0  0  0  0
  -22.1661   -4.2139   21.0977 F   0  0  0  0  0  0
  -21.5631   -3.4536   25.7740 F   0  0  0  0  0  0
  -30.0173  -13.4213   20.4416 N   0  0  0  0  0  0
  -26.3064  -12.9315   20.3424 N   0  0  0  0  0  0
  -25.9347  -11.6475   20.5793 N   0  0  0  0  0  0
  -22.0501  -12.8235   22.0374 N   0  0  0  0  0  0
  -25.4343  -15.1870   20.4093 N   0  0  0  0  0  0
  -31.6860  -14.9117   20.0797 O   0  0  0  0  0  0
  -21.6635   -6.8874   21.4241 O   0  0  0  0  0  0
  -22.3575  -14.5542   20.6684 O   0  0  0  0  0  0
  -24.6295  -31.8574   23.2013 C   0  0  0  0  0  0
  -25.9125  -32.4771   23.8352 C   0  0  1  0  0  0
  -27.2295  -27.2935   20.1104 C   0  0  0  0  0  0
  -25.5927  -33.8573   24.2271 N   0  0  0  0  0  0
  -23.4255  -30.4814   21.5441 C   0  0  2  0  0  0
  -24.8730  -28.9338   20.1134 C   0  0  0  0  0  0
  -22.7483  -29.4620   22.4923 C   0  0  0  0  0  0
  -18.0284  -28.1390   22.8488 C   0  0  0  0  0  0
  -24.1492  -36.7284   23.2641 C   0  0  0  0  0  0
  -25.9711  -30.7786   21.3788 C   0  0  0  0  0  0
  -26.0455  -29.4048   20.7176 C   0  0  0  0  0  0
  -27.2262  -28.5978   20.7046 C   0  0  0  0  0  0
  -26.0264  -26.8821   19.4883 C   0  0  0  0  0  0
  -24.8673  -27.6781   19.4910 C   0  0  0  0  0  0
  -23.6425  -29.8164   20.1607 C   0  0  0  0  0  0
  -25.4121  -36.3081   24.0327 C   0  0  1  0  0  0
  -20.5886  -28.3700   23.1277 C   0  0  2  0  0  0
  -20.6779  -26.9422   22.5407 C   0  0  0  0  0  0
  -19.5756  -26.6395   21.5212 C   0  0  0  0  0  0
  -18.1934  -26.7936   22.1622 C   0  0  0  0  0  0
  -19.1538  -28.8860   23.2877 C   0  0  0  0  0  0
  -18.9456  -30.1459   23.8902 C   0  0  0  0  0  0
  -17.6461  -30.6597   24.0562 C   0  0  0  0  0  0
  -25.9055  -34.9451   23.5102 C   0  0  0  0  0  0
  -16.5351  -29.9093   23.6341 C   0  0  0  0  0  0
  -16.7271  -28.6505   23.0368 C   0  0  0  0  0  0
  -26.4495  -31.6589   25.0737 C   0  0  0  0  0  0
  -25.3718  -31.3719   26.1455 C   0  0  0  0  0  0
  -27.0343  -30.3009   24.6215 C   0  0  0  0  0  0
  -27.6049  -32.4323   25.7514 C   0  0  0  0  0  0
  -27.5584  -37.1804   24.8463 C   0  0  0  0  0  0
  -21.4192  -29.3051   22.3661 N   0  0  0  0  0  0
  -26.4296  -37.3778   23.9406 N   0  0  0  0  0  0
  -24.6945  -31.0552   22.0983 N   0  0  0  0  0  0
  -23.4186  -28.8158   23.3018 O   0  0  0  0  0  0
  -28.3437  -26.4253   20.1461 O   0  0  0  0  0  0
  -26.5618  -34.8921   22.4666 O   0  0  0  0  0  0
  -23.5450  -32.1387   23.7318 O   0  0  0  0  0  0
  -28.7143  -19.4902   21.7489 C   0  0  0  0  0  0
  -28.7685  -18.0815   22.0513 C   0  0  0  0  0  0
  -29.6506  -17.3384   21.2667 C   0  0  0  0  0  0
  -29.5216  -19.9393   20.7335 C   0  0  0  0  0  0
  -27.9665  -17.5334   23.1611 C   0  0  0  0  0  0
  -28.8152  -22.3403   20.4911 C   0  0  0  0  0  0
  -26.7300  -18.3289   23.5667 C   0  0  0  0  0  0
  -29.8511  -15.7808   21.4702 C   0  0  0  0  0  0
  -29.2521  -23.8519   20.2370 C   0  0  0  0  0  0
  -28.0963  -24.9541   20.0370 C   0  0  0  0  0  0
  -29.6733  -21.2671   20.3136 N   0  0  0  0  0  0
  -28.2004  -16.4921   23.7811 O   0  0  0  0  0  0
  -27.6506  -22.1488   20.8496 O   0  0  0  0  0  0
  -30.4146  -18.4932   20.1315 S   0  0  0  0  0  0
  -31.4928  -12.6192   19.1123 H   0  0  0  0  0  0
  -30.4515  -11.4327   19.8395 H   0  0  0  0  0  0
  -29.7796  -11.8073   17.4575 H   0  0  0  0  0  0
  -29.6388  -13.5230   17.7439 H   0  0  0  0  0  0
  -27.8696  -11.3117   18.8301 H   0  0  0  0  0  0
  -27.3753  -12.6269   17.7968 H   0  0  0  0  0  0
  -27.7034  -14.2568   19.5881 H   0  0  0  0  0  0
  -28.7624  -11.9266   21.2503 H   0  0  0  0  0  0
  -28.4495  -13.4709   21.9264 H   0  0  0  0  0  0
  -25.2752   -9.5687   22.4758 H   0  0  0  0  0  0
  -23.9991   -7.4645   22.7482 H   0  0  0  0  0  0
  -21.0837   -8.8779   19.8943 H   0  0  0  0  0  0
  -22.3702  -10.9668   19.6159 H   0  0  0  0  0  0
  -21.2002   -7.6141   23.9712 H   0  0  0  0  0  0
  -21.1482   -6.0516   25.9078 H   0  0  0  0  0  0
  -22.0598   -2.7602   23.2856 H   0  0  0  0  0  0
  -22.4091  -11.9885   22.4758 H   0  0  0  0  0  0
  -21.1117  -13.1269   22.2561 H   0  0  0  0  0  0
  -24.6626  -15.8385   20.4961 H   0  0  0  0  0  0
  -26.2808  -15.6206   20.0636 H   0  0  0  0  0  0
  -26.7196  -32.5425   23.1097 H   0  0  0  0  0  0
  -25.0074  -33.9716   25.0417 H   0  0  0  0  0  0
  -22.7227  -31.3041   21.3991 H   0  0  0  0  0  0
  -23.3767  -35.9603   23.3291 H   0  0  0  0  0  0
  -24.3584  -36.8915   22.2058 H   0  0  0  0  0  0
  -23.7231  -37.6477   23.6668 H   0  0  0  0  0  0
  -26.1100  -31.5434   20.6130 H   0  0  0  0  0  0
  -26.8484  -30.8228   22.0128 H   0  0  0  0  0  0
  -28.1255  -28.9555   21.1863 H   0  0  0  0  0  0
  -25.9440  -25.9263   18.9953 H   0  0  0  0  0  0
  -23.9684  -27.3094   19.0162 H   0  0  0  0  0  0
  -23.7646  -30.5937   19.4052 H   0  0  0  0  0  0
  -22.7613  -29.2479   19.8565 H   0  0  0  0  0  0
  -25.1303  -36.1939   25.0819 H   0  0  0  0  0  0
  -20.9978  -28.3283   24.1397 H   0  0  0  0  0  0
  -20.5699  -26.2305   23.3601 H   0  0  0  0  0  0
  -21.6649  -26.7464   22.1193 H   0  0  0  0  0  0
  -19.6925  -25.6306   21.1242 H   0  0  0  0  0  0
  -19.6705  -27.3205   20.6741 H   0  0  0  0  0  0
  -17.4206  -26.6689   21.4019 H   0  0  0  0  0  0
  -18.0329  -26.0072   22.9010 H   0  0  0  0  0  0
  -19.7928  -30.7269   24.2285 H   0  0  0  0  0  0
  -17.5013  -31.6281   24.5150 H   0  0  0  0  0  0
  -15.5350  -30.2995   23.7667 H   0  0  0  0  0  0
  -15.8668  -28.0822   22.7100 H   0  0  0  0  0  0
  -24.5883  -30.7087   25.7766 H   0  0  0  0  0  0
  -24.8927  -32.2884   26.4911 H   0  0  0  0  0  0
  -25.8040  -30.8864   27.0215 H   0  0  0  0  0  0
  -26.2929  -29.6761   24.1222 H   0  0  0  0  0  0
  -27.4003  -29.7269   25.4739 H   0  0  0  0  0  0
  -27.8818  -30.4286   23.9476 H   0  0  0  0  0  0
  -27.2655  -33.3620   26.2096 H   0  0  0  0  0  0
  -28.3866  -32.6884   25.0348 H   0  0  0  0  0  0
  -28.0710  -31.8443   26.5431 H   0  0  0  0  0  0
  -28.2592  -38.0109   24.7512 H   0  0  0  0  0  0
  -28.1087  -36.2635   24.6291 H   0  0  0  0  0  0
  -27.2288  -37.1458   25.8861 H   0  0  0  0  0  0
  -20.9368  -29.8766   21.6866 H   0  0  0  0  0  0
  -26.0177  -38.2853   24.1405 H   0  0  0  0  0  0
  -28.0875  -20.1539   22.3262 H   0  0  0  0  0  0
  -26.1976  -18.6834   22.6846 H   0  0  0  0  0  0
  -27.0124  -19.1859   24.1778 H   0  0  0  0  0  0
  -26.0503  -17.7046   24.1451 H   0  0  0  0  0  0
  -28.8264  -15.4392   21.5319 H   0  0  0  0  0  0
  -30.2681  -15.6316   22.4660 H   0  0  0  0  0  0
  -29.9262  -23.8818   19.3817 H   0  0  0  0  0  0
  -29.8522  -24.1406   21.0994 H   0  0  0  0  0  0
  -27.2933  -24.7219   20.7377 H   0  0  0  0  0  0
  -27.6961  -24.7565   19.0426 H   0  0  0  0  0  0
  -30.5538  -21.4847   19.8644 H   0  0  0  0  0  0
  1 25  1  0  0  0
  1 30  2  0  0  0
  1 78  1  0  0  0
  2  3  1  0  0  0
  2 25  1  0  0  0
  2 85  1  0  0  0
  2 86  1  0  0  0
  3  4  1  0  0  0
  3 87  1  0  0  0
  3 88  1  0  0  0
  4  5  1  0  0  0
  4 89  1  0  0  0
  4 90  1  0  0  0
  5  6  1  0  0  0
  5 26  1  0  0  0
  5 91  1  0  0  0
  6 25  1  0  0  0
  6 92  1  0  0  0
  6 93  1  0  0  0
  7  8  2  0  0  0
  7 26  1  0  0  0
  7 29  1  0  0  0
  8  9  1  0  0  0
  8 22  1  0  0  0
  9 10  1  0  0  0
  9 27  2  0  0  0
 10 11  2  0  0  0
 10 15  1  0  0  0
 11 12  1  0  0  0
 11 94  1  0  0  0
 12 13  2  0  0  0
 12 95  1  0  0  0
 13 14  1  0  0  0
 13 31  1  0  0  0
 14 15  2  0  0  0
 14 96  1  0  0  0
 15 97  1  0  0  0
 16 17  2  0  0  0
 16 21  1  0  0  0
 16 31  1  0  0  0
 17 18  1  0  0  0
 17 98  1  0  0  0
 18 19  2  0  0  0
 18 99  1  0  0  0
 19 20  1  0  0  0
 19 24  1  0  0  0
 20 21  2  0  0  0
 20100  1  0  0  0
 21 23  1  0  0  0
 22 28  1  0  0  0
 22 32  2  0  0  0
 26 27  1  0  0  0
 28101  1  0  0  0
 28102  1  0  0  0
 29103  1  0  0  0
 29104  1  0  0  0
 33 34  1  0  0  0
 33 66  1  0  0  0
 33 70  2  0  0  0
 34 36  1  0  0  0
 34 59  1  0  0  0
 34105  1  0  0  0
 35 44  2  0  0  0
 35 45  1  0  0  0
 35 68  1  0  0  0
 36 56  1  0  0  0
 36106  1  0  0  0
 37 39  1  0  0  0
 37 47  1  0  0  0
 37 66  1  0  0  0
 37107  1  0  0  0
 38 43  2  0  0  0
 38 46  1  0  0  0
 38 47  1  0  0  0
 39 64  1  0  0  0
 39 67  2  0  0  0
 40 52  1  0  0  0
 40 53  2  0  0  0
 40 58  1  0  0  0
 41108  1  0  0  0
 41109  1  0  0  0
 41110  1  0  0  0
 41 48  1  0  0  0
 42 43  1  0  0  0
 42 66  1  0  0  0
 42111  1  0  0  0
 42112  1  0  0  0
 43 44  1  0  0  0
 44113  1  0  0  0
 45 46  2  0  0  0
 45114  1  0  0  0
 46115  1  0  0  0
 47116  1  0  0  0
 47117  1  0  0  0
 48 56  1  0  0  0
 48 65  1  0  0  0
 48118  1  0  0  0
 49 50  1  0  0  0
 49 53  1  0  0  0
 49 64  1  0  0  0
 49119  1  0  0  0
 50 51  1  0  0  0
 50120  1  0  0  0
 50121  1  0  0  0
 51 52  1  0  0  0
 51122  1  0  0  0
 51123  1  0  0  0
 52124  1  0  0  0
 52125  1  0  0  0
 53 54  1  0  0  0
 54 55  2  0  0  0
 54126  1  0  0  0
 55 57  1  0  0  0
 55127  1  0  0  0
 56 69  2  0  0  0
 57 58  2  0  0  0
 57128  1  0  0  0
 58129  1  0  0  0
 59 60  1  0  0  0
 59 61  1  0  0  0
 59 62  1  0  0  0
 60130  1  0  0  0
 60131  1  0  0  0
 60132  1  0  0  0
 61133  1  0  0  0
 61134  1  0  0  0
 61135  1  0  0  0
 62136  1  0  0  0
 62137  1  0  0  0
 62138  1  0  0  0
 63 65  1  0  0  0
 63139  1  0  0  0
 63140  1  0  0  0
 63141  1  0  0  0
 64142  1  0  0  0
 65143  1  0  0  0
 68 80  1  0  0  0
 71 72  1  0  0  0
 71 74  2  0  0  0
 71144  1  0  0  0
 72 73  2  0  0  0
 72 75  1  0  0  0
 73 78  1  0  0  0
 73 84  1  0  0  0
 74 81  1  0  0  0
 74 84  1  0  0  0
 75 77  1  0  0  0
 75 82  2  0  0  0
 76 79  1  0  0  0
 76 81  1  0  0  0
 76 83  2  0  0  0
 77145  1  0  0  0
 77146  1  0  0  0
 77147  1  0  0  0
 78148  1  0  0  0
 78149  1  0  0  0
 79 80  1  0  0  0
 79150  1  0  0  0
 79151  1  0  0  0
 80152  1  0  0  0
 80153  1  0  0  0
 81154  1  0  0  0
M  ISO  4   1 100  68 101  78 100  80 101
M  END
> <chiral flag>
0

> <version>
0

> <s_m_source_file>
/data/baiqing/PycharmProjects/Reinvent-master-3.2/result/LINK_invent/BTK/process_docking_weight1_custom_product_contain_oxygen_bond_distance_aromatic_linkinvent_7_9_3/rearranged_h_0117.sdf

> <i_m_source_file_index>
71

> <r_mmod_Potential_Energy-OPLS-2005>
116.930534362793

> <r_mmod_Stretch_Energy-OPLS-2005>
105.365501403809

> <r_mmod_Bend_Energy-OPLS-2005>
200.31623840332

> <r_mmod_Torsional_Energy-OPLS-2005>
206.029083251953

> <r_mmod_Improper_Torsional_Energy-OPLS-2005>
2.39947390556335

> <r_mmod_Van_der_Waal_Energy-OPLS-2005>
138.83512878418

> <r_mmod_Electrostatic_Energy-OPLS-2005>
-371.963409423828

> <r_mmod_Solvation_Energy-OPLS-2005>
-223.551147460938

> <b_mmod_Minimization_Converged-OPLS-2005>
0

> <r_mmod_RMS_Derivative-OPLS-2005>
1.12261259555817

$$$$
71
                    3D
 Structure written by MMmdl.
166174  0  0  1  0            999 V2000
  -30.8258  -14.4380   20.6359 C   0  0  0  0  0  0
  -30.4035  -12.3131   19.4475 C   0  0  0  0  0  0
  -29.5037  -12.5404   18.2209 C   0  0  0  0  0  0
  -28.0273  -12.3802   18.6280 C   0  0  0  0  0  0
  -27.6698  -13.2185   19.8848 C   0  0  2  0  0  0
  -28.7131  -13.0468   21.0221 C   0  0  0  0  0  0
  -25.2617  -13.8150   20.5743 C   0  0  0  0  0  0
  -24.1859  -13.0420   20.9180 C   0  0  0  0  0  0
  -24.6397  -11.6897   20.8690 C   0  0  0  0  0  0
  -23.9056  -10.4306   21.0383 C   0  0  0  0  0  0
  -24.3640   -9.4217   21.9140 C   0  0  0  0  0  0
  -23.6332   -8.2238   22.0707 C   0  0  0  0  0  0
  -22.4277   -8.0287   21.3549 C   0  0  0  0  0  0
  -21.9919   -9.0252   20.4650 C   0  0  0  0  0  0
  -22.7226  -10.2139   20.3019 C   0  0  0  0  0  0
  -21.6866   -6.0741   22.5307 C   0  0  0  0  0  0
  -21.4026   -6.5649   23.8240 C   0  0  0  0  0  0
  -21.3635   -5.6803   24.9196 C   0  0  0  0  0  0
  -21.6028   -4.3074   24.7253 C   0  0  0  0  0  0
  -21.8803   -3.8163   23.4392 C   0  0  0  0  0  0
  -21.9190   -4.6969   22.3443 C   0  0  0  0  0  0
  -22.7882  -13.5227   21.1859 C   0  0  0  0  0  0
  -22.1660   -4.2156   21.1010 F   0  0  0  0  0  0
  -21.5592   -3.4546   25.7775 F   0  0  0  0  0  0
  -30.0575  -13.3168   20.4787 N   0  0  0  0  0  0
  -26.3084  -12.9365   20.3421 N   0  0  0  0  0  0
  -25.9329  -11.6489   20.5702 N   0  0  0  0  0  0
  -22.0507  -12.8224   22.0434 N   0  0  0  0  0  0
  -25.4365  -15.1874   20.4214 N   0  0  0  0  0  0
  -31.8425  -14.5880   19.9510 O   0  0  0  0  0  0
  -21.6659   -6.8879   21.4257 O   0  0  0  0  0  0
  -22.3545  -14.5520   20.6686 O   0  0  0  0  0  0
  -24.6190  -31.8683   23.2044 C   0  0  0  0  0  0
  -25.9083  -32.4808   23.8367 C   0  0  1  0  0  0
  -27.2204  -27.3878   20.1521 C   0  0  0  0  0  0
  -25.5936  -33.8587   24.2289 N   0  0  0  0  0  0
  -23.4082  -30.4923   21.5433 C   0  0  2  0  0  0
  -24.8565  -28.9562   20.1079 C   0  0  0  0  0  0
  -22.7441  -29.4676   22.4946 C   0  0  0  0  0  0
  -18.0281  -28.1402   22.8488 C   0  0  0  0  0  0
  -24.1494  -36.7277   23.2625 C   0  0  0  0  0  0
  -25.9406  -30.8288   21.3593 C   0  0  0  0  0  0
  -26.0165  -29.4583   20.7122 C   0  0  0  0  0  0
  -27.2019  -28.6823   20.7271 C   0  0  0  0  0  0
  -26.0511  -26.9224   19.5076 C   0  0  0  0  0  0
  -24.8725  -27.6924   19.4954 C   0  0  0  0  0  0
  -23.6199  -29.8257   20.1572 C   0  0  0  0  0  0
  -25.4101  -36.3083   24.0336 C   0  0  1  0  0  0
  -20.5874  -28.3692   23.1315 C   0  0  2  0  0  0
  -20.6762  -26.9413   22.5443 C   0  0  0  0  0  0
  -19.5764  -26.6422   21.5207 C   0  0  0  0  0  0
  -18.1920  -26.7979   22.1568 C   0  0  0  0  0  0
  -19.1531  -28.8859   23.2904 C   0  0  0  0  0  0
  -18.9458  -30.1458   23.8915 C   0  0  0  0  0  0
  -17.6469  -30.6604   24.0560 C   0  0  0  0  0  0
  -25.9065  -34.9454   23.5112 C   0  0  0  0  0  0
  -16.5357  -29.9110   23.6308 C   0  0  0  0  0  0
  -16.7281  -28.6517   23.0349 C   0  0  0  0  0  0
  -26.4471  -31.6591   25.0715 C   0  0  0  0  0  0
  -25.3742  -31.3825   26.1508 C   0  0  0  0  0  0
  -27.0205  -30.2991   24.6109 C   0  0  0  0  0  0
  -27.6078  -32.4297   25.7448 C   0  0  0  0  0  0
  -27.5605  -37.1759   24.8404 C   0  0  0  0  0  0
  -21.4161  -29.3066   22.3699 N   0  0  0  0  0  0
  -26.4257  -37.3798   23.9470 N   0  0  0  0  0  0
  -24.6736  -31.0808   22.0906 N   0  0  0  0  0  0
  -23.4216  -28.8220   23.2974 O   0  0  0  0  0  0
  -28.3413  -26.5785   20.2636 O   0  0  0  0  0  0
  -26.5616  -34.8920   22.4669 O   0  0  0  0  0  0
  -23.5375  -32.1408   23.7424 O   0  0  0  0  0  0
  -31.1675  -20.2016   24.0046 C   0  0  0  0  0  0
  -30.1079  -18.8778   22.2690 C   0  0  0  0  0  0
  -32.1039  -19.1636   24.2414 C   0  0  0  0  0  0
  -31.0186  -17.8161   22.4872 C   0  0  0  0  0  0
  -32.0538  -17.9826   23.4503 C   0  0  0  0  0  0
  -30.1847  -20.0930   22.9882 C   0  0  0  0  0  0
  -33.6747  -20.5180   25.6855 C   0  0  0  0  0  0
  -33.1920  -19.3469   25.2314 C   0  0  0  0  0  0
  -31.0659  -16.6722   21.5490 C   0  0  0  0  0  0
  -33.1852  -17.0253   23.4610 C   0  0  0  0  0  0
  -30.4793  -15.4476   21.6442 C   0  0  0  0  0  0
  -33.3545  -15.9880   24.3024 C   0  0  0  0  0  0
  -29.0429  -24.5441   21.5602 C   0  0  0  0  0  0
  -34.5434  -15.0478   24.2200 C   0  0  0  0  0  0
  -28.4907  -23.4581   22.5255 C   0  0  0  0  0  0
  -28.0648  -25.1745   20.5337 C   0  0  0  0  0  0
  -29.5042  -22.4437   23.1465 C   0  0  0  0  0  0
  -30.2181  -24.9207   21.6285 O   0  0  0  0  0  0
  -29.3109  -21.1127   22.6285 O   0  0  0  0  0  0
  -31.4580  -12.3324   19.1621 H   0  0  0  0  0  0
  -30.2400  -11.3111   19.8396 H   0  0  0  0  0  0
  -29.7576  -11.8333   17.4291 H   0  0  0  0  0  0
  -29.6861  -13.5341   17.8088 H   0  0  0  0  0  0
  -27.8518  -11.3241   18.8235 H   0  0  0  0  0  0
  -27.3759  -12.6467   17.7948 H   0  0  0  0  0  0
  -27.7080  -14.2647   19.5764 H   0  0  0  0  0  0
  -28.6860  -12.0306   21.4201 H   0  0  0  0  0  0
  -28.4572  -13.6930   21.8575 H   0  0  0  0  0  0
  -25.2814   -9.5695   22.4662 H   0  0  0  0  0  0
  -24.0110   -7.4602   22.7337 H   0  0  0  0  0  0
  -21.0870   -8.8753   19.8934 H   0  0  0  0  0  0
  -22.3701  -10.9654   19.6102 H   0  0  0  0  0  0
  -21.2049   -7.6145   23.9739 H   0  0  0  0  0  0
  -21.1412   -6.0537   25.9097 H   0  0  0  0  0  0
  -22.0570   -2.7626   23.2887 H   0  0  0  0  0  0
  -22.4123  -11.9941   22.4938 H   0  0  0  0  0  0
  -21.1067  -13.1192   22.2496 H   0  0  0  0  0  0
  -24.6762  -15.8482   20.5411 H   0  0  0  0  0  0
  -26.3116  -15.6320   20.1746 H   0  0  0  0  0  0
  -26.7190  -32.5512   23.1157 H   0  0  0  0  0  0
  -25.0076  -33.9741   25.0445 H   0  0  0  0  0  0
  -22.6936  -31.3060   21.4017 H   0  0  0  0  0  0
  -23.3812  -35.9547   23.3137 H   0  0  0  0  0  0
  -24.3640  -36.9040   22.2071 H   0  0  0  0  0  0
  -23.7155  -37.6402   23.6730 H   0  0  0  0  0  0
  -26.0607  -31.5915   20.5882 H   0  0  0  0  0  0
  -26.8277  -30.8829   21.9793 H   0  0  0  0  0  0
  -28.0864  -29.0547   21.2249 H   0  0  0  0  0  0
  -26.0301  -25.9479   19.0396 H   0  0  0  0  0  0
  -23.9817  -27.3038   19.0207 H   0  0  0  0  0  0
  -23.7213  -30.5972   19.3923 H   0  0  0  0  0  0
  -22.7467  -29.2409   19.8656 H   0  0  0  0  0  0
  -25.1253  -36.1891   25.0821 H   0  0  0  0  0  0
  -20.9977  -28.3291   24.1438 H   0  0  0  0  0  0
  -20.5638  -26.2303   23.3644 H   0  0  0  0  0  0
  -21.6644  -26.7450   22.1270 H   0  0  0  0  0  0
  -19.6925  -25.6340   21.1230 H   0  0  0  0  0  0
  -19.6746  -27.3206   20.6705 H   0  0  0  0  0  0
  -17.4240  -26.6815   21.3903 H   0  0  0  0  0  0
  -18.0239  -26.0087   22.8918 H   0  0  0  0  0  0
  -19.7937  -30.7244   24.2344 H   0  0  0  0  0  0
  -17.5029  -31.6269   24.5190 H   0  0  0  0  0  0
  -15.5355  -30.3019   23.7618 H   0  0  0  0  0  0
  -15.8681  -28.0820   22.7090 H   0  0  0  0  0  0
  -24.5874  -30.7164   25.7952 H   0  0  0  0  0  0
  -24.8974  -32.3030   26.4879 H   0  0  0  0  0  0
  -25.8117  -30.9100   27.0312 H   0  0  0  0  0  0
  -26.2696  -29.6854   24.1113 H   0  0  0  0  0  0
  -27.3853  -29.7147   25.4570 H   0  0  0  0  0  0
  -27.8612  -30.4224   23.9279 H   0  0  0  0  0  0
  -27.2758  -33.3679   26.1897 H   0  0  0  0  0  0
  -28.3935  -32.6714   25.0286 H   0  0  0  0  0  0
  -28.0667  -31.8484   26.5456 H   0  0  0  0  0  0
  -28.2489  -38.0186   24.7644 H   0  0  0  0  0  0
  -28.1225  -36.2732   24.5910 H   0  0  0  0  0  0
  -27.2403  -37.1061   25.8819 H   0  0  0  0  0  0
  -20.9337  -29.8778   21.6901 H   0  0  0  0  0  0
  -26.0099  -38.2842   24.1613 H   0  0  0  0  0  0
  -31.2288  -21.0994   24.5977 H   0  0  0  0  0  0
  -29.3704  -18.7856   21.4837 H   0  0  0  0  0  0
  -34.4712  -20.5348   26.4191 H   0  0  0  0  0  0
  -33.3031  -21.4714   25.3420 H   0  0  0  0  0  0
  -33.6257  -18.4430   25.6388 H   0  0  0  0  0  0
  -31.7096  -16.8723   20.7016 H   0  0  0  0  0  0
  -33.9405  -17.1963   22.7047 H   0  0  0  0  0  0
  -29.8233  -15.2310   22.4734 H   0  0  0  0  0  0
  -32.6174  -15.7748   25.0667 H   0  0  0  0  0  0
  -35.4373  -15.5673   23.8637 H   0  0  0  0  0  0
  -34.3252  -14.2320   23.5294 H   0  0  0  0  0  0
  -34.7710  -14.6146   25.1949 H   0  0  0  0  0  0
  -27.6752  -22.9143   22.0498 H   0  0  0  0  0  0
  -28.0218  -24.0035   23.3462 H   0  0  0  0  0  0
  -27.0577  -25.0276   20.9260 H   0  0  0  0  0  0
  -28.1280  -24.6120   19.6010 H   0  0  0  0  0  0
  -29.3572  -22.4272   24.2280 H   0  0  0  0  0  0
  -30.5337  -22.7610   22.9790 H   0  0  0  0  0  0
  1 25  1  0  0  0
  1 30  2  0  0  0
  1 81  1  0  0  0
  2  3  1  0  0  0
  2 25  1  0  0  0
  2 90  1  0  0  0
  2 91  1  0  0  0
  3  4  1  0  0  0
  3 92  1  0  0  0
  3 93  1  0  0  0
  4  5  1  0  0  0
  4 94  1  0  0  0
  4 95  1  0  0  0
  5  6  1  0  0  0
  5 26  1  0  0  0
  5 96  1  0  0  0
  6 25  1  0  0  0
  6 97  1  0  0  0
  6 98  1  0  0  0
  7  8  2  0  0  0
  7 26  1  0  0  0
  7 29  1  0  0  0
  8  9  1  0  0  0
  8 22  1  0  0  0
  9 10  1  0  0  0
  9 27  2  0  0  0
 10 11  2  0  0  0
 10 15  1  0  0  0
 11 12  1  0  0  0
 11 99  1  0  0  0
 12 13  2  0  0  0
 12100  1  0  0  0
 13 14  1  0  0  0
 13 31  1  0  0  0
 14 15  2  0  0  0
 14101  1  0  0  0
 15102  1  0  0  0
 16 17  2  0  0  0
 16 21  1  0  0  0
 16 31  1  0  0  0
 17 18  1  0  0  0
 17103  1  0  0  0
 18 19  2  0  0  0
 18104  1  0  0  0
 19 20  1  0  0  0
 19 24  1  0  0  0
 20 21  2  0  0  0
 20105  1  0  0  0
 21 23  1  0  0  0
 22 28  1  0  0  0
 22 32  2  0  0  0
 26 27  1  0  0  0
 28106  1  0  0  0
 28107  1  0  0  0
 29108  1  0  0  0
 29109  1  0  0  0
 33 34  1  0  0  0
 33 66  1  0  0  0
 33 70  2  0  0  0
 34 36  1  0  0  0
 34 59  1  0  0  0
 34110  1  0  0  0
 35 44  2  0  0  0
 35 45  1  0  0  0
 35 68  1  0  0  0
 36 56  1  0  0  0
 36111  1  0  0  0
 37 39  1  0  0  0
 37 47  1  0  0  0
 37 66  1  0  0  0
 37112  1  0  0  0
 38 43  2  0  0  0
 38 46  1  0  0  0
 38 47  1  0  0  0
 39 64  1  0  0  0
 39 67  2  0  0  0
 40 52  1  0  0  0
 40 53  2  0  0  0
 40 58  1  0  0  0
 41113  1  0  0  0
 41114  1  0  0  0
 41115  1  0  0  0
 41 48  1  0  0  0
 42 43  1  0  0  0
 42 66  1  0  0  0
 42116  1  0  0  0
 42117  1  0  0  0
 43 44  1  0  0  0
 44118  1  0  0  0
 45 46  2  0  0  0
 45119  1  0  0  0
 46120  1  0  0  0
 47121  1  0  0  0
 47122  1  0  0  0
 48 56  1  0  0  0
 48 65  1  0  0  0
 48123  1  0  0  0
 49 50  1  0  0  0
 49 53  1  0  0  0
 49 64  1  0  0  0
 49124  1  0  0  0
 50 51  1  0  0  0
 50125  1  0  0  0
 50126  1  0  0  0
 51 52  1  0  0  0
 51127  1  0  0  0
 51128  1  0  0  0
 52129  1  0  0  0
 52130  1  0  0  0
 53 54  1  0  0  0
 54 55  2  0  0  0
 54131  1  0  0  0
 55 57  1  0  0  0
 55132  1  0  0  0
 56 69  2  0  0  0
 57 58  2  0  0  0
 57133  1  0  0  0
 58134  1  0  0  0
 59 60  1  0  0  0
 59 61  1  0  0  0
 59 62  1  0  0  0
 60135  1  0  0  0
 60136  1  0  0  0
 60137  1  0  0  0
 61138  1  0  0  0
 61139  1  0  0  0
 61140  1  0  0  0
 62141  1  0  0  0
 62142  1  0  0  0
 62143  1  0  0  0
 63 65  1  0  0  0
 63144  1  0  0  0
 63145  1  0  0  0
 63146  1  0  0  0
 64147  1  0  0  0
 65148  1  0  0  0
 68 86  1  0  0  0
 71 73  2  0  0  0
 71 76  1  0  0  0
 71149  1  0  0  0
 72 74  1  0  0  0
 72 76  2  0  0  0
 72150  1  0  0  0
 73 75  1  0  0  0
 73 78  1  0  0  0
 74 75  2  0  0  0
 74 79  1  0  0  0
 75 80  1  0  0  0
 76 89  1  0  0  0
 77 78  2  0  0  0
 77151  1  0  0  0
 77152  1  0  0  0
 78153  1  0  0  0
 79 81  2  0  0  0
 79154  1  0  0  0
 80 82  2  0  0  0
 80155  1  0  0  0
 81156  1  0  0  0
 82 84  1  0  0  0
 82157  1  0  0  0
 83 85  1  0  0  0
 83 86  1  0  0  0
 83 88  2  0  0  0
 84158  1  0  0  0
 84159  1  0  0  0
 84160  1  0  0  0
 85 87  1  0  0  0
 85161  1  0  0  0
 85162  1  0  0  0
 86163  1  0  0  0
 86164  1  0  0  0
 87 89  1  0  0  0
 87165  1  0  0  0
 87166  1  0  0  0
M  ISO  4   1 100  68 101  81 100  86 101
M  END
> <chiral flag>
0

> <version>
0

> <s_m_source_file>
/data/baiqing/PycharmProjects/Reinvent-master-3.2/result/LINK_invent/BTK/process_docking_weight1_custom_product_contain_oxygen_bond_distance_aromatic_linkinvent_7_9_3/rearranged_h_0117.sdf

> <i_m_source_file_index>
72

> <r_mmod_Potential_Energy-OPLS-2005>
87.8055648803711

> <r_mmod_Stretch_Energy-OPLS-2005>
51.023307800293

> <r_mmod_Bend_Energy-OPLS-2005>
121.789222717285

> <r_mmod_Torsional_Energy-OPLS-2005>
262.357452392578

> <r_mmod_Improper_Torsional_Energy-OPLS-2005>
5.4526538848877

> <r_mmod_Van_der_Waal_Energy-OPLS-2005>
162.909439086914

> <r_mmod_Electrostatic_Energy-OPLS-2005>
-329.631500244141

> <r_mmod_Solvation_Energy-OPLS-2005>
-211.2509765625

> <b_mmod_Minimization_Converged-OPLS-2005>
0

> <r_mmod_RMS_Derivative-OPLS-2005>
5.78822374343872

$$$$
72
                    3D
 Structure written by MMmdl.
154162  0  0  1  0            999 V2000
  -30.6287  -14.7566   20.3907 C   0  0  0  0  0  0
  -30.4353  -12.4504   19.4604 C   0  0  0  0  0  0
  -29.5016  -12.4699   18.2300 C   0  0  0  0  0  0
  -28.0344  -12.2628   18.6573 C   0  0  0  0  0  0
  -27.6226  -13.1846   19.8313 C   0  0  2  0  0  0
  -28.6832  -13.2075   20.9549 C   0  0  0  0  0  0
  -25.2531  -13.8053   20.5740 C   0  0  0  0  0  0
  -24.1777  -13.0375   20.9250 C   0  0  0  0  0  0
  -24.6312  -11.6833   20.8811 C   0  0  0  0  0  0
  -23.8986  -10.4251   21.0458 C   0  0  0  0  0  0
  -24.3561   -9.4169   21.9220 C   0  0  0  0  0  0
  -23.6252   -8.2201   22.0767 C   0  0  0  0  0  0
  -22.4236   -8.0254   21.3548 C   0  0  0  0  0  0
  -21.9865   -9.0226   20.4651 C   0  0  0  0  0  0
  -22.7181  -10.2109   20.3078 C   0  0  0  0  0  0
  -21.6834   -6.0723   22.5284 C   0  0  0  0  0  0
  -21.4003   -6.5637   23.8215 C   0  0  0  0  0  0
  -21.3655   -5.6794   24.9180 C   0  0  0  0  0  0
  -21.6043   -4.3055   24.7231 C   0  0  0  0  0  0
  -21.8821   -3.8141   23.4355 C   0  0  0  0  0  0
  -21.9186   -4.6953   22.3410 C   0  0  0  0  0  0
  -22.7815  -13.5214   21.1886 C   0  0  0  0  0  0
  -22.1656   -4.2140   21.0986 F   0  0  0  0  0  0
  -21.5628   -3.4541   25.7747 F   0  0  0  0  0  0
  -29.9882  -13.5338   20.3595 N   0  0  0  0  0  0
  -26.2856  -12.9121   20.3297 N   0  0  0  0  0  0
  -25.9216  -11.6331   20.5819 N   0  0  0  0  0  0
  -22.0436  -12.8227   22.0439 N   0  0  0  0  0  0
  -25.4349  -15.1767   20.4145 N   0  0  0  0  0  0
  -31.8553  -14.8183   20.2750 O   0  0  0  0  0  0
  -21.6606   -6.8853   21.4239 O   0  0  0  0  0  0
  -22.3532  -14.5526   20.6719 O   0  0  0  0  0  0
  -24.6280  -31.8570   23.2005 C   0  0  0  0  0  0
  -25.9123  -32.4763   23.8342 C   0  0  1  0  0  0
  -27.2291  -27.3025   20.1304 C   0  0  0  0  0  0
  -25.5927  -33.8563   24.2265 N   0  0  0  0  0  0
  -23.4235  -30.4791   21.5424 C   0  0  2  0  0  0
  -24.8732  -28.9269   20.1141 C   0  0  0  0  0  0
  -22.7477  -29.4614   22.4922 C   0  0  0  0  0  0
  -18.0284  -28.1391   22.8487 C   0  0  0  0  0  0
  -24.1483  -36.7285   23.2642 C   0  0  0  0  0  0
  -25.9653  -30.7840   21.3731 C   0  0  0  0  0  0
  -26.0424  -29.4082   20.7183 C   0  0  0  0  0  0
  -27.2266  -28.6095   20.7121 C   0  0  0  0  0  0
  -26.0406  -26.8748   19.5017 C   0  0  0  0  0  0
  -24.8749  -27.6662   19.4951 C   0  0  0  0  0  0
  -23.6408  -29.8088   20.1599 C   0  0  0  0  0  0
  -25.4109  -36.3070   24.0329 C   0  0  1  0  0  0
  -20.5883  -28.3700   23.1275 C   0  0  2  0  0  0
  -20.6766  -26.9419   22.5416 C   0  0  0  0  0  0
  -19.5749  -26.6389   21.5212 C   0  0  0  0  0  0
  -18.1925  -26.7936   22.1616 C   0  0  0  0  0  0
  -19.1537  -28.8860   23.2878 C   0  0  0  0  0  0
  -18.9460  -30.1458   23.8902 C   0  0  0  0  0  0
  -17.6460  -30.6593   24.0565 C   0  0  0  0  0  0
  -25.9052  -34.9440   23.5098 C   0  0  0  0  0  0
  -16.5351  -29.9091   23.6333 C   0  0  0  0  0  0
  -16.7270  -28.6506   23.0360 C   0  0  0  0  0  0
  -26.4506  -31.6583   25.0723 C   0  0  0  0  0  0
  -25.3738  -31.3717   26.1444 C   0  0  0  0  0  0
  -27.0365  -30.3005   24.6201 C   0  0  0  0  0  0
  -27.6057  -32.4336   25.7492 C   0  0  0  0  0  0
  -27.5581  -37.1786   24.8462 C   0  0  0  0  0  0
  -21.4187  -29.3048   22.3665 N   0  0  0  0  0  0
  -26.4281  -37.3774   23.9421 N   0  0  0  0  0  0
  -24.6910  -31.0569   22.0958 N   0  0  0  0  0  0
  -23.4187  -28.8160   23.3019 O   0  0  0  0  0  0
  -28.3330  -26.4346   20.1444 O   0  0  0  0  0  0
  -26.5624  -34.8916   22.4667 O   0  0  0  0  0  0
  -23.5438  -32.1372   23.7323 O   0  0  0  0  0  0
  -30.1798  -17.5047   22.0721 C   0  0  0  0  0  0
  -29.8406  -19.9389   22.1612 C   0  0  0  0  0  0
  -29.9379  -17.4619   20.6824 C   0  0  0  0  0  0
  -29.6967  -18.7607   20.0396 C   0  0  0  0  0  0
  -29.6155  -20.0132   20.7683 C   0  0  0  0  0  0
  -30.1357  -18.7140   22.7927 C   0  0  0  0  0  0
  -29.7788  -16.0648   20.0104 C   0  0  0  0  0  0
  -28.8723  -23.8405   20.0813 C   0  0  0  0  0  0
  -29.5102  -18.8583   18.5289 C   0  0  0  0  0  0
  -28.1113  -25.0790   20.7264 C   0  0  0  0  0  0
  -28.9982  -22.4784   20.9001 C   0  0  0  0  0  0
  -28.9638  -16.0016   19.0468 N   0  0  0  0  0  0
  -29.3661  -23.9349   18.9516 O   0  0  0  0  0  0
  -29.3360  -21.2547   20.1279 O   0  0  0  0  0  0
  -30.3561  -18.6949   24.1289 F   0  0  0  0  0  0
  -31.4723  -12.5811   19.1458 H   0  0  0  0  0  0
  -30.3889  -11.4875   19.9709 H   0  0  0  0  0  0
  -29.7958  -11.6948   17.5214 H   0  0  0  0  0  0
  -29.6005  -13.4209   17.7040 H   0  0  0  0  0  0
  -27.9220  -11.2200   18.9558 H   0  0  0  0  0  0
  -27.3661  -12.4094   17.8081 H   0  0  0  0  0  0
  -27.5399  -14.1603   19.3836 H   0  0  0  0  0  0
  -28.7314  -12.2436   21.4629 H   0  0  0  0  0  0
  -28.4164  -13.9453   21.7136 H   0  0  0  0  0  0
  -25.2705   -9.5649   22.4792 H   0  0  0  0  0  0
  -23.9969   -7.4588   22.7478 H   0  0  0  0  0  0
  -21.0802   -8.8740   19.8949 H   0  0  0  0  0  0
  -22.3651  -10.9655   19.6188 H   0  0  0  0  0  0
  -21.1997   -7.6144   23.9712 H   0  0  0  0  0  0
  -21.1476   -6.0528   25.9082 H   0  0  0  0  0  0
  -22.0606   -2.7604   23.2863 H   0  0  0  0  0  0
  -22.4028  -11.9877   22.4821 H   0  0  0  0  0  0
  -21.1067  -13.1285   22.2653 H   0  0  0  0  0  0
  -24.6809  -15.8467   20.5174 H   0  0  0  0  0  0
  -26.2979  -15.5921   20.0831 H   0  0  0  0  0  0
  -26.7190  -32.5432   23.1091 H   0  0  0  0  0  0
  -25.0064  -33.9700   25.0405 H   0  0  0  0  0  0
  -22.7187  -31.3000   21.3953 H   0  0  0  0  0  0
  -23.3754  -35.9606   23.3273 H   0  0  0  0  0  0
  -24.3578  -36.8946   22.2065 H   0  0  0  0  0  0
  -23.7218  -37.6467   23.6694 H   0  0  0  0  0  0
  -26.0970  -31.5446   20.6024 H   0  0  0  0  0  0
  -26.8452  -30.8356   22.0029 H   0  0  0  0  0  0
  -28.1258  -28.9759   21.1878 H   0  0  0  0  0  0
  -26.0067  -25.9089   19.0173 H   0  0  0  0  0  0
  -23.9800  -27.2922   19.0169 H   0  0  0  0  0  0
  -23.7604  -30.5821   19.4003 H   0  0  0  0  0  0
  -22.7606  -29.2374   19.8598 H   0  0  0  0  0  0
  -25.1285  -36.1912   25.0817 H   0  0  0  0  0  0
  -20.9978  -28.3287   24.1395 H   0  0  0  0  0  0
  -20.5659  -26.2312   23.3621 H   0  0  0  0  0  0
  -21.6639  -26.7440   22.1220 H   0  0  0  0  0  0
  -19.6909  -25.6300   21.1245 H   0  0  0  0  0  0
  -19.6690  -27.3192   20.6738 H   0  0  0  0  0  0
  -17.4200  -26.6699   21.4010 H   0  0  0  0  0  0
  -18.0309  -26.0074   22.9002 H   0  0  0  0  0  0
  -19.7935  -30.7269   24.2280 H   0  0  0  0  0  0
  -17.5017  -31.6273   24.5172 H   0  0  0  0  0  0
  -15.5353  -30.2997   23.7659 H   0  0  0  0  0  0
  -15.8665  -28.0826   22.7083 H   0  0  0  0  0  0
  -24.5940  -30.7030   25.7782 H   0  0  0  0  0  0
  -24.8892  -32.2872   26.4845 H   0  0  0  0  0  0
  -25.8068  -30.8930   27.0236 H   0  0  0  0  0  0
  -26.2946  -29.6731   24.1247 H   0  0  0  0  0  0
  -27.4073  -29.7291   25.4724 H   0  0  0  0  0  0
  -27.8807  -30.4287   23.9424 H   0  0  0  0  0  0
  -27.2671  -33.3654   26.2034 H   0  0  0  0  0  0
  -28.3881  -32.6867   25.0328 H   0  0  0  0  0  0
  -28.0709  -31.8486   26.5439 H   0  0  0  0  0  0
  -28.2570  -38.0112   24.7547 H   0  0  0  0  0  0
  -28.1101  -36.2642   24.6231 H   0  0  0  0  0  0
  -27.2306  -37.1373   25.8866 H   0  0  0  0  0  0
  -20.9369  -29.8767   21.6870 H   0  0  0  0  0  0
  -26.0154  -38.2836   24.1461 H   0  0  0  0  0  0
  -30.3584  -16.5919   22.6215 H   0  0  0  0  0  0
  -29.8049  -20.8209   22.7813 H   0  0  0  0  0  0
  -30.1752  -18.1727   18.0027 H   0  0  0  0  0  0
  -29.7414  -19.8548   18.1531 H   0  0  0  0  0  0
  -28.4798  -18.6346   18.2524 H   0  0  0  0  0  0
  -28.3981  -25.1260   21.7770 H   0  0  0  0  0  0
  -27.0496  -24.8342   20.7256 H   0  0  0  0  0  0
  -28.0598  -22.3101   21.4287 H   0  0  0  0  0  0
  -29.7635  -22.6466   21.6569 H   0  0  0  0  0  0
  -28.5282  -16.9022   18.8942 H   0  0  0  0  0  0
  1 25  1  0  0  0
  1 30  2  0  0  0
  1 77  1  0  0  0
  2  3  1  0  0  0
  2 25  1  0  0  0
  2 86  1  0  0  0
  2 87  1  0  0  0
  3  4  1  0  0  0
  3 88  1  0  0  0
  3 89  1  0  0  0
  4  5  1  0  0  0
  4 90  1  0  0  0
  4 91  1  0  0  0
  5  6  1  0  0  0
  5 26  1  0  0  0
  5 92  1  0  0  0
  6 25  1  0  0  0
  6 93  1  0  0  0
  6 94  1  0  0  0
  7  8  2  0  0  0
  7 26  1  0  0  0
  7 29  1  0  0  0
  8  9  1  0  0  0
  8 22  1  0  0  0
  9 10  1  0  0  0
  9 27  2  0  0  0
 10 11  2  0  0  0
 10 15  1  0  0  0
 11 12  1  0  0  0
 11 95  1  0  0  0
 12 13  2  0  0  0
 12 96  1  0  0  0
 13 14  1  0  0  0
 13 31  1  0  0  0
 14 15  2  0  0  0
 14 97  1  0  0  0
 15 98  1  0  0  0
 16 17  2  0  0  0
 16 21  1  0  0  0
 16 31  1  0  0  0
 17 18  1  0  0  0
 17 99  1  0  0  0
 18 19  2  0  0  0
 18100  1  0  0  0
 19 20  1  0  0  0
 19 24  1  0  0  0
 20 21  2  0  0  0
 20101  1  0  0  0
 21 23  1  0  0  0
 22 28  1  0  0  0
 22 32  2  0  0  0
 26 27  1  0  0  0
 28102  1  0  0  0
 28103  1  0  0  0
 29104  1  0  0  0
 29105  1  0  0  0
 33 34  1  0  0  0
 33 66  1  0  0  0
 33 70  2  0  0  0
 34 36  1  0  0  0
 34 59  1  0  0  0
 34106  1  0  0  0
 35 44  2  0  0  0
 35 45  1  0  0  0
 35 68  1  0  0  0
 36 56  1  0  0  0
 36107  1  0  0  0
 37 39  1  0  0  0
 37 47  1  0  0  0
 37 66  1  0  0  0
 37108  1  0  0  0
 38 43  2  0  0  0
 38 46  1  0  0  0
 38 47  1  0  0  0
 39 64  1  0  0  0
 39 67  2  0  0  0
 40 52  1  0  0  0
 40 53  2  0  0  0
 40 58  1  0  0  0
 41109  1  0  0  0
 41110  1  0  0  0
 41111  1  0  0  0
 41 48  1  0  0  0
 42 43  1  0  0  0
 42 66  1  0  0  0
 42112  1  0  0  0
 42113  1  0  0  0
 43 44  1  0  0  0
 44114  1  0  0  0
 45 46  2  0  0  0
 45115  1  0  0  0
 46116  1  0  0  0
 47117  1  0  0  0
 47118  1  0  0  0
 48 56  1  0  0  0
 48 65  1  0  0  0
 48119  1  0  0  0
 49 50  1  0  0  0
 49 53  1  0  0  0
 49 64  1  0  0  0
 49120  1  0  0  0
 50 51  1  0  0  0
 50121  1  0  0  0
 50122  1  0  0  0
 51 52  1  0  0  0
 51123  1  0  0  0
 51124  1  0  0  0
 52125  1  0  0  0
 52126  1  0  0  0
 53 54  1  0  0  0
 54 55  2  0  0  0
 54127  1  0  0  0
 55 57  1  0  0  0
 55128  1  0  0  0
 56 69  2  0  0  0
 57 58  2  0  0  0
 57129  1  0  0  0
 58130  1  0  0  0
 59 60  1  0  0  0
 59 61  1  0  0  0
 59 62  1  0  0  0
 60131  1  0  0  0
 60132  1  0  0  0
 60133  1  0  0  0
 61134  1  0  0  0
 61135  1  0  0  0
 61136  1  0  0  0
 62137  1  0  0  0
 62138  1  0  0  0
 62139  1  0  0  0
 63 65  1  0  0  0
 63140  1  0  0  0
 63141  1  0  0  0
 63142  1  0  0  0
 64143  1  0  0  0
 65144  1  0  0  0
 68 80  1  0  0  0
 71 73  2  0  0  0
 71 76  1  0  0  0
 71145  1  0  0  0
 72 75  1  0  0  0
 72 76  2  0  0  0
 72146  1  0  0  0
 73 74  1  0  0  0
 73 77  1  0  0  0
 74 75  2  0  0  0
 74 79  1  0  0  0
 75 84  1  0  0  0
 76 85  1  0  0  0
 77 82  2  0  0  0
 78 80  1  0  0  0
 78 81  1  0  0  0
 78 83  2  0  0  0
 79147  1  0  0  0
 79148  1  0  0  0
 79149  1  0  0  0
 80150  1  0  0  0
 80151  1  0  0  0
 81 84  1  0  0  0
 81152  1  0  0  0
 81153  1  0  0  0
 82154  1  0  0  0
M  ISO  4   1 100  68 101  77 100  80 101
M  END
> <chiral flag>
0

> <version>
0

> <s_m_source_file>
/data/baiqing/PycharmProjects/Reinvent-master-3.2/result/LINK_invent/BTK/process_docking_weight1_custom_product_contain_oxygen_bond_distance_aromatic_linkinvent_7_9_3/rearranged_h_0117.sdf

> <i_m_source_file_index>
73

> <r_mmod_Potential_Energy-OPLS-2005>
333.721984863281

> <r_mmod_Stretch_Energy-OPLS-2005>
118.899154663086

> <r_mmod_Bend_Energy-OPLS-2005>
153.86262512207

> <r_mmod_Torsional_Energy-OPLS-2005>
249.061065673828

> <r_mmod_Improper_Torsional_Energy-OPLS-2005>
15.8780536651611

> <r_mmod_Van_der_Waal_Energy-OPLS-2005>
150.876647949219

> <r_mmod_Electrostatic_Energy-OPLS-2005>
-218.637313842773

> <r_mmod_Solvation_Energy-OPLS-2005>
-224.0009765625

> <b_mmod_Minimization_Converged-OPLS-2005>
0

> <r_mmod_RMS_Derivative-OPLS-2005>
0.839317917823792

$$$$
73
                    3D
 Structure written by MMmdl.
152160  0  0  1  0            999 V2000
  -30.6014  -14.8179   20.4665 C   0  0  0  0  0  0
  -30.4331  -12.5082   19.4769 C   0  0  0  0  0  0
  -29.5101  -12.5153   18.2392 C   0  0  0  0  0  0
  -28.0396  -12.3241   18.6577 C   0  0  0  0  0  0
  -27.6342  -13.2387   19.8444 C   0  0  2  0  0  0
  -28.6811  -13.2140   20.9782 C   0  0  0  0  0  0
  -25.2475  -13.8202   20.5706 C   0  0  0  0  0  0
  -24.1779  -13.0437   20.9221 C   0  0  0  0  0  0
  -24.6383  -11.6920   20.8750 C   0  0  0  0  0  0
  -23.9065  -10.4291   21.0405 C   0  0  0  0  0  0
  -24.3617   -9.4204   21.9183 C   0  0  0  0  0  0
  -23.6290   -8.2239   22.0751 C   0  0  0  0  0  0
  -22.4272   -8.0275   21.3542 C   0  0  0  0  0  0
  -21.9904   -9.0250   20.4648 C   0  0  0  0  0  0
  -22.7231  -10.2133   20.3058 C   0  0  0  0  0  0
  -21.6853   -6.0726   22.5272 C   0  0  0  0  0  0
  -21.4018   -6.5636   23.8204 C   0  0  0  0  0  0
  -21.3665   -5.6792   24.9168 C   0  0  0  0  0  0
  -21.6044   -4.3053   24.7220 C   0  0  0  0  0  0
  -21.8819   -3.8142   23.4343 C   0  0  0  0  0  0
  -21.9192   -4.6954   22.3397 C   0  0  0  0  0  0
  -22.7797  -13.5211   21.1875 C   0  0  0  0  0  0
  -22.1659   -4.2143   21.0973 F   0  0  0  0  0  0
  -21.5631   -3.4540   25.7733 F   0  0  0  0  0  0
  -29.9675  -13.5908   20.3808 N   0  0  0  0  0  0
  -26.2902  -12.9424   20.3267 N   0  0  0  0  0  0
  -25.9317  -11.6563   20.5753 N   0  0  0  0  0  0
  -22.0451  -12.8205   22.0442 N   0  0  0  0  0  0
  -25.4129  -15.1932   20.4119 N   0  0  0  0  0  0
  -31.8044  -14.8717   20.1921 O   0  0  0  0  0  0
  -21.6640   -6.8870   21.4234 O   0  0  0  0  0  0
  -22.3471  -14.5504   20.6699 O   0  0  0  0  0  0
  -24.6371  -31.8490   23.1950 C   0  0  0  0  0  0
  -25.9170  -32.4722   23.8314 C   0  0  1  0  0  0
  -27.2167  -27.2070   20.1480 C   0  0  0  0  0  0
  -25.5949  -33.8527   24.2233 N   0  0  0  0  0  0
  -23.4378  -30.4712   21.5380 C   0  0  2  0  0  0
  -24.8883  -28.9120   20.1092 C   0  0  0  0  0  0
  -22.7543  -29.4565   22.4885 C   0  0  0  0  0  0
  -18.0294  -28.1380   22.8481 C   0  0  0  0  0  0
  -24.1504  -36.7279   23.2638 C   0  0  0  0  0  0
  -25.9886  -30.7463   21.3846 C   0  0  0  0  0  0
  -26.0618  -29.3637   20.7289 C   0  0  0  0  0  0
  -27.2300  -28.5244   20.7381 C   0  0  0  0  0  0
  -26.0250  -26.8435   19.4838 C   0  0  0  0  0  0
  -24.8785  -27.6622   19.4722 C   0  0  0  0  0  0
  -23.6613  -29.8052   20.1546 C   0  0  0  0  0  0
  -25.4128  -36.3049   24.0317 C   0  0  1  0  0  0
  -20.5900  -28.3697   23.1256 C   0  0  2  0  0  0
  -20.6788  -26.9399   22.5420 C   0  0  0  0  0  0
  -19.5766  -26.6366   21.5218 C   0  0  0  0  0  0
  -18.1942  -26.7920   22.1623 C   0  0  0  0  0  0
  -19.1548  -28.8856   23.2862 C   0  0  0  0  0  0
  -18.9466  -30.1458   23.8877 C   0  0  0  0  0  0
  -17.6462  -30.6584   24.0555 C   0  0  0  0  0  0
  -25.9068  -34.9420   23.5079 C   0  0  0  0  0  0
  -16.5353  -29.9079   23.6323 C   0  0  0  0  0  0
  -16.7276  -28.6494   23.0350 C   0  0  0  0  0  0
  -26.4507  -31.6566   25.0730 C   0  0  0  0  0  0
  -25.3716  -31.3739   26.1446 C   0  0  0  0  0  0
  -27.0343  -30.2959   24.6278 C   0  0  0  0  0  0
  -27.6061  -32.4314   25.7492 C   0  0  0  0  0  0
  -27.5583  -37.1798   24.8459 C   0  0  0  0  0  0
  -21.4238  -29.3037   22.3636 N   0  0  0  0  0  0
  -26.4299  -37.3752   23.9394 N   0  0  0  0  0  0
  -24.7071  -31.0422   22.0941 N   0  0  0  0  0  0
  -23.4217  -28.8100   23.3002 O   0  0  0  0  0  0
  -28.2639  -26.2393   20.1901 O   0  0  0  0  0  0
  -26.5644  -34.8902   22.4653 O   0  0  0  0  0  0
  -23.5509  -32.1320   23.7217 O   0  0  0  0  0  0
  -28.4746  -23.6223   20.3418 C   0  0  0  0  0  0
  -31.4220  -17.5495   21.6995 C   0  0  0  0  0  0
  -29.5420  -18.6817   20.6178 C   0  0  0  0  0  0
  -31.8779  -18.7922   22.1727 C   0  0  0  0  0  0
  -30.2525  -17.4149   20.9198 C   0  0  0  0  0  0
  -30.0017  -20.0029   21.0846 C   0  0  0  0  0  0
  -31.1808  -19.9821   21.8738 C   0  0  0  0  0  0
  -28.7288  -22.2837   20.2008 C   0  0  0  0  0  0
  -27.9434  -24.8680   20.5218 C   0  0  0  0  0  0
  -33.1280  -18.8302   23.0396 C   0  0  0  0  0  0
  -29.4838  -21.3797   21.0364 N   0  0  0  0  0  0
  -29.8439  -15.9987   20.5960 N   0  0  0  0  0  0
  -31.6570  -21.1638   22.3844 O   0  0  0  0  0  0
  -31.4710  -12.6425   19.1678 H   0  0  0  0  0  0
  -30.3962  -11.5423   19.9832 H   0  0  0  0  0  0
  -29.8049  -11.7327   17.5392 H   0  0  0  0  0  0
  -29.6203  -13.4612   17.7069 H   0  0  0  0  0  0
  -27.9119  -11.2778   18.9378 H   0  0  0  0  0  0
  -27.3775  -12.4922   17.8075 H   0  0  0  0  0  0
  -27.6137  -14.2521   19.4436 H   0  0  0  0  0  0
  -28.7399  -12.2244   21.4340 H   0  0  0  0  0  0
  -28.4059  -13.9065   21.7758 H   0  0  0  0  0  0
  -25.2761   -9.5678   22.4761 H   0  0  0  0  0  0
  -23.9996   -7.4628   22.7472 H   0  0  0  0  0  0
  -21.0828   -8.8764   19.8959 H   0  0  0  0  0  0
  -22.3674  -10.9670   19.6172 H   0  0  0  0  0  0
  -21.2015   -7.6148   23.9700 H   0  0  0  0  0  0
  -21.1491   -6.0528   25.9069 H   0  0  0  0  0  0
  -22.0597   -2.7604   23.2841 H   0  0  0  0  0  0
  -22.4084  -11.9887   22.4854 H   0  0  0  0  0  0
  -21.1063  -13.1214   22.2648 H   0  0  0  0  0  0
  -24.6413  -15.8417   20.5263 H   0  0  0  0  0  0
  -26.2489  -15.6362   20.0539 H   0  0  0  0  0  0
  -26.7243  -32.5343   23.1056 H   0  0  0  0  0  0
  -25.0077  -33.9648   25.0368 H   0  0  0  0  0  0
  -22.7365  -31.2949   21.3896 H   0  0  0  0  0  0
  -23.3752  -35.9627   23.3293 H   0  0  0  0  0  0
  -24.3600  -36.8917   22.2057 H   0  0  0  0  0  0
  -23.7287  -37.6488   23.6671 H   0  0  0  0  0  0
  -26.1407  -31.5048   20.6154 H   0  0  0  0  0  0
  -26.8608  -30.7939   22.0245 H   0  0  0  0  0  0
  -28.1258  -28.8624   21.2397 H   0  0  0  0  0  0
  -25.9646  -25.8819   18.9928 H   0  0  0  0  0  0
  -23.9840  -27.3128   18.9744 H   0  0  0  0  0  0
  -23.7908  -30.5812   19.3991 H   0  0  0  0  0  0
  -22.7788  -29.2415   19.8474 H   0  0  0  0  0  0
  -25.1327  -36.1886   25.0814 H   0  0  0  0  0  0
  -20.9997  -28.3286   24.1375 H   0  0  0  0  0  0
  -20.5683  -26.2300   23.3631 H   0  0  0  0  0  0
  -21.6656  -26.7422   22.1216 H   0  0  0  0  0  0
  -19.6918  -25.6270   21.1257 H   0  0  0  0  0  0
  -19.6705  -27.3179   20.6745 H   0  0  0  0  0  0
  -17.4215  -26.6648   21.4025 H   0  0  0  0  0  0
  -18.0338  -26.0074   22.9028 H   0  0  0  0  0  0
  -19.7939  -30.7283   24.2242 H   0  0  0  0  0  0
  -17.5009  -31.6261   24.5163 H   0  0  0  0  0  0
  -15.5348  -30.2977   23.7656 H   0  0  0  0  0  0
  -15.8674  -28.0813   22.7071 H   0  0  0  0  0  0
  -24.5913  -30.7061   25.7778 H   0  0  0  0  0  0
  -24.8876  -32.2910   26.4821 H   0  0  0  0  0  0
  -25.8026  -30.8957   27.0255 H   0  0  0  0  0  0
  -26.2937  -29.6705   24.1281 H   0  0  0  0  0  0
  -27.3947  -29.7239   25.4839 H   0  0  0  0  0  0
  -27.8858  -30.4169   23.9577 H   0  0  0  0  0  0
  -27.2675  -33.3619   26.2052 H   0  0  0  0  0  0
  -28.3870  -32.6873   25.0320 H   0  0  0  0  0  0
  -28.0732  -31.8457   26.5418 H   0  0  0  0  0  0
  -28.2612  -38.0083   24.7506 H   0  0  0  0  0  0
  -28.1075  -36.2625   24.6297 H   0  0  0  0  0  0
  -27.2301  -37.1474   25.8861 H   0  0  0  0  0  0
  -20.9420  -29.8751   21.6834 H   0  0  0  0  0  0
  -26.0168  -38.2826   24.1382 H   0  0  0  0  0  0
  -31.9797  -16.6715   21.9901 H   0  0  0  0  0  0
  -28.6203  -18.6358   20.0568 H   0  0  0  0  0  0
  -28.3199  -21.7642   19.3439 H   0  0  0  0  0  0
  -27.0161  -24.8920   21.0793 H   0  0  0  0  0  0
  -33.4257  -17.8323   23.3635 H   0  0  0  0  0  0
  -32.9610  -19.4208   23.9410 H   0  0  0  0  0  0
  -33.9617  -19.2638   22.4867 H   0  0  0  0  0  0
  -30.0570  -21.8718   21.7247 H   0  0  0  0  0  0
  -28.8485  -15.8498   20.5273 H   0  0  0  0  0  0
  -32.4616  -21.0419   22.8758 H   0  0  0  0  0  0
  1 25  1  0  0  0
  1 30  2  0  0  0
  1 82  1  0  0  0
  2  3  1  0  0  0
  2 25  1  0  0  0
  2 84  1  0  0  0
  2 85  1  0  0  0
  3  4  1  0  0  0
  3 86  1  0  0  0
  3 87  1  0  0  0
  4  5  1  0  0  0
  4 88  1  0  0  0
  4 89  1  0  0  0
  5  6  1  0  0  0
  5 26  1  0  0  0
  5 90  1  0  0  0
  6 25  1  0  0  0
  6 91  1  0  0  0
  6 92  1  0  0  0
  7  8  2  0  0  0
  7 26  1  0  0  0
  7 29  1  0  0  0
  8  9  1  0  0  0
  8 22  1  0  0  0
  9 10  1  0  0  0
  9 27  2  0  0  0
 10 11  2  0  0  0
 10 15  1  0  0  0
 11 12  1  0  0  0
 11 93  1  0  0  0
 12 13  2  0  0  0
 12 94  1  0  0  0
 13 14  1  0  0  0
 13 31  1  0  0  0
 14 15  2  0  0  0
 14 95  1  0  0  0
 15 96  1  0  0  0
 16 17  2  0  0  0
 16 21  1  0  0  0
 16 31  1  0  0  0
 17 18  1  0  0  0
 17 97  1  0  0  0
 18 19  2  0  0  0
 18 98  1  0  0  0
 19 20  1  0  0  0
 19 24  1  0  0  0
 20 21  2  0  0  0
 20 99  1  0  0  0
 21 23  1  0  0  0
 22 28  1  0  0  0
 22 32  2  0  0  0
 26 27  1  0  0  0
 28100  1  0  0  0
 28101  1  0  0  0
 29102  1  0  0  0
 29103  1  0  0  0
 33 34  1  0  0  0
 33 66  1  0  0  0
 33 70  2  0  0  0
 34 36  1  0  0  0
 34 59  1  0  0  0
 34104  1  0  0  0
 35 44  2  0  0  0
 35 45  1  0  0  0
 35 68  1  0  0  0
 36 56  1  0  0  0
 36105  1  0  0  0
 37 39  1  0  0  0
 37 47  1  0  0  0
 37 66  1  0  0  0
 37106  1  0  0  0
 38 43  2  0  0  0
 38 46  1  0  0  0
 38 47  1  0  0  0
 39 64  1  0  0  0
 39 67  2  0  0  0
 40 52  1  0  0  0
 40 53  2  0  0  0
 40 58  1  0  0  0
 41107  1  0  0  0
 41108  1  0  0  0
 41109  1  0  0  0
 41 48  1  0  0  0
 42 43  1  0  0  0
 42 66  1  0  0  0
 42110  1  0  0  0
 42111  1  0  0  0
 43 44  1  0  0  0
 44112  1  0  0  0
 45 46  2  0  0  0
 45113  1  0  0  0
 46114  1  0  0  0
 47115  1  0  0  0
 47116  1  0  0  0
 48 56  1  0  0  0
 48 65  1  0  0  0
 48117  1  0  0  0
 49 50  1  0  0  0
 49 53  1  0  0  0
 49 64  1  0  0  0
 49118  1  0  0  0
 50 51  1  0  0  0
 50119  1  0  0  0
 50120  1  0  0  0
 51 52  1  0  0  0
 51121  1  0  0  0
 51122  1  0  0  0
 52123  1  0  0  0
 52124  1  0  0  0
 53 54  1  0  0  0
 54 55  2  0  0  0
 54125  1  0  0  0
 55 57  1  0  0  0
 55126  1  0  0  0
 56 69  2  0  0  0
 57 58  2  0  0  0
 57127  1  0  0  0
 58128  1  0  0  0
 59 60  1  0  0  0
 59 61  1  0  0  0
 59 62  1  0  0  0
 60129  1  0  0  0
 60130  1  0  0  0
 60131  1  0  0  0
 61132  1  0  0  0
 61133  1  0  0  0
 61134  1  0  0  0
 62135  1  0  0  0
 62136  1  0  0  0
 62137  1  0  0  0
 63 65  1  0  0  0
 63138  1  0  0  0
 63139  1  0  0  0
 63140  1  0  0  0
 64141  1  0  0  0
 65142  1  0  0  0
 68 79  1  0  0  0
 71 78  2  0  0  0
 71 79  2  0  0  0
 72 74  2  0  0  0
 72 75  1  0  0  0
 72143  1  0  0  0
 73 75  2  0  0  0
 73 76  1  0  0  0
 73144  1  0  0  0
 74 77  1  0  0  0
 74 80  1  0  0  0
 75 82  1  0  0  0
 76 77  2  0  0  0
 76 81  1  0  0  0
 77 83  1  0  0  0
 78 81  1  0  0  0
 78145  1  0  0  0
 79146  1  0  0  0
 80147  1  0  0  0
 80148  1  0  0  0
 80149  1  0  0  0
 81150  1  0  0  0
 82151  1  0  0  0
 83152  1  0  0  0
M  ISO  4   1 100  68 101  79 101  82 100
M  END
> <chiral flag>
0

> <version>
0

> <s_m_source_file>
/data/baiqing/PycharmProjects/Reinvent-master-3.2/result/LINK_invent/BTK/process_docking_weight1_custom_product_contain_oxygen_bond_distance_aromatic_linkinvent_7_9_3/rearranged_h_0117.sdf

> <i_m_source_file_index>
74

> <r_mmod_Potential_Energy-OPLS-2005>
188.245391845703

> <r_mmod_Stretch_Energy-OPLS-2005>
155.46923828125

> <r_mmod_Bend_Energy-OPLS-2005>
229.825958251953

> <r_mmod_Torsional_Energy-OPLS-2005>
150.236663818359

> <r_mmod_Improper_Torsional_Energy-OPLS-2005>
7.6037015914917

> <r_mmod_Van_der_Waal_Energy-OPLS-2005>
149.529281616211

> <r_mmod_Electrostatic_Energy-OPLS-2005>
-407.418548583984

> <r_mmod_Solvation_Energy-OPLS-2005>
-222.496490478516

> <b_mmod_Minimization_Converged-OPLS-2005>
0

> <r_mmod_RMS_Derivative-OPLS-2005>
1.6794171333313

$$$$
74
                    3D
 Structure written by MMmdl.
151159  0  0  1  0            999 V2000
  -30.5650  -15.0374   20.4013 C   0  0  0  0  0  0
  -30.4237  -12.6517   19.5018 C   0  0  0  0  0  0
  -29.5193  -12.5533   18.2539 C   0  0  0  0  0  0
  -28.0527  -12.3354   18.6681 C   0  0  0  0  0  0
  -27.6192  -13.2703   19.8286 C   0  0  2  0  0  0
  -28.6633  -13.3581   20.9621 C   0  0  0  0  0  0
  -25.2402  -13.8251   20.5726 C   0  0  0  0  0  0
  -24.1755  -13.0446   20.9250 C   0  0  0  0  0  0
  -24.6408  -11.6938   20.8756 C   0  0  0  0  0  0
  -23.9109  -10.4297   21.0394 C   0  0  0  0  0  0
  -24.3657   -9.4205   21.9168 C   0  0  0  0  0  0
  -23.6322   -8.2242   22.0746 C   0  0  0  0  0  0
  -22.4298   -8.0284   21.3535 C   0  0  0  0  0  0
  -21.9937   -9.0265   20.4638 C   0  0  0  0  0  0
  -22.7278  -10.2139   20.3044 C   0  0  0  0  0  0
  -21.6857   -6.0737   22.5276 C   0  0  0  0  0  0
  -21.4017   -6.5640   23.8210 C   0  0  0  0  0  0
  -21.3665   -5.6793   24.9172 C   0  0  0  0  0  0
  -21.6045   -4.3058   24.7218 C   0  0  0  0  0  0
  -21.8821   -3.8144   23.4344 C   0  0  0  0  0  0
  -21.9194   -4.6962   22.3396 C   0  0  0  0  0  0
  -22.7768  -13.5194   21.1898 C   0  0  0  0  0  0
  -22.1660   -4.2148   21.0977 F   0  0  0  0  0  0
  -21.5637   -3.4539   25.7732 F   0  0  0  0  0  0
  -29.9243  -13.7882   20.3428 N   0  0  0  0  0  0
  -26.2846  -12.9530   20.3225 N   0  0  0  0  0  0
  -25.9342  -11.6637   20.5711 N   0  0  0  0  0  0
  -22.0421  -12.8175   22.0452 N   0  0  0  0  0  0
  -25.3999  -15.1991   20.4147 N   0  0  0  0  0  0
  -31.7796  -14.9804   20.1731 O   0  0  0  0  0  0
  -21.6656   -6.8886   21.4236 O   0  0  0  0  0  0
  -22.3443  -14.5487   20.6733 O   0  0  0  0  0  0
  -24.6500  -31.8371   23.1818 C   0  0  0  0  0  0
  -25.9237  -32.4671   23.8228 C   0  0  1  0  0  0
  -27.2164  -27.0730   20.1664 C   0  0  0  0  0  0
  -25.5960  -33.8479   24.2140 N   0  0  0  0  0  0
  -23.4568  -30.4542   21.5278 C   0  0  2  0  0  0
  -24.9082  -28.8672   20.1159 C   0  0  0  0  0  0
  -22.7602  -29.4504   22.4820 C   0  0  0  0  0  0
  -18.0299  -28.1404   22.8475 C   0  0  0  0  0  0
  -24.1491  -36.7257   23.2643 C   0  0  0  0  0  0
  -26.0173  -30.6970   21.3829 C   0  0  0  0  0  0
  -26.0901  -29.2974   20.7343 C   0  0  0  0  0  0
  -27.2480  -28.4186   20.7368 C   0  0  0  0  0  0
  -26.0093  -26.7650   19.5047 C   0  0  0  0  0  0
  -24.8841  -27.6156   19.4847 C   0  0  0  0  0  0
  -23.6885  -29.7772   20.1511 C   0  0  0  0  0  0
  -25.4121  -36.3010   24.0308 C   0  0  1  0  0  0
  -20.5922  -28.3727   23.1230 C   0  0  2  0  0  0
  -20.6767  -26.9418   22.5417 C   0  0  0  0  0  0
  -19.5747  -26.6375   21.5214 C   0  0  0  0  0  0
  -18.1929  -26.7939   22.1624 C   0  0  0  0  0  0
  -19.1563  -28.8881   23.2847 C   0  0  0  0  0  0
  -18.9476  -30.1466   23.8888 C   0  0  0  0  0  0
  -17.6474  -30.6591   24.0567 C   0  0  0  0  0  0
  -25.9077  -34.9398   23.5029 C   0  0  0  0  0  0
  -16.5362  -29.9096   23.6329 C   0  0  0  0  0  0
  -16.7285  -28.6516   23.0347 C   0  0  0  0  0  0
  -26.4530  -31.6558   25.0689 C   0  0  0  0  0  0
  -25.3705  -31.3779   26.1376 C   0  0  0  0  0  0
  -27.0372  -30.2945   24.6281 C   0  0  0  0  0  0
  -27.6048  -32.4319   25.7497 C   0  0  0  0  0  0
  -27.5564  -37.1782   24.8455 C   0  0  0  0  0  0
  -21.4283  -29.3058   22.3608 N   0  0  0  0  0  0
  -26.4270  -37.3737   23.9409 N   0  0  0  0  0  0
  -24.7289  -31.0187   22.0865 N   0  0  0  0  0  0
  -23.4226  -28.8038   23.2974 O   0  0  0  0  0  0
  -28.2435  -26.0393   20.1854 O   0  0  0  0  0  0
  -26.5670  -34.8909   22.4610 O   0  0  0  0  0  0
  -23.5603  -32.1247   23.7010 O   0  0  0  0  0  0
  -30.4156  -17.7244   20.6505 C   0  0  0  0  0  0
  -30.9641  -19.7723   21.4301 C   0  0  0  0  0  0
  -28.5996  -21.7808   20.5500 C   0  0  0  0  0  0
  -28.6074  -23.1100   20.0040 C   0  0  0  0  0  0
  -33.3956  -19.3003   21.5493 C   0  0  0  0  0  0
  -29.0444  -20.2313   20.0433 C   0  0  0  0  0  0
  -27.9091  -24.5330   20.5472 C   0  0  0  0  0  0
  -31.7006  -17.7410   20.8154 N   0  0  0  0  0  0
  -29.9188  -19.1651   20.8531 N   0  0  0  0  0  0
  -32.0019  -18.9597   21.2784 N   0  0  0  0  0  0
  -29.8708  -16.3122   20.5099 N   0  0  0  0  0  0
  -31.0359  -20.9207   21.8800 O   0  0  0  0  0  0
  -31.4606  -12.7859   19.1908 H   0  0  0  0  0  0
  -30.4033  -11.7160   20.0629 H   0  0  0  0  0  0
  -29.8537  -11.7427   17.6051 H   0  0  0  0  0  0
  -29.6041  -13.4699   17.6676 H   0  0  0  0  0  0
  -27.9477  -11.2935   18.9702 H   0  0  0  0  0  0
  -27.3940  -12.4710   17.8084 H   0  0  0  0  0  0
  -27.5613  -14.2650   19.3849 H   0  0  0  0  0  0
  -28.7740  -12.4004   21.4737 H   0  0  0  0  0  0
  -28.3495  -14.0827   21.7151 H   0  0  0  0  0  0
  -25.2802   -9.5683   22.4741 H   0  0  0  0  0  0
  -24.0027   -7.4637   22.7471 H   0  0  0  0  0  0
  -21.0855   -8.8798   19.8959 H   0  0  0  0  0  0
  -22.3728  -10.9684   19.6165 H   0  0  0  0  0  0
  -21.2005   -7.6148   23.9716 H   0  0  0  0  0  0
  -21.1488   -6.0519   25.9082 H   0  0  0  0  0  0
  -22.0592   -2.7602   23.2843 H   0  0  0  0  0  0
  -22.4067  -11.9867   22.4874 H   0  0  0  0  0  0
  -21.1017  -13.1153   22.2616 H   0  0  0  0  0  0
  -24.6227  -15.8414   20.5298 H   0  0  0  0  0  0
  -26.2265  -15.6433   20.0387 H   0  0  0  0  0  0
  -26.7318  -32.5266   23.0968 H   0  0  0  0  0  0
  -25.0063  -33.9584   25.0256 H   0  0  0  0  0  0
  -22.7620  -31.2804   21.3644 H   0  0  0  0  0  0
  -23.3742  -35.9596   23.3278 H   0  0  0  0  0  0
  -24.3583  -36.8923   22.2065 H   0  0  0  0  0  0
  -23.7267  -37.6457   23.6697 H   0  0  0  0  0  0
  -26.1624  -31.4412   20.5982 H   0  0  0  0  0  0
  -26.8951  -30.7671   22.0144 H   0  0  0  0  0  0
  -28.1505  -28.7485   21.2321 H   0  0  0  0  0  0
  -25.9091  -25.8154   19.0011 H   0  0  0  0  0  0
  -23.9885  -27.2758   18.9845 H   0  0  0  0  0  0
  -23.8376  -30.5468   19.3936 H   0  0  0  0  0  0
  -22.8019  -29.2252   19.8347 H   0  0  0  0  0  0
  -25.1314  -36.1810   25.0802 H   0  0  0  0  0  0
  -21.0019  -28.3312   24.1348 H   0  0  0  0  0  0
  -20.5611  -26.2344   23.3645 H   0  0  0  0  0  0
  -21.6633  -26.7379   22.1240 H   0  0  0  0  0  0
  -19.6903  -25.6277   21.1256 H   0  0  0  0  0  0
  -19.6688  -27.3175   20.6739 H   0  0  0  0  0  0
  -17.4192  -26.6683   21.4036 H   0  0  0  0  0  0
  -18.0326  -26.0091   22.9029 H   0  0  0  0  0  0
  -19.7955  -30.7277   24.2264 H   0  0  0  0  0  0
  -17.5032  -31.6271   24.5168 H   0  0  0  0  0  0
  -15.5364  -30.3004   23.7651 H   0  0  0  0  0  0
  -15.8681  -28.0840   22.7058 H   0  0  0  0  0  0
  -24.5919  -30.7068   25.7733 H   0  0  0  0  0  0
  -24.8846  -32.2969   26.4670 H   0  0  0  0  0  0
  -25.7998  -30.9077   27.0231 H   0  0  0  0  0  0
  -26.2976  -29.6684   24.1278 H   0  0  0  0  0  0
  -27.3958  -29.7240   25.4859 H   0  0  0  0  0  0
  -27.8901  -30.4167   23.9601 H   0  0  0  0  0  0
  -27.2639  -33.3656   26.1979 H   0  0  0  0  0  0
  -28.3937  -32.6812   25.0390 H   0  0  0  0  0  0
  -28.0612  -31.8486   26.5502 H   0  0  0  0  0  0
  -28.2555  -38.0101   24.7492 H   0  0  0  0  0  0
  -28.1077  -36.2626   24.6266 H   0  0  0  0  0  0
  -27.2283  -37.1422   25.8858 H   0  0  0  0  0  0
  -20.9465  -29.8865   21.6888 H   0  0  0  0  0  0
  -26.0112  -38.2787   24.1440 H   0  0  0  0  0  0
  -28.1185  -21.7324   21.5171 H   0  0  0  0  0  0
  -29.0770  -23.2169   19.0359 H   0  0  0  0  0  0
  -33.7385  -20.0638   20.8488 H   0  0  0  0  0  0
  -34.0501  -18.4329   21.4595 H   0  0  0  0  0  0
  -33.5058  -19.7048   22.5567 H   0  0  0  0  0  0
  -29.5123  -20.3431   19.0645 H   0  0  0  0  0  0
  -28.1039  -19.7190   19.8414 H   0  0  0  0  0  0
  -27.9527  -24.4726   21.6339 H   0  0  0  0  0  0
  -26.8531  -24.3818   20.3314 H   0  0  0  0  0  0
  -28.8700  -16.2198   20.5669 H   0  0  0  0  0  0
  1 25  1  0  0  0
  1 30  2  0  0  0
  1 81  1  0  0  0
  2  3  1  0  0  0
  2 25  1  0  0  0
  2 83  1  0  0  0
  2 84  1  0  0  0
  3  4  1  0  0  0
  3 85  1  0  0  0
  3 86  1  0  0  0
  4  5  1  0  0  0
  4 87  1  0  0  0
  4 88  1  0  0  0
  5  6  1  0  0  0
  5 26  1  0  0  0
  5 89  1  0  0  0
  6 25  1  0  0  0
  6 90  1  0  0  0
  6 91  1  0  0  0
  7  8  2  0  0  0
  7 26  1  0  0  0
  7 29  1  0  0  0
  8  9  1  0  0  0
  8 22  1  0  0  0
  9 10  1  0  0  0
  9 27  2  0  0  0
 10 11  2  0  0  0
 10 15  1  0  0  0
 11 12  1  0  0  0
 11 92  1  0  0  0
 12 13  2  0  0  0
 12 93  1  0  0  0
 13 14  1  0  0  0
 13 31  1  0  0  0
 14 15  2  0  0  0
 14 94  1  0  0  0
 15 95  1  0  0  0
 16 17  2  0  0  0
 16 21  1  0  0  0
 16 31  1  0  0  0
 17 18  1  0  0  0
 17 96  1  0  0  0
 18 19  2  0  0  0
 18 97  1  0  0  0
 19 20  1  0  0  0
 19 24  1  0  0  0
 20 21  2  0  0  0
 20 98  1  0  0  0
 21 23  1  0  0  0
 22 28  1  0  0  0
 22 32  2  0  0  0
 26 27  1  0  0  0
 28 99  1  0  0  0
 28100  1  0  0  0
 29101  1  0  0  0
 29102  1  0  0  0
 33 34  1  0  0  0
 33 66  1  0  0  0
 33 70  2  0  0  0
 34 36  1  0  0  0
 34 59  1  0  0  0
 34103  1  0  0  0
 35 44  2  0  0  0
 35 45  1  0  0  0
 35 68  1  0  0  0
 36 56  1  0  0  0
 36104  1  0  0  0
 37 39  1  0  0  0
 37 47  1  0  0  0
 37 66  1  0  0  0
 37105  1  0  0  0
 38 43  2  0  0  0
 38 46  1  0  0  0
 38 47  1  0  0  0
 39 64  1  0  0  0
 39 67  2  0  0  0
 40 52  1  0  0  0
 40 53  2  0  0  0
 40 58  1  0  0  0
 41106  1  0  0  0
 41107  1  0  0  0
 41108  1  0  0  0
 41 48  1  0  0  0
 42 43  1  0  0  0
 42 66  1  0  0  0
 42109  1  0  0  0
 42110  1  0  0  0
 43 44  1  0  0  0
 44111  1  0  0  0
 45 46  2  0  0  0
 45112  1  0  0  0
 46113  1  0  0  0
 47114  1  0  0  0
 47115  1  0  0  0
 48 56  1  0  0  0
 48 65  1  0  0  0
 48116  1  0  0  0
 49 50  1  0  0  0
 49 53  1  0  0  0
 49 64  1  0  0  0
 49117  1  0  0  0
 50 51  1  0  0  0
 50118  1  0  0  0
 50119  1  0  0  0
 51 52  1  0  0  0
 51120  1  0  0  0
 51121  1  0  0  0
 52122  1  0  0  0
 52123  1  0  0  0
 53 54  1  0  0  0
 54 55  2  0  0  0
 54124  1  0  0  0
 55 57  1  0  0  0
 55125  1  0  0  0
 56 69  2  0  0  0
 57 58  2  0  0  0
 57126  1  0  0  0
 58127  1  0  0  0
 59 60  1  0  0  0
 59 61  1  0  0  0
 59 62  1  0  0  0
 60128  1  0  0  0
 60129  1  0  0  0
 60130  1  0  0  0
 61131  1  0  0  0
 61132  1  0  0  0
 61133  1  0  0  0
 62134  1  0  0  0
 62135  1  0  0  0
 62136  1  0  0  0
 63 65  1  0  0  0
 63137  1  0  0  0
 63138  1  0  0  0
 63139  1  0  0  0
 64140  1  0  0  0
 65141  1  0  0  0
 68 77  1  0  0  0
 71 78  2  0  0  0
 71 79  1  0  0  0
 71 81  1  0  0  0
 72 79  1  0  0  0
 72 80  1  0  0  0
 72 82  2  0  0  0
 73 74  2  0  0  0
 73 76  1  0  0  0
 73142  1  0  0  0
 74 77  1  0  0  0
 74143  1  0  0  0
 75 80  1  0  0  0
 75144  1  0  0  0
 75145  1  0  0  0
 75146  1  0  0  0
 76 79  1  0  0  0
 76147  1  0  0  0
 76148  1  0  0  0
 77149  1  0  0  0
 77150  1  0  0  0
 78 80  1  0  0  0
 81151  1  0  0  0
M  ISO  4   1 100  68 101  77 101  81 100
M  END
> <chiral flag>
0

> <version>
0

> <s_m_source_file>
/data/baiqing/PycharmProjects/Reinvent-master-3.2/result/LINK_invent/BTK/process_docking_weight1_custom_product_contain_oxygen_bond_distance_aromatic_linkinvent_7_9_3/rearranged_h_0117.sdf

> <i_m_source_file_index>
75

> <r_mmod_Potential_Energy-OPLS-2005>
801.959045410156

> <r_mmod_Stretch_Energy-OPLS-2005>
353.728332519531

> <r_mmod_Bend_Energy-OPLS-2005>
390.777130126953

> <r_mmod_Torsional_Energy-OPLS-2005>
287.233703613281

> <r_mmod_Improper_Torsional_Energy-OPLS-2005>
13.6770467758179

> <r_mmod_Van_der_Waal_Energy-OPLS-2005>
127.307769775391

> <r_mmod_Electrostatic_Energy-OPLS-2005>
-383.923950195312

> <r_mmod_Solvation_Energy-OPLS-2005>
-239.954666137695

> <b_mmod_Minimization_Converged-OPLS-2005>
0

> <r_mmod_RMS_Derivative-OPLS-2005>
2.11961913108826

$$$$
75
                    3D
 Structure written by MMmdl.
149157  0  0  1  0            999 V2000
  -30.6069  -14.6578   20.4978 C   0  0  0  0  0  0
  -30.4417  -12.4022   19.4568 C   0  0  0  0  0  0
  -29.5102  -12.5084   18.2278 C   0  0  0  0  0  0
  -28.0330  -12.3430   18.6385 C   0  0  0  0  0  0
  -27.6535  -13.2154   19.8643 C   0  0  2  0  0  0
  -28.6973  -13.0721   20.9951 C   0  0  0  0  0  0
  -25.2564  -13.8168   20.5682 C   0  0  0  0  0  0
  -24.1830  -13.0437   20.9192 C   0  0  0  0  0  0
  -24.6395  -11.6907   20.8741 C   0  0  0  0  0  0
  -23.9062  -10.4292   21.0407 C   0  0  0  0  0  0
  -24.3615   -9.4207   21.9185 C   0  0  0  0  0  0
  -23.6290   -8.2242   22.0754 C   0  0  0  0  0  0
  -22.4273   -8.0280   21.3543 C   0  0  0  0  0  0
  -21.9907   -9.0255   20.4647 C   0  0  0  0  0  0
  -22.7234  -10.2135   20.3057 C   0  0  0  0  0  0
  -21.6852   -6.0735   22.5278 C   0  0  0  0  0  0
  -21.4014   -6.5640   23.8211 C   0  0  0  0  0  0
  -21.3659   -5.6793   24.9174 C   0  0  0  0  0  0
  -21.6044   -4.3056   24.7225 C   0  0  0  0  0  0
  -21.8819   -3.8146   23.4347 C   0  0  0  0  0  0
  -21.9193   -4.6962   22.3402 C   0  0  0  0  0  0
  -22.7854  -13.5233   21.1855 C   0  0  0  0  0  0
  -22.1661   -4.2147   21.0981 F   0  0  0  0  0  0
  -21.5628   -3.4541   25.7739 F   0  0  0  0  0  0
  -30.0119  -13.4231   20.4343 N   0  0  0  0  0  0
  -26.2989  -12.9344   20.3317 N   0  0  0  0  0  0
  -25.9323  -11.6501   20.5758 N   0  0  0  0  0  0
  -22.0495  -12.8227   22.0413 N   0  0  0  0  0  0
  -25.4283  -15.1889   20.4085 N   0  0  0  0  0  0
  -31.7669  -14.8263   20.1090 O   0  0  0  0  0  0
  -21.6637   -6.8877   21.4240 O   0  0  0  0  0  0
  -22.3540  -14.5540   20.6702 O   0  0  0  0  0  0
  -24.6256  -31.8594   23.2021 C   0  0  0  0  0  0
  -25.9103  -32.4778   23.8352 C   0  0  1  0  0  0
  -27.2268  -27.3182   20.1238 C   0  0  0  0  0  0
  -25.5918  -33.8579   24.2277 N   0  0  0  0  0  0
  -23.4203  -30.4815   21.5443 C   0  0  2  0  0  0
  -24.8689  -28.9336   20.1128 C   0  0  0  0  0  0
  -22.7474  -29.4617   22.4937 C   0  0  0  0  0  0
  -18.0286  -28.1382   22.8487 C   0  0  0  0  0  0
  -24.1489  -36.7296   23.2639 C   0  0  0  0  0  0
  -25.9607  -30.7888   21.3748 C   0  0  0  0  0  0
  -26.0361  -29.4142   20.7212 C   0  0  0  0  0  0
  -27.2188  -28.6163   20.7202 C   0  0  0  0  0  0
  -26.0414  -26.8914   19.4862 C   0  0  0  0  0  0
  -24.8724  -27.6766   19.4872 C   0  0  0  0  0  0
  -23.6364  -29.8141   20.1603 C   0  0  0  0  0  0
  -25.4113  -36.3084   24.0329 C   0  0  1  0  0  0
  -20.5885  -28.3686   23.1283 C   0  0  2  0  0  0
  -20.6774  -26.9409   22.5410 C   0  0  0  0  0  0
  -19.5750  -26.6382   21.5212 C   0  0  0  0  0  0
  -18.1930  -26.7924   22.1626 C   0  0  0  0  0  0
  -19.1538  -28.8851   23.2880 C   0  0  0  0  0  0
  -18.9462  -30.1453   23.8896 C   0  0  0  0  0  0
  -17.6461  -30.6585   24.0562 C   0  0  0  0  0  0
  -25.9049  -34.9452   23.5105 C   0  0  0  0  0  0
  -16.5353  -29.9083   23.6329 C   0  0  0  0  0  0
  -16.7273  -28.6501   23.0352 C   0  0  0  0  0  0
  -26.4491  -31.6589   25.0722 C   0  0  0  0  0  0
  -25.3726  -31.3722   26.1448 C   0  0  0  0  0  0
  -27.0342  -30.3017   24.6174 C   0  0  0  0  0  0
  -27.6044  -32.4331   25.7495 C   0  0  0  0  0  0
  -27.5581  -37.1800   24.8463 C   0  0  0  0  0  0
  -21.4187  -29.3039   22.3678 N   0  0  0  0  0  0
  -26.4292  -37.3778   23.9410 N   0  0  0  0  0  0
  -24.6874  -31.0601   22.0974 N   0  0  0  0  0  0
  -23.4195  -28.8160   23.3021 O   0  0  0  0  0  0
  -28.3378  -26.4622   20.1382 O   0  0  0  0  0  0
  -26.5620  -34.8920   22.4673 O   0  0  0  0  0  0
  -23.5418  -32.1393   23.7347 O   0  0  0  0  0  0
  -28.6783  -19.3646   20.9597 C   0  0  0  0  0  0
  -28.7312  -17.9445   21.1192 C   0  0  0  0  0  0
  -30.8960  -17.8859   20.0902 C   0  0  0  0  0  0
  -29.7337  -20.0971   20.3559 C   0  0  0  0  0  0
  -29.8358  -17.1551   20.6891 C   0  0  0  0  0  0
  -30.8440  -19.3059   19.9305 C   0  0  0  0  0  0
  -29.7408  -21.6153   20.1446 C   0  0  0  0  0  0
  -28.8346  -22.6071   20.4376 C   0  0  0  0  0  0
  -29.0226  -24.0666   20.1455 C   0  0  0  0  0  0
  -28.1465  -25.0895   20.4166 C   0  0  0  0  0  0
  -29.7868  -15.6957   20.8705 N   0  0  0  0  0  0
  -31.9008  -19.9192   19.3435 F   0  0  0  0  0  0
  -31.4819  -12.5343   19.1543 H   0  0  0  0  0  0
  -30.3842  -11.4069   19.9002 H   0  0  0  0  0  0
  -29.7776  -11.7546   17.4860 H   0  0  0  0  0  0
  -29.6492  -13.4762   17.7435 H   0  0  0  0  0  0
  -27.8725  -11.2899   18.8723 H   0  0  0  0  0  0
  -27.3783  -12.5695   17.7961 H   0  0  0  0  0  0
  -27.6709  -14.2501   19.5216 H   0  0  0  0  0  0
  -28.7127  -12.0494   21.3751 H   0  0  0  0  0  0
  -28.4382  -13.6999   21.8490 H   0  0  0  0  0  0
  -25.2762   -9.5683   22.4757 H   0  0  0  0  0  0
  -24.0000   -7.4634   22.7474 H   0  0  0  0  0  0
  -21.0837   -8.8775   19.8954 H   0  0  0  0  0  0
  -22.3693  -10.9675   19.6167 H   0  0  0  0  0  0
  -21.2008   -7.6148   23.9715 H   0  0  0  0  0  0
  -21.1481   -6.0523   25.9077 H   0  0  0  0  0  0
  -22.0599   -2.7608   23.2848 H   0  0  0  0  0  0
  -22.4112  -11.9888   22.4801 H   0  0  0  0  0  0
  -21.1116  -13.1255   22.2624 H   0  0  0  0  0  0
  -24.6575  -15.8408   20.5069 H   0  0  0  0  0  0
  -26.2692  -15.6239   20.0508 H   0  0  0  0  0  0
  -26.7170  -32.5451   23.1101 H   0  0  0  0  0  0
  -25.0061  -33.9725   25.0419 H   0  0  0  0  0  0
  -22.7141  -31.3017   21.3997 H   0  0  0  0  0  0
  -23.3744  -35.9636   23.3313 H   0  0  0  0  0  0
  -24.3577  -36.8903   22.2050 H   0  0  0  0  0  0
  -23.7251  -37.6507   23.6650 H   0  0  0  0  0  0
  -26.0911  -31.5500   20.6043 H   0  0  0  0  0  0
  -26.8414  -30.8401   22.0032 H   0  0  0  0  0  0
  -28.1159  -28.9787   21.2023 H   0  0  0  0  0  0
  -26.0117  -25.9285   18.9961 H   0  0  0  0  0  0
  -23.9792  -27.3036   19.0052 H   0  0  0  0  0  0
  -23.7559  -30.5896   19.4029 H   0  0  0  0  0  0
  -22.7567  -29.2428   19.8581 H   0  0  0  0  0  0
  -25.1292  -36.1938   25.0822 H   0  0  0  0  0  0
  -20.9977  -28.3260   24.1404 H   0  0  0  0  0  0
  -20.5674  -26.2296   23.3609 H   0  0  0  0  0  0
  -21.6643  -26.7437   22.1204 H   0  0  0  0  0  0
  -19.6911  -25.6293   21.1241 H   0  0  0  0  0  0
  -19.6686  -27.3193   20.6742 H   0  0  0  0  0  0
  -17.4198  -26.6667   21.4032 H   0  0  0  0  0  0
  -18.0336  -26.0067   22.9025 H   0  0  0  0  0  0
  -19.7938  -30.7270   24.2265 H   0  0  0  0  0  0
  -17.5016  -31.6265   24.5163 H   0  0  0  0  0  0
  -15.5353  -30.2986   23.7652 H   0  0  0  0  0  0
  -15.8673  -28.0820   22.7067 H   0  0  0  0  0  0
  -24.5910  -30.7059   25.7779 H   0  0  0  0  0  0
  -24.8905  -32.2885   26.4865 H   0  0  0  0  0  0
  -25.8055  -30.8911   27.0228 H   0  0  0  0  0  0
  -26.2922  -29.6766   24.1193 H   0  0  0  0  0  0
  -27.4042  -29.7272   25.4676 H   0  0  0  0  0  0
  -27.8786  -30.4312   23.9400 H   0  0  0  0  0  0
  -27.2641  -33.3618   26.2088 H   0  0  0  0  0  0
  -28.3845  -32.6918   25.0323 H   0  0  0  0  0  0
  -28.0726  -31.8454   26.5402 H   0  0  0  0  0  0
  -28.2592  -38.0104   24.7520 H   0  0  0  0  0  0
  -28.1083  -36.2635   24.6277 H   0  0  0  0  0  0
  -27.2300  -37.1433   25.8866 H   0  0  0  0  0  0
  -20.9365  -29.8765   21.6891 H   0  0  0  0  0  0
  -26.0173  -38.2853   24.1414 H   0  0  0  0  0  0
  -27.8027  -19.8925   21.3089 H   0  0  0  0  0  0
  -27.8851  -17.4576   21.5846 H   0  0  0  0  0  0
  -31.7733  -17.3680   19.7332 H   0  0  0  0  0  0
  -30.6464  -21.9634   19.6672 H   0  0  0  0  0  0
  -27.9113  -22.3121   20.9166 H   0  0  0  0  0  0
  -29.9494  -24.3508   19.6668 H   0  0  0  0  0  0
  -27.1953  -24.9038   20.8985 H   0  0  0  0  0  0
  -28.9082  -15.3583   21.2330 H   0  0  0  0  0  0
  1 25  1  0  0  0
  1 30  2  0  0  0
  1 81  1  0  0  0
  2  3  1  0  0  0
  2 25  1  0  0  0
  2 83  1  0  0  0
  2 84  1  0  0  0
  3  4  1  0  0  0
  3 85  1  0  0  0
  3 86  1  0  0  0
  4  5  1  0  0  0
  4 87  1  0  0  0
  4 88  1  0  0  0
  5  6  1  0  0  0
  5 26  1  0  0  0
  5 89  1  0  0  0
  6 25  1  0  0  0
  6 90  1  0  0  0
  6 91  1  0  0  0
  7  8  2  0  0  0
  7 26  1  0  0  0
  7 29  1  0  0  0
  8  9  1  0  0  0
  8 22  1  0  0  0
  9 10  1  0  0  0
  9 27  2  0  0  0
 10 11  2  0  0  0
 10 15  1  0  0  0
 11 12  1  0  0  0
 11 92  1  0  0  0
 12 13  2  0  0  0
 12 93  1  0  0  0
 13 14  1  0  0  0
 13 31  1  0  0  0
 14 15  2  0  0  0
 14 94  1  0  0  0
 15 95  1  0  0  0
 16 17  2  0  0  0
 16 21  1  0  0  0
 16 31  1  0  0  0
 17 18  1  0  0  0
 17 96  1  0  0  0
 18 19  2  0  0  0
 18 97  1  0  0  0
 19 20  1  0  0  0
 19 24  1  0  0  0
 20 21  2  0  0  0
 20 98  1  0  0  0
 21 23  1  0  0  0
 22 28  1  0  0  0
 22 32  2  0  0  0
 26 27  1  0  0  0
 28 99  1  0  0  0
 28100  1  0  0  0
 29101  1  0  0  0
 29102  1  0  0  0
 33 34  1  0  0  0
 33 66  1  0  0  0
 33 70  2  0  0  0
 34 36  1  0  0  0
 34 59  1  0  0  0
 34103  1  0  0  0
 35 44  2  0  0  0
 35 45  1  0  0  0
 35 68  1  0  0  0
 36 56  1  0  0  0
 36104  1  0  0  0
 37 39  1  0  0  0
 37 47  1  0  0  0
 37 66  1  0  0  0
 37105  1  0  0  0
 38 43  2  0  0  0
 38 46  1  0  0  0
 38 47  1  0  0  0
 39 64  1  0  0  0
 39 67  2  0  0  0
 40 52  1  0  0  0
 40 53  2  0  0  0
 40 58  1  0  0  0
 41106  1  0  0  0
 41107  1  0  0  0
 41108  1  0  0  0
 41 48  1  0  0  0
 42 43  1  0  0  0
 42 66  1  0  0  0
 42109  1  0  0  0
 42110  1  0  0  0
 43 44  1  0  0  0
 44111  1  0  0  0
 45 46  2  0  0  0
 45112  1  0  0  0
 46113  1  0  0  0
 47114  1  0  0  0
 47115  1  0  0  0
 48 56  1  0  0  0
 48 65  1  0  0  0
 48116  1  0  0  0
 49 50  1  0  0  0
 49 53  1  0  0  0
 49 64  1  0  0  0
 49117  1  0  0  0
 50 51  1  0  0  0
 50118  1  0  0  0
 50119  1  0  0  0
 51 52  1  0  0  0
 51120  1  0  0  0
 51121  1  0  0  0
 52122  1  0  0  0
 52123  1  0  0  0
 53 54  1  0  0  0
 54 55  2  0  0  0
 54124  1  0  0  0
 55 57  1  0  0  0
 55125  1  0  0  0
 56 69  2  0  0  0
 57 58  2  0  0  0
 57126  1  0  0  0
 58127  1  0  0  0
 59 60  1  0  0  0
 59 61  1  0  0  0
 59 62  1  0  0  0
 60128  1  0  0  0
 60129  1  0  0  0
 60130  1  0  0  0
 61131  1  0  0  0
 61132  1  0  0  0
 61133  1  0  0  0
 62134  1  0  0  0
 62135  1  0  0  0
 62136  1  0  0  0
 63 65  1  0  0  0
 63137  1  0  0  0
 63138  1  0  0  0
 63139  1  0  0  0
 64140  1  0  0  0
 65141  1  0  0  0
 68 80  1  0  0  0
 71 72  2  0  0  0
 71 74  1  0  0  0
 71142  1  0  0  0
 72 75  1  0  0  0
 72143  1  0  0  0
 73 75  2  0  0  0
 73 76  1  0  0  0
 73144  1  0  0  0
 74 76  2  0  0  0
 74 77  1  0  0  0
 75 81  1  0  0  0
 76 82  1  0  0  0
 77 78  2  0  0  0
 77145  1  0  0  0
 78 79  1  0  0  0
 78146  1  0  0  0
 79 80  2  0  0  0
 79147  1  0  0  0
 80148  1  0  0  0
 81149  1  0  0  0
M  ISO  4   1 100  68 101  80 101  81 100
M  END
> <chiral flag>
0

> <version>
0

> <s_m_source_file>
/data/baiqing/PycharmProjects/Reinvent-master-3.2/result/LINK_invent/BTK/process_docking_weight1_custom_product_contain_oxygen_bond_distance_aromatic_linkinvent_7_9_3/rearranged_h_0117.sdf

> <i_m_source_file_index>
76

> <r_mmod_Potential_Energy-OPLS-2005>
71.8055801391602

> <r_mmod_Stretch_Energy-OPLS-2005>
78.025016784668

> <r_mmod_Bend_Energy-OPLS-2005>
130.075729370117

> <r_mmod_Torsional_Energy-OPLS-2005>
205.001129150391

> <r_mmod_Improper_Torsional_Energy-OPLS-2005>
3.82799959182739

> <r_mmod_Van_der_Waal_Energy-OPLS-2005>
142.450820922852

> <r_mmod_Electrostatic_Energy-OPLS-2005>
-339.295959472656

> <r_mmod_Solvation_Energy-OPLS-2005>
-199.775985717773

> <b_mmod_Minimization_Converged-OPLS-2005>
0

> <r_mmod_RMS_Derivative-OPLS-2005>
0.188345730304718

$$$$
76
                    3D
 Structure written by MMmdl.
155163  0  0  1  0            999 V2000
  -30.6281  -14.6551   20.5002 C   0  0  0  0  0  0
  -30.4432  -12.4023   19.4578 C   0  0  0  0  0  0
  -29.5142  -12.5058   18.2282 C   0  0  0  0  0  0
  -28.0374  -12.3419   18.6409 C   0  0  0  0  0  0
  -27.6553  -13.2195   19.8627 C   0  0  2  0  0  0
  -28.6994  -13.0850   20.9948 C   0  0  0  0  0  0
  -25.2553  -13.8166   20.5664 C   0  0  0  0  0  0
  -24.1819  -13.0436   20.9163 C   0  0  0  0  0  0
  -24.6398  -11.6910   20.8720 C   0  0  0  0  0  0
  -23.9069  -10.4294   21.0390 C   0  0  0  0  0  0
  -24.3609   -9.4209   21.9174 C   0  0  0  0  0  0
  -23.6280   -8.2249   22.0748 C   0  0  0  0  0  0
  -22.4258   -8.0286   21.3546 C   0  0  0  0  0  0
  -21.9899   -9.0265   20.4651 C   0  0  0  0  0  0
  -22.7242  -10.2141   20.3046 C   0  0  0  0  0  0
  -21.6853   -6.0724   22.5273 C   0  0  0  0  0  0
  -21.4015   -6.5617   23.8209 C   0  0  0  0  0  0
  -21.3664   -5.6776   24.9174 C   0  0  0  0  0  0
  -21.6045   -4.3041   24.7222 C   0  0  0  0  0  0
  -21.8820   -3.8132   23.4346 C   0  0  0  0  0  0
  -21.9196   -4.6954   22.3404 C   0  0  0  0  0  0
  -22.7844  -13.5241   21.1837 C   0  0  0  0  0  0
  -22.1660   -4.2135   21.0986 F   0  0  0  0  0  0
  -21.5635   -3.4529   25.7736 F   0  0  0  0  0  0
  -30.0158  -13.4284   20.4322 N   0  0  0  0  0  0
  -26.2998  -12.9364   20.3318 N   0  0  0  0  0  0
  -25.9326  -11.6510   20.5730 N   0  0  0  0  0  0
  -22.0471  -12.8254   22.0403 N   0  0  0  0  0  0
  -25.4240  -15.1883   20.4075 N   0  0  0  0  0  0
  -31.7878  -14.8082   20.1072 O   0  0  0  0  0  0
  -21.6635   -6.8870   21.4234 O   0  0  0  0  0  0
  -22.3536  -14.5552   20.6698 O   0  0  0  0  0  0
  -24.6274  -31.8586   23.2014 C   0  0  0  0  0  0
  -25.9124  -32.4764   23.8346 C   0  0  1  0  0  0
  -27.2267  -27.3174   20.1192 C   0  0  0  0  0  0
  -25.5935  -33.8563   24.2272 N   0  0  0  0  0  0
  -23.4207  -30.4826   21.5440 C   0  0  2  0  0  0
  -24.8679  -28.9389   20.1120 C   0  0  0  0  0  0
  -22.7477  -29.4625   22.4929 C   0  0  0  0  0  0
  -18.0290  -28.1373   22.8498 C   0  0  0  0  0  0
  -24.1491  -36.7281   23.2635 C   0  0  0  0  0  0
  -25.9622  -30.7917   21.3724 C   0  0  0  0  0  0
  -26.0381  -29.4199   20.7123 C   0  0  0  0  0  0
  -27.2218  -28.6227   20.7017 C   0  0  0  0  0  0
  -26.0306  -26.8891   19.4976 C   0  0  0  0  0  0
  -24.8669  -27.6793   19.4948 C   0  0  0  0  0  0
  -23.6349  -29.8160   20.1602 C   0  0  0  0  0  0
  -25.4109  -36.3064   24.0330 C   0  0  1  0  0  0
  -20.5895  -28.3673   23.1281 C   0  0  2  0  0  0
  -20.6772  -26.9393   22.5401 C   0  0  0  0  0  0
  -19.5743  -26.6379   21.5205 C   0  0  0  0  0  0
  -18.1931  -26.7922   22.1632 C   0  0  0  0  0  0
  -19.1543  -28.8846   23.2889 C   0  0  0  0  0  0
  -18.9463  -30.1456   23.8891 C   0  0  0  0  0  0
  -17.6456  -30.6579   24.0559 C   0  0  0  0  0  0
  -25.9052  -34.9436   23.5098 C   0  0  0  0  0  0
  -16.5348  -29.9066   23.6335 C   0  0  0  0  0  0
  -16.7276  -28.6485   23.0358 C   0  0  0  0  0  0
  -26.4511  -31.6579   25.0717 C   0  0  0  0  0  0
  -25.3753  -31.3736   26.1459 C   0  0  0  0  0  0
  -27.0342  -30.2993   24.6187 C   0  0  0  0  0  0
  -27.6087  -32.4304   25.7475 C   0  0  0  0  0  0
  -27.5585  -37.1776   24.8456 C   0  0  0  0  0  0
  -21.4192  -29.3029   22.3676 N   0  0  0  0  0  0
  -26.4279  -37.3765   23.9426 N   0  0  0  0  0  0
  -24.6886  -31.0610   22.0957 N   0  0  0  0  0  0
  -23.4202  -28.8163   23.3009 O   0  0  0  0  0  0
  -28.3467  -26.4682   20.1719 O   0  0  0  0  0  0
  -26.5613  -34.8909   22.4662 O   0  0  0  0  0  0
  -23.5438  -32.1381   23.7341 O   0  0  0  0  0  0
  -30.9903  -17.8659   20.0975 C   0  0  0  0  0  0
  -28.8930  -19.4105   21.1188 C   0  0  0  0  0  0
  -31.0168  -19.2972   19.9809 C   0  0  0  0  0  0
  -29.9484  -20.1219   20.4819 C   0  0  0  0  0  0
  -29.9348  -17.1684   20.7378 C   0  0  0  0  0  0
  -28.8890  -17.9877   21.2479 C   0  0  0  0  0  0
  -29.0763  -22.4520   20.4533 C   0  0  0  0  0  0
  -32.1938  -19.8858   19.2685 C   0  0  0  0  0  0
  -33.5611  -19.3079   19.6145 C   0  0  0  0  0  0
  -29.3268  -24.0168   20.4443 C   0  0  0  0  0  0
  -28.1203  -25.0004   20.1163 C   0  0  0  0  0  0
  -30.0322  -21.5671   20.4313 N   0  0  0  0  0  0
  -29.8355  -15.7077   20.8826 N   0  0  0  0  0  0
  -32.1261  -20.7991   18.4400 O   0  0  0  0  0  0
  -27.5660  -17.2446   22.0730 Cl  0  0  0  0  0  0
  -31.4831  -12.5297   19.1527 H   0  0  0  0  0  0
  -30.3832  -11.4083   19.9025 H   0  0  0  0  0  0
  -29.7810  -11.7472   17.4914 H   0  0  0  0  0  0
  -29.6576  -13.4702   17.7383 H   0  0  0  0  0  0
  -27.8809  -11.2899   18.8830 H   0  0  0  0  0  0
  -27.3827  -12.5616   17.7964 H   0  0  0  0  0  0
  -27.6721  -14.2529   19.5150 H   0  0  0  0  0  0
  -28.7111  -12.0668   21.3865 H   0  0  0  0  0  0
  -28.4389  -13.7244   21.8396 H   0  0  0  0  0  0
  -25.2751   -9.5690   22.4748 H   0  0  0  0  0  0
  -23.9996   -7.4640   22.7464 H   0  0  0  0  0  0
  -21.0830   -8.8798   19.8958 H   0  0  0  0  0  0
  -22.3706  -10.9675   19.6150 H   0  0  0  0  0  0
  -21.1993   -7.6119   23.9710 H   0  0  0  0  0  0
  -21.1484   -6.0500   25.9080 H   0  0  0  0  0  0
  -22.0593   -2.7593   23.2854 H   0  0  0  0  0  0
  -22.4051  -11.9929   22.4837 H   0  0  0  0  0  0
  -21.1089  -13.1315   22.2569 H   0  0  0  0  0  0
  -24.6692  -15.8465   20.5614 H   0  0  0  0  0  0
  -26.2973  -15.6415   20.1726 H   0  0  0  0  0  0
  -26.7191  -32.5434   23.1094 H   0  0  0  0  0  0
  -25.0098  -33.9703   25.0429 H   0  0  0  0  0  0
  -22.7146  -31.3029   21.3988 H   0  0  0  0  0  0
  -23.3756  -35.9608   23.3263 H   0  0  0  0  0  0
  -24.3600  -36.8932   22.2058 H   0  0  0  0  0  0
  -23.7235  -37.6469   23.6680 H   0  0  0  0  0  0
  -26.0978  -31.5589   20.6088 H   0  0  0  0  0  0
  -26.8412  -30.8361   22.0046 H   0  0  0  0  0  0
  -28.1210  -28.9896   21.1770 H   0  0  0  0  0  0
  -25.9627  -25.9264   19.0148 H   0  0  0  0  0  0
  -23.9693  -27.3052   19.0220 H   0  0  0  0  0  0
  -23.7495  -30.5888   19.3989 H   0  0  0  0  0  0
  -22.7568  -29.2399   19.8635 H   0  0  0  0  0  0
  -25.1284  -36.1901   25.0818 H   0  0  0  0  0  0
  -20.9994  -28.3229   24.1398 H   0  0  0  0  0  0
  -20.5668  -26.2264   23.3588 H   0  0  0  0  0  0
  -21.6639  -26.7417   22.1192 H   0  0  0  0  0  0
  -19.6889  -25.6289   21.1234 H   0  0  0  0  0  0
  -19.6675  -27.3188   20.6732 H   0  0  0  0  0  0
  -17.4189  -26.6673   21.4042 H   0  0  0  0  0  0
  -18.0333  -26.0061   22.9028 H   0  0  0  0  0  0
  -19.7935  -30.7291   24.2236 H   0  0  0  0  0  0
  -17.5002  -31.6261   24.5151 H   0  0  0  0  0  0
  -15.5345  -30.2953   23.7668 H   0  0  0  0  0  0
  -15.8683  -28.0799   22.7066 H   0  0  0  0  0  0
  -24.5854  -30.7178   25.7776 H   0  0  0  0  0  0
  -24.9043  -32.2922   26.4969 H   0  0  0  0  0  0
  -25.8070  -30.8817   27.0186 H   0  0  0  0  0  0
  -26.2904  -29.6727   24.1249 H   0  0  0  0  0  0
  -27.4061  -29.7276   25.4702 H   0  0  0  0  0  0
  -27.8776  -30.4259   23.9392 H   0  0  0  0  0  0
  -27.2728  -33.3623   26.2039 H   0  0  0  0  0  0
  -28.3903  -32.6828   25.0295 H   0  0  0  0  0  0
  -28.0747  -31.8428   26.5397 H   0  0  0  0  0  0
  -28.2561  -38.0112   24.7560 H   0  0  0  0  0  0
  -28.1118  -36.2646   24.6203 H   0  0  0  0  0  0
  -27.2320  -37.1335   25.8860 H   0  0  0  0  0  0
  -20.9347  -29.8744   21.6899 H   0  0  0  0  0  0
  -26.0152  -38.2832   24.1448 H   0  0  0  0  0  0
  -31.8006  -17.2923   19.6738 H   0  0  0  0  0  0
  -28.0693  -19.9555   21.5550 H   0  0  0  0  0  0
  -28.0222  -22.1637   20.4873 H   0  0  0  0  0  0
  -33.6303  -19.1110   20.6845 H   0  0  0  0  0  0
  -34.3466  -20.0128   19.3431 H   0  0  0  0  0  0
  -33.7299  -18.3777   19.0734 H   0  0  0  0  0  0
  -30.1296  -24.2172   19.7347 H   0  0  0  0  0  0
  -29.7260  -24.2854   21.4222 H   0  0  0  0  0  0
  -27.3066  -24.7629   20.8040 H   0  0  0  0  0  0
  -27.7670  -24.7455   19.1169 H   0  0  0  0  0  0
  -28.9451  -15.4102   21.2538 H   0  0  0  0  0  0
  1 25  1  0  0  0
  1 30  2  0  0  0
  1 83  1  0  0  0
  2  3  1  0  0  0
  2 25  1  0  0  0
  2 86  1  0  0  0
  2 87  1  0  0  0
  3  4  1  0  0  0
  3 88  1  0  0  0
  3 89  1  0  0  0
  4  5  1  0  0  0
  4 90  1  0  0  0
  4 91  1  0  0  0
  5  6  1  0  0  0
  5 26  1  0  0  0
  5 92  1  0  0  0
  6 25  1  0  0  0
  6 93  1  0  0  0
  6 94  1  0  0  0
  7  8  2  0  0  0
  7 26  1  0  0  0
  7 29  1  0  0  0
  8  9  1  0  0  0
  8 22  1  0  0  0
  9 10  1  0  0  0
  9 27  2  0  0  0
 10 11  2  0  0  0
 10 15  1  0  0  0
 11 12  1  0  0  0
 11 95  1  0  0  0
 12 13  2  0  0  0
 12 96  1  0  0  0
 13 14  1  0  0  0
 13 31  1  0  0  0
 14 15  2  0  0  0
 14 97  1  0  0  0
 15 98  1  0  0  0
 16 17  2  0  0  0
 16 21  1  0  0  0
 16 31  1  0  0  0
 17 18  1  0  0  0
 17 99  1  0  0  0
 18 19  2  0  0  0
 18100  1  0  0  0
 19 20  1  0  0  0
 19 24  1  0  0  0
 20 21  2  0  0  0
 20101  1  0  0  0
 21 23  1  0  0  0
 22 28  1  0  0  0
 22 32  2  0  0  0
 26 27  1  0  0  0
 28102  1  0  0  0
 28103  1  0  0  0
 29104  1  0  0  0
 29105  1  0  0  0
 33 34  1  0  0  0
 33 66  1  0  0  0
 33 70  2  0  0  0
 34 36  1  0  0  0
 34 59  1  0  0  0
 34106  1  0  0  0
 35 44  2  0  0  0
 35 45  1  0  0  0
 35 68  1  0  0  0
 36 56  1  0  0  0
 36107  1  0  0  0
 37 39  1  0  0  0
 37 47  1  0  0  0
 37 66  1  0  0  0
 37108  1  0  0  0
 38 43  2  0  0  0
 38 46  1  0  0  0
 38 47  1  0  0  0
 39 64  1  0  0  0
 39 67  2  0  0  0
 40 52  1  0  0  0
 40 53  2  0  0  0
 40 58  1  0  0  0
 41109  1  0  0  0
 41110  1  0  0  0
 41111  1  0  0  0
 41 48  1  0  0  0
 42 43  1  0  0  0
 42 66  1  0  0  0
 42112  1  0  0  0
 42113  1  0  0  0
 43 44  1  0  0  0
 44114  1  0  0  0
 45 46  2  0  0  0
 45115  1  0  0  0
 46116  1  0  0  0
 47117  1  0  0  0
 47118  1  0  0  0
 48 56  1  0  0  0
 48 65  1  0  0  0
 48119  1  0  0  0
 49 50  1  0  0  0
 49 53  1  0  0  0
 49 64  1  0  0  0
 49120  1  0  0  0
 50 51  1  0  0  0
 50121  1  0  0  0
 50122  1  0  0  0
 51 52  1  0  0  0
 51123  1  0  0  0
 51124  1  0  0  0
 52125  1  0  0  0
 52126  1  0  0  0
 53 54  1  0  0  0
 54 55  2  0  0  0
 54127  1  0  0  0
 55 57  1  0  0  0
 55128  1  0  0  0
 56 69  2  0  0  0
 57 58  2  0  0  0
 57129  1  0  0  0
 58130  1  0  0  0
 59 60  1  0  0  0
 59 61  1  0  0  0
 59 62  1  0  0  0
 60131  1  0  0  0
 60132  1  0  0  0
 60133  1  0  0  0
 61134  1  0  0  0
 61135  1  0  0  0
 61136  1  0  0  0
 62137  1  0  0  0
 62138  1  0  0  0
 62139  1  0  0  0
 63 65  1  0  0  0
 63140  1  0  0  0
 63141  1  0  0  0
 63142  1  0  0  0
 64143  1  0  0  0
 65144  1  0  0  0
 68 81  1  0  0  0
 71 73  2  0  0  0
 71 75  1  0  0  0
 71145  1  0  0  0
 72 74  2  0  0  0
 72 76  1  0  0  0
 72146  1  0  0  0
 73 74  1  0  0  0
 73 78  1  0  0  0
 74 82  1  0  0  0
 75 76  2  0  0  0
 75 83  1  0  0  0
 76 85  1  0  0  0
 77 80  1  0  0  0
 77 82  2  0  0  0
 77147  1  0  0  0
 78 79  1  0  0  0
 78 84  2  0  0  0
 79148  1  0  0  0
 79149  1  0  0  0
 79150  1  0  0  0
 80 81  1  0  0  0
 80151  1  0  0  0
 80152  1  0  0  0
 81153  1  0  0  0
 81154  1  0  0  0
 83155  1  0  0  0
M  ISO  4   1 100  68 101  81 101  83 100
M  END
> <chiral flag>
0

> <version>
0

> <s_m_source_file>
/data/baiqing/PycharmProjects/Reinvent-master-3.2/result/LINK_invent/BTK/process_docking_weight1_custom_product_contain_oxygen_bond_distance_aromatic_linkinvent_7_9_3/rearranged_h_0117.sdf

> <i_m_source_file_index>
77

> <r_mmod_Potential_Energy-OPLS-2005>
61.8026084899902

> <r_mmod_Stretch_Energy-OPLS-2005>
88.10791015625

> <r_mmod_Bend_Energy-OPLS-2005>
150.485900878906

> <r_mmod_Torsional_Energy-OPLS-2005>
245.677261352539

> <r_mmod_Improper_Torsional_Energy-OPLS-2005>
3.82416772842407

> <r_mmod_Van_der_Waal_Energy-OPLS-2005>
147.341232299805

> <r_mmod_Electrostatic_Energy-OPLS-2005>
-402.931182861328

> <r_mmod_Solvation_Energy-OPLS-2005>
-222.050842285156

> <b_mmod_Minimization_Converged-OPLS-2005>
0

> <r_mmod_RMS_Derivative-OPLS-2005>
1.62617921829224

$$$$
77
                    3D
 Structure written by MMmdl.
155163  0  0  1  0            999 V2000
  -30.6736  -14.4944   20.5821 C   0  0  0  0  0  0
  -30.4335  -12.3232   19.4215 C   0  0  0  0  0  0
  -29.4986  -12.5120   18.2074 C   0  0  0  0  0  0
  -28.0191  -12.3672   18.6188 C   0  0  0  0  0  0
  -27.6636  -13.2027   19.8775 C   0  0  2  0  0  0
  -28.7047  -12.9696   20.9954 C   0  0  0  0  0  0
  -25.2591  -13.8140   20.5654 C   0  0  0  0  0  0
  -24.1839  -13.0430   20.9163 C   0  0  0  0  0  0
  -24.6389  -11.6897   20.8728 C   0  0  0  0  0  0
  -23.9052  -10.4289   21.0400 C   0  0  0  0  0  0
  -24.3608   -9.4207   21.9180 C   0  0  0  0  0  0
  -23.6288   -8.2242   22.0752 C   0  0  0  0  0  0
  -22.4269   -8.0279   21.3545 C   0  0  0  0  0  0
  -21.9902   -9.0249   20.4646 C   0  0  0  0  0  0
  -22.7225  -10.2129   20.3051 C   0  0  0  0  0  0
  -21.6852   -6.0732   22.5280 C   0  0  0  0  0  0
  -21.4012   -6.5635   23.8212 C   0  0  0  0  0  0
  -21.3660   -5.6790   24.9175 C   0  0  0  0  0  0
  -21.6045   -4.3054   24.7226 C   0  0  0  0  0  0
  -21.8820   -3.8144   23.4349 C   0  0  0  0  0  0
  -21.9193   -4.6960   22.3404 C   0  0  0  0  0  0
  -22.7866  -13.5240   21.1836 C   0  0  0  0  0  0
  -22.1663   -4.2145   21.0984 F   0  0  0  0  0  0
  -21.5630   -3.4539   25.7738 F   0  0  0  0  0  0
  -30.0354  -13.2972   20.4505 N   0  0  0  0  0  0
  -26.3034  -12.9307   20.3372 N   0  0  0  0  0  0
  -25.9318  -11.6470   20.5769 N   0  0  0  0  0  0
  -22.0508  -12.8236   22.0397 N   0  0  0  0  0  0
  -25.4304  -15.1847   20.4037 N   0  0  0  0  0  0
  -31.7939  -14.7012   20.1067 O   0  0  0  0  0  0
  -21.6638   -6.8872   21.4241 O   0  0  0  0  0  0
  -22.3547  -14.5547   20.6690 O   0  0  0  0  0  0
  -24.6142  -31.8677   23.2084 C   0  0  0  0  0  0
  -25.9033  -32.4823   23.8385 C   0  0  1  0  0  0
  -27.2372  -27.4310   20.1059 C   0  0  0  0  0  0
  -25.5888  -33.8620   24.2321 N   0  0  0  0  0  0
  -23.4036  -30.4897   21.5488 C   0  0  2  0  0  0
  -24.8533  -28.9518   20.1182 C   0  0  0  0  0  0
  -22.7414  -29.4656   22.4984 C   0  0  0  0  0  0
  -18.0275  -28.1381   22.8502 C   0  0  0  0  0  0
  -24.1488  -36.7318   23.2640 C   0  0  0  0  0  0
  -25.9319  -30.8333   21.3617 C   0  0  0  0  0  0
  -26.0129  -29.4651   20.7141 C   0  0  0  0  0  0
  -27.2113  -28.7121   20.7053 C   0  0  0  0  0  0
  -26.0639  -26.9299   19.5077 C   0  0  0  0  0  0
  -24.8732  -27.6826   19.5118 C   0  0  0  0  0  0
  -23.6139  -29.8182   20.1653 C   0  0  0  0  0  0
  -25.4108  -36.3110   24.0339 C   0  0  1  0  0  0
  -20.5865  -28.3667   23.1323 C   0  0  2  0  0  0
  -20.6766  -26.9403   22.5421 C   0  0  0  0  0  0
  -19.5741  -26.6391   21.5218 C   0  0  0  0  0  0
  -18.1923  -26.7928   22.1630 C   0  0  0  0  0  0
  -19.1525  -28.8841   23.2912 C   0  0  0  0  0  0
  -18.9450  -30.1450   23.8917 C   0  0  0  0  0  0
  -17.6451  -30.6591   24.0571 C   0  0  0  0  0  0
  -25.9032  -34.9477   23.5131 C   0  0  0  0  0  0
  -16.5342  -29.9093   23.6327 C   0  0  0  0  0  0
  -16.7264  -28.6508   23.0352 C   0  0  0  0  0  0
  -26.4458  -31.6602   25.0712 C   0  0  0  0  0  0
  -25.3726  -31.3706   26.1462 C   0  0  0  0  0  0
  -27.0291  -30.3048   24.6083 C   0  0  0  0  0  0
  -27.6033  -32.4317   25.7476 C   0  0  0  0  0  0
  -27.5581  -37.1814   24.8465 C   0  0  0  0  0  0
  -21.4142  -29.3031   22.3724 N   0  0  0  0  0  0
  -26.4294  -37.3794   23.9407 N   0  0  0  0  0  0
  -24.6680  -31.0782   22.0982 N   0  0  0  0  0  0
  -23.4188  -28.8203   23.3031 O   0  0  0  0  0  0
  -28.3817  -26.6653   20.0758 O   0  0  0  0  0  0
  -26.5603  -34.8926   22.4696 O   0  0  0  0  0  0
  -23.5331  -32.1415   23.7482 O   0  0  0  0  0  0
  -29.0593  -19.0471   21.8997 C   0  0  0  0  0  0
  -31.1138  -17.6150   20.6508 C   0  0  0  0  0  0
  -28.9949  -17.6280   21.8564 C   0  0  0  0  0  0
  -30.1450  -19.7686   21.3475 C   0  0  0  0  0  0
  -30.0365  -16.8900   21.2213 C   0  0  0  0  0  0
  -31.1707  -19.0251   20.7197 C   0  0  0  0  0  0
  -26.6496  -17.4892   22.7772 C   0  0  0  0  0  0
  -27.8296  -16.9326   22.4523 C   0  0  0  0  0  0
  -29.2451  -24.5405   20.8158 C   0  0  0  0  0  0
  -28.4579  -25.6283   20.9797 C   0  0  0  0  0  0
  -29.3281  -21.9899   21.3977 C   0  0  0  0  0  0
  -29.4271  -23.4457   21.8704 C   0  0  0  0  0  0
  -30.2994  -21.1645   21.5158 N   0  0  0  0  0  0
  -29.9335  -15.4518   21.1852 N   0  0  0  0  0  0
  -32.2388  -19.6698   20.1883 F   0  0  0  0  0  0
  -31.4752  -12.4418   19.1180 H   0  0  0  0  0  0
  -30.3530  -11.3087   19.8148 H   0  0  0  0  0  0
  -29.7416  -11.7872   17.4292 H   0  0  0  0  0  0
  -29.6611  -13.4973   17.7676 H   0  0  0  0  0  0
  -27.8312  -11.3106   18.8128 H   0  0  0  0  0  0
  -27.3681  -12.6429   17.7882 H   0  0  0  0  0  0
  -27.7104  -14.2525   19.5865 H   0  0  0  0  0  0
  -28.6884  -11.9260   21.3133 H   0  0  0  0  0  0
  -28.4556  -13.5406   21.8904 H   0  0  0  0  0  0
  -25.2754   -9.5686   22.4752 H   0  0  0  0  0  0
  -23.9999   -7.4633   22.7471 H   0  0  0  0  0  0
  -21.0833   -8.8763   19.8952 H   0  0  0  0  0  0
  -22.3683  -10.9666   19.6158 H   0  0  0  0  0  0
  -21.2003   -7.6142   23.9714 H   0  0  0  0  0  0
  -21.1482   -6.0521   25.9078 H   0  0  0  0  0  0
  -22.0598   -2.7606   23.2850 H   0  0  0  0  0  0
  -22.4123  -11.9895   22.4781 H   0  0  0  0  0  0
  -21.1129  -13.1263   22.2607 H   0  0  0  0  0  0
  -24.6712  -15.8431   20.5363 H   0  0  0  0  0  0
  -26.2969  -15.6325   20.1344 H   0  0  0  0  0  0
  -26.7112  -32.5543   23.1159 H   0  0  0  0  0  0
  -25.0027  -33.9780   25.0457 H   0  0  0  0  0  0
  -22.6918  -31.3058   21.4083 H   0  0  0  0  0  0
  -23.3742  -35.9661   23.3316 H   0  0  0  0  0  0
  -24.3579  -36.8912   22.2050 H   0  0  0  0  0  0
  -23.7248  -37.6532   23.6642 H   0  0  0  0  0  0
  -26.0425  -31.5971   20.5906 H   0  0  0  0  0  0
  -26.8201  -30.8906   21.9790 H   0  0  0  0  0  0
  -28.1090  -29.1046   21.1625 H   0  0  0  0  0  0
  -26.0762  -25.9553   19.0402 H   0  0  0  0  0  0
  -23.9820  -27.2807   19.0496 H   0  0  0  0  0  0
  -23.7205  -30.5903   19.4027 H   0  0  0  0  0  0
  -22.7385  -29.2359   19.8723 H   0  0  0  0  0  0
  -25.1286  -36.1975   25.0833 H   0  0  0  0  0  0
  -20.9965  -28.3230   24.1439 H   0  0  0  0  0  0
  -20.5673  -26.2269   23.3605 H   0  0  0  0  0  0
  -21.6638  -26.7451   22.1209 H   0  0  0  0  0  0
  -19.6898  -25.6306   21.1237 H   0  0  0  0  0  0
  -19.6681  -27.3214   20.6758 H   0  0  0  0  0  0
  -17.4191  -26.6685   21.4030 H   0  0  0  0  0  0
  -18.0323  -26.0067   22.9023 H   0  0  0  0  0  0
  -19.7925  -30.7270   24.2289 H   0  0  0  0  0  0
  -17.5005  -31.6271   24.5172 H   0  0  0  0  0  0
  -15.5346  -30.3004   23.7638 H   0  0  0  0  0  0
  -15.8665  -28.0839   22.7050 H   0  0  0  0  0  0
  -24.5901  -30.7050   25.7799 H   0  0  0  0  0  0
  -24.8917  -32.2861   26.4918 H   0  0  0  0  0  0
  -25.8080  -30.8870   27.0217 H   0  0  0  0  0  0
  -26.2839  -29.6812   24.1130 H   0  0  0  0  0  0
  -27.4059  -29.7272   25.4535 H   0  0  0  0  0  0
  -27.8670  -30.4374   23.9233 H   0  0  0  0  0  0
  -27.2656  -33.3602   26.2094 H   0  0  0  0  0  0
  -28.3824  -32.6904   25.0293 H   0  0  0  0  0  0
  -28.0729  -31.8418   26.5358 H   0  0  0  0  0  0
  -28.2612  -38.0100   24.7512 H   0  0  0  0  0  0
  -28.1064  -36.2637   24.6295 H   0  0  0  0  0  0
  -27.2303  -37.1469   25.8868 H   0  0  0  0  0  0
  -20.9295  -29.8746   21.6947 H   0  0  0  0  0  0
  -26.0183  -38.2873   24.1401 H   0  0  0  0  0  0
  -28.2877  -19.5957   22.4176 H   0  0  0  0  0  0
  -31.9297  -17.1127   20.1566 H   0  0  0  0  0  0
  -25.8680  -16.8885   23.2213 H   0  0  0  0  0  0
  -26.4257  -18.5319   22.6104 H   0  0  0  0  0  0
  -27.9379  -15.8805   22.6701 H   0  0  0  0  0  0
  -29.8272  -24.4365   19.9110 H   0  0  0  0  0  0
  -27.8425  -25.7907   21.8557 H   0  0  0  0  0  0
  -28.3470  -21.6983   21.0117 H   0  0  0  0  0  0
  -28.6987  -23.5930   22.6683 H   0  0  0  0  0  0
  -30.4054  -23.5972   22.3277 H   0  0  0  0  0  0
  -29.0737  -15.0889   21.5645 H   0  0  0  0  0  0
  1 25  1  0  0  0
  1 30  2  0  0  0
  1 84  1  0  0  0
  2  3  1  0  0  0
  2 25  1  0  0  0
  2 86  1  0  0  0
  2 87  1  0  0  0
  3  4  1  0  0  0
  3 88  1  0  0  0
  3 89  1  0  0  0
  4  5  1  0  0  0
  4 90  1  0  0  0
  4 91  1  0  0  0
  5  6  1  0  0  0
  5 26  1  0  0  0
  5 92  1  0  0  0
  6 25  1  0  0  0
  6 93  1  0  0  0
  6 94  1  0  0  0
  7  8  2  0  0  0
  7 26  1  0  0  0
  7 29  1  0  0  0
  8  9  1  0  0  0
  8 22  1  0  0  0
  9 10  1  0  0  0
  9 27  2  0  0  0
 10 11  2  0  0  0
 10 15  1  0  0  0
 11 12  1  0  0  0
 11 95  1  0  0  0
 12 13  2  0  0  0
 12 96  1  0  0  0
 13 14  1  0  0  0
 13 31  1  0  0  0
 14 15  2  0  0  0
 14 97  1  0  0  0
 15 98  1  0  0  0
 16 17  2  0  0  0
 16 21  1  0  0  0
 16 31  1  0  0  0
 17 18  1  0  0  0
 17 99  1  0  0  0
 18 19  2  0  0  0
 18100  1  0  0  0
 19 20  1  0  0  0
 19 24  1  0  0  0
 20 21  2  0  0  0
 20101  1  0  0  0
 21 23  1  0  0  0
 22 28  1  0  0  0
 22 32  2  0  0  0
 26 27  1  0  0  0
 28102  1  0  0  0
 28103  1  0  0  0
 29104  1  0  0  0
 29105  1  0  0  0
 33 34  1  0  0  0
 33 66  1  0  0  0
 33 70  2  0  0  0
 34 36  1  0  0  0
 34 59  1  0  0  0
 34106  1  0  0  0
 35 44  2  0  0  0
 35 45  1  0  0  0
 35 68  1  0  0  0
 36 56  1  0  0  0
 36107  1  0  0  0
 37 39  1  0  0  0
 37 47  1  0  0  0
 37 66  1  0  0  0
 37108  1  0  0  0
 38 43  2  0  0  0
 38 46  1  0  0  0
 38 47  1  0  0  0
 39 64  1  0  0  0
 39 67  2  0  0  0
 40 52  1  0  0  0
 40 53  2  0  0  0
 40 58  1  0  0  0
 41109  1  0  0  0
 41110  1  0  0  0
 41111  1  0  0  0
 41 48  1  0  0  0
 42 43  1  0  0  0
 42 66  1  0  0  0
 42112  1  0  0  0
 42113  1  0  0  0
 43 44  1  0  0  0
 44114  1  0  0  0
 45 46  2  0  0  0
 45115  1  0  0  0
 46116  1  0  0  0
 47117  1  0  0  0
 47118  1  0  0  0
 48 56  1  0  0  0
 48 65  1  0  0  0
 48119  1  0  0  0
 49 50  1  0  0  0
 49 53  1  0  0  0
 49 64  1  0  0  0
 49120  1  0  0  0
 50 51  1  0  0  0
 50121  1  0  0  0
 50122  1  0  0  0
 51 52  1  0  0  0
 51123  1  0  0  0
 51124  1  0  0  0
 52125  1  0  0  0
 52126  1  0  0  0
 53 54  1  0  0  0
 54 55  2  0  0  0
 54127  1  0  0  0
 55 57  1  0  0  0
 55128  1  0  0  0
 56 69  2  0  0  0
 57 58  2  0  0  0
 57129  1  0  0  0
 58130  1  0  0  0
 59 60  1  0  0  0
 59 61  1  0  0  0
 59 62  1  0  0  0
 60131  1  0  0  0
 60132  1  0  0  0
 60133  1  0  0  0
 61134  1  0  0  0
 61135  1  0  0  0
 61136  1  0  0  0
 62137  1  0  0  0
 62138  1  0  0  0
 62139  1  0  0  0
 63 65  1  0  0  0
 63140  1  0  0  0
 63141  1  0  0  0
 63142  1  0  0  0
 64143  1  0  0  0
 65144  1  0  0  0
 68 80  1  0  0  0
 71 73  2  0  0  0
 71 74  1  0  0  0
 71145  1  0  0  0
 72 75  2  0  0  0
 72 76  1  0  0  0
 72146  1  0  0  0
 73 75  1  0  0  0
 73 78  1  0  0  0
 74 76  2  0  0  0
 74 83  1  0  0  0
 75 84  1  0  0  0
 76 85  1  0  0  0
 77 78  2  0  0  0
 77147  1  0  0  0
 77148  1  0  0  0
 78149  1  0  0  0
 79 80  2  0  0  0
 79 82  1  0  0  0
 79150  1  0  0  0
 80151  1  0  0  0
 81 82  1  0  0  0
 81 83  2  0  0  0
 81152  1  0  0  0
 82153  1  0  0  0
 82154  1  0  0  0
 84155  1  0  0  0
M  ISO  4   1 100  68 101  80 101  84 100
M  END
> <chiral flag>
0

> <version>
0

> <s_m_source_file>
/data/baiqing/PycharmProjects/Reinvent-master-3.2/result/LINK_invent/BTK/process_docking_weight1_custom_product_contain_oxygen_bond_distance_aromatic_linkinvent_7_9_3/rearranged_h_0117.sdf

> <i_m_source_file_index>
78

> <r_mmod_Potential_Energy-OPLS-2005>
-21.4338703155518

> <r_mmod_Stretch_Energy-OPLS-2005>
42.0520324707031

> <r_mmod_Bend_Energy-OPLS-2005>
110.608818054199

> <r_mmod_Torsional_Energy-OPLS-2005>
226.219909667969

> <r_mmod_Improper_Torsional_Energy-OPLS-2005>
4.08222723007202

> <r_mmod_Van_der_Waal_Energy-OPLS-2005>
155.622344970703

> <r_mmod_Electrostatic_Energy-OPLS-2005>
-368.830780029297

> <r_mmod_Solvation_Energy-OPLS-2005>
-204.486602783203

> <b_mmod_Minimization_Converged-OPLS-2005>
0

> <r_mmod_RMS_Derivative-OPLS-2005>
0.74890810251236

$$$$
78
                    3D
 Structure written by MMmdl.
160168  0  0  1  0            999 V2000
  -30.6171  -14.7373   20.4420 C   0  0  0  0  0  0
  -30.4454  -12.4458   19.4725 C   0  0  0  0  0  0
  -29.5126  -12.4837   18.2392 C   0  0  0  0  0  0
  -28.0369  -12.3116   18.6518 C   0  0  0  0  0  0
  -27.6442  -13.2091   19.8523 C   0  0  2  0  0  0
  -28.6934  -13.1029   20.9782 C   0  0  0  0  0  0
  -25.2541  -13.8129   20.5668 C   0  0  0  0  0  0
  -24.1792  -13.0409   20.9150 C   0  0  0  0  0  0
  -24.6361  -11.6872   20.8743 C   0  0  0  0  0  0
  -23.9040  -10.4259   21.0415 C   0  0  0  0  0  0
  -24.3586   -9.4179   21.9195 C   0  0  0  0  0  0
  -23.6265   -8.2222   22.0759 C   0  0  0  0  0  0
  -22.4249   -8.0270   21.3558 C   0  0  0  0  0  0
  -21.9900   -9.0238   20.4658 C   0  0  0  0  0  0
  -22.7225  -10.2113   20.3053 C   0  0  0  0  0  0
  -21.6834   -6.0726   22.5283 C   0  0  0  0  0  0
  -21.4005   -6.5635   23.8216 C   0  0  0  0  0  0
  -21.3652   -5.6801   24.9188 C   0  0  0  0  0  0
  -21.6026   -4.3062   24.7241 C   0  0  0  0  0  0
  -21.8826   -3.8153   23.4366 C   0  0  0  0  0  0
  -21.9193   -4.6960   22.3416 C   0  0  0  0  0  0
  -22.7825  -13.5206   21.1864 C   0  0  0  0  0  0
  -22.1672   -4.2145   21.0997 F   0  0  0  0  0  0
  -21.5619   -3.4547   25.7755 F   0  0  0  0  0  0
  -29.9925  -13.5003   20.4122 N   0  0  0  0  0  0
  -26.2950  -12.9292   20.3317 N   0  0  0  0  0  0
  -25.9286  -11.6452   20.5788 N   0  0  0  0  0  0
  -22.0515  -12.8153   22.0424 N   0  0  0  0  0  0
  -25.4314  -15.1837   20.4107 N   0  0  0  0  0  0
  -31.8274  -14.7929   20.2106 O   0  0  0  0  0  0
  -21.6610   -6.8873   21.4244 O   0  0  0  0  0  0
  -22.3492  -14.5539   20.6790 O   0  0  0  0  0  0
  -24.6293  -31.8585   23.2017 C   0  0  0  0  0  0
  -25.9138  -32.4764   23.8359 C   0  0  1  0  0  0
  -27.2176  -27.2887   20.1185 C   0  0  0  0  0  0
  -25.5937  -33.8565   24.2264 N   0  0  0  0  0  0
  -23.4244  -30.4850   21.5432 C   0  0  2  0  0  0
  -24.8694  -28.9390   20.1086 C   0  0  0  0  0  0
  -22.7499  -29.4623   22.4898 C   0  0  0  0  0  0
  -18.0294  -28.1405   22.8481 C   0  0  0  0  0  0
  -24.1479  -36.7276   23.2631 C   0  0  0  0  0  0
  -25.9708  -30.7748   21.3845 C   0  0  0  0  0  0
  -26.0404  -29.4031   20.7206 C   0  0  0  0  0  0
  -27.2164  -28.5901   20.7177 C   0  0  0  0  0  0
  -26.0228  -26.8935   19.4673 C   0  0  0  0  0  0
  -24.8639  -27.6899   19.4735 C   0  0  0  0  0  0
  -23.6419  -29.8271   20.1564 C   0  0  0  0  0  0
  -25.4106  -36.3068   24.0324 C   0  0  1  0  0  0
  -20.5899  -28.3704   23.1267 C   0  0  2  0  0  0
  -20.6771  -26.9424   22.5402 C   0  0  0  0  0  0
  -19.5743  -26.6401   21.5204 C   0  0  0  0  0  0
  -18.1929  -26.7943   22.1628 C   0  0  0  0  0  0
  -19.1548  -28.8870   23.2866 C   0  0  0  0  0  0
  -18.9474  -30.1470   23.8885 C   0  0  0  0  0  0
  -17.6471  -30.6597   24.0574 C   0  0  0  0  0  0
  -25.9061  -34.9445   23.5099 C   0  0  0  0  0  0
  -16.5357  -29.9100   23.6337 C   0  0  0  0  0  0
  -16.7284  -28.6522   23.0350 C   0  0  0  0  0  0
  -26.4479  -31.6597   25.0761 C   0  0  0  0  0  0
  -25.3683  -31.3807   26.1478 C   0  0  0  0  0  0
  -27.0285  -30.2982   24.6292 C   0  0  0  0  0  0
  -27.6038  -32.4336   25.7523 C   0  0  0  0  0  0
  -27.5579  -37.1798   24.8456 C   0  0  0  0  0  0
  -21.4206  -29.3056   22.3653 N   0  0  0  0  0  0
  -26.4273  -37.3776   23.9419 N   0  0  0  0  0  0
  -24.6931  -31.0580   22.0983 N   0  0  0  0  0  0
  -23.4218  -28.8164   23.2983 O   0  0  0  0  0  0
  -28.3123  -26.4011   20.1941 O   0  0  0  0  0  0
  -26.5632  -34.8913   22.4668 O   0  0  0  0  0  0
  -23.5456  -32.1395   23.7333 O   0  0  0  0  0  0
  -32.3539  -22.1621   19.3892 C   0  0  0  0  0  0
  -31.4430  -19.0135   18.5262 C   0  0  0  0  0  0
  -29.6858  -18.7432   20.6285 C   0  0  0  0  0  0
  -31.0513  -17.7074   18.9089 C   0  0  0  0  0  0
  -30.9531  -20.1811   19.1401 C   0  0  0  0  0  0
  -30.2111  -17.5083   20.0514 C   0  0  0  0  0  0
  -29.9817  -20.0856   20.1647 C   0  0  0  0  0  0
  -33.1844  -22.8552   20.1334 C   0  0  0  0  0  0
  -32.7663  -16.5706   17.4812 C   0  0  0  0  0  0
  -31.5003  -21.4637   18.6782 C   0  0  0  0  0  0
  -31.5494  -16.6184   18.0505 C   0  0  0  0  0  0
  -29.7480  -16.0999   20.5813 C   0  0  0  0  0  0
  -29.0176  -23.8437   20.4742 C   0  0  0  0  0  0
  -28.0413  -24.9595   19.9075 C   0  0  0  0  0  0
  -28.8456  -22.3481   19.9501 C   0  0  0  0  0  0
  -28.6108  -16.0891   21.1408 N   0  0  0  0  0  0
  -29.8795  -24.1291   21.3138 O   0  0  0  0  0  0
  -29.4420  -21.2550   20.7646 O   0  0  0  0  0  0
  -31.4827  -12.5857   19.1641 H   0  0  0  0  0  0
  -30.4155  -11.4654   19.9510 H   0  0  0  0  0  0
  -29.7904  -11.6988   17.5338 H   0  0  0  0  0  0
  -29.6365  -13.4304   17.7121 H   0  0  0  0  0  0
  -27.8899  -11.2634   18.9158 H   0  0  0  0  0  0
  -27.3818  -12.5044   17.8025 H   0  0  0  0  0  0
  -27.6465  -14.2286   19.4706 H   0  0  0  0  0  0
  -28.7340  -12.0762   21.3467 H   0  0  0  0  0  0
  -28.4266  -13.6985   21.8504 H   0  0  0  0  0  0
  -25.2726   -9.5638   22.4788 H   0  0  0  0  0  0
  -23.9984   -7.4594   22.7456 H   0  0  0  0  0  0
  -21.0859   -8.8725   19.8950 H   0  0  0  0  0  0
  -22.3689  -10.9644   19.6152 H   0  0  0  0  0  0
  -21.1990   -7.6145   23.9701 H   0  0  0  0  0  0
  -21.1466   -6.0545   25.9083 H   0  0  0  0  0  0
  -22.0614   -2.7615   23.2866 H   0  0  0  0  0  0
  -22.4169  -11.9765   22.4701 H   0  0  0  0  0  0
  -21.1161  -13.1181   22.2763 H   0  0  0  0  0  0
  -24.6900  -15.8585   20.5642 H   0  0  0  0  0  0
  -26.3452  -15.6092   20.2901 H   0  0  0  0  0  0
  -26.7205  -32.5392   23.1101 H   0  0  0  0  0  0
  -25.0068  -33.9706   25.0396 H   0  0  0  0  0  0
  -22.7181  -31.3060   21.4026 H   0  0  0  0  0  0
  -23.3752  -35.9600   23.3284 H   0  0  0  0  0  0
  -24.3572  -36.8909   22.2050 H   0  0  0  0  0  0
  -23.7225  -37.6471   23.6655 H   0  0  0  0  0  0
  -26.1256  -31.5427   20.6246 H   0  0  0  0  0  0
  -26.8412  -30.8062   22.0280 H   0  0  0  0  0  0
  -28.1094  -28.9380   21.2169 H   0  0  0  0  0  0
  -25.9450  -25.9481   18.9515 H   0  0  0  0  0  0
  -23.9689  -27.3310   18.9845 H   0  0  0  0  0  0
  -23.7747  -30.6074   19.4057 H   0  0  0  0  0  0
  -22.7575  -29.2686   19.8447 H   0  0  0  0  0  0
  -25.1292  -36.1907   25.0816 H   0  0  0  0  0  0
  -20.9995  -28.3283   24.1389 H   0  0  0  0  0  0
  -20.5645  -26.2332   23.3614 H   0  0  0  0  0  0
  -21.6644  -26.7433   22.1217 H   0  0  0  0  0  0
  -19.6895  -25.6309   21.1243 H   0  0  0  0  0  0
  -19.6676  -27.3204   20.6721 H   0  0  0  0  0  0
  -17.4198  -26.6696   21.4028 H   0  0  0  0  0  0
  -18.0326  -26.0089   22.9030 H   0  0  0  0  0  0
  -19.7948  -30.7292   24.2248 H   0  0  0  0  0  0
  -17.5029  -31.6268   24.5198 H   0  0  0  0  0  0
  -15.5361  -30.3008   23.7654 H   0  0  0  0  0  0
  -15.8687  -28.0843   22.7064 H   0  0  0  0  0  0
  -24.5902  -30.7070   25.7869 H   0  0  0  0  0  0
  -24.8804  -32.2988   26.4763 H   0  0  0  0  0  0
  -25.8001  -30.9142   27.0341 H   0  0  0  0  0  0
  -26.2878  -29.6784   24.1218 H   0  0  0  0  0  0
  -27.3792  -29.7211   25.4859 H   0  0  0  0  0  0
  -27.8844  -30.4197   23.9651 H   0  0  0  0  0  0
  -27.2646  -33.3656   26.2055 H   0  0  0  0  0  0
  -28.3864  -32.6864   25.0356 H   0  0  0  0  0  0
  -28.0667  -31.8483   26.5476 H   0  0  0  0  0  0
  -28.2593  -38.0097   24.7519 H   0  0  0  0  0  0
  -28.1081  -36.2642   24.6251 H   0  0  0  0  0  0
  -27.2316  -37.1416   25.8861 H   0  0  0  0  0  0
  -20.9385  -29.8816   21.6893 H   0  0  0  0  0  0
  -26.0153  -38.2845   24.1435 H   0  0  0  0  0  0
  -32.1268  -19.1349   17.6982 H   0  0  0  0  0  0
  -29.0040  -18.6654   21.4633 H   0  0  0  0  0  0
  -32.8261  -23.5834   20.8472 H   0  0  0  0  0  0
  -34.2542  -22.7250   20.0585 H   0  0  0  0  0  0
  -33.0378  -15.7446   16.8403 H   0  0  0  0  0  0
  -33.5123  -17.3367   17.6423 H   0  0  0  0  0  0
  -31.1701  -21.8104   17.7092 H   0  0  0  0  0  0
  -30.8608  -15.8133   17.8418 H   0  0  0  0  0  0
  -27.0695  -24.7012   20.3303 H   0  0  0  0  0  0
  -27.9639  -24.8241   18.8290 H   0  0  0  0  0  0
  -29.1934  -22.3181   18.9190 H   0  0  0  0  0  0
  -27.7747  -22.1525   19.8967 H   0  0  0  0  0  0
  -28.2074  -17.0158   21.1376 H   0  0  0  0  0  0
  1 25  1  0  0  0
  1 30  2  0  0  0
  1 82  1  0  0  0
  2  3  1  0  0  0
  2 25  1  0  0  0
  2 89  1  0  0  0
  2 90  1  0  0  0
  3  4  1  0  0  0
  3 91  1  0  0  0
  3 92  1  0  0  0
  4  5  1  0  0  0
  4 93  1  0  0  0
  4 94  1  0  0  0
  5  6  1  0  0  0
  5 26  1  0  0  0
  5 95  1  0  0  0
  6 25  1  0  0  0
  6 96  1  0  0  0
  6 97  1  0  0  0
  7  8  2  0  0  0
  7 26  1  0  0  0
  7 29  1  0  0  0
  8  9  1  0  0  0
  8 22  1  0  0  0
  9 10  1  0  0  0
  9 27  2  0  0  0
 10 11  2  0  0  0
 10 15  1  0  0  0
 11 12  1  0  0  0
 11 98  1  0  0  0
 12 13  2  0  0  0
 12 99  1  0  0  0
 13 14  1  0  0  0
 13 31  1  0  0  0
 14 15  2  0  0  0
 14100  1  0  0  0
 15101  1  0  0  0
 16 17  2  0  0  0
 16 21  1  0  0  0
 16 31  1  0  0  0
 17 18  1  0  0  0
 17102  1  0  0  0
 18 19  2  0  0  0
 18103  1  0  0  0
 19 20  1  0  0  0
 19 24  1  0  0  0
 20 21  2  0  0  0
 20104  1  0  0  0
 21 23  1  0  0  0
 22 28  1  0  0  0
 22 32  2  0  0  0
 26 27  1  0  0  0
 28105  1  0  0  0
 28106  1  0  0  0
 29107  1  0  0  0
 29108  1  0  0  0
 33 34  1  0  0  0
 33 66  1  0  0  0
 33 70  2  0  0  0
 34 36  1  0  0  0
 34 59  1  0  0  0
 34109  1  0  0  0
 35 44  2  0  0  0
 35 45  1  0  0  0
 35 68  1  0  0  0
 36 56  1  0  0  0
 36110  1  0  0  0
 37 39  1  0  0  0
 37 47  1  0  0  0
 37 66  1  0  0  0
 37111  1  0  0  0
 38 43  2  0  0  0
 38 46  1  0  0  0
 38 47  1  0  0  0
 39 64  1  0  0  0
 39 67  2  0  0  0
 40 52  1  0  0  0
 40 53  2  0  0  0
 40 58  1  0  0  0
 41112  1  0  0  0
 41113  1  0  0  0
 41114  1  0  0  0
 41 48  1  0  0  0
 42 43  1  0  0  0
 42 66  1  0  0  0
 42115  1  0  0  0
 42116  1  0  0  0
 43 44  1  0  0  0
 44117  1  0  0  0
 45 46  2  0  0  0
 45118  1  0  0  0
 46119  1  0  0  0
 47120  1  0  0  0
 47121  1  0  0  0
 48 56  1  0  0  0
 48 65  1  0  0  0
 48122  1  0  0  0
 49 50  1  0  0  0
 49 53  1  0  0  0
 49 64  1  0  0  0
 49123  1  0  0  0
 50 51  1  0  0  0
 50124  1  0  0  0
 50125  1  0  0  0
 51 52  1  0  0  0
 51126  1  0  0  0
 51127  1  0  0  0
 52128  1  0  0  0
 52129  1  0  0  0
 53 54  1  0  0  0
 54 55  2  0  0  0
 54130  1  0  0  0
 55 57  1  0  0  0
 55131  1  0  0  0
 56 69  2  0  0  0
 57 58  2  0  0  0
 57132  1  0  0  0
 58133  1  0  0  0
 59 60  1  0  0  0
 59 61  1  0  0  0
 59 62  1  0  0  0
 60134  1  0  0  0
 60135  1  0  0  0
 60136  1  0  0  0
 61137  1  0  0  0
 61138  1  0  0  0
 61139  1  0  0  0
 62140  1  0  0  0
 62141  1  0  0  0
 62142  1  0  0  0
 63 65  1  0  0  0
 63143  1  0  0  0
 63144  1  0  0  0
 63145  1  0  0  0
 64146  1  0  0  0
 65147  1  0  0  0
 68 84  1  0  0  0
 71 78  2  0  0  0
 71 80  2  0  0  0
 72 74  2  0  0  0
 72 75  1  0  0  0
 72148  1  0  0  0
 73 76  2  0  0  0
 73 77  1  0  0  0
 73149  1  0  0  0
 74 76  1  0  0  0
 74 81  1  0  0  0
 75 77  2  0  0  0
 75 80  1  0  0  0
 76 82  1  0  0  0
 77 88  1  0  0  0
 78150  1  0  0  0
 78151  1  0  0  0
 79 81  2  0  0  0
 79152  1  0  0  0
 79153  1  0  0  0
 80154  1  0  0  0
 81155  1  0  0  0
 82 86  2  0  0  0
 83 84  1  0  0  0
 83 85  1  0  0  0
 83 87  2  0  0  0
 84156  1  0  0  0
 84157  1  0  0  0
 85 88  1  0  0  0
 85158  1  0  0  0
 85159  1  0  0  0
 86160  1  0  0  0
M  ISO  4   1 100  68 101  82 100  84 101
M  END
> <chiral flag>
0

> <version>
0

> <s_m_source_file>
/data/baiqing/PycharmProjects/Reinvent-master-3.2/result/LINK_invent/BTK/process_docking_weight1_custom_product_contain_oxygen_bond_distance_aromatic_linkinvent_7_9_3/rearranged_h_0117.sdf

> <i_m_source_file_index>
79

> <r_mmod_Potential_Energy-OPLS-2005>
266.392883300781

> <r_mmod_Stretch_Energy-OPLS-2005>
130.875015258789

> <r_mmod_Bend_Energy-OPLS-2005>
172.090667724609

> <r_mmod_Torsional_Energy-OPLS-2005>
147.524978637695

> <r_mmod_Improper_Torsional_Energy-OPLS-2005>
4.75927877426147

> <r_mmod_Van_der_Waal_Energy-OPLS-2005>
163.434722900391

> <r_mmod_Electrostatic_Energy-OPLS-2005>
-204.388656616211

> <r_mmod_Solvation_Energy-OPLS-2005>
-225.788177490234

> <b_mmod_Minimization_Converged-OPLS-2005>
0

> <r_mmod_RMS_Derivative-OPLS-2005>
3.02288508415222

$$$$
79
                    3D
 Structure written by MMmdl.
157165  0  0  1  0            999 V2000
  -30.7271  -14.4339   20.6188 C   0  0  0  0  0  0
  -30.4192  -12.2974   19.4217 C   0  0  0  0  0  0
  -29.4964  -12.5201   18.2072 C   0  0  0  0  0  0
  -28.0167  -12.3797   18.6143 C   0  0  0  0  0  0
  -27.6642  -13.2077   19.8795 C   0  0  2  0  0  0
  -28.7019  -12.9722   21.0004 C   0  0  0  0  0  0
  -25.2554  -13.8113   20.5601 C   0  0  0  0  0  0
  -24.1831  -13.0404   20.9167 C   0  0  0  0  0  0
  -24.6409  -11.6882   20.8738 C   0  0  0  0  0  0
  -23.9080  -10.4275   21.0410 C   0  0  0  0  0  0
  -24.3629   -9.4196   21.9191 C   0  0  0  0  0  0
  -23.6297   -8.2239   22.0761 C   0  0  0  0  0  0
  -22.4279   -8.0279   21.3550 C   0  0  0  0  0  0
  -21.9922   -9.0249   20.4650 C   0  0  0  0  0  0
  -22.7255  -10.2121   20.3058 C   0  0  0  0  0  0
  -21.6850   -6.0743   22.5283 C   0  0  0  0  0  0
  -21.4008   -6.5643   23.8217 C   0  0  0  0  0  0
  -21.3661   -5.6792   24.9175 C   0  0  0  0  0  0
  -21.6046   -4.3057   24.7225 C   0  0  0  0  0  0
  -21.8816   -3.8156   23.4344 C   0  0  0  0  0  0
  -21.9193   -4.6973   22.3403 C   0  0  0  0  0  0
  -22.7859  -13.5221   21.1833 C   0  0  0  0  0  0
  -22.1660   -4.2162   21.0981 F   0  0  0  0  0  0
  -21.5636   -3.4541   25.7739 F   0  0  0  0  0  0
  -30.0398  -13.2702   20.4591 N   0  0  0  0  0  0
  -26.3030  -12.9319   20.3363 N   0  0  0  0  0  0
  -25.9343  -11.6478   20.5779 N   0  0  0  0  0  0
  -22.0496  -12.8222   22.0388 N   0  0  0  0  0  0
  -25.4186  -15.1795   20.3846 N   0  0  0  0  0  0
  -31.8184  -14.6342   20.0764 O   0  0  0  0  0  0
  -21.6638   -6.8882   21.4246 O   0  0  0  0  0  0
  -22.3556  -14.5542   20.6693 O   0  0  0  0  0  0
  -24.6115  -31.8699   23.2118 C   0  0  0  0  0  0
  -25.9018  -32.4832   23.8410 C   0  0  1  0  0  0
  -27.2460  -27.4643   20.1066 C   0  0  0  0  0  0
  -25.5881  -33.8628   24.2349 N   0  0  0  0  0  0
  -23.3997  -30.4923   21.5494 C   0  0  2  0  0  0
  -24.8515  -28.9601   20.1156 C   0  0  0  0  0  0
  -22.7402  -29.4670   22.4990 C   0  0  0  0  0  0
  -18.0271  -28.1381   22.8494 C   0  0  0  0  0  0
  -24.1486  -36.7322   23.2634 C   0  0  0  0  0  0
  -25.9240  -30.8480   21.3600 C   0  0  0  0  0  0
  -26.0060  -29.4827   20.7119 C   0  0  0  0  0  0
  -27.2078  -28.7429   20.7066 C   0  0  0  0  0  0
  -26.0813  -26.9517   19.5021 C   0  0  0  0  0  0
  -24.8816  -27.6913   19.5076 C   0  0  0  0  0  0
  -23.6092  -29.8214   20.1642 C   0  0  0  0  0  0
  -25.4099  -36.3123   24.0349 C   0  0  1  0  0  0
  -20.5862  -28.3666   23.1323 C   0  0  2  0  0  0
  -20.6768  -26.9403   22.5419 C   0  0  0  0  0  0
  -19.5744  -26.6389   21.5220 C   0  0  0  0  0  0
  -18.1920  -26.7930   22.1624 C   0  0  0  0  0  0
  -19.1521  -28.8837   23.2909 C   0  0  0  0  0  0
  -18.9446  -30.1446   23.8917 C   0  0  0  0  0  0
  -17.6448  -30.6584   24.0565 C   0  0  0  0  0  0
  -25.9028  -34.9483   23.5154 C   0  0  0  0  0  0
  -16.5338  -29.9089   23.6321 C   0  0  0  0  0  0
  -16.7262  -28.6503   23.0345 C   0  0  0  0  0  0
  -26.4468  -31.6586   25.0711 C   0  0  0  0  0  0
  -25.3756  -31.3660   26.1466 C   0  0  0  0  0  0
  -27.0292  -30.3033   24.6050 C   0  0  0  0  0  0
  -27.6051  -32.4286   25.7476 C   0  0  0  0  0  0
  -27.5594  -37.1800   24.8451 C   0  0  0  0  0  0
  -21.4129  -29.3039   22.3728 N   0  0  0  0  0  0
  -26.4286  -37.3807   23.9427 N   0  0  0  0  0  0
  -24.6626  -31.0837   22.0996 N   0  0  0  0  0  0
  -23.4184  -28.8213   23.3024 O   0  0  0  0  0  0
  -28.3866  -26.6965   20.0883 O   0  0  0  0  0  0
  -26.5592  -34.8928   22.4716 O   0  0  0  0  0  0
  -23.5313  -32.1425   23.7535 O   0  0  0  0  0  0
  -29.7072  -19.1264   21.4794 C   0  0  0  0  0  0
  -31.7588  -17.2260   21.4900 C   0  0  0  0  0  0
  -29.3740  -17.7479   21.4523 C   0  0  0  0  0  0
  -31.0512  -19.5708   21.4944 C   0  0  0  0  0  0
  -30.4168  -16.7800   21.4174 C   0  0  0  0  0  0
  -32.0713  -18.5971   21.5238 C   0  0  0  0  0  0
  -26.9139  -18.1412   21.0989 C   0  0  0  0  0  0
  -27.9524  -17.3434   21.4083 C   0  0  0  0  0  0
  -29.6855  -25.2547   21.5342 C   0  0  0  0  0  0
  -28.9083  -26.3352   21.3068 C   0  0  0  0  0  0
  -30.7634  -21.8289   20.9152 C   0  0  0  0  0  0
  -30.0949  -24.2639   20.5176 C   0  0  0  0  0  0
  -31.2086  -23.2831   20.9108 C   0  0  0  0  0  0
  -31.4265  -20.9270   21.5290 N   0  0  0  0  0  0
  -30.1010  -15.3833   21.3433 N   0  0  0  0  0  0
  -29.6119  -24.2107   19.3814 O   0  0  0  0  0  0
  -33.3710  -18.9793   21.5773 F   0  0  0  0  0  0
  -31.4654  -12.3862   19.1250 H   0  0  0  0  0  0
  -30.3093  -11.2810   19.8041 H   0  0  0  0  0  0
  -29.7364  -11.8109   17.4139 H   0  0  0  0  0  0
  -29.6709  -13.5135   17.7905 H   0  0  0  0  0  0
  -27.8209  -11.3222   18.7966 H   0  0  0  0  0  0
  -27.3711  -12.6701   17.7844 H   0  0  0  0  0  0
  -27.7138  -14.2601   19.5970 H   0  0  0  0  0  0
  -28.6693  -11.9321   21.3276 H   0  0  0  0  0  0
  -28.4568  -13.5577   21.8870 H   0  0  0  0  0  0
  -25.2769   -9.5676   22.4770 H   0  0  0  0  0  0
  -24.0008   -7.4632   22.7477 H   0  0  0  0  0  0
  -21.0857   -8.8759   19.8950 H   0  0  0  0  0  0
  -22.3717  -10.9657   19.6169 H   0  0  0  0  0  0
  -21.1987   -7.6148   23.9724 H   0  0  0  0  0  0
  -21.1491   -6.0522   25.9076 H   0  0  0  0  0  0
  -22.0598   -2.7623   23.2839 H   0  0  0  0  0  0
  -22.4086  -11.9868   22.4765 H   0  0  0  0  0  0
  -21.1119  -13.1265   22.2581 H   0  0  0  0  0  0
  -24.6378  -15.8205   20.4651 H   0  0  0  0  0  0
  -26.2564  -15.6188   20.0255 H   0  0  0  0  0  0
  -26.7093  -32.5571   23.1187 H   0  0  0  0  0  0
  -25.0040  -33.9794   25.0500 H   0  0  0  0  0  0
  -22.6877  -31.3083   21.4088 H   0  0  0  0  0  0
  -23.3762  -35.9640   23.3265 H   0  0  0  0  0  0
  -24.3602  -36.8961   22.2057 H   0  0  0  0  0  0
  -23.7206  -37.6506   23.6661 H   0  0  0  0  0  0
  -26.0318  -31.6155   20.5920 H   0  0  0  0  0  0
  -26.8134  -30.9053   21.9757 H   0  0  0  0  0  0
  -28.1006  -29.1494   21.1608 H   0  0  0  0  0  0
  -26.1065  -25.9757   19.0387 H   0  0  0  0  0  0
  -23.9940  -27.2821   19.0452 H   0  0  0  0  0  0
  -23.7127  -30.5953   19.4025 H   0  0  0  0  0  0
  -22.7362  -29.2365   19.8703 H   0  0  0  0  0  0
  -25.1268  -36.2000   25.0842 H   0  0  0  0  0  0
  -20.9965  -28.3236   24.1442 H   0  0  0  0  0  0
  -20.5684  -26.2278   23.3608 H   0  0  0  0  0  0
  -21.6637  -26.7454   22.1197 H   0  0  0  0  0  0
  -19.6901  -25.6305   21.1239 H   0  0  0  0  0  0
  -19.6690  -27.3215   20.6763 H   0  0  0  0  0  0
  -17.4201  -26.6697   21.4015 H   0  0  0  0  0  0
  -18.0291  -26.0067   22.9007 H   0  0  0  0  0  0
  -19.7922  -30.7260   24.2299 H   0  0  0  0  0  0
  -17.4999  -31.6276   24.5148 H   0  0  0  0  0  0
  -15.5339  -30.2998   23.7630 H   0  0  0  0  0  0
  -15.8660  -28.0832   22.7047 H   0  0  0  0  0  0
  -24.5925  -30.7015   25.7798 H   0  0  0  0  0  0
  -24.8960  -32.2804   26.4961 H   0  0  0  0  0  0
  -25.8127  -30.8791   27.0194 H   0  0  0  0  0  0
  -26.2823  -29.6796   24.1118 H   0  0  0  0  0  0
  -27.4089  -29.7249   25.4486 H   0  0  0  0  0  0
  -27.8649  -30.4356   23.9172 H   0  0  0  0  0  0
  -27.2675  -33.3564   26.2110 H   0  0  0  0  0  0
  -28.3847  -32.6872   25.0295 H   0  0  0  0  0  0
  -28.0739  -31.8366   26.5352 H   0  0  0  0  0  0
  -28.2561  -38.0149   24.7584 H   0  0  0  0  0  0
  -28.1143  -36.2685   24.6170 H   0  0  0  0  0  0
  -27.2329  -37.1318   25.8854 H   0  0  0  0  0  0
  -20.9279  -29.8774   21.6965 H   0  0  0  0  0  0
  -26.0184  -38.2879   24.1471 H   0  0  0  0  0  0
  -28.9184  -19.8607   21.5132 H   0  0  0  0  0  0
  -32.5766  -16.5219   21.5140 H   0  0  0  0  0  0
  -25.9037  -17.7602   21.1153 H   0  0  0  0  0  0
  -27.0293  -19.1783   20.8222 H   0  0  0  0  0  0
  -27.7246  -16.3207   21.6721 H   0  0  0  0  0  0
  -30.0429  -25.0887   22.5402 H   0  0  0  0  0  0
  -28.6383  -27.0135   22.1054 H   0  0  0  0  0  0
  -29.8594  -21.6143   20.3373 H   0  0  0  0  0  0
  -32.0351  -23.3958   20.2104 H   0  0  0  0  0  0
  -31.5918  -23.5410   21.8973 H   0  0  0  0  0  0
  -29.1936  -15.1126   21.6885 H   0  0  0  0  0  0
  1 25  1  0  0  0
  1 30  2  0  0  0
  1 85  1  0  0  0
  2  3  1  0  0  0
  2 25  1  0  0  0
  2 88  1  0  0  0
  2 89  1  0  0  0
  3  4  1  0  0  0
  3 90  1  0  0  0
  3 91  1  0  0  0
  4  5  1  0  0  0
  4 92  1  0  0  0
  4 93  1  0  0  0
  5  6  1  0  0  0
  5 26  1  0  0  0
  5 94  1  0  0  0
  6 25  1  0  0  0
  6 95  1  0  0  0
  6 96  1  0  0  0
  7  8  2  0  0  0
  7 26  1  0  0  0
  7 29  1  0  0  0
  8  9  1  0  0  0
  8 22  1  0  0  0
  9 10  1  0  0  0
  9 27  2  0  0  0
 10 11  2  0  0  0
 10 15  1  0  0  0
 11 12  1  0  0  0
 11 97  1  0  0  0
 12 13  2  0  0  0
 12 98  1  0  0  0
 13 14  1  0  0  0
 13 31  1  0  0  0
 14 15  2  0  0  0
 14 99  1  0  0  0
 15100  1  0  0  0
 16 17  2  0  0  0
 16 21  1  0  0  0
 16 31  1  0  0  0
 17 18  1  0  0  0
 17101  1  0  0  0
 18 19  2  0  0  0
 18102  1  0  0  0
 19 20  1  0  0  0
 19 24  1  0  0  0
 20 21  2  0  0  0
 20103  1  0  0  0
 21 23  1  0  0  0
 22 28  1  0  0  0
 22 32  2  0  0  0
 26 27  1  0  0  0
 28104  1  0  0  0
 28105  1  0  0  0
 29106  1  0  0  0
 29107  1  0  0  0
 33 34  1  0  0  0
 33 66  1  0  0  0
 33 70  2  0  0  0
 34 36  1  0  0  0
 34 59  1  0  0  0
 34108  1  0  0  0
 35 44  2  0  0  0
 35 45  1  0  0  0
 35 68  1  0  0  0
 36 56  1  0  0  0
 36109  1  0  0  0
 37 39  1  0  0  0
 37 47  1  0  0  0
 37 66  1  0  0  0
 37110  1  0  0  0
 38 43  2  0  0  0
 38 46  1  0  0  0
 38 47  1  0  0  0
 39 64  1  0  0  0
 39 67  2  0  0  0
 40 52  1  0  0  0
 40 53  2  0  0  0
 40 58  1  0  0  0
 41111  1  0  0  0
 41112  1  0  0  0
 41113  1  0  0  0
 41 48  1  0  0  0
 42 43  1  0  0  0
 42 66  1  0  0  0
 42114  1  0  0  0
 42115  1  0  0  0
 43 44  1  0  0  0
 44116  1  0  0  0
 45 46  2  0  0  0
 45117  1  0  0  0
 46118  1  0  0  0
 47119  1  0  0  0
 47120  1  0  0  0
 48 56  1  0  0  0
 48 65  1  0  0  0
 48121  1  0  0  0
 49 50  1  0  0  0
 49 53  1  0  0  0
 49 64  1  0  0  0
 49122  1  0  0  0
 50 51  1  0  0  0
 50123  1  0  0  0
 50124  1  0  0  0
 51 52  1  0  0  0
 51125  1  0  0  0
 51126  1  0  0  0
 52127  1  0  0  0
 52128  1  0  0  0
 53 54  1  0  0  0
 54 55  2  0  0  0
 54129  1  0  0  0
 55 57  1  0  0  0
 55130  1  0  0  0
 56 69  2  0  0  0
 57 58  2  0  0  0
 57131  1  0  0  0
 58132  1  0  0  0
 59 60  1  0  0  0
 59 61  1  0  0  0
 59 62  1  0  0  0
 60133  1  0  0  0
 60134  1  0  0  0
 60135  1  0  0  0
 61136  1  0  0  0
 61137  1  0  0  0
 61138  1  0  0  0
 62139  1  0  0  0
 62140  1  0  0  0
 62141  1  0  0  0
 63 65  1  0  0  0
 63142  1  0  0  0
 63143  1  0  0  0
 63144  1  0  0  0
 64145  1  0  0  0
 65146  1  0  0  0
 68 80  1  0  0  0
 71 73  2  0  0  0
 71 74  1  0  0  0
 71147  1  0  0  0
 72 75  2  0  0  0
 72 76  1  0  0  0
 72148  1  0  0  0
 73 75  1  0  0  0
 73 78  1  0  0  0
 74 76  2  0  0  0
 74 84  1  0  0  0
 75 85  1  0  0  0
 76 87  1  0  0  0
 77 78  2  0  0  0
 77149  1  0  0  0
 77150  1  0  0  0
 78151  1  0  0  0
 79 80  2  0  0  0
 79 82  1  0  0  0
 79152  1  0  0  0
 80153  1  0  0  0
 81 83  1  0  0  0
 81 84  2  0  0  0
 81154  1  0  0  0
 82 83  1  0  0  0
 82 86  2  0  0  0
 83155  1  0  0  0
 83156  1  0  0  0
 85157  1  0  0  0
M  ISO  4   1 100  68 101  80 101  85 100
M  END
> <chiral flag>
0

> <version>
0

> <s_m_source_file>
/data/baiqing/PycharmProjects/Reinvent-master-3.2/result/LINK_invent/BTK/process_docking_weight1_custom_product_contain_oxygen_bond_distance_aromatic_linkinvent_7_9_3/rearranged_h_0117.sdf

> <i_m_source_file_index>
80

> <r_mmod_Potential_Energy-OPLS-2005>
-61.2531700134277

> <r_mmod_Stretch_Energy-OPLS-2005>
37.0191078186035

> <r_mmod_Bend_Energy-OPLS-2005>
102.359237670898

> <r_mmod_Torsional_Energy-OPLS-2005>
231.201782226562

> <r_mmod_Improper_Torsional_Energy-OPLS-2005>
3.40521001815796

> <r_mmod_Van_der_Waal_Energy-OPLS-2005>
165.862762451172

> <r_mmod_Electrostatic_Energy-OPLS-2005>
-382.759613037109

> <r_mmod_Solvation_Energy-OPLS-2005>
-226.741516113281

> <b_mmod_Minimization_Converged-OPLS-2005>
0

> <r_mmod_RMS_Derivative-OPLS-2005>
1.18772780895233

$$$$
80
                    3D
 Structure written by MMmdl.
153161  0  0  1  0            999 V2000
  -30.4945  -15.0759   20.3569 C   0  0  0  0  0  0
  -30.4430  -12.6644   19.5339 C   0  0  0  0  0  0
  -29.5429  -12.5532   18.2807 C   0  0  0  0  0  0
  -28.0863  -12.2972   18.7064 C   0  0  0  0  0  0
  -27.6291  -13.2605   19.8331 C   0  0  2  0  0  0
  -28.6616  -13.3579   20.9801 C   0  0  0  0  0  0
  -25.2444  -13.8211   20.5688 C   0  0  0  0  0  0
  -24.1783  -13.0421   20.9215 C   0  0  0  0  0  0
  -24.6427  -11.6917   20.8759 C   0  0  0  0  0  0
  -23.9118  -10.4286   21.0418 C   0  0  0  0  0  0
  -24.3665   -9.4189   21.9181 C   0  0  0  0  0  0
  -23.6331   -8.2230   22.0764 C   0  0  0  0  0  0
  -22.4287   -8.0302   21.3570 C   0  0  0  0  0  0
  -21.9933   -9.0278   20.4671 C   0  0  0  0  0  0
  -22.7280  -10.2138   20.3067 C   0  0  0  0  0  0
  -21.6862   -6.0765   22.5291 C   0  0  0  0  0  0
  -21.3993   -6.5653   23.8214 C   0  0  0  0  0  0
  -21.3677   -5.6795   24.9176 C   0  0  0  0  0  0
  -21.6009   -4.3054   24.7206 C   0  0  0  0  0  0
  -21.8824   -3.8166   23.4334 C   0  0  0  0  0  0
  -21.9153   -4.6984   22.3387 C   0  0  0  0  0  0
  -22.7811  -13.5205   21.1840 C   0  0  0  0  0  0
  -22.1655   -4.2180   21.0973 F   0  0  0  0  0  0
  -21.5642   -3.4533   25.7729 F   0  0  0  0  0  0
  -29.9314  -13.7880   20.3805 N   0  0  0  0  0  0
  -26.2894  -12.9470   20.3225 N   0  0  0  0  0  0
  -25.9355  -11.6583   20.5730 N   0  0  0  0  0  0
  -22.0441  -12.8253   22.0412 N   0  0  0  0  0  0
  -25.4092  -15.1937   20.4093 N   0  0  0  0  0  0
  -31.6908  -15.1265   20.0443 O   0  0  0  0  0  0
  -21.6640   -6.8920   21.4262 O   0  0  0  0  0  0
  -22.3509  -14.5509   20.6670 O   0  0  0  0  0  0
  -24.6532  -31.8360   23.1826 C   0  0  0  0  0  0
  -25.9273  -32.4633   23.8233 C   0  0  1  0  0  0
  -27.2141  -27.0625   20.1441 C   0  0  0  0  0  0
  -25.5988  -33.8441   24.2140 N   0  0  0  0  0  0
  -23.4564  -30.4579   21.5284 C   0  0  2  0  0  0
  -24.9043  -28.8714   20.1002 C   0  0  0  0  0  0
  -22.7608  -29.4530   22.4823 C   0  0  0  0  0  0
  -18.0321  -28.1394   22.8467 C   0  0  0  0  0  0
  -24.1510  -36.7250   23.2652 C   0  0  0  0  0  0
  -26.0182  -30.6813   21.3951 C   0  0  0  0  0  0
  -26.0807  -29.2888   20.7305 C   0  0  0  0  0  0
  -27.2292  -28.3988   20.7413 C   0  0  0  0  0  0
  -26.0102  -26.7656   19.4678 C   0  0  0  0  0  0
  -24.8858  -27.6252   19.4536 C   0  0  0  0  0  0
  -23.6845  -29.7876   20.1447 C   0  0  0  0  0  0
  -25.4135  -36.2997   24.0311 C   0  0  1  0  0  0
  -20.5948  -28.3740   23.1228 C   0  0  2  0  0  0
  -20.6823  -26.9436   22.5426 C   0  0  0  0  0  0
  -19.5790  -26.6374   21.5242 C   0  0  0  0  0  0
  -18.1954  -26.7930   22.1621 C   0  0  0  0  0  0
  -19.1580  -28.8881   23.2835 C   0  0  0  0  0  0
  -18.9478  -30.1475   23.8867 C   0  0  0  0  0  0
  -17.6472  -30.6589   24.0572 C   0  0  0  0  0  0
  -25.9082  -34.9380   23.5041 C   0  0  0  0  0  0
  -16.5373  -29.9079   23.6330 C   0  0  0  0  0  0
  -16.7311  -28.6504   23.0347 C   0  0  0  0  0  0
  -26.4549  -31.6526   25.0713 C   0  0  0  0  0  0
  -25.3702  -31.3770   26.1394 C   0  0  0  0  0  0
  -27.0430  -30.2903   24.6373 C   0  0  0  0  0  0
  -27.6074  -32.4296   25.7498 C   0  0  0  0  0  0
  -27.5576  -37.1790   24.8460 C   0  0  0  0  0  0
  -21.4296  -29.3045   22.3585 N   0  0  0  0  0  0
  -26.4297  -37.3706   23.9378 N   0  0  0  0  0  0
  -24.7293  -31.0146   22.0900 N   0  0  0  0  0  0
  -23.4214  -28.8104   23.3026 O   0  0  0  0  0  0
  -28.2688  -26.0558   20.2450 O   0  0  0  0  0  0
  -26.5662  -34.8910   22.4610 O   0  0  0  0  0  0
  -23.5636  -32.1304   23.7002 O   0  0  0  0  0  0
  -29.2478  -19.0372   20.6576 C   0  0  0  0  0  0
  -30.2890  -17.9916   18.7558 C   0  0  0  0  0  0
  -29.2455  -20.4325   20.0769 C   0  0  0  0  0  0
  -29.7747  -17.7620   20.0506 C   0  0  0  0  0  0
  -29.7771  -20.4479   18.7633 C   0  0  0  0  0  0
  -30.2770  -19.2693   18.1399 C   0  0  0  0  0  0
  -28.7628  -21.8034   20.8237 C   0  0  0  0  0  0
  -28.4296  -23.2245   20.8083 C   0  0  0  0  0  0
  -28.0828  -23.7989   22.1781 C   0  0  0  0  0  0
  -28.2583  -24.5286   19.7796 C   0  0  0  0  0  0
  -29.8741  -21.6470   18.0553 N   0  0  0  0  0  0
  -29.7220  -16.2829   20.5669 N   0  0  0  0  0  0
  -30.7890  -19.3792   16.8855 F   0  0  0  0  0  0
  -31.4823  -12.8129   19.2431 H   0  0  0  0  0  0
  -30.4339  -11.7304   20.0988 H   0  0  0  0  0  0
  -29.9091  -11.7680   17.6198 H   0  0  0  0  0  0
  -29.5979  -13.4795   17.7063 H   0  0  0  0  0  0
  -28.0264  -11.2706   19.0751 H   0  0  0  0  0  0
  -27.4146  -12.3511   17.8496 H   0  0  0  0  0  0
  -27.5744  -14.2456   19.3630 H   0  0  0  0  0  0
  -28.7655  -12.4053   21.5066 H   0  0  0  0  0  0
  -28.3386  -14.0845   21.7269 H   0  0  0  0  0  0
  -25.2799   -9.5675   22.4759 H   0  0  0  0  0  0
  -24.0016   -7.4631   22.7497 H   0  0  0  0  0  0
  -21.0862   -8.8829   19.8992 H   0  0  0  0  0  0
  -22.3768  -10.9692   19.6195 H   0  0  0  0  0  0
  -21.2034   -7.6155   23.9746 H   0  0  0  0  0  0
  -21.1495   -6.0517   25.9090 H   0  0  0  0  0  0
  -22.0585   -2.7619   23.2791 H   0  0  0  0  0  0
  -22.4010  -11.9975   22.4924 H   0  0  0  0  0  0
  -21.1092  -13.1376   22.2568 H   0  0  0  0  0  0
  -24.6300  -15.8373   20.5088 H   0  0  0  0  0  0
  -26.2481  -15.6380   20.0613 H   0  0  0  0  0  0
  -26.7337  -32.5197   23.0947 H   0  0  0  0  0  0
  -25.0139  -33.9518   25.0304 H   0  0  0  0  0  0
  -22.7619  -31.2886   21.3751 H   0  0  0  0  0  0
  -23.3745  -35.9611   23.3327 H   0  0  0  0  0  0
  -24.3611  -36.8864   22.2064 H   0  0  0  0  0  0
  -23.7320  -37.6481   23.6675 H   0  0  0  0  0  0
  -26.1903  -31.4291   20.6194 H   0  0  0  0  0  0
  -26.8818  -30.7225   22.0473 H   0  0  0  0  0  0
  -28.1168  -28.7090   21.2721 H   0  0  0  0  0  0
  -25.8880  -25.8221   18.9619 H   0  0  0  0  0  0
  -23.9905  -27.3002   18.9408 H   0  0  0  0  0  0
  -23.8353  -30.5675   19.3961 H   0  0  0  0  0  0
  -22.7912  -29.2456   19.8273 H   0  0  0  0  0  0
  -25.1342  -36.1816   25.0806 H   0  0  0  0  0  0
  -21.0042  -28.3358   24.1353 H   0  0  0  0  0  0
  -20.5772  -26.2353   23.3663 H   0  0  0  0  0  0
  -21.6687  -26.7462   22.1217 H   0  0  0  0  0  0
  -19.6964  -25.6277   21.1301 H   0  0  0  0  0  0
  -19.6742  -27.3188   20.6766 H   0  0  0  0  0  0
  -17.4261  -26.6720   21.3979 H   0  0  0  0  0  0
  -18.0300  -26.0080   22.9022 H   0  0  0  0  0  0
  -19.7946  -30.7301   24.2245 H   0  0  0  0  0  0
  -17.5018  -31.6268   24.5181 H   0  0  0  0  0  0
  -15.5372  -30.2967   23.7657 H   0  0  0  0  0  0
  -15.8719  -28.0829   22.7041 H   0  0  0  0  0  0
  -24.5866  -30.7118   25.7738 H   0  0  0  0  0  0
  -24.8910  -32.2979   26.4726 H   0  0  0  0  0  0
  -25.7965  -30.9012   27.0228 H   0  0  0  0  0  0
  -26.3068  -29.6565   24.1404 H   0  0  0  0  0  0
  -27.4033  -29.7269   25.4986 H   0  0  0  0  0  0
  -27.8982  -30.4113   23.9721 H   0  0  0  0  0  0
  -27.2654  -33.3614   26.2006 H   0  0  0  0  0  0
  -28.3914  -32.6794   25.0340 H   0  0  0  0  0  0
  -28.0687  -31.8449   26.5464 H   0  0  0  0  0  0
  -28.2613  -38.0070   24.7432 H   0  0  0  0  0  0
  -28.1050  -36.2583   24.6353 H   0  0  0  0  0  0
  -27.2288  -37.1536   25.8873 H   0  0  0  0  0  0
  -20.9534  -29.8714   21.6715 H   0  0  0  0  0  0
  -26.0164  -38.2788   24.1311 H   0  0  0  0  0  0
  -28.8176  -18.9539   21.6426 H   0  0  0  0  0  0
  -30.6795  -17.1592   18.1857 H   0  0  0  0  0  0
  -28.6774  -21.4633   21.8449 H   0  0  0  0  0  0
  -28.0874  -23.0778   22.9972 H   0  0  0  0  0  0
  -27.0891  -24.2508   22.1622 H   0  0  0  0  0  0
  -28.8000  -24.5786   22.4380 H   0  0  0  0  0  0
  -27.3322  -24.3415   19.2424 H   0  0  0  0  0  0
  -29.0234  -24.4285   19.0110 H   0  0  0  0  0  0
  -30.0558  -22.4715   18.6143 H   0  0  0  0  0  0
  -30.4827  -21.5985   17.2416 H   0  0  0  0  0  0
  -28.8766  -16.0870   21.0828 H   0  0  0  0  0  0
  1 25  1  0  0  0
  1 30  2  0  0  0
  1 82  1  0  0  0
  2  3  1  0  0  0
  2 25  1  0  0  0
  2 84  1  0  0  0
  2 85  1  0  0  0
  3  4  1  0  0  0
  3 86  1  0  0  0
  3 87  1  0  0  0
  4  5  1  0  0  0
  4 88  1  0  0  0
  4 89  1  0  0  0
  5  6  1  0  0  0
  5 26  1  0  0  0
  5 90  1  0  0  0
  6 25  1  0  0  0
  6 91  1  0  0  0
  6 92  1  0  0  0
  7  8  2  0  0  0
  7 26  1  0  0  0
  7 29  1  0  0  0
  8  9  1  0  0  0
  8 22  1  0  0  0
  9 10  1  0  0  0
  9 27  2  0  0  0
 10 11  2  0  0  0
 10 15  1  0  0  0
 11 12  1  0  0  0
 11 93  1  0  0  0
 12 13  2  0  0  0
 12 94  1  0  0  0
 13 14  1  0  0  0
 13 31  1  0  0  0
 14 15  2  0  0  0
 14 95  1  0  0  0
 15 96  1  0  0  0
 16 17  2  0  0  0
 16 21  1  0  0  0
 16 31  1  0  0  0
 17 18  1  0  0  0
 17 97  1  0  0  0
 18 19  2  0  0  0
 18 98  1  0  0  0
 19 20  1  0  0  0
 19 24  1  0  0  0
 20 21  2  0  0  0
 20 99  1  0  0  0
 21 23  1  0  0  0
 22 28  1  0  0  0
 22 32  2  0  0  0
 26 27  1  0  0  0
 28100  1  0  0  0
 28101  1  0  0  0
 29102  1  0  0  0
 29103  1  0  0  0
 33 34  1  0  0  0
 33 66  1  0  0  0
 33 70  2  0  0  0
 34 36  1  0  0  0
 34 59  1  0  0  0
 34104  1  0  0  0
 35 44  2  0  0  0
 35 45  1  0  0  0
 35 68  1  0  0  0
 36 56  1  0  0  0
 36105  1  0  0  0
 37 39  1  0  0  0
 37 47  1  0  0  0
 37 66  1  0  0  0
 37106  1  0  0  0
 38 43  2  0  0  0
 38 46  1  0  0  0
 38 47  1  0  0  0
 39 64  1  0  0  0
 39 67  2  0  0  0
 40 52  1  0  0  0
 40 53  2  0  0  0
 40 58  1  0  0  0
 41107  1  0  0  0
 41108  1  0  0  0
 41109  1  0  0  0
 41 48  1  0  0  0
 42 43  1  0  0  0
 42 66  1  0  0  0
 42110  1  0  0  0
 42111  1  0  0  0
 43 44  1  0  0  0
 44112  1  0  0  0
 45 46  2  0  0  0
 45113  1  0  0  0
 46114  1  0  0  0
 47115  1  0  0  0
 47116  1  0  0  0
 48 56  1  0  0  0
 48 65  1  0  0  0
 48117  1  0  0  0
 49 50  1  0  0  0
 49 53  1  0  0  0
 49 64  1  0  0  0
 49118  1  0  0  0
 50 51  1  0  0  0
 50119  1  0  0  0
 50120  1  0  0  0
 51 52  1  0  0  0
 51121  1  0  0  0
 51122  1  0  0  0
 52123  1  0  0  0
 52124  1  0  0  0
 53 54  1  0  0  0
 54 55  2  0  0  0
 54125  1  0  0  0
 55 57  1  0  0  0
 55126  1  0  0  0
 56 69  2  0  0  0
 57 58  2  0  0  0
 57127  1  0  0  0
 58128  1  0  0  0
 59 60  1  0  0  0
 59 61  1  0  0  0
 59 62  1  0  0  0
 60129  1  0  0  0
 60130  1  0  0  0
 60131  1  0  0  0
 61132  1  0  0  0
 61133  1  0  0  0
 61134  1  0  0  0
 62135  1  0  0  0
 62136  1  0  0  0
 62137  1  0  0  0
 63 65  1  0  0  0
 63138  1  0  0  0
 63139  1  0  0  0
 63140  1  0  0  0
 64141  1  0  0  0
 65142  1  0  0  0
 68 80  1  0  0  0
 71 73  2  0  0  0
 71 74  1  0  0  0
 71143  1  0  0  0
 72 74  2  0  0  0
 72 76  1  0  0  0
 72144  1  0  0  0
 73 75  1  0  0  0
 73 77  1  0  0  0
 74 82  1  0  0  0
 75 76  2  0  0  0
 75 81  1  0  0  0
 76 83  1  0  0  0
 77 78  2  0  0  0
 77145  1  0  0  0
 78 79  1  0  0  0
 78 80  1  0  0  0
 79146  1  0  0  0
 79147  1  0  0  0
 79148  1  0  0  0
 80149  1  0  0  0
 80150  1  0  0  0
 81151  1  0  0  0
 81152  1  0  0  0
 82153  1  0  0  0
M  ISO  4   1 100  68 101  80 101  82 100
M  END
> <chiral flag>
0

> <version>
0

> <s_m_source_file>
/data/baiqing/PycharmProjects/Reinvent-master-3.2/result/LINK_invent/BTK/process_docking_weight1_custom_product_contain_oxygen_bond_distance_aromatic_linkinvent_7_9_3/rearranged_h_0117.sdf

> <i_m_source_file_index>
81

> <r_mmod_Potential_Energy-OPLS-2005>
801.634338378906

> <r_mmod_Stretch_Energy-OPLS-2005>
348.081878662109

> <r_mmod_Bend_Energy-OPLS-2005>
370.381927490234

> <r_mmod_Torsional_Energy-OPLS-2005>
233.253768920898

> <r_mmod_Improper_Torsional_Energy-OPLS-2005>
8.25976848602295

> <r_mmod_Van_der_Waal_Energy-OPLS-2005>
133.31608581543

> <r_mmod_Electrostatic_Energy-OPLS-2005>
-360.981353759766

> <r_mmod_Solvation_Energy-OPLS-2005>
-211.289505004883

> <b_mmod_Minimization_Converged-OPLS-2005>
0

> <r_mmod_RMS_Derivative-OPLS-2005>
5.12383127212524

$$$$
81
                    3D
 Structure written by MMmdl.
158167  0  0  1  0            999 V2000
  -30.6214  -14.7761   20.3879 C   0  0  0  0  0  0
  -30.4074  -12.4686   19.4629 C   0  0  0  0  0  0
  -29.4923  -12.5029   18.2202 C   0  0  0  0  0  0
  -28.0233  -12.3198   18.6428 C   0  0  0  0  0  0
  -27.6246  -13.2401   19.8273 C   0  0  2  0  0  0
  -28.6724  -13.2316   20.9603 C   0  0  0  0  0  0
  -25.2436  -13.8201   20.5675 C   0  0  0  0  0  0
  -24.1753  -13.0421   20.9223 C   0  0  0  0  0  0
  -24.6358  -11.6910   20.8739 C   0  0  0  0  0  0
  -23.9026  -10.4285   21.0390 C   0  0  0  0  0  0
  -24.3591   -9.4223   21.9179 C   0  0  0  0  0  0
  -23.6289   -8.2247   22.0751 C   0  0  0  0  0  0
  -22.4279   -8.0260   21.3533 C   0  0  0  0  0  0
  -21.9892   -9.0219   20.4635 C   0  0  0  0  0  0
  -22.7190  -10.2118   20.3044 C   0  0  0  0  0  0
  -21.6867   -6.0717   22.5272 C   0  0  0  0  0  0
  -21.4019   -6.5630   23.8202 C   0  0  0  0  0  0
  -21.3672   -5.6789   24.9168 C   0  0  0  0  0  0
  -21.6053   -4.3049   24.7228 C   0  0  0  0  0  0
  -21.8814   -3.8132   23.4348 C   0  0  0  0  0  0
  -21.9197   -4.6946   22.3405 C   0  0  0  0  0  0
  -22.7784  -13.5209   21.1901 C   0  0  0  0  0  0
  -22.1662   -4.2132   21.0981 F   0  0  0  0  0  0
  -21.5640   -3.4536   25.7745 F   0  0  0  0  0  0
  -29.9654  -13.5644   20.3563 N   0  0  0  0  0  0
  -26.2847  -12.9421   20.3194 N   0  0  0  0  0  0
  -25.9287  -11.6554   20.5711 N   0  0  0  0  0  0
  -22.0441  -12.8180   22.0458 N   0  0  0  0  0  0
  -25.4064  -15.1921   20.4084 N   0  0  0  0  0  0
  -31.8451  -14.7704   20.2873 O   0  0  0  0  0  0
  -21.6656   -6.8852   21.4231 O   0  0  0  0  0  0
  -22.3474  -14.5530   20.6780 O   0  0  0  0  0  0
  -24.6412  -31.8537   23.1993 C   0  0  0  0  0  0
  -25.9209  -32.4751   23.8350 C   0  0  1  0  0  0
  -27.2035  -27.2145   20.0951 C   0  0  0  0  0  0
  -25.5974  -33.8549   24.2263 N   0  0  0  0  0  0
  -23.4360  -30.4844   21.5501 C   0  0  2  0  0  0
  -24.8731  -28.9382   20.1146 C   0  0  0  0  0  0
  -22.7545  -29.4606   22.4926 C   0  0  0  0  0  0
  -18.0302  -28.1372   22.8496 C   0  0  0  0  0  0
  -24.1492  -36.7285   23.2638 C   0  0  0  0  0  0
  -25.9929  -30.7532   21.3830 C   0  0  0  0  0  0
  -26.0609  -29.3768   20.7137 C   0  0  0  0  0  0
  -27.2314  -28.5344   20.6862 C   0  0  0  0  0  0
  -25.9528  -26.8496   19.5272 C   0  0  0  0  0  0
  -24.8260  -27.6813   19.5135 C   0  0  0  0  0  0
  -23.6522  -29.8347   20.1636 C   0  0  0  0  0  0
  -25.4120  -36.3072   24.0328 C   0  0  1  0  0  0
  -20.5914  -28.3700   23.1261 C   0  0  2  0  0  0
  -20.6786  -26.9412   22.5399 C   0  0  0  0  0  0
  -19.5755  -26.6379   21.5208 C   0  0  0  0  0  0
  -18.1944  -26.7919   22.1631 C   0  0  0  0  0  0
  -19.1554  -28.8856   23.2877 C   0  0  0  0  0  0
  -18.9462  -30.1456   23.8895 C   0  0  0  0  0  0
  -17.6458  -30.6578   24.0563 C   0  0  0  0  0  0
  -25.9072  -34.9438   23.5101 C   0  0  0  0  0  0
  -16.5352  -29.9072   23.6326 C   0  0  0  0  0  0
  -16.7286  -28.6481   23.0365 C   0  0  0  0  0  0
  -26.4526  -31.6574   25.0753 C   0  0  0  0  0  0
  -25.3721  -31.3718   26.1449 C   0  0  0  0  0  0
  -27.0354  -30.2986   24.6245 C   0  0  0  0  0  0
  -27.6081  -32.4298   25.7535 C   0  0  0  0  0  0
  -27.5581  -37.1803   24.8466 C   0  0  0  0  0  0
  -21.4245  -29.3064   22.3670 N   0  0  0  0  0  0
  -26.4291  -37.3778   23.9407 N   0  0  0  0  0  0
  -24.7113  -31.0466   22.1004 N   0  0  0  0  0  0
  -23.4226  -28.8111   23.3009 O   0  0  0  0  0  0
  -28.2665  -26.2476   20.1019 O   0  0  0  0  0  0
  -26.5640  -34.8916   22.4665 O   0  0  0  0  0  0
  -23.5547  -32.1373   23.7258 O   0  0  0  0  0  0
  -30.5681  -19.9386   18.5766 C   0  0  0  0  0  0
  -29.5121  -18.5688   20.2741 C   0  0  0  0  0  0
  -31.0841  -18.7711   17.9850 C   0  0  0  0  0  0
  -29.7003  -19.8963   19.6791 C   0  0  0  0  0  0
  -30.9177  -17.4928   18.5867 C   0  0  0  0  0  0
  -30.1586  -17.3344   19.7959 C   0  0  0  0  0  0
  -31.7134  -18.9009   16.6261 C   0  0  0  0  0  0
  -28.8758  -21.2121   19.7795 C   0  0  0  0  0  0
  -29.2054  -22.5634   19.9258 C   0  0  0  0  0  0
  -28.3821  -23.6800   19.3110 C   0  0  0  0  0  0
  -28.0887  -25.0509   19.3270 C   0  0  0  0  0  0
  -31.1730  -16.5928   16.4028 C   0  0  0  0  0  0
  -32.8309  -16.1710   18.0942 C   0  0  0  0  0  0
  -31.4106  -16.4197   17.8258 N   0  0  0  0  0  0
  -29.8861  -15.9667   20.3757 N   0  0  0  0  0  0
  -32.1484  -19.9656   16.1774 O   0  0  0  0  0  0
  -31.7798  -17.7467   15.8821 O   0  0  0  0  0  0
  -31.4514  -12.5716   19.1646 H   0  0  0  0  0  0
  -30.3243  -11.5048   19.9674 H   0  0  0  0  0  0
  -29.7768  -11.7198   17.5154 H   0  0  0  0  0  0
  -29.6124  -13.4504   17.6909 H   0  0  0  0  0  0
  -27.8998  -11.2757   18.9317 H   0  0  0  0  0  0
  -27.3556  -12.4788   17.7951 H   0  0  0  0  0  0
  -27.5965  -14.2507   19.4188 H   0  0  0  0  0  0
  -28.7155  -12.2593   21.4535 H   0  0  0  0  0  0
  -28.4073  -13.9616   21.7272 H   0  0  0  0  0  0
  -25.2725   -9.5746   22.4762 H   0  0  0  0  0  0
  -24.0016   -7.4654   22.7481 H   0  0  0  0  0  0
  -21.0824   -8.8703   19.8944 H   0  0  0  0  0  0
  -22.3601  -10.9651   19.6169 H   0  0  0  0  0  0
  -21.1996   -7.6137   23.9696 H   0  0  0  0  0  0
  -21.1513   -6.0526   25.9078 H   0  0  0  0  0  0
  -22.0579   -2.7593   23.2855 H   0  0  0  0  0  0
  -22.4059  -11.9835   22.4829 H   0  0  0  0  0  0
  -21.1061  -13.1192   22.2671 H   0  0  0  0  0  0
  -24.6267  -15.8327   20.5098 H   0  0  0  0  0  0
  -26.2411  -15.6394   20.0524 H   0  0  0  0  0  0
  -26.7275  -32.5360   23.1081 H   0  0  0  0  0  0
  -25.0092  -33.9675   25.0393 H   0  0  0  0  0  0
  -22.7380  -31.3123   21.4110 H   0  0  0  0  0  0
  -23.3760  -35.9612   23.3297 H   0  0  0  0  0  0
  -24.3591  -36.8909   22.2055 H   0  0  0  0  0  0
  -23.7229  -37.6480   23.6660 H   0  0  0  0  0  0
  -26.1411  -31.5166   20.6181 H   0  0  0  0  0  0
  -26.8687  -30.7948   22.0190 H   0  0  0  0  0  0
  -28.1451  -28.8732   21.1538 H   0  0  0  0  0  0
  -25.7606  -25.8747   19.1088 H   0  0  0  0  0  0
  -23.9082  -27.3252   19.0665 H   0  0  0  0  0  0
  -23.7911  -30.6189   19.4186 H   0  0  0  0  0  0
  -22.7638  -29.2848   19.8473 H   0  0  0  0  0  0
  -25.1300  -36.1929   25.0824 H   0  0  0  0  0  0
  -21.0008  -28.3253   24.1383 H   0  0  0  0  0  0
  -20.5677  -26.2304   23.3607 H   0  0  0  0  0  0
  -21.6654  -26.7436   22.1185 H   0  0  0  0  0  0
  -19.6921  -25.6292   21.1240 H   0  0  0  0  0  0
  -19.6674  -27.3189   20.6740 H   0  0  0  0  0  0
  -17.4208  -26.6672   21.4044 H   0  0  0  0  0  0
  -18.0353  -26.0049   22.9017 H   0  0  0  0  0  0
  -19.7932  -30.7282   24.2263 H   0  0  0  0  0  0
  -17.5002  -31.6261   24.5156 H   0  0  0  0  0  0
  -15.5350  -30.2970   23.7644 H   0  0  0  0  0  0
  -15.8690  -28.0794   22.7094 H   0  0  0  0  0  0
  -24.5932  -30.7035   25.7758 H   0  0  0  0  0  0
  -24.8865  -32.2871   26.4846 H   0  0  0  0  0  0
  -25.8019  -30.8913   27.0250 H   0  0  0  0  0  0
  -26.2933  -29.6750   24.1243 H   0  0  0  0  0  0
  -27.3997  -29.7236   25.4767 H   0  0  0  0  0  0
  -27.8843  -30.4259   23.9523 H   0  0  0  0  0  0
  -27.2720  -33.3622   26.2088 H   0  0  0  0  0  0
  -28.3919  -32.6808   25.0377 H   0  0  0  0  0  0
  -28.0721  -31.8425   26.5470 H   0  0  0  0  0  0
  -28.2596  -38.0103   24.7524 H   0  0  0  0  0  0
  -28.1078  -36.2636   24.6282 H   0  0  0  0  0  0
  -27.2305  -37.1447   25.8870 H   0  0  0  0  0  0
  -20.9434  -29.8838   21.6922 H   0  0  0  0  0  0
  -26.0173  -38.2857   24.1393 H   0  0  0  0  0  0
  -30.6991  -20.8791   18.0564 H   0  0  0  0  0  0
  -28.8039  -18.4863   21.0851 H   0  0  0  0  0  0
  -27.8590  -21.0376   19.4549 H   0  0  0  0  0  0
  -30.1766  -22.8220   20.3241 H   0  0  0  0  0  0
  -27.8895  -23.2626   18.4411 H   0  0  0  0  0  0
  -27.5466  -25.3257   18.4345 H   0  0  0  0  0  0
  -30.0945  -16.6348   16.2323 H   0  0  0  0  0  0
  -31.5597  -15.7188   15.8755 H   0  0  0  0  0  0
  -33.0259  -15.0993   18.0707 H   0  0  0  0  0  0
  -33.1443  -16.5464   19.0704 H   0  0  0  0  0  0
  -33.4803  -16.6272   17.3459 H   0  0  0  0  0  0
  -28.9429  -15.8485   20.7085 H   0  0  0  0  0  0
  1 25  1  0  0  0
  1 30  2  0  0  0
  1 85  1  0  0  0
  2  3  1  0  0  0
  2 25  1  0  0  0
  2 88  1  0  0  0
  2 89  1  0  0  0
  3  4  1  0  0  0
  3 90  1  0  0  0
  3 91  1  0  0  0
  4  5  1  0  0  0
  4 92  1  0  0  0
  4 93  1  0  0  0
  5  6  1  0  0  0
  5 26  1  0  0  0
  5 94  1  0  0  0
  6 25  1  0  0  0
  6 95  1  0  0  0
  6 96  1  0  0  0
  7  8  2  0  0  0
  7 26  1  0  0  0
  7 29  1  0  0  0
  8  9  1  0  0  0
  8 22  1  0  0  0
  9 10  1  0  0  0
  9 27  2  0  0  0
 10 11  2  0  0  0
 10 15  1  0  0  0
 11 12  1  0  0  0
 11 97  1  0  0  0
 12 13  2  0  0  0
 12 98  1  0  0  0
 13 14  1  0  0  0
 13 31  1  0  0  0
 14 15  2  0  0  0
 14 99  1  0  0  0
 15100  1  0  0  0
 16 17  2  0  0  0
 16 21  1  0  0  0
 16 31  1  0  0  0
 17 18  1  0  0  0
 17101  1  0  0  0
 18 19  2  0  0  0
 18102  1  0  0  0
 19 20  1  0  0  0
 19 24  1  0  0  0
 20 21  2  0  0  0
 20103  1  0  0  0
 21 23  1  0  0  0
 22 28  1  0  0  0
 22 32  2  0  0  0
 26 27  1  0  0  0
 28104  1  0  0  0
 28105  1  0  0  0
 29106  1  0  0  0
 29107  1  0  0  0
 33 34  1  0  0  0
 33 66  1  0  0  0
 33 70  2  0  0  0
 34 36  1  0  0  0
 34 59  1  0  0  0
 34108  1  0  0  0
 35 44  2  0  0  0
 35 45  1  0  0  0
 35 68  1  0  0  0
 36 56  1  0  0  0
 36109  1  0  0  0
 37 39  1  0  0  0
 37 47  1  0  0  0
 37 66  1  0  0  0
 37110  1  0  0  0
 38 43  2  0  0  0
 38 46  1  0  0  0
 38 47  1  0  0  0
 39 64  1  0  0  0
 39 67  2  0  0  0
 40 52  1  0  0  0
 40 53  2  0  0  0
 40 58  1  0  0  0
 41111  1  0  0  0
 41112  1  0  0  0
 41113  1  0  0  0
 41 48  1  0  0  0
 42 43  1  0  0  0
 42 66  1  0  0  0
 42114  1  0  0  0
 42115  1  0  0  0
 43 44  1  0  0  0
 44116  1  0  0  0
 45 46  2  0  0  0
 45117  1  0  0  0
 46118  1  0  0  0
 47119  1  0  0  0
 47120  1  0  0  0
 48 56  1  0  0  0
 48 65  1  0  0  0
 48121  1  0  0  0
 49 50  1  0  0  0
 49 53  1  0  0  0
 49 64  1  0  0  0
 49122  1  0  0  0
 50 51  1  0  0  0
 50123  1  0  0  0
 50124  1  0  0  0
 51 52  1  0  0  0
 51125  1  0  0  0
 51126  1  0  0  0
 52127  1  0  0  0
 52128  1  0  0  0
 53 54  1  0  0  0
 54 55  2  0  0  0
 54129  1  0  0  0
 55 57  1  0  0  0
 55130  1  0  0  0
 56 69  2  0  0  0
 57 58  2  0  0  0
 57131  1  0  0  0
 58132  1  0  0  0
 59 60  1  0  0  0
 59 61  1  0  0  0
 59 62  1  0  0  0
 60133  1  0  0  0
 60134  1  0  0  0
 60135  1  0  0  0
 61136  1  0  0  0
 61137  1  0  0  0
 61138  1  0  0  0
 62139  1  0  0  0
 62140  1  0  0  0
 62141  1  0  0  0
 63 65  1  0  0  0
 63142  1  0  0  0
 63143  1  0  0  0
 63144  1  0  0  0
 64145  1  0  0  0
 65146  1  0  0  0
 68 81  1  0  0  0
 71 73  2  0  0  0
 71 74  1  0  0  0
 71147  1  0  0  0
 72 74  2  0  0  0
 72 76  1  0  0  0
 72148  1  0  0  0
 73 75  1  0  0  0
 73 77  1  0  0  0
 74 78  1  0  0  0
 75 76  2  0  0  0
 75 84  1  0  0  0
 76 85  1  0  0  0
 77 86  2  0  0  0
 77 87  1  0  0  0
 78 79  2  0  0  0
 78149  1  0  0  0
 79 80  1  0  0  0
 79150  1  0  0  0
 80 81  2  0  0  0
 80151  1  0  0  0
 81152  1  0  0  0
 82 84  1  0  0  0
 82 87  1  0  0  0
 82153  1  0  0  0
 82154  1  0  0  0
 83 84  1  0  0  0
 83155  1  0  0  0
 83156  1  0  0  0
 83157  1  0  0  0
 85158  1  0  0  0
M  ISO  4   1 100  68 101  81 101  85 100
M  END
> <chiral flag>
0

> <version>
0

> <s_m_source_file>
/data/baiqing/PycharmProjects/Reinvent-master-3.2/result/LINK_invent/BTK/process_docking_weight1_custom_product_contain_oxygen_bond_distance_aromatic_linkinvent_7_9_3/rearranged_h_0117.sdf

> <i_m_source_file_index>
82

> <r_mmod_Potential_Energy-OPLS-2005>
426.739929199219

> <r_mmod_Stretch_Energy-OPLS-2005>
154.258560180664

> <r_mmod_Bend_Energy-OPLS-2005>
292.556854248047

> <r_mmod_Torsional_Energy-OPLS-2005>
326.180145263672

> <r_mmod_Improper_Torsional_Energy-OPLS-2005>
25.8808650970459

> <r_mmod_Van_der_Waal_Energy-OPLS-2005>
191.806381225586

> <r_mmod_Electrostatic_Energy-OPLS-2005>
-457.393615722656

> <r_mmod_Solvation_Energy-OPLS-2005>
-226.494506835938

> <b_mmod_Minimization_Converged-OPLS-2005>
0

> <r_mmod_RMS_Derivative-OPLS-2005>
2.43858313560486

$$$$
82
                    3D
 Structure written by MMmdl.
165173  0  0  1  0            999 V2000
  -30.7791  -14.4747   20.5348 C   0  0  0  0  0  0
  -30.3944  -12.3027   19.4469 C   0  0  0  0  0  0
  -29.4901  -12.4894   18.2163 C   0  0  0  0  0  0
  -28.0127  -12.3557   18.6284 C   0  0  0  0  0  0
  -27.6511  -13.2262   19.8643 C   0  0  2  0  0  0
  -28.6963  -13.0938   20.9964 C   0  0  0  0  0  0
  -25.2544  -13.8191   20.5736 C   0  0  0  0  0  0
  -24.1802  -13.0441   20.9207 C   0  0  0  0  0  0
  -24.6383  -11.6916   20.8739 C   0  0  0  0  0  0
  -23.9063  -10.4296   21.0404 C   0  0  0  0  0  0
  -24.3610   -9.4204   21.9175 C   0  0  0  0  0  0
  -23.6286   -8.2235   22.0749 C   0  0  0  0  0  0
  -22.4266   -8.0272   21.3554 C   0  0  0  0  0  0
  -21.9904   -9.0240   20.4646 C   0  0  0  0  0  0
  -22.7234  -10.2124   20.3061 C   0  0  0  0  0  0
  -21.6846   -6.0726   22.5276 C   0  0  0  0  0  0
  -21.4015   -6.5633   23.8206 C   0  0  0  0  0  0
  -21.3663   -5.6795   24.9172 C   0  0  0  0  0  0
  -21.6044   -4.3057   24.7226 C   0  0  0  0  0  0
  -21.8818   -3.8147   23.4349 C   0  0  0  0  0  0
  -21.9188   -4.6958   22.3402 C   0  0  0  0  0  0
  -22.7821  -13.5217   21.1872 C   0  0  0  0  0  0
  -22.1658   -4.2137   21.0984 F   0  0  0  0  0  0
  -21.5629   -3.4557   25.7750 F   0  0  0  0  0  0
  -30.0254  -13.3458   20.4215 N   0  0  0  0  0  0
  -26.2981  -12.9408   20.3359 N   0  0  0  0  0  0
  -25.9314  -11.6550   20.5775 N   0  0  0  0  0  0
  -22.0464  -12.8198   22.0420 N   0  0  0  0  0  0
  -25.4277  -15.1908   20.4190 N   0  0  0  0  0  0
  -31.9349  -14.4920   20.1100 O   0  0  0  0  0  0
  -21.6635   -6.8868   21.4244 O   0  0  0  0  0  0
  -22.3508  -14.5532   20.6723 O   0  0  0  0  0  0
  -24.6131  -31.8721   23.2113 C   0  0  0  0  0  0
  -25.9039  -32.4829   23.8406 C   0  0  1  0  0  0
  -27.2223  -27.4446   20.0962 C   0  0  0  0  0  0
  -25.5909  -33.8626   24.2346 N   0  0  0  0  0  0
  -23.3984  -30.4970   21.5534 C   0  0  2  0  0  0
  -24.8446  -28.9666   20.1139 C   0  0  0  0  0  0
  -22.7411  -29.4683   22.5007 C   0  0  0  0  0  0
  -18.0260  -28.1366   22.8505 C   0  0  0  0  0  0
  -24.1504  -36.7331   23.2631 C   0  0  0  0  0  0
  -25.9282  -30.8417   21.3648 C   0  0  0  0  0  0
  -26.0063  -29.4783   20.7073 C   0  0  0  0  0  0
  -27.2021  -28.7255   20.6913 C   0  0  0  0  0  0
  -26.0485  -26.9448   19.4959 C   0  0  0  0  0  0
  -24.8618  -27.7006   19.5032 C   0  0  0  0  0  0
  -23.6054  -29.8317   20.1676 C   0  0  0  0  0  0
  -25.4113  -36.3120   24.0338 C   0  0  1  0  0  0
  -20.5854  -28.3658   23.1329 C   0  0  2  0  0  0
  -20.6767  -26.9395   22.5425 C   0  0  0  0  0  0
  -19.5744  -26.6383   21.5225 C   0  0  0  0  0  0
  -18.1906  -26.7914   22.1624 C   0  0  0  0  0  0
  -19.1506  -28.8832   23.2916 C   0  0  0  0  0  0
  -18.9442  -30.1441   23.8915 C   0  0  0  0  0  0
  -17.6451  -30.6585   24.0553 C   0  0  0  0  0  0
  -25.9052  -34.9481   23.5145 C   0  0  0  0  0  0
  -16.5343  -29.9084   23.6330 C   0  0  0  0  0  0
  -16.7254  -28.6488   23.0361 C   0  0  0  0  0  0
  -26.4455  -31.6599   25.0740 C   0  0  0  0  0  0
  -25.3700  -31.3690   26.1476 C   0  0  0  0  0  0
  -27.0256  -30.3020   24.6123 C   0  0  0  0  0  0
  -27.6080  -32.4264   25.7458 C   0  0  0  0  0  0
  -27.5591  -37.1800   24.8455 C   0  0  0  0  0  0
  -21.4139  -29.3031   22.3741 N   0  0  0  0  0  0
  -26.4304  -37.3795   23.9415 N   0  0  0  0  0  0
  -24.6647  -31.0837   22.1014 N   0  0  0  0  0  0
  -23.4200  -28.8231   23.3042 O   0  0  0  0  0  0
  -28.3674  -26.6860   20.0921 O   0  0  0  0  0  0
  -26.5603  -34.8914   22.4700 O   0  0  0  0  0  0
  -23.5327  -32.1473   23.7518 O   0  0  0  0  0  0
  -28.8786  -18.2258   20.1410 C   0  0  0  0  0  0
  -29.4601  -20.3705   21.8465 C   0  0  0  0  0  0
  -29.8814  -18.0600   21.1216 C   0  0  0  0  0  0
  -30.1577  -19.1507   22.0038 C   0  0  0  0  0  0
  -28.2157  -19.4671   19.9562 C   0  0  0  0  0  0
  -28.5303  -20.5609   20.7956 C   0  0  0  0  0  0
  -30.7566  -16.8239   21.0575 C   0  0  0  0  0  0
  -28.1549  -24.2118   20.2986 C   0  0  0  0  0  0
  -32.4604  -17.3868   24.5128 C   0  0  0  0  0  0
  -27.0439  -18.6546   18.0187 C   0  0  0  0  0  0
  -31.2584  -19.1096   23.0685 C   0  0  0  0  0  0
  -28.3305  -25.5716   21.0028 C   0  0  0  0  0  0
  -28.4221  -22.9601   21.1530 C   0  0  0  0  0  0
  -31.1051  -17.9879   24.1150 C   0  0  0  0  0  0
  -30.1572  -15.6107   20.9356 N   0  0  0  0  0  0
  -31.9798  -16.9949   21.1003 O   0  0  0  0  0  0
  -27.8263  -24.1266   19.1093 O   0  0  0  0  0  0
  -27.2964  -19.6969   18.9543 O   0  0  0  0  0  0
  -27.9282  -21.7764   20.5113 O   0  0  0  0  0  0
  -31.4443  -12.3378   19.1492 H   0  0  0  0  0  0
  -30.2496  -11.3139   19.8838 H   0  0  0  0  0  0
  -29.7343  -11.7514   17.4501 H   0  0  0  0  0  0
  -29.6671  -13.4677   17.7662 H   0  0  0  0  0  0
  -27.8275  -11.3031   18.8475 H   0  0  0  0  0  0
  -27.3642  -12.6057   17.7888 H   0  0  0  0  0  0
  -27.6687  -14.2622   19.5230 H   0  0  0  0  0  0
  -28.6655  -12.0964   21.4356 H   0  0  0  0  0  0
  -28.4682  -13.7878   21.8088 H   0  0  0  0  0  0
  -25.2742   -9.5665   22.4756 H   0  0  0  0  0  0
  -23.9980   -7.4623   22.7465 H   0  0  0  0  0  0
  -21.0833   -8.8751   19.8951 H   0  0  0  0  0  0
  -22.3671  -10.9661   19.6171 H   0  0  0  0  0  0
  -21.2007   -7.6142   23.9706 H   0  0  0  0  0  0
  -21.1498   -6.0533   25.9074 H   0  0  0  0  0  0
  -22.0593   -2.7607   23.2861 H   0  0  0  0  0  0
  -22.4098  -11.9867   22.4800 H   0  0  0  0  0  0
  -21.1090  -13.1224   22.2644 H   0  0  0  0  0  0
  -24.6695  -15.8513   20.5528 H   0  0  0  0  0  0
  -26.2889  -15.6311   20.1265 H   0  0  0  0  0  0
  -26.7115  -32.5561   23.1176 H   0  0  0  0  0  0
  -25.0056  -33.9795   25.0488 H   0  0  0  0  0  0
  -22.6874  -31.3137   21.4182 H   0  0  0  0  0  0
  -23.3769  -35.9662   23.3273 H   0  0  0  0  0  0
  -24.3620  -36.8967   22.2056 H   0  0  0  0  0  0
  -23.7255  -37.6527   23.6659 H   0  0  0  0  0  0
  -26.0466  -31.6134   20.6027 H   0  0  0  0  0  0
  -26.8138  -30.8877   21.9881 H   0  0  0  0  0  0
  -28.0998  -29.1180   21.1466 H   0  0  0  0  0  0
  -26.0484  -25.9754   19.0164 H   0  0  0  0  0  0
  -23.9696  -27.3052   19.0391 H   0  0  0  0  0  0
  -23.7025  -30.6097   19.4104 H   0  0  0  0  0  0
  -22.7288  -29.2492   19.8770 H   0  0  0  0  0  0
  -25.1263  -36.1984   25.0825 H   0  0  0  0  0  0
  -20.9932  -28.3222   24.1461 H   0  0  0  0  0  0
  -20.5715  -26.2257   23.3609 H   0  0  0  0  0  0
  -21.6630  -26.7482   22.1185 H   0  0  0  0  0  0
  -19.6926  -25.6302   21.1236 H   0  0  0  0  0  0
  -19.6683  -27.3220   20.6773 H   0  0  0  0  0  0
  -17.4196  -26.6697   21.4003 H   0  0  0  0  0  0
  -18.0284  -26.0040   22.9002 H   0  0  0  0  0  0
  -19.7925  -30.7240   24.2300 H   0  0  0  0  0  0
  -17.5004  -31.6269   24.5140 H   0  0  0  0  0  0
  -15.5340  -30.2981   23.7649 H   0  0  0  0  0  0
  -15.8656  -28.0805   22.7084 H   0  0  0  0  0  0
  -24.5953  -30.6934   25.7828 H   0  0  0  0  0  0
  -24.8784  -32.2808   26.4871 H   0  0  0  0  0  0
  -25.8043  -30.8942   27.0284 H   0  0  0  0  0  0
  -26.2806  -29.6788   24.1164 H   0  0  0  0  0  0
  -27.3992  -29.7228   25.4579 H   0  0  0  0  0  0
  -27.8650  -30.4321   23.9286 H   0  0  0  0  0  0
  -27.2815  -33.3608   26.2020 H   0  0  0  0  0  0
  -28.3873  -32.6727   25.0237 H   0  0  0  0  0  0
  -28.0750  -31.8367   26.5361 H   0  0  0  0  0  0
  -28.2577  -38.0125   24.7538 H   0  0  0  0  0  0
  -28.1107  -36.2659   24.6217 H   0  0  0  0  0  0
  -27.2311  -37.1364   25.8852 H   0  0  0  0  0  0
  -20.9320  -29.8729   21.6929 H   0  0  0  0  0  0
  -26.0193  -38.2874   24.1411 H   0  0  0  0  0  0
  -28.6929  -17.4021   19.4690 H   0  0  0  0  0  0
  -29.6985  -21.1816   22.5193 H   0  0  0  0  0  0
  -32.3370  -16.5479   25.1983 H   0  0  0  0  0  0
  -33.0972  -18.1276   24.9962 H   0  0  0  0  0  0
  -32.9955  -17.0170   23.6373 H   0  0  0  0  0  0
  -26.3631  -19.0175   17.2495 H   0  0  0  0  0  0
  -26.5721  -17.7933   18.4960 H   0  0  0  0  0  0
  -27.9562  -18.3312   17.5142 H   0  0  0  0  0  0
  -31.3073  -20.0648   23.5947 H   0  0  0  0  0  0
  -32.2191  -19.0426   22.5573 H   0  0  0  0  0  0
  -29.2653  -25.5503   21.5639 H   0  0  0  0  0  0
  -27.5311  -25.6912   21.7352 H   0  0  0  0  0  0
  -27.9431  -23.0760   22.1245 H   0  0  0  0  0  0
  -29.5001  -22.9083   21.3036 H   0  0  0  0  0  0
  -30.5776  -18.3670   24.9892 H   0  0  0  0  0  0
  -30.4824  -17.1783   23.7399 H   0  0  0  0  0  0
  -29.1622  -15.5736   21.0740 H   0  0  0  0  0  0
  1 25  1  0  0  0
  1 30  2  0  0  0
  1 85  1  0  0  0
  2  3  1  0  0  0
  2 25  1  0  0  0
  2 90  1  0  0  0
  2 91  1  0  0  0
  3  4  1  0  0  0
  3 92  1  0  0  0
  3 93  1  0  0  0
  4  5  1  0  0  0
  4 94  1  0  0  0
  4 95  1  0  0  0
  5  6  1  0  0  0
  5 26  1  0  0  0
  5 96  1  0  0  0
  6 25  1  0  0  0
  6 97  1  0  0  0
  6 98  1  0  0  0
  7  8  2  0  0  0
  7 26  1  0  0  0
  7 29  1  0  0  0
  8  9  1  0  0  0
  8 22  1  0  0  0
  9 10  1  0  0  0
  9 27  2  0  0  0
 10 11  2  0  0  0
 10 15  1  0  0  0
 11 12  1  0  0  0
 11 99  1  0  0  0
 12 13  2  0  0  0
 12100  1  0  0  0
 13 14  1  0  0  0
 13 31  1  0  0  0
 14 15  2  0  0  0
 14101  1  0  0  0
 15102  1  0  0  0
 16 17  2  0  0  0
 16 21  1  0  0  0
 16 31  1  0  0  0
 17 18  1  0  0  0
 17103  1  0  0  0
 18 19  2  0  0  0
 18104  1  0  0  0
 19 20  1  0  0  0
 19 24  1  0  0  0
 20 21  2  0  0  0
 20105  1  0  0  0
 21 23  1  0  0  0
 22 28  1  0  0  0
 22 32  2  0  0  0
 26 27  1  0  0  0
 28106  1  0  0  0
 28107  1  0  0  0
 29108  1  0  0  0
 29109  1  0  0  0
 33 34  1  0  0  0
 33 66  1  0  0  0
 33 70  2  0  0  0
 34 36  1  0  0  0
 34 59  1  0  0  0
 34110  1  0  0  0
 35 44  2  0  0  0
 35 45  1  0  0  0
 35 68  1  0  0  0
 36 56  1  0  0  0
 36111  1  0  0  0
 37 39  1  0  0  0
 37 47  1  0  0  0
 37 66  1  0  0  0
 37112  1  0  0  0
 38 43  2  0  0  0
 38 46  1  0  0  0
 38 47  1  0  0  0
 39 64  1  0  0  0
 39 67  2  0  0  0
 40 52  1  0  0  0
 40 53  2  0  0  0
 40 58  1  0  0  0
 41113  1  0  0  0
 41114  1  0  0  0
 41115  1  0  0  0
 41 48  1  0  0  0
 42 43  1  0  0  0
 42 66  1  0  0  0
 42116  1  0  0  0
 42117  1  0  0  0
 43 44  1  0  0  0
 44118  1  0  0  0
 45 46  2  0  0  0
 45119  1  0  0  0
 46120  1  0  0  0
 47121  1  0  0  0
 47122  1  0  0  0
 48 56  1  0  0  0
 48 65  1  0  0  0
 48123  1  0  0  0
 49 50  1  0  0  0
 49 53  1  0  0  0
 49 64  1  0  0  0
 49124  1  0  0  0
 50 51  1  0  0  0
 50125  1  0  0  0
 50126  1  0  0  0
 51 52  1  0  0  0
 51127  1  0  0  0
 51128  1  0  0  0
 52129  1  0  0  0
 52130  1  0  0  0
 53 54  1  0  0  0
 54 55  2  0  0  0
 54131  1  0  0  0
 55 57  1  0  0  0
 55132  1  0  0  0
 56 69  2  0  0  0
 57 58  2  0  0  0
 57133  1  0  0  0
 58134  1  0  0  0
 59 60  1  0  0  0
 59 61  1  0  0  0
 59 62  1  0  0  0
 60135  1  0  0  0
 60136  1  0  0  0
 60137  1  0  0  0
 61138  1  0  0  0
 61139  1  0  0  0
 61140  1  0  0  0
 62141  1  0  0  0
 62142  1  0  0  0
 62143  1  0  0  0
 63 65  1  0  0  0
 63144  1  0  0  0
 63145  1  0  0  0
 63146  1  0  0  0
 64147  1  0  0  0
 65148  1  0  0  0
 68 82  1  0  0  0
 71 73  2  0  0  0
 71 75  1  0  0  0
 71149  1  0  0  0
 72 74  2  0  0  0
 72 76  1  0  0  0
 72150  1  0  0  0
 73 74  1  0  0  0
 73 77  1  0  0  0
 74 81  1  0  0  0
 75 76  2  0  0  0
 75 88  1  0  0  0
 76 89  1  0  0  0
 77 85  1  0  0  0
 77 86  2  0  0  0
 78 82  1  0  0  0
 78 83  1  0  0  0
 78 87  2  0  0  0
 79 84  1  0  0  0
 79151  1  0  0  0
 79152  1  0  0  0
 79153  1  0  0  0
 80 88  1  0  0  0
 80154  1  0  0  0
 80155  1  0  0  0
 80156  1  0  0  0
 81 84  1  0  0  0
 81157  1  0  0  0
 81158  1  0  0  0
 82159  1  0  0  0
 82160  1  0  0  0
 83 89  1  0  0  0
 83161  1  0  0  0
 83162  1  0  0  0
 84163  1  0  0  0
 84164  1  0  0  0
 85165  1  0  0  0
M  ISO  4   1 100  68 101  82 101  85 100
M  END
> <chiral flag>
0

> <version>
0

> <s_m_source_file>
/data/baiqing/PycharmProjects/Reinvent-master-3.2/result/LINK_invent/BTK/process_docking_weight1_custom_product_contain_oxygen_bond_distance_aromatic_linkinvent_7_9_3/rearranged_h_0117.sdf

> <i_m_source_file_index>
83

> <r_mmod_Potential_Energy-OPLS-2005>
-26.4647903442383

> <r_mmod_Stretch_Energy-OPLS-2005>
41.7215766906738

> <r_mmod_Bend_Energy-OPLS-2005>
112.553359985352

> <r_mmod_Torsional_Energy-OPLS-2005>
256.829986572266

> <r_mmod_Improper_Torsional_Energy-OPLS-2005>
5.50254058837891

> <r_mmod_Van_der_Waal_Energy-OPLS-2005>
174.492721557617

> <r_mmod_Electrostatic_Energy-OPLS-2005>
-381.219146728516

> <r_mmod_Solvation_Energy-OPLS-2005>
-258.37744140625

> <b_mmod_Minimization_Converged-OPLS-2005>
0

> <r_mmod_RMS_Derivative-OPLS-2005>
3.21867275238037

$$$$
83
                    3D
 Structure written by MMmdl.
170179  0  0  1  0            999 V2000
  -30.7321  -14.4741   20.5438 C   0  0  0  0  0  0
  -30.4169  -12.2836   19.4553 C   0  0  0  0  0  0
  -29.5075  -12.4391   18.2192 C   0  0  0  0  0  0
  -28.0231  -12.3268   18.6197 C   0  0  0  0  0  0
  -27.6509  -13.1999   19.8468 C   0  0  2  0  0  0
  -28.6852  -13.0580   20.9808 C   0  0  0  0  0  0
  -25.2599  -13.8134   20.5639 C   0  0  0  0  0  0
  -24.1845  -13.0429   20.9169 C   0  0  0  0  0  0
  -24.6385  -11.6893   20.8731 C   0  0  0  0  0  0
  -23.9045  -10.4287   21.0405 C   0  0  0  0  0  0
  -24.3598   -9.4208   21.9180 C   0  0  0  0  0  0
  -23.6277   -8.2245   22.0757 C   0  0  0  0  0  0
  -22.4268   -8.0275   21.3542 C   0  0  0  0  0  0
  -21.9896   -9.0248   20.4653 C   0  0  0  0  0  0
  -22.7223  -10.2125   20.3054 C   0  0  0  0  0  0
  -21.6859   -6.0718   22.5275 C   0  0  0  0  0  0
  -21.4027   -6.5625   23.8209 C   0  0  0  0  0  0
  -21.3662   -5.6779   24.9167 C   0  0  0  0  0  0
  -21.6049   -4.3045   24.7222 C   0  0  0  0  0  0
  -21.8826   -3.8132   23.4347 C   0  0  0  0  0  0
  -21.9204   -4.6944   22.3401 C   0  0  0  0  0  0
  -22.7885  -13.5251   21.1842 C   0  0  0  0  0  0
  -22.1669   -4.2120   21.0981 F   0  0  0  0  0  0
  -21.5625   -3.4544   25.7743 F   0  0  0  0  0  0
  -30.0261  -13.3123   20.4309 N   0  0  0  0  0  0
  -26.2977  -12.9270   20.3214 N   0  0  0  0  0  0
  -25.9299  -11.6448   20.5702 N   0  0  0  0  0  0
  -22.0516  -12.8251   22.0392 N   0  0  0  0  0  0
  -25.4374  -15.1846   20.4093 N   0  0  0  0  0  0
  -31.9052  -14.5759   20.1710 O   0  0  0  0  0  0
  -21.6647   -6.8858   21.4233 O   0  0  0  0  0  0
  -22.3577  -14.5549   20.6672 O   0  0  0  0  0  0
  -24.6117  -31.8710   23.2126 C   0  0  0  0  0  0
  -25.9023  -32.4837   23.8422 C   0  0  1  0  0  0
  -27.2439  -27.4567   20.1067 C   0  0  0  0  0  0
  -25.5890  -33.8633   24.2356 N   0  0  0  0  0  0
  -23.4002  -30.4931   21.5504 C   0  0  2  0  0  0
  -24.8523  -28.9596   20.1197 C   0  0  0  0  0  0
  -22.7396  -29.4674   22.4993 C   0  0  0  0  0  0
  -18.0271  -28.1392   22.8492 C   0  0  0  0  0  0
  -24.1485  -36.7329   23.2635 C   0  0  0  0  0  0
  -25.9255  -30.8431   21.3634 C   0  0  0  0  0  0
  -26.0068  -29.4746   20.7228 C   0  0  0  0  0  0
  -27.2058  -28.7302   20.7221 C   0  0  0  0  0  0
  -26.0806  -26.9605   19.4873 C   0  0  0  0  0  0
  -24.8815  -27.6978   19.5010 C   0  0  0  0  0  0
  -23.6118  -29.8230   20.1656 C   0  0  0  0  0  0
  -25.4104  -36.3126   24.0340 C   0  0  1  0  0  0
  -20.5857  -28.3678   23.1321 C   0  0  2  0  0  0
  -20.6772  -26.9416   22.5423 C   0  0  0  0  0  0
  -19.5752  -26.6401   21.5219 C   0  0  0  0  0  0
  -18.1927  -26.7941   22.1620 C   0  0  0  0  0  0
  -19.1519  -28.8853   23.2904 C   0  0  0  0  0  0
  -18.9449  -30.1457   23.8921 C   0  0  0  0  0  0
  -17.6452  -30.6593   24.0579 C   0  0  0  0  0  0
  -25.9025  -34.9484   23.5146 C   0  0  0  0  0  0
  -16.5345  -29.9105   23.6319 C   0  0  0  0  0  0
  -16.7260  -28.6522   23.0338 C   0  0  0  0  0  0
  -26.4465  -31.6597   25.0730 C   0  0  0  0  0  0
  -25.3736  -31.3688   26.1477 C   0  0  0  0  0  0
  -27.0280  -30.3044   24.6075 C   0  0  0  0  0  0
  -27.6075  -32.4283   25.7477 C   0  0  0  0  0  0
  -27.5581  -37.1814   24.8463 C   0  0  0  0  0  0
  -21.4126  -29.3044   22.3726 N   0  0  0  0  0  0
  -26.4298  -37.3803   23.9403 N   0  0  0  0  0  0
  -24.6636  -31.0829   22.1016 N   0  0  0  0  0  0
  -23.4169  -28.8216   23.3037 O   0  0  0  0  0  0
  -28.3699  -26.6701   20.0391 O   0  0  0  0  0  0
  -26.5585  -34.8926   22.4706 O   0  0  0  0  0  0
  -23.5311  -32.1445   23.7531 O   0  0  0  0  0  0
  -30.1003  -16.7596   24.3502 C   0  0  0  0  0  0
  -29.7818  -18.1086   24.1625 C   0  0  0  0  0  0
  -28.2874  -20.6974   23.0422 C   0  0  0  0  0  0
  -30.2634  -20.6723   21.6505 C   0  0  0  0  0  0
  -29.3879  -19.9884   22.5186 C   0  0  0  0  0  0
  -28.9298  -22.7262   21.8071 C   0  0  0  0  0  0
  -30.2365  -15.8951   23.2380 C   0  0  0  0  0  0
  -28.0462  -22.0447   22.6845 C   0  0  0  0  0  0
  -30.0511  -22.0226   21.2944 C   0  0  0  0  0  0
  -29.6320  -18.5705   22.8553 C   0  0  0  0  0  0
  -29.9996  -16.4102   21.9157 C   0  0  0  0  0  0
  -29.3727  -17.3675   18.9673 C   0  0  0  0  0  0
  -28.6521  -24.1290   21.4183 C   0  0  0  0  0  0
  -29.4852  -25.1714   21.6085 C   0  0  0  0  0  0
  -29.6022  -16.1160   19.4181 C   0  0  0  0  0  0
  -30.6420  -14.4635   23.5824 C   0  0  0  0  0  0
  -26.8311  -22.7492   23.2651 C   0  0  0  0  0  0
  -31.0314  -22.6738   20.3317 C   0  0  0  0  0  0
  -29.2244  -26.6094   21.1806 C   0  0  0  0  0  0
  -29.7235  -17.7317   21.8079 N   0  0  0  0  0  0
  -29.9905  -15.5996   20.6956 N   0  0  0  0  0  0
  -31.4670  -12.3542   19.1665 H   0  0  0  0  0  0
  -30.2950  -11.2904   19.8912 H   0  0  0  0  0  0
  -29.7499  -11.6675   17.4879 H   0  0  0  0  0  0
  -29.6977  -13.3867   17.7182 H   0  0  0  0  0  0
  -27.8323  -11.2769   18.8457 H   0  0  0  0  0  0
  -27.3839  -12.5734   17.7714 H   0  0  0  0  0  0
  -27.6616  -14.2306   19.5026 H   0  0  0  0  0  0
  -28.6462  -12.0638   21.4269 H   0  0  0  0  0  0
  -28.4239  -13.7625   21.7696 H   0  0  0  0  0  0
  -25.2740   -9.5685   22.4753 H   0  0  0  0  0  0
  -23.9989   -7.4636   22.7483 H   0  0  0  0  0  0
  -21.0826   -8.8768   19.8959 H   0  0  0  0  0  0
  -22.3682  -10.9657   19.6161 H   0  0  0  0  0  0
  -21.2014   -7.6134   23.9698 H   0  0  0  0  0  0
  -21.1484   -6.0515   25.9065 H   0  0  0  0  0  0
  -22.0599   -2.7594   23.2864 H   0  0  0  0  0  0
  -22.4129  -11.9911   22.4783 H   0  0  0  0  0  0
  -21.1126  -13.1283   22.2554 H   0  0  0  0  0  0
  -24.6840  -15.8497   20.5473 H   0  0  0  0  0  0
  -26.3048  -15.6217   20.1220 H   0  0  0  0  0  0
  -26.7101  -32.5575   23.1200 H   0  0  0  0  0  0
  -25.0050  -33.9814   25.0507 H   0  0  0  0  0  0
  -22.6876  -31.3086   21.4090 H   0  0  0  0  0  0
  -23.3746  -35.9661   23.3305 H   0  0  0  0  0  0
  -24.3584  -36.8937   22.2050 H   0  0  0  0  0  0
  -23.7229  -37.6534   23.6641 H   0  0  0  0  0  0
  -26.0289  -31.6010   20.5852 H   0  0  0  0  0  0
  -26.8169  -30.9083   21.9754 H   0  0  0  0  0  0
  -28.0942  -29.1426   21.1791 H   0  0  0  0  0  0
  -26.1048  -25.9962   18.9997 H   0  0  0  0  0  0
  -23.9966  -27.2944   19.0284 H   0  0  0  0  0  0
  -23.7211  -30.5972   19.4056 H   0  0  0  0  0  0
  -22.7377  -29.2400   19.8684 H   0  0  0  0  0  0
  -25.1273  -36.2010   25.0834 H   0  0  0  0  0  0
  -20.9952  -28.3263   24.1438 H   0  0  0  0  0  0
  -20.5698  -26.2289   23.3609 H   0  0  0  0  0  0
  -21.6642  -26.7482   22.1200 H   0  0  0  0  0  0
  -19.6922  -25.6318   21.1236 H   0  0  0  0  0  0
  -19.6703  -27.3226   20.6762 H   0  0  0  0  0  0
  -17.4202  -26.6692   21.4017 H   0  0  0  0  0  0
  -18.0331  -26.0079   22.9011 H   0  0  0  0  0  0
  -19.7923  -30.7270   24.2299 H   0  0  0  0  0  0
  -17.5004  -31.6268   24.5192 H   0  0  0  0  0  0
  -15.5349  -30.3019   23.7627 H   0  0  0  0  0  0
  -15.8658  -28.0855   22.7031 H   0  0  0  0  0  0
  -24.5934  -30.7008   25.7808 H   0  0  0  0  0  0
  -24.8893  -32.2830   26.4919 H   0  0  0  0  0  0
  -25.8091  -30.8866   27.0236 H   0  0  0  0  0  0
  -26.2814  -29.6822   24.1123 H   0  0  0  0  0  0
  -27.4055  -29.7259   25.4518 H   0  0  0  0  0  0
  -27.8648  -30.4376   23.9213 H   0  0  0  0  0  0
  -27.2753  -33.3595   26.2073 H   0  0  0  0  0  0
  -28.3876  -32.6801   25.0282 H   0  0  0  0  0  0
  -28.0741  -31.8369   26.5364 H   0  0  0  0  0  0
  -28.2607  -38.0104   24.7501 H   0  0  0  0  0  0
  -28.1066  -36.2633   24.6294 H   0  0  0  0  0  0
  -27.2295  -37.1479   25.8866 H   0  0  0  0  0  0
  -20.9292  -29.8750   21.6928 H   0  0  0  0  0  0
  -26.0196  -38.2884   24.1408 H   0  0  0  0  0  0
  -30.2468  -16.3968   25.3574 H   0  0  0  0  0  0
  -29.6908  -18.7835   25.0025 H   0  0  0  0  0  0
  -27.6122  -20.1858   23.7143 H   0  0  0  0  0  0
  -31.1105  -20.1342   21.2481 H   0  0  0  0  0  0
  -29.0653  -17.5031   17.9399 H   0  0  0  0  0  0
  -29.4734  -18.2744   19.5379 H   0  0  0  0  0  0
  -27.7073  -24.3038   20.9237 H   0  0  0  0  0  0
  -30.4226  -25.0050   22.1198 H   0  0  0  0  0  0
  -29.4544  -15.3361   18.6850 H   0  0  0  0  0  0
  -30.8669  -14.3616   24.6447 H   0  0  0  0  0  0
  -31.5517  -14.1619   23.0652 H   0  0  0  0  0  0
  -29.8493  -13.7499   23.3751 H   0  0  0  0  0  0
  -26.2701  -22.0978   23.9363 H   0  0  0  0  0  0
  -26.1557  -23.0699   22.4708 H   0  0  0  0  0  0
  -27.1367  -23.6281   23.8337 H   0  0  0  0  0  0
  -31.6606  -21.9296   19.8432 H   0  0  0  0  0  0
  -31.6877  -23.3641   20.8620 H   0  0  0  0  0  0
  -30.5071  -23.2255   19.5507 H   0  0  0  0  0  0
  -30.1769  -27.0646   20.9094 H   0  0  0  0  0  0
  -28.8428  -27.1508   22.0468 H   0  0  0  0  0  0
  1 25  1  0  0  0
  1 30  2  0  0  0
  1 91  1  0  0  0
  2  3  1  0  0  0
  2 25  1  0  0  0
  2 92  1  0  0  0
  2 93  1  0  0  0
  3  4  1  0  0  0
  3 94  1  0  0  0
  3 95  1  0  0  0
  4  5  1  0  0  0
  4 96  1  0  0  0
  4 97  1  0  0  0
  5  6  1  0  0  0
  5 26  1  0  0  0
  5 98  1  0  0  0
  6 25  1  0  0  0
  6 99  1  0  0  0
  6100  1  0  0  0
  7  8  2  0  0  0
  7 26  1  0  0  0
  7 29  1  0  0  0
  8  9  1  0  0  0
  8 22  1  0  0  0
  9 10  1  0  0  0
  9 27  2  0  0  0
 10 11  2  0  0  0
 10 15  1  0  0  0
 11 12  1  0  0  0
 11101  1  0  0  0
 12 13  2  0  0  0
 12102  1  0  0  0
 13 14  1  0  0  0
 13 31  1  0  0  0
 14 15  2  0  0  0
 14103  1  0  0  0
 15104  1  0  0  0
 16 17  2  0  0  0
 16 21  1  0  0  0
 16 31  1  0  0  0
 17 18  1  0  0  0
 17105  1  0  0  0
 18 19  2  0  0  0
 18106  1  0  0  0
 19 20  1  0  0  0
 19 24  1  0  0  0
 20 21  2  0  0  0
 20107  1  0  0  0
 21 23  1  0  0  0
 22 28  1  0  0  0
 22 32  2  0  0  0
 26 27  1  0  0  0
 28108  1  0  0  0
 28109  1  0  0  0
 29110  1  0  0  0
 29111  1  0  0  0
 33 34  1  0  0  0
 33 66  1  0  0  0
 33 70  2  0  0  0
 34 36  1  0  0  0
 34 59  1  0  0  0
 34112  1  0  0  0
 35 44  2  0  0  0
 35 45  1  0  0  0
 35 68  1  0  0  0
 36 56  1  0  0  0
 36113  1  0  0  0
 37 39  1  0  0  0
 37 47  1  0  0  0
 37 66  1  0  0  0
 37114  1  0  0  0
 38 43  2  0  0  0
 38 46  1  0  0  0
 38 47  1  0  0  0
 39 64  1  0  0  0
 39 67  2  0  0  0
 40 52  1  0  0  0
 40 53  2  0  0  0
 40 58  1  0  0  0
 41115  1  0  0  0
 41116  1  0  0  0
 41117  1  0  0  0
 41 48  1  0  0  0
 42 43  1  0  0  0
 42 66  1  0  0  0
 42118  1  0  0  0
 42119  1  0  0  0
 43 44  1  0  0  0
 44120  1  0  0  0
 45 46  2  0  0  0
 45121  1  0  0  0
 46122  1  0  0  0
 47123  1  0  0  0
 47124  1  0  0  0
 48 56  1  0  0  0
 48 65  1  0  0  0
 48125  1  0  0  0
 49 50  1  0  0  0
 49 53  1  0  0  0
 49 64  1  0  0  0
 49126  1  0  0  0
 50 51  1  0  0  0
 50127  1  0  0  0
 50128  1  0  0  0
 51 52  1  0  0  0
 51129  1  0  0  0
 51130  1  0  0  0
 52131  1  0  0  0
 52132  1  0  0  0
 53 54  1  0  0  0
 54 55  2  0  0  0
 54133  1  0  0  0
 55 57  1  0  0  0
 55134  1  0  0  0
 56 69  2  0  0  0
 57 58  2  0  0  0
 57135  1  0  0  0
 58136  1  0  0  0
 59 60  1  0  0  0
 59 61  1  0  0  0
 59 62  1  0  0  0
 60137  1  0  0  0
 60138  1  0  0  0
 60139  1  0  0  0
 61140  1  0  0  0
 61141  1  0  0  0
 61142  1  0  0  0
 62143  1  0  0  0
 62144  1  0  0  0
 62145  1  0  0  0
 63 65  1  0  0  0
 63146  1  0  0  0
 63147  1  0  0  0
 63148  1  0  0  0
 64149  1  0  0  0
 65150  1  0  0  0
 68 89  1  0  0  0
 71 72  2  0  0  0
 71 77  1  0  0  0
 71151  1  0  0  0
 72 80  1  0  0  0
 72152  1  0  0  0
 73 75  2  0  0  0
 73 78  1  0  0  0
 73153  1  0  0  0
 74 75  1  0  0  0
 74 79  2  0  0  0
 74154  1  0  0  0
 75 80  1  0  0  0
 76 78  2  0  0  0
 76 79  1  0  0  0
 76 83  1  0  0  0
 77 81  2  0  0  0
 77 86  1  0  0  0
 78 87  1  0  0  0
 79 88  1  0  0  0
 80 90  2  0  0  0
 81 90  1  0  0  0
 81 91  1  0  0  0
 82 85  2  0  0  0
 82155  1  0  0  0
 82156  1  0  0  0
 83 84  2  0  0  0
 83157  1  0  0  0
 84 89  1  0  0  0
 84158  1  0  0  0
 85 91  1  0  0  0
 85159  1  0  0  0
 86160  1  0  0  0
 86161  1  0  0  0
 86162  1  0  0  0
 87163  1  0  0  0
 87164  1  0  0  0
 87165  1  0  0  0
 88166  1  0  0  0
 88167  1  0  0  0
 88168  1  0  0  0
 89169  1  0  0  0
 89170  1  0  0  0
M  ISO  4   1 100  68 101  89 101  91 100
M  END
> <chiral flag>
0

> <version>
0

> <s_m_source_file>
/data/baiqing/PycharmProjects/Reinvent-master-3.2/result/LINK_invent/BTK/process_docking_weight1_custom_product_contain_oxygen_bond_distance_aromatic_linkinvent_7_9_3/rearranged_h_0117.sdf

> <i_m_source_file_index>
84

> <r_mmod_Potential_Energy-OPLS-2005>
97.4206085205078

> <r_mmod_Stretch_Energy-OPLS-2005>
48.4572143554688

> <r_mmod_Bend_Energy-OPLS-2005>
139.554656982422

> <r_mmod_Torsional_Energy-OPLS-2005>
328.541168212891

> <r_mmod_Improper_Torsional_Energy-OPLS-2005>
11.9785509109497

> <r_mmod_Van_der_Waal_Energy-OPLS-2005>
197.136672973633

> <r_mmod_Electrostatic_Energy-OPLS-2005>
-456.180450439453

> <r_mmod_Solvation_Energy-OPLS-2005>
-189.805191040039

> <b_mmod_Minimization_Converged-OPLS-2005>
0

> <r_mmod_RMS_Derivative-OPLS-2005>
1.69448149204254

$$$$
84
                    3D
 Structure written by MMmdl.
160168  0  0  1  0            999 V2000
  -30.6931  -14.4465   20.5807 C   0  0  0  0  0  0
  -30.4304  -12.2944   19.4074 C   0  0  0  0  0  0
  -29.4975  -12.5092   18.1976 C   0  0  0  0  0  0
  -28.0171  -12.3722   18.6111 C   0  0  0  0  0  0
  -27.6672  -13.1999   19.8764 C   0  0  2  0  0  0
  -28.7082  -12.9451   20.9908 C   0  0  0  0  0  0
  -25.2618  -13.8142   20.5688 C   0  0  0  0  0  0
  -24.1849  -13.0431   20.9172 C   0  0  0  0  0  0
  -24.6385  -11.6893   20.8711 C   0  0  0  0  0  0
  -23.9036  -10.4288   21.0375 C   0  0  0  0  0  0
  -24.3589   -9.4212   21.9172 C   0  0  0  0  0  0
  -23.6275   -8.2233   22.0744 C   0  0  0  0  0  0
  -22.4256   -8.0266   21.3537 C   0  0  0  0  0  0
  -21.9897   -9.0241   20.4639 C   0  0  0  0  0  0
  -22.7207  -10.2124   20.3030 C   0  0  0  0  0  0
  -21.6854   -6.0716   22.5273 C   0  0  0  0  0  0
  -21.3992   -6.5611   23.8205 C   0  0  0  0  0  0
  -21.3649   -5.6771   24.9179 C   0  0  0  0  0  0
  -21.6044   -4.3038   24.7227 C   0  0  0  0  0  0
  -21.8830   -3.8136   23.4346 C   0  0  0  0  0  0
  -21.9196   -4.6949   22.3403 C   0  0  0  0  0  0
  -22.7874  -13.5253   21.1832 C   0  0  0  0  0  0
  -22.1687   -4.2132   21.0981 F   0  0  0  0  0  0
  -21.5626   -3.4515   25.7737 F   0  0  0  0  0  0
  -30.0427  -13.2594   20.4472 N   0  0  0  0  0  0
  -26.3051  -12.9300   20.3356 N   0  0  0  0  0  0
  -25.9314  -11.6467   20.5743 N   0  0  0  0  0  0
  -22.0498  -12.8257   22.0378 N   0  0  0  0  0  0
  -25.4338  -15.1857   20.4115 N   0  0  0  0  0  0
  -31.8066  -14.6533   20.0917 O   0  0  0  0  0  0
  -21.6634   -6.8859   21.4234 O   0  0  0  0  0  0
  -22.3579  -14.5565   20.6670 O   0  0  0  0  0  0
  -24.6134  -31.8696   23.2097 C   0  0  0  0  0  0
  -25.9035  -32.4827   23.8389 C   0  0  1  0  0  0
  -27.2387  -27.4592   20.0943 C   0  0  0  0  0  0
  -25.5898  -33.8616   24.2328 N   0  0  0  0  0  0
  -23.4004  -30.4921   21.5498 C   0  0  2  0  0  0
  -24.8465  -28.9500   20.1219 C   0  0  0  0  0  0
  -22.7402  -29.4673   22.5012 C   0  0  0  0  0  0
  -18.0275  -28.1387   22.8499 C   0  0  0  0  0  0
  -24.1461  -36.7262   23.2648 C   0  0  0  0  0  0
  -25.9254  -30.8396   21.3591 C   0  0  0  0  0  0
  -26.0037  -29.4723   20.7151 C   0  0  0  0  0  0
  -27.2047  -28.7332   20.6988 C   0  0  0  0  0  0
  -26.0698  -26.9369   19.5059 C   0  0  0  0  0  0
  -24.8724  -27.6798   19.5165 C   0  0  0  0  0  0
  -23.6082  -29.8166   20.1670 C   0  0  0  0  0  0
  -25.4090  -36.3097   24.0350 C   0  0  1  0  0  0
  -20.5861  -28.3659   23.1338 C   0  0  2  0  0  0
  -20.6758  -26.9400   22.5436 C   0  0  0  0  0  0
  -19.5745  -26.6400   21.5219 C   0  0  0  0  0  0
  -18.1918  -26.7948   22.1614 C   0  0  0  0  0  0
  -19.1527  -28.8838   23.2918 C   0  0  0  0  0  0
  -18.9459  -30.1446   23.8927 C   0  0  0  0  0  0
  -17.6464  -30.6588   24.0582 C   0  0  0  0  0  0
  -25.9028  -34.9474   23.5132 C   0  0  0  0  0  0
  -16.5354  -29.9099   23.6336 C   0  0  0  0  0  0
  -16.7264  -28.6519   23.0350 C   0  0  0  0  0  0
  -26.4468  -31.6604   25.0715 C   0  0  0  0  0  0
  -25.3729  -31.3714   26.1463 C   0  0  0  0  0  0
  -27.0280  -30.3043   24.6058 C   0  0  0  0  0  0
  -27.6051  -32.4312   25.7479 C   0  0  0  0  0  0
  -27.5569  -37.1770   24.8472 C   0  0  0  0  0  0
  -21.4137  -29.3020   22.3727 N   0  0  0  0  0  0
  -26.4263  -37.3801   23.9447 N   0  0  0  0  0  0
  -24.6640  -31.0816   22.0977 N   0  0  0  0  0  0
  -23.4183  -28.8237   23.3061 O   0  0  0  0  0  0
  -28.4135  -26.7559   20.0282 O   0  0  0  0  0  0
  -26.5588  -34.8942   22.4691 O   0  0  0  0  0  0
  -23.5327  -32.1428   23.7505 O   0  0  0  0  0  0
  -31.1985  -17.5342   20.6814 C   0  0  0  0  0  0
  -28.9588  -17.5632   21.6215 C   0  0  0  0  0  0
  -31.2207  -18.9487   20.6790 C   0  0  0  0  0  0
  -30.0686  -16.8238   21.1549 C   0  0  0  0  0  0
  -30.1051  -19.6792   21.1553 C   0  0  0  0  0  0
  -28.9738  -18.9730   21.6281 C   0  0  0  0  0  0
  -33.4781  -19.9580   21.2398 C   0  0  0  0  0  0
  -32.4558  -19.6734   20.1573 C   0  0  0  0  0  0
  -28.5786  -24.3253   20.2800 C   0  0  0  0  0  0
  -29.2050  -23.2309   21.1669 C   0  0  0  0  0  0
  -28.5549  -25.7000   20.9756 C   0  0  0  0  0  0
  -29.2268  -21.8267   20.5354 C   0  0  0  0  0  0
  -33.9021  -21.1166   21.5248 N   0  0  0  0  0  0
  -29.9718  -15.3976   21.2049 N   0  0  0  0  0  0
  -30.1950  -21.0510   21.2404 O   0  0  0  0  0  0
  -27.9073  -19.6401   22.1330 F   0  0  0  0  0  0
  -31.4731  -12.4021   19.1016 H   0  0  0  0  0  0
  -30.3375  -11.2762   19.7880 H   0  0  0  0  0  0
  -29.7348  -11.7934   17.4089 H   0  0  0  0  0  0
  -29.6724  -13.4984   17.7721 H   0  0  0  0  0  0
  -27.8209  -11.3155   18.8007 H   0  0  0  0  0  0
  -27.3671  -12.6572   17.7831 H   0  0  0  0  0  0
  -27.7233  -14.2517   19.5962 H   0  0  0  0  0  0
  -28.6816  -11.8979   21.2959 H   0  0  0  0  0  0
  -28.4687  -13.5089   21.8935 H   0  0  0  0  0  0
  -25.2733   -9.5691   22.4748 H   0  0  0  0  0  0
  -23.9987   -7.4629   22.7457 H   0  0  0  0  0  0
  -21.0826   -8.8740   19.8954 H   0  0  0  0  0  0
  -22.3657  -10.9644   19.6115 H   0  0  0  0  0  0
  -21.1965   -7.6118   23.9698 H   0  0  0  0  0  0
  -21.1456   -6.0503   25.9079 H   0  0  0  0  0  0
  -22.0613   -2.7597   23.2852 H   0  0  0  0  0  0
  -22.4093  -11.9923   22.4800 H   0  0  0  0  0  0
  -21.1113  -13.1290   22.2551 H   0  0  0  0  0  0
  -24.6601  -15.8329   20.5107 H   0  0  0  0  0  0
  -26.2802  -15.6250   20.0738 H   0  0  0  0  0  0
  -26.7102  -32.5555   23.1150 H   0  0  0  0  0  0
  -25.0097  -33.9776   25.0506 H   0  0  0  0  0  0
  -22.6889  -31.3082   21.4096 H   0  0  0  0  0  0
  -23.3755  -35.9561   23.3326 H   0  0  0  0  0  0
  -24.3543  -36.8852   22.2058 H   0  0  0  0  0  0
  -23.7173  -37.6454   23.6641 H   0  0  0  0  0  0
  -26.0327  -31.6015   20.5861 H   0  0  0  0  0  0
  -26.8164  -30.8983   21.9717 H   0  0  0  0  0  0
  -28.1042  -29.1377   21.1409 H   0  0  0  0  0  0
  -26.0924  -25.9668   19.0299 H   0  0  0  0  0  0
  -23.9836  -27.2733   19.0543 H   0  0  0  0  0  0
  -23.7156  -30.5854   19.4010 H   0  0  0  0  0  0
  -22.7333  -29.2331   19.8762 H   0  0  0  0  0  0
  -25.1254  -36.1951   25.0837 H   0  0  0  0  0  0
  -20.9978  -28.3231   24.1447 H   0  0  0  0  0  0
  -20.5664  -26.2265   23.3617 H   0  0  0  0  0  0
  -21.6630  -26.7449   22.1236 H   0  0  0  0  0  0
  -19.6901  -25.6315   21.1246 H   0  0  0  0  0  0
  -19.6707  -27.3219   20.6757 H   0  0  0  0  0  0
  -17.4212  -26.6741   21.3980 H   0  0  0  0  0  0
  -18.0278  -26.0071   22.8980 H   0  0  0  0  0  0
  -19.7939  -30.7248   24.2310 H   0  0  0  0  0  0
  -17.5028  -31.6267   24.5194 H   0  0  0  0  0  0
  -15.5356  -30.3009   23.7643 H   0  0  0  0  0  0
  -15.8668  -28.0854   22.7040 H   0  0  0  0  0  0
  -24.5908  -30.7040   25.7817 H   0  0  0  0  0  0
  -24.8894  -32.2874   26.4875 H   0  0  0  0  0  0
  -25.8092  -30.8926   27.0241 H   0  0  0  0  0  0
  -26.2781  -29.6816   24.1149 H   0  0  0  0  0  0
  -27.4107  -29.7278   25.4497 H   0  0  0  0  0  0
  -27.8611  -30.4383   23.9144 H   0  0  0  0  0  0
  -27.2673  -33.3613   26.2067 H   0  0  0  0  0  0
  -28.3849  -32.6869   25.0290 H   0  0  0  0  0  0
  -28.0716  -31.8415   26.5382 H   0  0  0  0  0  0
  -28.2596  -38.0063   24.7554 H   0  0  0  0  0  0
  -28.1048  -36.2599   24.6240 H   0  0  0  0  0  0
  -27.2302  -37.1367   25.8879 H   0  0  0  0  0  0
  -20.9302  -29.8672   21.6892 H   0  0  0  0  0  0
  -26.0149  -38.2868   24.1500 H   0  0  0  0  0  0
  -32.0742  -17.0142   20.3236 H   0  0  0  0  0  0
  -28.0815  -17.0560   21.9973 H   0  0  0  0  0  0
  -33.8367  -19.0709   21.7687 H   0  0  0  0  0  0
  -32.1635  -20.6034   19.6678 H   0  0  0  0  0  0
  -32.9326  -19.0714   19.3831 H   0  0  0  0  0  0
  -27.5683  -24.0436   19.9823 H   0  0  0  0  0  0
  -29.1604  -24.3999   19.3611 H   0  0  0  0  0  0
  -28.6855  -23.1845   22.1249 H   0  0  0  0  0  0
  -30.2305  -23.5267   21.3927 H   0  0  0  0  0  0
  -29.5023  -25.8687   21.4881 H   0  0  0  0  0  0
  -27.7845  -25.7229   21.7487 H   0  0  0  0  0  0
  -29.5334  -21.8880   19.4903 H   0  0  0  0  0  0
  -28.2260  -21.3940   20.5462 H   0  0  0  0  0  0
  -33.4686  -21.8273   20.9437 H   0  0  0  0  0  0
  -29.1157  -15.0386   21.5977 H   0  0  0  0  0  0
  1 25  1  0  0  0
  1 30  2  0  0  0
  1 84  1  0  0  0
  2  3  1  0  0  0
  2 25  1  0  0  0
  2 87  1  0  0  0
  2 88  1  0  0  0
  3  4  1  0  0  0
  3 89  1  0  0  0
  3 90  1  0  0  0
  4  5  1  0  0  0
  4 91  1  0  0  0
  4 92  1  0  0  0
  5  6  1  0  0  0
  5 26  1  0  0  0
  5 93  1  0  0  0
  6 25  1  0  0  0
  6 94  1  0  0  0
  6 95  1  0  0  0
  7  8  2  0  0  0
  7 26  1  0  0  0
  7 29  1  0  0  0
  8  9  1  0  0  0
  8 22  1  0  0  0
  9 10  1  0  0  0
  9 27  2  0  0  0
 10 11  2  0  0  0
 10 15  1  0  0  0
 11 12  1  0  0  0
 11 96  1  0  0  0
 12 13  2  0  0  0
 12 97  1  0  0  0
 13 14  1  0  0  0
 13 31  1  0  0  0
 14 15  2  0  0  0
 14 98  1  0  0  0
 15 99  1  0  0  0
 16 17  2  0  0  0
 16 21  1  0  0  0
 16 31  1  0  0  0
 17 18  1  0  0  0
 17100  1  0  0  0
 18 19  2  0  0  0
 18101  1  0  0  0
 19 20  1  0  0  0
 19 24  1  0  0  0
 20 21  2  0  0  0
 20102  1  0  0  0
 21 23  1  0  0  0
 22 28  1  0  0  0
 22 32  2  0  0  0
 26 27  1  0  0  0
 28103  1  0  0  0
 28104  1  0  0  0
 29105  1  0  0  0
 29106  1  0  0  0
 33 34  1  0  0  0
 33 66  1  0  0  0
 33 70  2  0  0  0
 34 36  1  0  0  0
 34 59  1  0  0  0
 34107  1  0  0  0
 35 44  2  0  0  0
 35 45  1  0  0  0
 35 68  1  0  0  0
 36 56  1  0  0  0
 36108  1  0  0  0
 37 39  1  0  0  0
 37 47  1  0  0  0
 37 66  1  0  0  0
 37109  1  0  0  0
 38 43  2  0  0  0
 38 46  1  0  0  0
 38 47  1  0  0  0
 39 64  1  0  0  0
 39 67  2  0  0  0
 40 52  1  0  0  0
 40 53  2  0  0  0
 40 58  1  0  0  0
 41110  1  0  0  0
 41111  1  0  0  0
 41112  1  0  0  0
 41 48  1  0  0  0
 42 43  1  0  0  0
 42 66  1  0  0  0
 42113  1  0  0  0
 42114  1  0  0  0
 43 44  1  0  0  0
 44115  1  0  0  0
 45 46  2  0  0  0
 45116  1  0  0  0
 46117  1  0  0  0
 47118  1  0  0  0
 47119  1  0  0  0
 48 56  1  0  0  0
 48 65  1  0  0  0
 48120  1  0  0  0
 49 50  1  0  0  0
 49 53  1  0  0  0
 49 64  1  0  0  0
 49121  1  0  0  0
 50 51  1  0  0  0
 50122  1  0  0  0
 50123  1  0  0  0
 51 52  1  0  0  0
 51124  1  0  0  0
 51125  1  0  0  0
 52126  1  0  0  0
 52127  1  0  0  0
 53 54  1  0  0  0
 54 55  2  0  0  0
 54128  1  0  0  0
 55 57  1  0  0  0
 55129  1  0  0  0
 56 69  2  0  0  0
 57 58  2  0  0  0
 57130  1  0  0  0
 58131  1  0  0  0
 59 60  1  0  0  0
 59 61  1  0  0  0
 59 62  1  0  0  0
 60132  1  0  0  0
 60133  1  0  0  0
 60134  1  0  0  0
 61135  1  0  0  0
 61136  1  0  0  0
 61137  1  0  0  0
 62138  1  0  0  0
 62139  1  0  0  0
 62140  1  0  0  0
 63 65  1  0  0  0
 63141  1  0  0  0
 63142  1  0  0  0
 63143  1  0  0  0
 64144  1  0  0  0
 65145  1  0  0  0
 68 81  1  0  0  0
 71 73  2  0  0  0
 71 74  1  0  0  0
 71146  1  0  0  0
 72 74  2  0  0  0
 72 76  1  0  0  0
 72147  1  0  0  0
 73 75  1  0  0  0
 73 78  1  0  0  0
 74 84  1  0  0  0
 75 76  2  0  0  0
 75 85  1  0  0  0
 76 86  1  0  0  0
 77 78  1  0  0  0
 77 83  2  0  0  0
 77148  1  0  0  0
 78149  1  0  0  0
 78150  1  0  0  0
 79 80  1  0  0  0
 79 81  1  0  0  0
 79151  1  0  0  0
 79152  1  0  0  0
 80 82  1  0  0  0
 80153  1  0  0  0
 80154  1  0  0  0
 81155  1  0  0  0
 81156  1  0  0  0
 82 85  1  0  0  0
 82157  1  0  0  0
 82158  1  0  0  0
 83159  1  0  0  0
 84160  1  0  0  0
M  ISO  4   1 100  68 101  81 101  84 100
M  END
> <chiral flag>
0

> <version>
0

> <s_m_source_file>
/data/baiqing/PycharmProjects/Reinvent-master-3.2/result/LINK_invent/BTK/process_docking_weight1_custom_product_contain_oxygen_bond_distance_aromatic_linkinvent_7_9_3/rearranged_h_0117.sdf

> <i_m_source_file_index>
85

> <r_mmod_Potential_Energy-OPLS-2005>
-12.7332162857056

> <r_mmod_Stretch_Energy-OPLS-2005>
34.597900390625

> <r_mmod_Bend_Energy-OPLS-2005>
99.3932800292969

> <r_mmod_Torsional_Energy-OPLS-2005>
262.449249267578

> <r_mmod_Improper_Torsional_Energy-OPLS-2005>
3.66401767730713

> <r_mmod_Van_der_Waal_Energy-OPLS-2005>
149.353515625

> <r_mmod_Electrostatic_Energy-OPLS-2005>
-352.232208251953

> <r_mmod_Solvation_Energy-OPLS-2005>
-219.269302368164

> <b_mmod_Minimization_Converged-OPLS-2005>
0

> <r_mmod_RMS_Derivative-OPLS-2005>
1.93568336963654

$$$$
85
                    3D
 Structure written by MMmdl.
158166  0  0  1  0            999 V2000
  -30.6217  -14.6467   20.5075 C   0  0  0  0  0  0
  -30.4410  -12.3987   19.4548 C   0  0  0  0  0  0
  -29.5074  -12.5169   18.2288 C   0  0  0  0  0  0
  -28.0302  -12.3561   18.6416 C   0  0  0  0  0  0
  -27.6558  -13.2217   19.8753 C   0  0  2  0  0  0
  -28.7036  -13.0644   21.0009 C   0  0  0  0  0  0
  -25.2505  -13.8152   20.5641 C   0  0  0  0  0  0
  -24.1777  -13.0402   20.9097 C   0  0  0  0  0  0
  -24.6391  -11.6891   20.8716 C   0  0  0  0  0  0
  -23.9068  -10.4275   21.0392 C   0  0  0  0  0  0
  -24.3617   -9.4197   21.9179 C   0  0  0  0  0  0
  -23.6289   -8.2236   22.0754 C   0  0  0  0  0  0
  -22.4271   -8.0274   21.3544 C   0  0  0  0  0  0
  -21.9906   -9.0244   20.4644 C   0  0  0  0  0  0
  -22.7238  -10.2118   20.3046 C   0  0  0  0  0  0
  -21.6851   -6.0731   22.5280 C   0  0  0  0  0  0
  -21.4012   -6.5637   23.8213 C   0  0  0  0  0  0
  -21.3659   -5.6791   24.9176 C   0  0  0  0  0  0
  -21.6044   -4.3053   24.7226 C   0  0  0  0  0  0
  -21.8820   -3.8144   23.4348 C   0  0  0  0  0  0
  -21.9192   -4.6959   22.3404 C   0  0  0  0  0  0
  -22.7808  -13.5196   21.1802 C   0  0  0  0  0  0
  -22.1661   -4.2146   21.0981 F   0  0  0  0  0  0
  -21.5630   -3.4537   25.7739 F   0  0  0  0  0  0
  -30.0198  -13.4150   20.4407 N   0  0  0  0  0  0
  -26.3008  -12.9377   20.3433 N   0  0  0  0  0  0
  -25.9345  -11.6518   20.5828 N   0  0  0  0  0  0
  -22.0477  -12.8190   22.0382 N   0  0  0  0  0  0
  -25.4143  -15.1863   20.4068 N   0  0  0  0  0  0
  -31.7688  -14.8207   20.0852 O   0  0  0  0  0  0
  -21.6636   -6.8873   21.4242 O   0  0  0  0  0  0
  -22.3499  -14.5531   20.6707 O   0  0  0  0  0  0
  -24.6255  -31.8596   23.2023 C   0  0  0  0  0  0
  -25.9102  -32.4780   23.8354 C   0  0  1  0  0  0
  -27.2265  -27.3200   20.1250 C   0  0  0  0  0  0
  -25.5917  -33.8581   24.2280 N   0  0  0  0  0  0
  -23.4199  -30.4822   21.5446 C   0  0  2  0  0  0
  -24.8677  -28.9345   20.1139 C   0  0  0  0  0  0
  -22.7473  -29.4621   22.4938 C   0  0  0  0  0  0
  -18.0285  -28.1385   22.8488 C   0  0  0  0  0  0
  -24.1487  -36.7295   23.2640 C   0  0  0  0  0  0
  -25.9601  -30.7912   21.3730 C   0  0  0  0  0  0
  -26.0357  -29.4172   20.7184 C   0  0  0  0  0  0
  -27.2198  -28.6224   20.7119 C   0  0  0  0  0  0
  -26.0402  -26.8915   19.4901 C   0  0  0  0  0  0
  -24.8715  -27.6768   19.4902 C   0  0  0  0  0  0
  -23.6355  -29.8148   20.1607 C   0  0  0  0  0  0
  -25.4112  -36.3086   24.0332 C   0  0  1  0  0  0
  -20.5885  -28.3688   23.1285 C   0  0  2  0  0  0
  -20.6773  -26.9412   22.5411 C   0  0  0  0  0  0
  -19.5751  -26.6384   21.5212 C   0  0  0  0  0  0
  -18.1931  -26.7929   22.1625 C   0  0  0  0  0  0
  -19.1537  -28.8853   23.2883 C   0  0  0  0  0  0
  -18.9461  -30.1455   23.8899 C   0  0  0  0  0  0
  -17.6462  -30.6588   24.0563 C   0  0  0  0  0  0
  -25.9048  -34.9455   23.5107 C   0  0  0  0  0  0
  -16.5352  -29.9089   23.6329 C   0  0  0  0  0  0
  -16.7272  -28.6505   23.0352 C   0  0  0  0  0  0
  -26.4490  -31.6591   25.0723 C   0  0  0  0  0  0
  -25.3726  -31.3727   26.1452 C   0  0  0  0  0  0
  -27.0333  -30.3017   24.6171 C   0  0  0  0  0  0
  -27.6049  -32.4327   25.7493 C   0  0  0  0  0  0
  -27.5579  -37.1803   24.8466 C   0  0  0  0  0  0
  -21.4186  -29.3042   22.3680 N   0  0  0  0  0  0
  -26.4291  -37.3780   23.9410 N   0  0  0  0  0  0
  -24.6873  -31.0609   22.0972 N   0  0  0  0  0  0
  -23.4196  -28.8161   23.3018 O   0  0  0  0  0  0
  -28.3483  -26.4792   20.1382 O   0  0  0  0  0  0
  -26.5618  -34.8921   22.4675 O   0  0  0  0  0  0
  -23.5419  -32.1390   23.7353 O   0  0  0  0  0  0
  -30.6021  -19.2208   19.6694 C   0  0  0  0  0  0
  -30.6900  -17.8169   19.8861 C   0  0  0  0  0  0
  -28.8534  -17.9646   21.4580 C   0  0  0  0  0  0
  -29.6348  -20.0538   20.2908 C   0  0  0  0  0  0
  -29.8178  -17.1378   20.7735 C   0  0  0  0  0  0
  -28.7397  -19.3820   21.1799 C   0  0  0  0  0  0
  -29.0340  -22.4719   20.4703 C   0  0  0  0  0  0
  -27.9207  -17.3276   22.4665 C   0  0  0  0  0  0
  -26.5225  -20.1035   21.0174 C   0  0  0  0  0  0
  -29.1497  -23.9621   19.9548 C   0  0  0  0  0  0
  -28.1627  -25.0621   20.5455 C   0  0  0  0  0  0
  -29.6367  -21.4542   19.9206 N   0  0  0  0  0  0
  -27.7174  -17.9810   23.6039 N   0  0  0  0  0  0
  -29.8357  -15.6734   20.9628 N   0  0  0  0  0  0
  -27.4251  -16.2173   22.2766 O   0  0  0  0  0  0
  -27.7350  -20.1157   21.7627 O   0  0  0  0  0  0
  -31.4813  -12.5264   19.1504 H   0  0  0  0  0  0
  -30.3794  -11.4007   19.8915 H   0  0  0  0  0  0
  -29.7699  -11.7674   17.4809 H   0  0  0  0  0  0
  -29.6496  -13.4876   17.7510 H   0  0  0  0  0  0
  -27.8650  -11.3021   18.8677 H   0  0  0  0  0  0
  -27.3749  -12.5920   17.8023 H   0  0  0  0  0  0
  -27.6744  -14.2610   19.5452 H   0  0  0  0  0  0
  -28.7159  -12.0379   21.3700 H   0  0  0  0  0  0
  -28.4479  -13.6812   21.8632 H   0  0  0  0  0  0
  -25.2763   -9.5676   22.4752 H   0  0  0  0  0  0
  -23.9997   -7.4629   22.7477 H   0  0  0  0  0  0
  -21.0836   -8.8761   19.8952 H   0  0  0  0  0  0
  -22.3697  -10.9653   19.6149 H   0  0  0  0  0  0
  -21.2004   -7.6145   23.9714 H   0  0  0  0  0  0
  -21.1482   -6.0522   25.9079 H   0  0  0  0  0  0
  -22.0599   -2.7605   23.2849 H   0  0  0  0  0  0
  -22.4092  -11.9833   22.4734 H   0  0  0  0  0  0
  -21.1110  -13.1229   22.2633 H   0  0  0  0  0  0
  -24.6410  -15.7754   20.6931 H   0  0  0  0  0  0
  -26.3035  -15.5718   20.7152 H   0  0  0  0  0  0
  -26.7170  -32.5453   23.1105 H   0  0  0  0  0  0
  -25.0063  -33.9727   25.0423 H   0  0  0  0  0  0
  -22.7138  -31.3025   21.4000 H   0  0  0  0  0  0
  -23.3750  -35.9627   23.3305 H   0  0  0  0  0  0
  -24.3578  -36.8910   22.2053 H   0  0  0  0  0  0
  -23.7239  -37.6499   23.6658 H   0  0  0  0  0  0
  -26.0892  -31.5533   20.6032 H   0  0  0  0  0  0
  -26.8414  -30.8425   22.0008 H   0  0  0  0  0  0
  -28.1184  -28.9902   21.1875 H   0  0  0  0  0  0
  -26.0052  -25.9371   18.9853 H   0  0  0  0  0  0
  -23.9790  -27.3047   19.0060 H   0  0  0  0  0  0
  -23.7554  -30.5902   19.4033 H   0  0  0  0  0  0
  -22.7558  -29.2436   19.8587 H   0  0  0  0  0  0
  -25.1293  -36.1939   25.0825 H   0  0  0  0  0  0
  -20.9978  -28.3259   24.1405 H   0  0  0  0  0  0
  -20.5673  -26.2297   23.3609 H   0  0  0  0  0  0
  -21.6642  -26.7440   22.1203 H   0  0  0  0  0  0
  -19.6913  -25.6295   21.1241 H   0  0  0  0  0  0
  -19.6690  -27.3195   20.6743 H   0  0  0  0  0  0
  -17.4200  -26.6675   21.4028 H   0  0  0  0  0  0
  -18.0333  -26.0070   22.9021 H   0  0  0  0  0  0
  -19.7938  -30.7269   24.2271 H   0  0  0  0  0  0
  -17.5018  -31.6270   24.5164 H   0  0  0  0  0  0
  -15.5354  -30.2993   23.7653 H   0  0  0  0  0  0
  -15.8671  -28.0826   22.7067 H   0  0  0  0  0  0
  -24.5901  -30.7076   25.7783 H   0  0  0  0  0  0
  -24.8917  -32.2892   26.4880 H   0  0  0  0  0  0
  -25.8053  -30.8904   27.0226 H   0  0  0  0  0  0
  -26.2906  -29.6769   24.1196 H   0  0  0  0  0  0
  -27.4036  -29.7271   25.4671 H   0  0  0  0  0  0
  -27.8773  -30.4310   23.9391 H   0  0  0  0  0  0
  -27.2660  -33.3626   26.2071 H   0  0  0  0  0  0
  -28.3859  -32.6888   25.0322 H   0  0  0  0  0  0
  -28.0718  -31.8452   26.5408 H   0  0  0  0  0  0
  -28.2598  -38.0098   24.7511 H   0  0  0  0  0  0
  -28.1072  -36.2629   24.6293 H   0  0  0  0  0  0
  -27.2297  -37.1454   25.8869 H   0  0  0  0  0  0
  -20.9362  -29.8768   21.6894 H   0  0  0  0  0  0
  -26.0173  -38.2855   24.1410 H   0  0  0  0  0  0
  -31.3001  -19.6666   18.9746 H   0  0  0  0  0  0
  -31.4411  -17.2655   19.3391 H   0  0  0  0  0  0
  -28.4087  -22.3723   21.3600 H   0  0  0  0  0  0
  -25.7865  -20.7424   21.5052 H   0  0  0  0  0  0
  -26.1012  -19.0997   20.9518 H   0  0  0  0  0  0
  -26.6716  -20.4804   20.0046 H   0  0  0  0  0  0
  -29.0355  -23.9477   18.8712 H   0  0  0  0  0  0
  -30.1726  -24.2893   20.1389 H   0  0  0  0  0  0
  -28.2615  -25.0494   21.6315 H   0  0  0  0  0  0
  -27.1465  -24.7189   20.3596 H   0  0  0  0  0  0
  -28.1214  -18.8979   23.7294 H   0  0  0  0  0  0
  -27.1261  -17.5884   24.3210 H   0  0  0  0  0  0
  -28.9947  -15.3305   21.4108 H   0  0  0  0  0  0
  1 25  1  0  0  0
  1 30  2  0  0  0
  1 84  1  0  0  0
  2  3  1  0  0  0
  2 25  1  0  0  0
  2 87  1  0  0  0
  2 88  1  0  0  0
  3  4  1  0  0  0
  3 89  1  0  0  0
  3 90  1  0  0  0
  4  5  1  0  0  0
  4 91  1  0  0  0
  4 92  1  0  0  0
  5  6  1  0  0  0
  5 26  1  0  0  0
  5 93  1  0  0  0
  6 25  1  0  0  0
  6 94  1  0  0  0
  6 95  1  0  0  0
  7  8  2  0  0  0
  7 26  1  0  0  0
  7 29  1  0  0  0
  8  9  1  0  0  0
  8 22  1  0  0  0
  9 10  1  0  0  0
  9 27  2  0  0  0
 10 11  2  0  0  0
 10 15  1  0  0  0
 11 12  1  0  0  0
 11 96  1  0  0  0
 12 13  2  0  0  0
 12 97  1  0  0  0
 13 14  1  0  0  0
 13 31  1  0  0  0
 14 15  2  0  0  0
 14 98  1  0  0  0
 15 99  1  0  0  0
 16 17  2  0  0  0
 16 21  1  0  0  0
 16 31  1  0  0  0
 17 18  1  0  0  0
 17100  1  0  0  0
 18 19  2  0  0  0
 18101  1  0  0  0
 19 20  1  0  0  0
 19 24  1  0  0  0
 20 21  2  0  0  0
 20102  1  0  0  0
 21 23  1  0  0  0
 22 28  1  0  0  0
 22 32  2  0  0  0
 26 27  1  0  0  0
 28103  1  0  0  0
 28104  1  0  0  0
 29105  1  0  0  0
 29106  1  0  0  0
 33 34  1  0  0  0
 33 66  1  0  0  0
 33 70  2  0  0  0
 34 36  1  0  0  0
 34 59  1  0  0  0
 34107  1  0  0  0
 35 44  2  0  0  0
 35 45  1  0  0  0
 35 68  1  0  0  0
 36 56  1  0  0  0
 36108  1  0  0  0
 37 39  1  0  0  0
 37 47  1  0  0  0
 37 66  1  0  0  0
 37109  1  0  0  0
 38 43  2  0  0  0
 38 46  1  0  0  0
 38 47  1  0  0  0
 39 64  1  0  0  0
 39 67  2  0  0  0
 40 52  1  0  0  0
 40 53  2  0  0  0
 40 58  1  0  0  0
 41110  1  0  0  0
 41111  1  0  0  0
 41112  1  0  0  0
 41 48  1  0  0  0
 42 43  1  0  0  0
 42 66  1  0  0  0
 42113  1  0  0  0
 42114  1  0  0  0
 43 44  1  0  0  0
 44115  1  0  0  0
 45 46  2  0  0  0
 45116  1  0  0  0
 46117  1  0  0  0
 47118  1  0  0  0
 47119  1  0  0  0
 48 56  1  0  0  0
 48 65  1  0  0  0
 48120  1  0  0  0
 49 50  1  0  0  0
 49 53  1  0  0  0
 49 64  1  0  0  0
 49121  1  0  0  0
 50 51  1  0  0  0
 50122  1  0  0  0
 50123  1  0  0  0
 51 52  1  0  0  0
 51124  1  0  0  0
 51125  1  0  0  0
 52126  1  0  0  0
 52127  1  0  0  0
 53 54  1  0  0  0
 54 55  2  0  0  0
 54128  1  0  0  0
 55 57  1  0  0  0
 55129  1  0  0  0
 56 69  2  0  0  0
 57 58  2  0  0  0
 57130  1  0  0  0
 58131  1  0  0  0
 59 60  1  0  0  0
 59 61  1  0  0  0
 59 62  1  0  0  0
 60132  1  0  0  0
 60133  1  0  0  0
 60134  1  0  0  0
 61135  1  0  0  0
 61136  1  0  0  0
 61137  1  0  0  0
 62138  1  0  0  0
 62139  1  0  0  0
 62140  1  0  0  0
 63 65  1  0  0  0
 63141  1  0  0  0
 63142  1  0  0  0
 63143  1  0  0  0
 64144  1  0  0  0
 65145  1  0  0  0
 68 81  1  0  0  0
 71 72  2  0  0  0
 71 74  1  0  0  0
 71146  1  0  0  0
 72 75  1  0  0  0
 72147  1  0  0  0
 73 75  2  0  0  0
 73 76  1  0  0  0
 73 78  1  0  0  0
 74 76  2  0  0  0
 74 82  1  0  0  0
 75 84  1  0  0  0
 76 86  1  0  0  0
 77 80  1  0  0  0
 77 82  2  0  0  0
 77148  1  0  0  0
 78 83  1  0  0  0
 78 85  2  0  0  0
 79 86  1  0  0  0
 79149  1  0  0  0
 79150  1  0  0  0
 79151  1  0  0  0
 80 81  1  0  0  0
 80152  1  0  0  0
 80153  1  0  0  0
 81154  1  0  0  0
 81155  1  0  0  0
 83156  1  0  0  0
 83157  1  0  0  0
 84158  1  0  0  0
M  ISO  4   1 100  68 101  81 101  84 100
M  END
> <chiral flag>
0

> <version>
0

> <s_m_source_file>
/data/baiqing/PycharmProjects/Reinvent-master-3.2/result/LINK_invent/BTK/process_docking_weight1_custom_product_contain_oxygen_bond_distance_aromatic_linkinvent_7_9_3/rearranged_h_0117.sdf

> <i_m_source_file_index>
86

> <r_mmod_Potential_Energy-OPLS-2005>
42.0280075073242

> <r_mmod_Stretch_Energy-OPLS-2005>
90.8348922729492

> <r_mmod_Bend_Energy-OPLS-2005>
152.819351196289

> <r_mmod_Torsional_Energy-OPLS-2005>
280.493530273438

> <r_mmod_Improper_Torsional_Energy-OPLS-2005>
7.85196447372437

> <r_mmod_Van_der_Waal_Energy-OPLS-2005>
152.48567199707

> <r_mmod_Electrostatic_Energy-OPLS-2005>
-464.760772705078

> <r_mmod_Solvation_Energy-OPLS-2005>
-225.132583618164

> <b_mmod_Minimization_Converged-OPLS-2005>
0

> <r_mmod_RMS_Derivative-OPLS-2005>
0.219759956002235

$$$$
86
                    3D
 Structure written by MMmdl.
159168  0  0  1  0            999 V2000
  -30.5692  -14.8257   20.4634 C   0  0  0  0  0  0
  -30.4413  -12.5015   19.5149 C   0  0  0  0  0  0
  -29.5290  -12.5172   18.2667 C   0  0  0  0  0  0
  -28.0548  -12.3215   18.6705 C   0  0  0  0  0  0
  -27.6407  -13.2352   19.8544 C   0  0  2  0  0  0
  -28.6750  -13.2014   21.0021 C   0  0  0  0  0  0
  -25.2498  -13.8201   20.5694 C   0  0  0  0  0  0
  -24.1789  -13.0444   20.9207 C   0  0  0  0  0  0
  -24.6385  -11.6922   20.8747 C   0  0  0  0  0  0
  -23.9078  -10.4293   21.0422 C   0  0  0  0  0  0
  -24.3631   -9.4200   21.9186 C   0  0  0  0  0  0
  -23.6295   -8.2247   22.0755 C   0  0  0  0  0  0
  -22.4264   -8.0301   21.3571 C   0  0  0  0  0  0
  -21.9912   -9.0268   20.4660 C   0  0  0  0  0  0
  -22.7256  -10.2135   20.3072 C   0  0  0  0  0  0
  -21.6841   -6.0755   22.5297 C   0  0  0  0  0  0
  -21.4012   -6.5653   23.8238 C   0  0  0  0  0  0
  -21.3650   -5.6793   24.9190 C   0  0  0  0  0  0
  -21.6033   -4.3058   24.7227 C   0  0  0  0  0  0
  -21.8807   -3.8168   23.4345 C   0  0  0  0  0  0
  -21.9180   -4.6987   22.3409 C   0  0  0  0  0  0
  -22.7818  -13.5247   21.1868 C   0  0  0  0  0  0
  -22.1648   -4.2183   21.0984 F   0  0  0  0  0  0
  -21.5619   -3.4529   25.7729 F   0  0  0  0  0  0
  -29.9775  -13.5732   20.4351 N   0  0  0  0  0  0
  -26.2922  -12.9403   20.3268 N   0  0  0  0  0  0
  -25.9312  -11.6550   20.5752 N   0  0  0  0  0  0
  -22.0446  -12.8247   22.0407 N   0  0  0  0  0  0
  -25.4187  -15.1929   20.4146 N   0  0  0  0  0  0
  -31.7474  -14.9275   20.1080 O   0  0  0  0  0  0
  -21.6638   -6.8896   21.4261 O   0  0  0  0  0  0
  -22.3512  -14.5547   20.6696 O   0  0  0  0  0  0
  -24.6334  -31.8517   23.1951 C   0  0  0  0  0  0
  -25.9143  -32.4742   23.8317 C   0  0  1  0  0  0
  -27.2208  -27.2207   20.1446 C   0  0  0  0  0  0
  -25.5921  -33.8548   24.2246 N   0  0  0  0  0  0
  -23.4349  -30.4731   21.5373 C   0  0  2  0  0  0
  -24.8890  -28.9149   20.1093 C   0  0  0  0  0  0
  -22.7529  -29.4585   22.4875 C   0  0  0  0  0  0
  -18.0299  -28.1391   22.8482 C   0  0  0  0  0  0
  -24.1490  -36.7279   23.2649 C   0  0  0  0  0  0
  -25.9855  -30.7524   21.3848 C   0  0  0  0  0  0
  -26.0627  -29.3716   20.7253 C   0  0  0  0  0  0
  -27.2337  -28.5357   20.7351 C   0  0  0  0  0  0
  -26.0278  -26.8438   19.4952 C   0  0  0  0  0  0
  -24.8805  -27.6602   19.4801 C   0  0  0  0  0  0
  -23.6585  -29.8033   20.1561 C   0  0  0  0  0  0
  -25.4119  -36.3068   24.0330 C   0  0  1  0  0  0
  -20.5907  -28.3712   23.1252 C   0  0  2  0  0  0
  -20.6788  -26.9419   22.5416 C   0  0  0  0  0  0
  -19.5766  -26.6380   21.5216 C   0  0  0  0  0  0
  -18.1944  -26.7940   22.1618 C   0  0  0  0  0  0
  -19.1556  -28.8870   23.2866 C   0  0  0  0  0  0
  -18.9476  -30.1464   23.8884 C   0  0  0  0  0  0
  -17.6478  -30.6593   24.0563 C   0  0  0  0  0  0
  -25.9054  -34.9432   23.5097 C   0  0  0  0  0  0
  -16.5365  -29.9090   23.6334 C   0  0  0  0  0  0
  -16.7289  -28.6509   23.0358 C   0  0  0  0  0  0
  -26.4492  -31.6583   25.0725 C   0  0  0  0  0  0
  -25.3692  -31.3762   26.1434 C   0  0  0  0  0  0
  -27.0366  -30.2994   24.6275 C   0  0  0  0  0  0
  -27.6046  -32.4327   25.7483 C   0  0  0  0  0  0
  -27.5578  -37.1795   24.8464 C   0  0  0  0  0  0
  -21.4232  -29.3048   22.3616 N   0  0  0  0  0  0
  -26.4297  -37.3762   23.9401 N   0  0  0  0  0  0
  -24.7029  -31.0451   22.0944 N   0  0  0  0  0  0
  -23.4204  -28.8128   23.2992 O   0  0  0  0  0  0
  -28.2384  -26.2278   20.1919 O   0  0  0  0  0  0
  -26.5646  -34.8905   22.4677 O   0  0  0  0  0  0
  -23.5470  -32.1362   23.7213 O   0  0  0  0  0  0
  -29.4156  -18.5003   20.9270 C   0  0  0  0  0  0
  -29.8592  -17.3571   20.2528 C   0  0  0  0  0  0
  -29.4108  -19.8813   20.3010 C   0  0  0  0  0  0
  -30.2605  -17.5721   18.8517 C   0  0  0  0  0  0
  -28.3061  -23.7933   21.3135 C   0  0  0  0  0  0
  -28.0546  -25.1752   21.1415 C   0  0  0  0  0  0
  -27.9313  -23.3098   22.7077 C   0  0  0  0  0  0
  -28.9311  -22.5590   20.4619 C   0  0  0  0  0  0
  -27.2864  -21.9361   22.6922 C   0  0  0  0  0  0
  -28.3197  -20.8876   22.3016 C   0  0  0  0  0  0
  -30.7196  -19.1544   17.0536 C   0  0  0  0  0  0
  -29.8771  -20.0350   19.1009 N   0  0  0  0  0  0
  -28.8796  -21.0790   20.9626 N   0  0  0  0  0  0
  -30.3063  -18.8813   18.4337 N   0  0  0  0  0  0
  -29.7810  -15.9553   20.7426 N   0  0  0  0  0  0
  -30.4821  -16.6525   18.0579 O   0  0  0  0  0  0
  -31.4831  -12.6371   19.2194 H   0  0  0  0  0  0
  -30.3994  -11.5314   20.0133 H   0  0  0  0  0  0
  -29.8301  -11.7366   17.5665 H   0  0  0  0  0  0
  -29.6445  -13.4668   17.7404 H   0  0  0  0  0  0
  -27.9325  -11.2766   18.9584 H   0  0  0  0  0  0
  -27.4008  -12.4836   17.8136 H   0  0  0  0  0  0
  -27.6271  -14.2503   19.4563 H   0  0  0  0  0  0
  -28.7227  -12.2103   21.4571 H   0  0  0  0  0  0
  -28.3853  -13.8867   21.8023 H   0  0  0  0  0  0
  -25.2775   -9.5660   22.4762 H   0  0  0  0  0  0
  -23.9996   -7.4630   22.7458 H   0  0  0  0  0  0
  -21.0844   -8.8810   19.8965 H   0  0  0  0  0  0
  -22.3735  -10.9684   19.6193 H   0  0  0  0  0  0
  -21.2026   -7.6164   23.9753 H   0  0  0  0  0  0
  -21.1474   -6.0527   25.9094 H   0  0  0  0  0  0
  -22.0592   -2.7636   23.2838 H   0  0  0  0  0  0
  -22.4041  -11.9942   22.4877 H   0  0  0  0  0  0
  -21.1084  -13.1328   22.2594 H   0  0  0  0  0  0
  -24.6459  -15.8409   20.5192 H   0  0  0  0  0  0
  -26.2597  -15.6337   20.0653 H   0  0  0  0  0  0
  -26.7209  -32.5381   23.1051 H   0  0  0  0  0  0
  -25.0021  -33.9673   25.0361 H   0  0  0  0  0  0
  -22.7332  -31.2962   21.3863 H   0  0  0  0  0  0
  -23.3749  -35.9609   23.3316 H   0  0  0  0  0  0
  -24.3585  -36.8903   22.2062 H   0  0  0  0  0  0
  -23.7234  -37.6481   23.6671 H   0  0  0  0  0  0
  -26.1327  -31.5108   20.6148 H   0  0  0  0  0  0
  -26.8577  -30.8015   22.0256 H   0  0  0  0  0  0
  -28.1260  -28.8745   21.2426 H   0  0  0  0  0  0
  -25.9750  -25.8684   19.0319 H   0  0  0  0  0  0
  -23.9816  -27.3050   18.9942 H   0  0  0  0  0  0
  -23.7845  -30.5774   19.3991 H   0  0  0  0  0  0
  -22.7766  -29.2383   19.8478 H   0  0  0  0  0  0
  -25.1294  -36.1925   25.0822 H   0  0  0  0  0  0
  -21.0003  -28.3310   24.1373 H   0  0  0  0  0  0
  -20.5686  -26.2321   23.3629 H   0  0  0  0  0  0
  -21.6652  -26.7449   22.1198 H   0  0  0  0  0  0
  -19.6929  -25.6287   21.1250 H   0  0  0  0  0  0
  -19.6697  -27.3184   20.6737 H   0  0  0  0  0  0
  -17.4209  -26.6685   21.4025 H   0  0  0  0  0  0
  -18.0344  -26.0085   22.9012 H   0  0  0  0  0  0
  -19.7951  -30.7289   24.2242 H   0  0  0  0  0  0
  -17.5030  -31.6269   24.5167 H   0  0  0  0  0  0
  -15.5363  -30.2988   23.7674 H   0  0  0  0  0  0
  -15.8686  -28.0821   22.7088 H   0  0  0  0  0  0
  -24.5851  -30.7136   25.7751 H   0  0  0  0  0  0
  -24.8892  -32.2943   26.4833 H   0  0  0  0  0  0
  -25.7971  -30.8941   27.0234 H   0  0  0  0  0  0
  -26.2998  -29.6707   24.1268 H   0  0  0  0  0  0
  -27.3998  -29.7296   25.4840 H   0  0  0  0  0  0
  -27.8880  -30.4260   23.9586 H   0  0  0  0  0  0
  -27.2672  -33.3633   26.2055 H   0  0  0  0  0  0
  -28.3846  -32.6882   25.0296 H   0  0  0  0  0  0
  -28.0729  -31.8459   26.5396 H   0  0  0  0  0  0
  -28.2605  -38.0085   24.7506 H   0  0  0  0  0  0
  -28.1067  -36.2616   24.6297 H   0  0  0  0  0  0
  -27.2304  -37.1462   25.8874 H   0  0  0  0  0  0
  -20.9426  -29.8753   21.6795 H   0  0  0  0  0  0
  -26.0180  -38.2841   24.1393 H   0  0  0  0  0  0
  -29.0597  -18.3356   21.9317 H   0  0  0  0  0  0
  -27.6094  -25.6624   21.9986 H   0  0  0  0  0  0
  -27.2474  -23.9977   23.2078 H   0  0  0  0  0  0
  -28.8340  -23.2894   23.3198 H   0  0  0  0  0  0
  -29.9827  -22.7976   20.3057 H   0  0  0  0  0  0
  -28.4771  -22.5870   19.4721 H   0  0  0  0  0  0
  -26.4295  -21.9132   22.0175 H   0  0  0  0  0  0
  -26.9085  -21.7057   23.6892 H   0  0  0  0  0  0
  -27.8077  -19.9299   22.3764 H   0  0  0  0  0  0
  -29.1312  -20.8721   23.0312 H   0  0  0  0  0  0
  -29.9099  -18.9041   16.3667 H   0  0  0  0  0  0
  -31.5982  -18.5714   16.7709 H   0  0  0  0  0  0
  -30.9719  -20.2043   16.8980 H   0  0  0  0  0  0
  -28.9214  -15.7399   21.2225 H   0  0  0  0  0  0
  1 25  1  0  0  0
  1 30  2  0  0  0
  1 85  1  0  0  0
  2  3  1  0  0  0
  2 25  1  0  0  0
  2 87  1  0  0  0
  2 88  1  0  0  0
  3  4  1  0  0  0
  3 89  1  0  0  0
  3 90  1  0  0  0
  4  5  1  0  0  0
  4 91  1  0  0  0
  4 92  1  0  0  0
  5  6  1  0  0  0
  5 26  1  0  0  0
  5 93  1  0  0  0
  6 25  1  0  0  0
  6 94  1  0  0  0
  6 95  1  0  0  0
  7  8  2  0  0  0
  7 26  1  0  0  0
  7 29  1  0  0  0
  8  9  1  0  0  0
  8 22  1  0  0  0
  9 10  1  0  0  0
  9 27  2  0  0  0
 10 11  2  0  0  0
 10 15  1  0  0  0
 11 12  1  0  0  0
 11 96  1  0  0  0
 12 13  2  0  0  0
 12 97  1  0  0  0
 13 14  1  0  0  0
 13 31  1  0  0  0
 14 15  2  0  0  0
 14 98  1  0  0  0
 15 99  1  0  0  0
 16 17  2  0  0  0
 16 21  1  0  0  0
 16 31  1  0  0  0
 17 18  1  0  0  0
 17100  1  0  0  0
 18 19  2  0  0  0
 18101  1  0  0  0
 19 20  1  0  0  0
 19 24  1  0  0  0
 20 21  2  0  0  0
 20102  1  0  0  0
 21 23  1  0  0  0
 22 28  1  0  0  0
 22 32  2  0  0  0
 26 27  1  0  0  0
 28103  1  0  0  0
 28104  1  0  0  0
 29105  1  0  0  0
 29106  1  0  0  0
 33 34  1  0  0  0
 33 66  1  0  0  0
 33 70  2  0  0  0
 34 36  1  0  0  0
 34 59  1  0  0  0
 34107  1  0  0  0
 35 44  2  0  0  0
 35 45  1  0  0  0
 35 68  1  0  0  0
 36 56  1  0  0  0
 36108  1  0  0  0
 37 39  1  0  0  0
 37 47  1  0  0  0
 37 66  1  0  0  0
 37109  1  0  0  0
 38 43  2  0  0  0
 38 46  1  0  0  0
 38 47  1  0  0  0
 39 64  1  0  0  0
 39 67  2  0  0  0
 40 52  1  0  0  0
 40 53  2  0  0  0
 40 58  1  0  0  0
 41110  1  0  0  0
 41111  1  0  0  0
 41112  1  0  0  0
 41 48  1  0  0  0
 42 43  1  0  0  0
 42 66  1  0  0  0
 42113  1  0  0  0
 42114  1  0  0  0
 43 44  1  0  0  0
 44115  1  0  0  0
 45 46  2  0  0  0
 45116  1  0  0  0
 46117  1  0  0  0
 47118  1  0  0  0
 47119  1  0  0  0
 48 56  1  0  0  0
 48 65  1  0  0  0
 48120  1  0  0  0
 49 50  1  0  0  0
 49 53  1  0  0  0
 49 64  1  0  0  0
 49121  1  0  0  0
 50 51  1  0  0  0
 50122  1  0  0  0
 50123  1  0  0  0
 51 52  1  0  0  0
 51124  1  0  0  0
 51125  1  0  0  0
 52126  1  0  0  0
 52127  1  0  0  0
 53 54  1  0  0  0
 54 55  2  0  0  0
 54128  1  0  0  0
 55 57  1  0  0  0
 55129  1  0  0  0
 56 69  2  0  0  0
 57 58  2  0  0  0
 57130  1  0  0  0
 58131  1  0  0  0
 59 60  1  0  0  0
 59 61  1  0  0  0
 59 62  1  0  0  0
 60132  1  0  0  0
 60133  1  0  0  0
 60134  1  0  0  0
 61135  1  0  0  0
 61136  1  0  0  0
 61137  1  0  0  0
 62138  1  0  0  0
 62139  1  0  0  0
 62140  1  0  0  0
 63 65  1  0  0  0
 63141  1  0  0  0
 63142  1  0  0  0
 63143  1  0  0  0
 64144  1  0  0  0
 65145  1  0  0  0
 68 76  1  0  0  0
 71 72  2  0  0  0
 71 73  1  0  0  0
 71146  1  0  0  0
 72 74  1  0  0  0
 72 85  1  0  0  0
 73 82  2  0  0  0
 73 83  1  0  0  0
 74 84  1  0  0  0
 74 86  2  0  0  0
 75 76  2  0  0  0
 75 77  1  0  0  0
 75 78  1  0  0  0
 76147  1  0  0  0
 77 79  1  0  0  0
 77148  1  0  0  0
 77149  1  0  0  0
 78 83  1  0  0  0
 78150  1  0  0  0
 78151  1  0  0  0
 79 80  1  0  0  0
 79152  1  0  0  0
 79153  1  0  0  0
 80 83  1  0  0  0
 80154  1  0  0  0
 80155  1  0  0  0
 81 84  1  0  0  0
 81156  1  0  0  0
 81157  1  0  0  0
 81158  1  0  0  0
 82 84  1  0  0  0
 85159  1  0  0  0
M  ISO  4   1 100  68 101  76 101  85 100
M  END
> <chiral flag>
0

> <version>
0

> <s_m_source_file>
/data/baiqing/PycharmProjects/Reinvent-master-3.2/result/LINK_invent/BTK/process_docking_weight1_custom_product_contain_oxygen_bond_distance_aromatic_linkinvent_7_9_3/rearranged_h_0117.sdf

> <i_m_source_file_index>
87

> <r_mmod_Potential_Energy-OPLS-2005>
365.062042236328

> <r_mmod_Stretch_Energy-OPLS-2005>
182.833389282227

> <r_mmod_Bend_Energy-OPLS-2005>
261.477966308594

> <r_mmod_Torsional_Energy-OPLS-2005>
261.056762695312

> <r_mmod_Improper_Torsional_Energy-OPLS-2005>
4.85390520095825

> <r_mmod_Van_der_Waal_Energy-OPLS-2005>
173.82112121582

> <r_mmod_Electrostatic_Energy-OPLS-2005>
-402.012359619141

> <r_mmod_Solvation_Energy-OPLS-2005>
-243.678283691406

> <b_mmod_Minimization_Converged-OPLS-2005>
0

> <r_mmod_RMS_Derivative-OPLS-2005>
2.79028534889221

$$$$
87
                    3D
 Structure written by MMmdl.
162170  0  0  1  0            999 V2000
  -30.6989  -14.5395   20.3949 C   0  0  0  0  0  0
  -30.4085  -12.3062   19.4258 C   0  0  0  0  0  0
  -29.4831  -12.4354   18.2001 C   0  0  0  0  0  0
  -28.0050  -12.2905   18.6194 C   0  0  0  0  0  0
  -27.6276  -13.1758   19.8359 C   0  0  2  0  0  0
  -28.6888  -13.1013   20.9577 C   0  0  0  0  0  0
  -25.2534  -13.8051   20.5744 C   0  0  0  0  0  0
  -24.1771  -13.0387   20.9261 C   0  0  0  0  0  0
  -24.6268  -11.6832   20.8769 C   0  0  0  0  0  0
  -23.8946  -10.4271   21.0445 C   0  0  0  0  0  0
  -24.3537   -9.4199   21.9198 C   0  0  0  0  0  0
  -23.6265   -8.2217   22.0747 C   0  0  0  0  0  0
  -22.4245   -8.0239   21.3538 C   0  0  0  0  0  0
  -21.9860   -9.0201   20.4639 C   0  0  0  0  0  0
  -22.7147  -10.2113   20.3072 C   0  0  0  0  0  0
  -21.6834   -6.0733   22.5292 C   0  0  0  0  0  0
  -21.3994   -6.5636   23.8225 C   0  0  0  0  0  0
  -21.3657   -5.6784   24.9188 C   0  0  0  0  0  0
  -21.6059   -4.3049   24.7248 C   0  0  0  0  0  0
  -21.8816   -3.8138   23.4357 C   0  0  0  0  0  0
  -21.9189   -4.6961   22.3408 C   0  0  0  0  0  0
  -22.7819  -13.5242   21.1908 C   0  0  0  0  0  0
  -22.1655   -4.2155   21.0996 F   0  0  0  0  0  0
  -21.5650   -3.4530   25.7756 F   0  0  0  0  0  0
  -30.0138  -13.3591   20.3722 N   0  0  0  0  0  0
  -26.2852  -12.9103   20.3273 N   0  0  0  0  0  0
  -25.9171  -11.6320   20.5776 N   0  0  0  0  0  0
  -22.0405  -12.8270   22.0445 N   0  0  0  0  0  0
  -25.4348  -15.1760   20.4197 N   0  0  0  0  0  0
  -31.9178  -14.6138   20.2272 O   0  0  0  0  0  0
  -21.6606   -6.8845   21.4243 O   0  0  0  0  0  0
  -22.3559  -14.5559   20.6737 O   0  0  0  0  0  0
  -24.6193  -31.8665   23.2061 C   0  0  0  0  0  0
  -25.9077  -32.4811   23.8360 C   0  0  1  0  0  0
  -27.2254  -27.3968   20.0864 C   0  0  0  0  0  0
  -25.5913  -33.8610   24.2298 N   0  0  0  0  0  0
  -23.4073  -30.4950   21.5469 C   0  0  2  0  0  0
  -24.8502  -28.9598   20.1129 C   0  0  0  0  0  0
  -22.7440  -29.4683   22.4947 C   0  0  0  0  0  0
  -18.0279  -28.1385   22.8485 C   0  0  0  0  0  0
  -24.1492  -36.7307   23.2634 C   0  0  0  0  0  0
  -25.9420  -30.8179   21.3666 C   0  0  0  0  0  0
  -26.0145  -29.4520   20.7118 C   0  0  0  0  0  0
  -27.2059  -28.6792   20.6964 C   0  0  0  0  0  0
  -26.0360  -26.9467   19.4635 C   0  0  0  0  0  0
  -24.8568  -27.7085   19.4829 C   0  0  0  0  0  0
  -23.6175  -29.8331   20.1601 C   0  0  0  0  0  0
  -25.4115  -36.3094   24.0339 C   0  0  1  0  0  0
  -20.5885  -28.3682   23.1291 C   0  0  2  0  0  0
  -20.6767  -26.9415   22.5394 C   0  0  0  0  0  0
  -19.5741  -26.6387   21.5195 C   0  0  0  0  0  0
  -18.1926  -26.7930   22.1620 C   0  0  0  0  0  0
  -19.1537  -28.8858   23.2887 C   0  0  0  0  0  0
  -18.9458  -30.1468   23.8903 C   0  0  0  0  0  0
  -17.6458  -30.6588   24.0587 C   0  0  0  0  0  0
  -25.9039  -34.9473   23.5109 C   0  0  0  0  0  0
  -16.5346  -29.9091   23.6329 C   0  0  0  0  0  0
  -16.7276  -28.6510   23.0348 C   0  0  0  0  0  0
  -26.4470  -31.6596   25.0703 C   0  0  0  0  0  0
  -25.3729  -31.3744   26.1455 C   0  0  0  0  0  0
  -27.0309  -30.3033   24.6099 C   0  0  0  0  0  0
  -27.6030  -32.4318   25.7475 C   0  0  0  0  0  0
  -27.5584  -37.1808   24.8466 C   0  0  0  0  0  0
  -21.4157  -29.3065   22.3707 N   0  0  0  0  0  0
  -26.4283  -37.3798   23.9416 N   0  0  0  0  0  0
  -24.6745  -31.0751   22.0961 N   0  0  0  0  0  0
  -23.4183  -28.8218   23.3004 O   0  0  0  0  0  0
  -28.3682  -26.6018   20.1189 O   0  0  0  0  0  0
  -26.5606  -34.8927   22.4663 O   0  0  0  0  0  0
  -23.5387  -32.1416   23.7446 O   0  0  0  0  0  0
  -30.4659  -17.2637   22.2392 C   0  0  0  0  0  0
  -30.2623  -18.6722   22.4482 C   0  0  0  0  0  0
  -30.0588  -16.9935   20.9497 C   0  0  0  0  0  0
  -29.7336  -19.1412   21.2792 C   0  0  0  0  0  0
  -29.8867  -15.8116   20.0840 C   0  0  0  0  0  0
  -30.5101  -19.4439   23.7175 C   0  0  0  0  0  0
  -29.8187  -15.8212   24.2089 C   0  0  0  0  0  0
  -30.9546  -16.2822   23.2861 C   0  0  0  0  0  0
  -28.7894  -22.7222   20.3490 C   0  0  0  0  0  0
  -29.2811  -24.2045   20.3611 C   0  0  0  0  0  0
  -29.7884  -21.6042   20.7714 C   0  0  0  0  0  0
  -28.1622  -25.1823   19.9038 C   0  0  0  0  0  0
  -29.1780  -15.9117   19.0352 N   0  0  0  0  0  0
  -29.0707  -20.3630   21.0884 N   0  0  0  0  0  0
  -29.6092  -18.1578   20.3610 O   0  0  0  0  0  0
  -31.4522  -12.3875   19.1176 H   0  0  0  0  0  0
  -30.2994  -11.3240   19.8892 H   0  0  0  0  0  0
  -29.7380  -11.6698   17.4665 H   0  0  0  0  0  0
  -29.6396  -13.3917   17.7009 H   0  0  0  0  0  0
  -27.8379  -11.2406   18.8627 H   0  0  0  0  0  0
  -27.3489  -12.5071   17.7761 H   0  0  0  0  0  0
  -27.5833  -14.1836   19.4483 H   0  0  0  0  0  0
  -28.6778  -12.1205   21.4371 H   0  0  0  0  0  0
  -28.4587  -13.8249   21.7416 H   0  0  0  0  0  0
  -25.2686   -9.5714   22.4763 H   0  0  0  0  0  0
  -23.9988   -7.4635   22.7465 H   0  0  0  0  0  0
  -21.0803   -8.8718   19.8959 H   0  0  0  0  0  0
  -22.3592  -10.9656   19.6177 H   0  0  0  0  0  0
  -21.1957   -7.6131   23.9741 H   0  0  0  0  0  0
  -21.1466   -6.0504   25.9103 H   0  0  0  0  0  0
  -22.0586   -2.7607   23.2859 H   0  0  0  0  0  0
  -22.3967  -11.9936   22.4876 H   0  0  0  0  0  0
  -21.1017  -13.1344   22.2585 H   0  0  0  0  0  0
  -24.6730  -15.8317   20.5450 H   0  0  0  0  0  0
  -26.2941  -15.6105   20.1002 H   0  0  0  0  0  0
  -26.7148  -32.5511   23.1129 H   0  0  0  0  0  0
  -25.0098  -33.9760   25.0467 H   0  0  0  0  0  0
  -22.6956  -31.3113   21.4093 H   0  0  0  0  0  0
  -23.3742  -35.9649   23.3290 H   0  0  0  0  0  0
  -24.3574  -36.8904   22.2038 H   0  0  0  0  0  0
  -23.7243  -37.6510   23.6656 H   0  0  0  0  0  0
  -26.0652  -31.5789   20.5944 H   0  0  0  0  0  0
  -26.8265  -30.8647   21.9897 H   0  0  0  0  0  0
  -28.1009  -29.0572   21.1716 H   0  0  0  0  0  0
  -25.9855  -25.9979   18.9529 H   0  0  0  0  0  0
  -23.9670  -27.3288   19.0015 H   0  0  0  0  0  0
  -23.7358  -30.6092   19.4020 H   0  0  0  0  0  0
  -22.7402  -29.2586   19.8579 H   0  0  0  0  0  0
  -25.1289  -36.1926   25.0833 H   0  0  0  0  0  0
  -20.9993  -28.3241   24.1408 H   0  0  0  0  0  0
  -20.5629  -26.2310   23.3588 H   0  0  0  0  0  0
  -21.6644  -26.7422   22.1231 H   0  0  0  0  0  0
  -19.6871  -25.6284   21.1243 H   0  0  0  0  0  0
  -19.6676  -27.3192   20.6716 H   0  0  0  0  0  0
  -17.4196  -26.6698   21.4020 H   0  0  0  0  0  0
  -18.0344  -26.0062   22.9012 H   0  0  0  0  0  0
  -19.7941  -30.7312   24.2241 H   0  0  0  0  0  0
  -17.5013  -31.6270   24.5199 H   0  0  0  0  0  0
  -15.5351  -30.3010   23.7646 H   0  0  0  0  0  0
  -15.8677  -28.0855   22.7020 H   0  0  0  0  0  0
  -24.5914  -30.7057   25.7821 H   0  0  0  0  0  0
  -24.8926  -32.2930   26.4838 H   0  0  0  0  0  0
  -25.8085  -30.8970   27.0239 H   0  0  0  0  0  0
  -26.2861  -29.6790   24.1151 H   0  0  0  0  0  0
  -27.4054  -29.7265   25.4557 H   0  0  0  0  0  0
  -27.8715  -30.4331   23.9285 H   0  0  0  0  0  0
  -27.2627  -33.3615   26.2046 H   0  0  0  0  0  0
  -28.3861  -32.6854   25.0325 H   0  0  0  0  0  0
  -28.0683  -31.8442   26.5393 H   0  0  0  0  0  0
  -28.2609  -38.0100   24.7533 H   0  0  0  0  0  0
  -28.1064  -36.2632   24.6272 H   0  0  0  0  0  0
  -27.2319  -37.1448   25.8872 H   0  0  0  0  0  0
  -20.9286  -29.8827   21.6989 H   0  0  0  0  0  0
  -26.0153  -38.2862   24.1410 H   0  0  0  0  0  0
  -31.2946  -18.9742   24.3099 H   0  0  0  0  0  0
  -29.6005  -19.4877   24.3172 H   0  0  0  0  0  0
  -30.8304  -20.4615   23.4933 H   0  0  0  0  0  0
  -30.1829  -15.1152   24.9579 H   0  0  0  0  0  0
  -29.0210  -15.3339   23.6472 H   0  0  0  0  0  0
  -29.3794  -16.6646   24.7418 H   0  0  0  0  0  0
  -31.7446  -16.7454   23.8770 H   0  0  0  0  0  0
  -31.4260  -15.4201   22.8198 H   0  0  0  0  0  0
  -28.4127  -22.4783   19.3545 H   0  0  0  0  0  0
  -27.9189  -22.6718   21.0058 H   0  0  0  0  0  0
  -30.1582  -24.3260   19.7255 H   0  0  0  0  0  0
  -29.5914  -24.4680   21.3714 H   0  0  0  0  0  0
  -30.3470  -21.9187   21.6534 H   0  0  0  0  0  0
  -30.5195  -21.4274   19.9798 H   0  0  0  0  0  0
  -27.2583  -24.8803   20.4371 H   0  0  0  0  0  0
  -27.9773  -25.0180   18.8406 H   0  0  0  0  0  0
  -28.7809  -16.8428   18.9822 H   0  0  0  0  0  0
  -28.4853  -20.5087   21.9060 H   0  0  0  0  0  0
  1 25  1  0  0  0
  1 30  2  0  0  0
  1 75  1  0  0  0
  2  3  1  0  0  0
  2 25  1  0  0  0
  2 86  1  0  0  0
  2 87  1  0  0  0
  3  4  1  0  0  0
  3 88  1  0  0  0
  3 89  1  0  0  0
  4  5  1  0  0  0
  4 90  1  0  0  0
  4 91  1  0  0  0
  5  6  1  0  0  0
  5 26  1  0  0  0
  5 92  1  0  0  0
  6 25  1  0  0  0
  6 93  1  0  0  0
  6 94  1  0  0  0
  7  8  2  0  0  0
  7 26  1  0  0  0
  7 29  1  0  0  0
  8  9  1  0  0  0
  8 22  1  0  0  0
  9 10  1  0  0  0
  9 27  2  0  0  0
 10 11  2  0  0  0
 10 15  1  0  0  0
 11 12  1  0  0  0
 11 95  1  0  0  0
 12 13  2  0  0  0
 12 96  1  0  0  0
 13 14  1  0  0  0
 13 31  1  0  0  0
 14 15  2  0  0  0
 14 97  1  0  0  0
 15 98  1  0  0  0
 16 17  2  0  0  0
 16 21  1  0  0  0
 16 31  1  0  0  0
 17 18  1  0  0  0
 17 99  1  0  0  0
 18 19  2  0  0  0
 18100  1  0  0  0
 19 20  1  0  0  0
 19 24  1  0  0  0
 20 21  2  0  0  0
 20101  1  0  0  0
 21 23  1  0  0  0
 22 28  1  0  0  0
 22 32  2  0  0  0
 26 27  1  0  0  0
 28102  1  0  0  0
 28103  1  0  0  0
 29104  1  0  0  0
 29105  1  0  0  0
 33 34  1  0  0  0
 33 66  1  0  0  0
 33 70  2  0  0  0
 34 36  1  0  0  0
 34 59  1  0  0  0
 34106  1  0  0  0
 35 44  2  0  0  0
 35 45  1  0  0  0
 35 68  1  0  0  0
 36 56  1  0  0  0
 36107  1  0  0  0
 37 39  1  0  0  0
 37 47  1  0  0  0
 37 66  1  0  0  0
 37108  1  0  0  0
 38 43  2  0  0  0
 38 46  1  0  0  0
 38 47  1  0  0  0
 39 64  1  0  0  0
 39 67  2  0  0  0
 40 52  1  0  0  0
 40 53  2  0  0  0
 40 58  1  0  0  0
 41109  1  0  0  0
 41110  1  0  0  0
 41111  1  0  0  0
 41 48  1  0  0  0
 42 43  1  0  0  0
 42 66  1  0  0  0
 42112  1  0  0  0
 42113  1  0  0  0
 43 44  1  0  0  0
 44114  1  0  0  0
 45 46  2  0  0  0
 45115  1  0  0  0
 46116  1  0  0  0
 47117  1  0  0  0
 47118  1  0  0  0
 48 56  1  0  0  0
 48 65  1  0  0  0
 48119  1  0  0  0
 49 50  1  0  0  0
 49 53  1  0  0  0
 49 64  1  0  0  0
 49120  1  0  0  0
 50 51  1  0  0  0
 50121  1  0  0  0
 50122  1  0  0  0
 51 52  1  0  0  0
 51123  1  0  0  0
 51124  1  0  0  0
 52125  1  0  0  0
 52126  1  0  0  0
 53 54  1  0  0  0
 54 55  2  0  0  0
 54127  1  0  0  0
 55 57  1  0  0  0
 55128  1  0  0  0
 56 69  2  0  0  0
 57 58  2  0  0  0
 57129  1  0  0  0
 58130  1  0  0  0
 59 60  1  0  0  0
 59 61  1  0  0  0
 59 62  1  0  0  0
 60131  1  0  0  0
 60132  1  0  0  0
 60133  1  0  0  0
 61134  1  0  0  0
 61135  1  0  0  0
 61136  1  0  0  0
 62137  1  0  0  0
 62138  1  0  0  0
 62139  1  0  0  0
 63 65  1  0  0  0
 63140  1  0  0  0
 63141  1  0  0  0
 63142  1  0  0  0
 64143  1  0  0  0
 65144  1  0  0  0
 68 82  1  0  0  0
 71 72  1  0  0  0
 71 73  2  0  0  0
 71 78  1  0  0  0
 72 74  2  0  0  0
 72 76  1  0  0  0
 73 75  1  0  0  0
 73 85  1  0  0  0
 74 84  1  0  0  0
 74 85  1  0  0  0
 75 83  2  0  0  0
 76145  1  0  0  0
 76146  1  0  0  0
 76147  1  0  0  0
 77 78  1  0  0  0
 77148  1  0  0  0
 77149  1  0  0  0
 77150  1  0  0  0
 78151  1  0  0  0
 78152  1  0  0  0
 79 80  1  0  0  0
 79 81  1  0  0  0
 79153  1  0  0  0
 79154  1  0  0  0
 80 82  1  0  0  0
 80155  1  0  0  0
 80156  1  0  0  0
 81 84  1  0  0  0
 81157  1  0  0  0
 81158  1  0  0  0
 82159  1  0  0  0
 82160  1  0  0  0
 83161  1  0  0  0
 84162  1  0  0  0
M  ISO  4   1 100  68 101  75 100  82 101
M  END
> <chiral flag>
0

> <version>
0

> <s_m_source_file>
/data/baiqing/PycharmProjects/Reinvent-master-3.2/result/LINK_invent/BTK/process_docking_weight1_custom_product_contain_oxygen_bond_distance_aromatic_linkinvent_7_9_3/rearranged_h_0117.sdf

> <i_m_source_file_index>
88

> <r_mmod_Potential_Energy-OPLS-2005>
137.809127807617

> <r_mmod_Stretch_Energy-OPLS-2005>
44.4305076599121

> <r_mmod_Bend_Energy-OPLS-2005>
119.345726013184

> <r_mmod_Torsional_Energy-OPLS-2005>
258.301849365234

> <r_mmod_Improper_Torsional_Energy-OPLS-2005>
23.1839466094971

> <r_mmod_Van_der_Waal_Energy-OPLS-2005>
133.209518432617

> <r_mmod_Electrostatic_Energy-OPLS-2005>
-277.269866943359

> <r_mmod_Solvation_Energy-OPLS-2005>
-201.110137939453

> <b_mmod_Minimization_Converged-OPLS-2005>
0

> <r_mmod_RMS_Derivative-OPLS-2005>
4.005530834198

$$$$
88
                    3D
 Structure written by MMmdl.
158166  0  0  1  0            999 V2000
  -30.5634  -14.6916   20.4699 C   0  0  0  0  0  0
  -30.4604  -12.3885   19.5065 C   0  0  0  0  0  0
  -29.5397  -12.4080   18.2612 C   0  0  0  0  0  0
  -28.0455  -12.3264   18.6572 C   0  0  0  0  0  0
  -27.6634  -13.2062   19.8831 C   0  0  2  0  0  0
  -28.7027  -13.0515   21.0109 C   0  0  0  0  0  0
  -25.2666  -13.8211   20.5813 C   0  0  0  0  0  0
  -24.1877  -13.0412   20.9153 C   0  0  0  0  0  0
  -24.6411  -11.6898   20.8677 C   0  0  0  0  0  0
  -23.9077  -10.4293   21.0305 C   0  0  0  0  0  0
  -24.3624   -9.4253   21.9111 C   0  0  0  0  0  0
  -23.6320   -8.2289   22.0726 C   0  0  0  0  0  0
  -22.4310   -8.0290   21.3515 C   0  0  0  0  0  0
  -21.9904   -9.0247   20.4636 C   0  0  0  0  0  0
  -22.7211  -10.2124   20.3001 C   0  0  0  0  0  0
  -21.6896   -6.0741   22.5267 C   0  0  0  0  0  0
  -21.4033   -6.5635   23.8202 C   0  0  0  0  0  0
  -21.3662   -5.6783   24.9169 C   0  0  0  0  0  0
  -21.6037   -4.3043   24.7206 C   0  0  0  0  0  0
  -21.8837   -3.8141   23.4327 C   0  0  0  0  0  0
  -21.9217   -4.6967   22.3388 C   0  0  0  0  0  0
  -22.7943  -13.5205   21.1803 C   0  0  0  0  0  0
  -22.1680   -4.2138   21.0970 F   0  0  0  0  0  0
  -21.5610   -3.4524   25.7724 F   0  0  0  0  0  0
  -29.9994  -13.4405   20.4409 N   0  0  0  0  0  0
  -26.3085  -12.9338   20.3509 N   0  0  0  0  0  0
  -25.9354  -11.6507   20.5889 N   0  0  0  0  0  0
  -22.0660  -12.8201   22.0442 N   0  0  0  0  0  0
  -25.4336  -15.1956   20.4339 N   0  0  0  0  0  0
  -31.7273  -14.8581   20.0835 O   0  0  0  0  0  0
  -21.6663   -6.8871   21.4240 O   0  0  0  0  0  0
  -22.3601  -14.5457   20.6643 O   0  0  0  0  0  0
  -24.6343  -31.8521   23.1888 C   0  0  0  0  0  0
  -25.9154  -32.4717   23.8248 C   0  0  1  0  0  0
  -27.2434  -27.2344   20.1566 C   0  0  0  0  0  0
  -25.5958  -33.8520   24.2195 N   0  0  0  0  0  0
  -23.4361  -30.4673   21.5262 C   0  0  2  0  0  0
  -24.8983  -28.9150   20.1026 C   0  0  0  0  0  0
  -22.7499  -29.4496   22.4708 C   0  0  0  0  0  0
  -18.0264  -28.1422   22.8418 C   0  0  0  0  0  0
  -24.1498  -36.7271   23.2649 C   0  0  0  0  0  0
  -25.9883  -30.7463   21.3935 C   0  0  0  0  0  0
  -26.0646  -29.3698   20.7361 C   0  0  0  0  0  0
  -27.2381  -28.5445   20.7515 C   0  0  0  0  0  0
  -26.0604  -26.8595   19.4781 C   0  0  0  0  0  0
  -24.9056  -27.6683   19.4548 C   0  0  0  0  0  0
  -23.6723  -29.8092   20.1407 C   0  0  0  0  0  0
  -25.4111  -36.3016   24.0313 C   0  0  1  0  0  0
  -20.5907  -28.3608   23.1125 C   0  0  2  0  0  0
  -20.6635  -26.9275   22.5518 C   0  0  0  0  0  0
  -19.5671  -26.6416   21.5134 C   0  0  0  0  0  0
  -18.1804  -26.8029   22.1466 C   0  0  0  0  0  0
  -19.1555  -28.8813   23.2778 C   0  0  0  0  0  0
  -18.9495  -30.1378   23.8881 C   0  0  0  0  0  0
  -17.6524  -30.6515   24.0743 C   0  0  0  0  0  0
  -25.9089  -34.9406   23.5040 C   0  0  0  0  0  0
  -16.5380  -29.9091   23.6410 C   0  0  0  0  0  0
  -16.7253  -28.6554   23.0365 C   0  0  0  0  0  0
  -26.4501  -31.6537   25.0681 C   0  0  0  0  0  0
  -25.3687  -31.3728   26.1393 C   0  0  0  0  0  0
  -27.0387  -30.2904   24.6268 C   0  0  0  0  0  0
  -27.6008  -32.4313   25.7497 C   0  0  0  0  0  0
  -27.5573  -37.1785   24.8469 C   0  0  0  0  0  0
  -21.4250  -29.2777   22.3334 N   0  0  0  0  0  0
  -26.4283  -37.3718   23.9419 N   0  0  0  0  0  0
  -24.7016  -31.0455   22.0866 N   0  0  0  0  0  0
  -23.4179  -28.8242   23.2994 O   0  0  0  0  0  0
  -28.3228  -26.3140   20.2365 O   0  0  0  0  0  0
  -26.5688  -34.8899   22.4627 O   0  0  0  0  0  0
  -23.5473  -32.1344   23.7147 O   0  0  0  0  0  0
  -28.4708  -18.1768   18.2151 C   0  0  0  0  0  0
  -29.4293  -18.3732   20.8063 C   0  0  0  0  0  0
  -29.1196  -17.0612   18.7694 C   0  0  0  0  0  0
  -28.9258  -19.5991   20.1757 C   0  0  0  0  0  0
  -29.4965  -17.0678   20.1361 C   0  0  0  0  0  0
  -28.2774  -19.3629   18.9347 C   0  0  0  0  0  0
  -28.3521  -15.4742   17.0205 C   0  0  0  0  0  0
  -29.2832  -15.9074   17.8841 C   0  0  0  0  0  0
  -28.7697  -22.1111   20.1148 C   0  0  0  0  0  0
  -26.1013  -20.0930   19.0247 C   0  0  0  0  0  0
  -29.1172  -23.6403   20.4896 C   0  0  0  0  0  0
  -28.0192  -24.8257   20.2773 C   0  0  0  0  0  0
  -29.0525  -20.9633   20.7333 N   0  0  0  0  0  0
  -29.7366  -15.7550   20.8028 N   0  0  0  0  0  0
  -27.3711  -20.2299   18.3988 O   0  0  0  0  0  0
  -31.5085  -12.5083   19.2207 H   0  0  0  0  0  0
  -30.4124  -11.4111   19.9913 H   0  0  0  0  0  0
  -29.7814  -11.5628   17.6171 H   0  0  0  0  0  0
  -29.7491  -13.2815   17.6519 H   0  0  0  0  0  0
  -27.8529  -11.2826   18.9050 H   0  0  0  0  0  0
  -27.4039  -12.5426   17.8010 H   0  0  0  0  0  0
  -27.6871  -14.2447   19.5616 H   0  0  0  0  0  0
  -28.7390  -12.0168   21.3588 H   0  0  0  0  0  0
  -28.4500  -13.6393   21.8922 H   0  0  0  0  0  0
  -25.2744   -9.5799   22.4682 H   0  0  0  0  0  0
  -24.0051   -7.4716   22.7439 H   0  0  0  0  0  0
  -21.0861   -8.8755   19.8949 H   0  0  0  0  0  0
  -22.3627  -10.9668   19.6127 H   0  0  0  0  0  0
  -21.2020   -7.6138   23.9695 H   0  0  0  0  0  0
  -21.1464   -6.0507   25.9059 H   0  0  0  0  0  0
  -22.0611   -2.7604   23.2833 H   0  0  0  0  0  0
  -22.4397  -11.9926   22.4840 H   0  0  0  0  0  0
  -21.1307  -13.1282   22.2697 H   0  0  0  0  0  0
  -24.6390  -15.8283   20.4592 H   0  0  0  0  0  0
  -26.3019  -15.6731   20.2226 H   0  0  0  0  0  0
  -26.7249  -32.5344   23.1011 H   0  0  0  0  0  0
  -24.9979  -33.9597   25.0254 H   0  0  0  0  0  0
  -22.7332  -31.2879   21.3756 H   0  0  0  0  0  0
  -23.3720  -35.9660   23.3309 H   0  0  0  0  0  0
  -24.3578  -36.8919   22.2076 H   0  0  0  0  0  0
  -23.7316  -37.6479   23.6692 H   0  0  0  0  0  0
  -26.1632  -31.4940   20.6195 H   0  0  0  0  0  0
  -26.8514  -30.7819   22.0460 H   0  0  0  0  0  0
  -28.1202  -28.8834   21.2769 H   0  0  0  0  0  0
  -25.9987  -25.9134   18.9642 H   0  0  0  0  0  0
  -24.0326  -27.3148   18.9260 H   0  0  0  0  0  0
  -23.8305  -30.5936   19.3987 H   0  0  0  0  0  0
  -22.7958  -29.2565   19.7986 H   0  0  0  0  0  0
  -25.1300  -36.1822   25.0806 H   0  0  0  0  0  0
  -21.0048  -28.3262   24.1221 H   0  0  0  0  0  0
  -20.5151  -26.2363   23.3828 H   0  0  0  0  0  0
  -21.6578  -26.7087   22.1627 H   0  0  0  0  0  0
  -19.6672  -25.6397   21.0981 H   0  0  0  0  0  0
  -19.6693  -27.3376   20.6787 H   0  0  0  0  0  0
  -17.4090  -26.6974   21.3803 H   0  0  0  0  0  0
  -18.0018  -26.0109   22.8748 H   0  0  0  0  0  0
  -19.7945  -30.7192   24.2305 H   0  0  0  0  0  0
  -17.5210  -31.6067   24.5605 H   0  0  0  0  0  0
  -15.5434  -30.3023   23.7866 H   0  0  0  0  0  0
  -15.8694  -28.0817   22.7141 H   0  0  0  0  0  0
  -24.5815  -30.7169   25.7672 H   0  0  0  0  0  0
  -24.8973  -32.2942   26.4807 H   0  0  0  0  0  0
  -25.7968  -30.8844   27.0157 H   0  0  0  0  0  0
  -26.3006  -29.6625   24.1266 H   0  0  0  0  0  0
  -27.3979  -29.7211   25.4861 H   0  0  0  0  0  0
  -27.8923  -30.4121   23.9593 H   0  0  0  0  0  0
  -27.2500  -33.3567   26.2055 H   0  0  0  0  0  0
  -28.3790  -32.6945   25.0332 H   0  0  0  0  0  0
  -28.0669  -31.8464   26.5433 H   0  0  0  0  0  0
  -28.2559  -38.0103   24.7457 H   0  0  0  0  0  0
  -28.1079  -36.2612   24.6308 H   0  0  0  0  0  0
  -27.2303  -37.1457   25.8880 H   0  0  0  0  0  0
  -20.9480  -29.7952   21.6099 H   0  0  0  0  0  0
  -26.0135  -38.2803   24.1344 H   0  0  0  0  0  0
  -28.0866  -18.1118   17.2064 H   0  0  0  0  0  0
  -29.7626  -18.4174   21.8376 H   0  0  0  0  0  0
  -28.5543  -14.6533   16.3491 H   0  0  0  0  0  0
  -27.3766  -15.9323   16.9835 H   0  0  0  0  0  0
  -30.2496  -15.4264   17.9042 H   0  0  0  0  0  0
  -28.2862  -22.1198   19.1410 H   0  0  0  0  0  0
  -25.7679  -19.0530   19.0345 H   0  0  0  0  0  0
  -25.3646  -20.6753   18.4774 H   0  0  0  0  0  0
  -26.1248  -20.4369   20.0593 H   0  0  0  0  0  0
  -29.9556  -23.8880   19.8402 H   0  0  0  0  0  0
  -29.5275  -23.6734   21.4981 H   0  0  0  0  0  0
  -27.5193  -24.5712   19.3477 H   0  0  0  0  0  0
  -27.2742  -24.7007   21.0630 H   0  0  0  0  0  0
  -28.8937  -15.3907   21.2338 H   0  0  0  0  0  0
  1 25  1  0  0  0
  1 30  2  0  0  0
  1 84  1  0  0  0
  2  3  1  0  0  0
  2 25  1  0  0  0
  2 86  1  0  0  0
  2 87  1  0  0  0
  3  4  1  0  0  0
  3 88  1  0  0  0
  3 89  1  0  0  0
  4  5  1  0  0  0
  4 90  1  0  0  0
  4 91  1  0  0  0
  5  6  1  0  0  0
  5 26  1  0  0  0
  5 92  1  0  0  0
  6 25  1  0  0  0
  6 93  1  0  0  0
  6 94  1  0  0  0
  7  8  2  0  0  0
  7 26  1  0  0  0
  7 29  1  0  0  0
  8  9  1  0  0  0
  8 22  1  0  0  0
  9 10  1  0  0  0
  9 27  2  0  0  0
 10 11  2  0  0  0
 10 15  1  0  0  0
 11 12  1  0  0  0
 11 95  1  0  0  0
 12 13  2  0  0  0
 12 96  1  0  0  0
 13 14  1  0  0  0
 13 31  1  0  0  0
 14 15  2  0  0  0
 14 97  1  0  0  0
 15 98  1  0  0  0
 16 17  2  0  0  0
 16 21  1  0  0  0
 16 31  1  0  0  0
 17 18  1  0  0  0
 17 99  1  0  0  0
 18 19  2  0  0  0
 18100  1  0  0  0
 19 20  1  0  0  0
 19 24  1  0  0  0
 20 21  2  0  0  0
 20101  1  0  0  0
 21 23  1  0  0  0
 22 28  1  0  0  0
 22 32  2  0  0  0
 26 27  1  0  0  0
 28102  1  0  0  0
 28103  1  0  0  0
 29104  1  0  0  0
 29105  1  0  0  0
 33 34  1  0  0  0
 33 66  1  0  0  0
 33 70  2  0  0  0
 34 36  1  0  0  0
 34 59  1  0  0  0
 34106  1  0  0  0
 35 44  2  0  0  0
 35 45  1  0  0  0
 35 68  1  0  0  0
 36 56  1  0  0  0
 36107  1  0  0  0
 37 39  1  0  0  0
 37 47  1  0  0  0
 37 66  1  0  0  0
 37108  1  0  0  0
 38 43  2  0  0  0
 38 46  1  0  0  0
 38 47  1  0  0  0
 39 64  1  0  0  0
 39 67  2  0  0  0
 40 52  1  0  0  0
 40 53  2  0  0  0
 40 58  1  0  0  0
 41109  1  0  0  0
 41110  1  0  0  0
 41111  1  0  0  0
 41 48  1  0  0  0
 42 43  1  0  0  0
 42 66  1  0  0  0
 42112  1  0  0  0
 42113  1  0  0  0
 43 44  1  0  0  0
 44114  1  0  0  0
 45 46  2  0  0  0
 45115  1  0  0  0
 46116  1  0  0  0
 47117  1  0  0  0
 47118  1  0  0  0
 48 56  1  0  0  0
 48 65  1  0  0  0
 48119  1  0  0  0
 49 50  1  0  0  0
 49 53  1  0  0  0
 49 64  1  0  0  0
 49120  1  0  0  0
 50 51  1  0  0  0
 50121  1  0  0  0
 50122  1  0  0  0
 51 52  1  0  0  0
 51123  1  0  0  0
 51124  1  0  0  0
 52125  1  0  0  0
 52126  1  0  0  0
 53 54  1  0  0  0
 54 55  2  0  0  0
 54127  1  0  0  0
 55 57  1  0  0  0
 55128  1  0  0  0
 56 69  2  0  0  0
 57 58  2  0  0  0
 57129  1  0  0  0
 58130  1  0  0  0
 59 60  1  0  0  0
 59 61  1  0  0  0
 59 62  1  0  0  0
 60131  1  0  0  0
 60132  1  0  0  0
 60133  1  0  0  0
 61134  1  0  0  0
 61135  1  0  0  0
 61136  1  0  0  0
 62137  1  0  0  0
 62138  1  0  0  0
 62139  1  0  0  0
 63 65  1  0  0  0
 63140  1  0  0  0
 63141  1  0  0  0
 63142  1  0  0  0
 64143  1  0  0  0
 65144  1  0  0  0
 68 82  1  0  0  0
 71 73  2  0  0  0
 71 76  1  0  0  0
 71145  1  0  0  0
 72 74  1  0  0  0
 72 75  2  0  0  0
 72146  1  0  0  0
 73 75  1  0  0  0
 73 78  1  0  0  0
 74 76  2  0  0  0
 74 83  1  0  0  0
 75 84  1  0  0  0
 76 85  1  0  0  0
 77 78  2  0  0  0
 77147  1  0  0  0
 77148  1  0  0  0
 78149  1  0  0  0
 79 81  1  0  0  0
 79 83  2  0  0  0
 79150  1  0  0  0
 80 85  1  0  0  0
 80151  1  0  0  0
 80152  1  0  0  0
 80153  1  0  0  0
 81 82  1  0  0  0
 81154  1  0  0  0
 81155  1  0  0  0
 82156  1  0  0  0
 82157  1  0  0  0
 84158  1  0  0  0
M  ISO  4   1 100  68 101  82 101  84 100
M  END
> <chiral flag>
0

> <version>
0

> <s_m_source_file>
/data/baiqing/PycharmProjects/Reinvent-master-3.2/result/LINK_invent/BTK/process_docking_weight1_custom_product_contain_oxygen_bond_distance_aromatic_linkinvent_7_9_3/rearranged_h_0117.sdf

> <i_m_source_file_index>
89

> <r_mmod_Potential_Energy-OPLS-2005>
291.991821289062

> <r_mmod_Stretch_Energy-OPLS-2005>
148.493515014648

> <r_mmod_Bend_Energy-OPLS-2005>
186.271072387695

> <r_mmod_Torsional_Energy-OPLS-2005>
335.793060302734

> <r_mmod_Improper_Torsional_Energy-OPLS-2005>
8.01878643035889

> <r_mmod_Van_der_Waal_Energy-OPLS-2005>
158.773620605469

> <r_mmod_Electrostatic_Energy-OPLS-2005>
-417.503234863281

> <r_mmod_Solvation_Energy-OPLS-2005>
-215.865676879883

> <b_mmod_Minimization_Converged-OPLS-2005>
0

> <r_mmod_RMS_Derivative-OPLS-2005>
9.12492179870605

$$$$
89
                    3D
 Structure written by MMmdl.
162171  0  0  1  0            999 V2000
  -27.9716  -17.1968   20.7893 C   0  0  0  0  0  0
  -29.6100  -14.6284   19.7192 C   0  0  0  0  0  0
  -29.3914  -13.3801   18.6599 C   0  0  0  0  0  0
  -28.2360  -12.4609   19.0409 C   0  0  0  0  0  0
  -27.3602  -13.3901   19.8657 C   0  0  2  0  0  0
  -27.9875  -14.2046   21.0365 C   0  0  0  0  0  0
  -25.0800  -13.8060   20.5524 C   0  0  0  0  0  0
  -24.0670  -13.0061   20.9405 C   0  0  0  0  0  0
  -24.5697  -11.6672   20.8848 C   0  0  0  0  0  0
  -23.8688  -10.4042   21.0477 C   0  0  0  0  0  0
  -24.3388   -9.4045   21.9243 C   0  0  0  0  0  0
  -23.6160   -8.2042   22.0752 C   0  0  0  0  0  0
  -22.4159   -8.0071   21.3519 C   0  0  0  0  0  0
  -21.9703   -8.9984   20.4621 C   0  0  0  0  0  0
  -22.6924  -10.1891   20.3072 C   0  0  0  0  0  0
  -21.6779   -6.0622   22.5299 C   0  0  0  0  0  0
  -21.3966   -6.5575   23.8218 C   0  0  0  0  0  0
  -21.3649   -5.6756   24.9199 C   0  0  0  0  0  0
  -21.6047   -4.3017   24.7265 C   0  0  0  0  0  0
  -21.8826   -3.8079   23.4398 C   0  0  0  0  0  0
  -21.9168   -4.6868   22.3437 C   0  0  0  0  0  0
  -22.6826  -13.4811   21.2148 C   0  0  0  0  0  0
  -22.1652   -4.2063   21.1011 F   0  0  0  0  0  0
  -21.5637   -3.4519   25.7786 F   0  0  0  0  0  0
  -28.3537  -15.5550   20.4397 N   0  0  0  0  0  0
  -26.1123  -12.9391   20.2965 N   0  0  0  0  0  0
  -25.8541  -11.6454   20.5576 N   0  0  0  0  0  0
  -21.9625  -12.7856   22.0819 N   0  0  0  0  0  0
  -25.2065  -15.1872   20.3680 N   0  0  0  0  0  0
  -29.3065  -17.2173   20.7234 O   0  0  0  0  0  0
  -21.6542   -6.8693   21.4233 O   0  0  0  0  0  0
  -22.2599  -14.5174   20.7013 O   0  0  0  0  0  0
  -24.6611  -31.9192   23.0153 C   0  0  0  0  0  0
  -25.9196  -32.4967   23.7714 C   0  0  1  0  0  0
  -26.2398  -27.5847   21.3967 C   0  0  0  0  0  0
  -25.5828  -33.8608   24.1975 N   0  0  0  0  0  0
  -23.5888  -30.4807   21.0185 C   0  0  2  0  0  0
  -25.2373  -29.2453   19.6056 C   0  0  0  0  0  0
  -23.1727  -28.9331   21.2468 C   0  0  0  0  0  0
  -18.8172  -26.8866   23.1658 C   0  0  0  0  0  0
  -24.1452  -36.7339   23.2689 C   0  0  0  0  0  0
  -26.0699  -31.0845   21.1325 C   0  0  0  0  0  0
  -26.2126  -29.7031   20.5161 C   0  0  0  0  0  0
  -26.9690  -28.7622   21.2134 C   0  0  0  0  0  0
  -25.7990  -26.9771   20.1740 C   0  0  0  0  0  0
  -25.1715  -27.8644   19.2748 C   0  0  0  0  0  0
  -24.0067  -30.1576   19.5606 C   0  0  0  0  0  0
  -25.4094  -36.3141   24.0347 C   0  0  1  0  0  0
  -22.4641  -26.3898   22.9903 C   0  0  2  0  0  0
  -22.1765  -26.1836   20.6957 C   0  0  0  0  0  0
  -20.2290  -25.6431   20.5996 C   0  0  0  0  0  0
  -18.8873  -25.9011   21.8217 C   0  0  0  0  0  0
  -20.1747  -26.9915   24.0419 C   0  0  0  0  0  0
  -19.6233  -28.3817   24.6383 C   0  0  0  0  0  0
  -18.4744  -29.3371   24.4697 C   0  0  0  0  0  0
  -25.9036  -34.9584   23.5023 C   0  0  0  0  0  0
  -17.3698  -29.0271   23.6843 C   0  0  0  0  0  0
  -17.5769  -27.7600   23.0887 C   0  0  0  0  0  0
  -26.4246  -31.6621   25.0207 C   0  0  0  0  0  0
  -25.3354  -31.3615   26.0766 C   0  0  0  0  0  0
  -27.0390  -30.3293   24.5558 C   0  0  0  0  0  0
  -27.5714  -32.4163   25.7350 C   0  0  0  0  0  0
  -27.5585  -37.1793   24.8468 C   0  0  0  0  0  0
  -23.2840  -27.5492   21.7459 N   0  0  0  0  0  0
  -26.4285  -37.3824   23.9435 N   0  0  0  0  0  0
  -24.7532  -31.2863   21.7777 N   0  0  0  0  0  0
  -23.9566  -29.1922   22.0300 O   0  0  0  0  0  0
  -25.5865  -27.3519   22.7338 O   0  0  0  0  0  0
  -26.5668  -34.9150   22.4629 O   0  0  0  0  0  0
  -23.5925  -32.1336   23.5975 O   0  0  0  0  0  0
  -23.1475  -23.2469   22.6317 C   0  0  0  0  0  0
  -24.2716  -21.8127   22.4300 C   0  0  0  0  0  0
  -23.9226  -21.7544   20.7026 C   0  0  0  0  0  0
  -22.7705  -23.1890   20.9074 C   0  0  0  0  0  0
  -21.9603  -24.3983   21.9857 C   0  0  0  0  0  0
  -25.0501  -20.6077   21.3946 C   0  0  0  0  0  0
  -20.2938  -28.4171   21.2608 C   0  0  0  0  0  0
  -23.8119  -20.2141   18.7062 C   0  0  0  0  0  0
  -24.1331  -21.3854   19.2799 C   0  0  0  0  0  0
  -20.3663  -29.8222   21.9376 C   0  0  0  0  0  0
  -21.3597  -29.9557   23.1605 C   0  0  0  0  0  0
  -22.0033  -28.5507   23.4499 C   0  0  2  0  0  0
  -22.3415  -23.4280   19.4436 C   0  0  0  0  0  0
  -24.1567  -27.9934   23.9167 C   0  0  0  0  0  0
  -20.9202  -27.3791   21.9903 N   0  0  0  0  0  0
  -26.4636  -18.6404   21.0090 N   0  0  0  0  0  0
  -19.7213  -28.3413   20.1708 O   0  0  0  0  0  0
  -30.1901  -15.3594   19.1546 H   0  0  0  0  0  0
  -30.3408  -14.3282   20.4747 H   0  0  0  0  0  0
  -30.3125  -12.8092   18.5251 H   0  0  0  0  0  0
  -29.1633  -13.8090   17.6823 H   0  0  0  0  0  0
  -28.5798  -11.6258   19.6525 H   0  0  0  0  0  0
  -27.7229  -12.0602   18.1639 H   0  0  0  0  0  0
  -27.0731  -14.1049   19.0860 H   0  0  0  0  0  0
  -28.7349  -13.6509   21.6127 H   0  0  0  0  0  0
  -27.2582  -14.4530   21.8089 H   0  0  0  0  0  0
  -25.2479   -9.5632   22.4879 H   0  0  0  0  0  0
  -23.9885   -7.4427   22.7455 H   0  0  0  0  0  0
  -21.0640   -8.8415   19.8935 H   0  0  0  0  0  0
  -22.3292  -10.9434   19.6234 H   0  0  0  0  0  0
  -21.1949   -7.6086   23.9693 H   0  0  0  0  0  0
  -21.1479   -6.0502   25.9098 H   0  0  0  0  0  0
  -22.0625   -2.7541   23.2920 H   0  0  0  0  0  0
  -22.3215  -11.9496   22.5196 H   0  0  0  0  0  0
  -21.0289  -13.0941   22.3138 H   0  0  0  0  0  0
  -24.3521  -15.7338   20.3363 H   0  0  0  0  0  0
  -25.9085  -15.5045   19.7131 H   0  0  0  0  0  0
  -26.7764  -32.6098   23.1175 H   0  0  0  0  0  0
  -24.9844  -33.9475   25.0054 H   0  0  0  0  0  0
  -22.7272  -31.1386   20.9494 H   0  0  0  0  0  0
  -23.3745  -35.9632   23.3281 H   0  0  0  0  0  0
  -24.3578  -36.9012   22.2124 H   0  0  0  0  0  0
  -23.7179  -37.6510   23.6760 H   0  0  0  0  0  0
  -26.2012  -31.8477   20.3632 H   0  0  0  0  0  0
  -26.9309  -31.1859   21.7767 H   0  0  0  0  0  0
  -27.4939  -29.1207   22.0826 H   0  0  0  0  0  0
  -25.4219  -25.9654   20.1743 H   0  0  0  0  0  0
  -24.4398  -27.4813   18.5784 H   0  0  0  0  0  0
  -24.2569  -31.0790   19.0355 H   0  0  0  0  0  0
  -23.2136  -29.7076   18.9552 H   0  0  0  0  0  0
  -25.1311  -36.1908   25.0838 H   0  0  0  0  0  0
  -23.1653  -25.7485   23.5321 H   0  0  0  0  0  0
  -22.1630  -27.0047   19.9600 H   0  0  0  0  0  0
  -22.9686  -25.6266   20.1983 H   0  0  0  0  0  0
  -20.0943  -24.5760   20.4352 H   0  0  0  0  0  0
  -19.8769  -26.0017   19.6327 H   0  0  0  0  0  0
  -17.9955  -26.0852   21.2226 H   0  0  0  0  0  0
  -18.7041  -24.9121   22.2426 H   0  0  0  0  0  0
  -20.2370  -28.7878   25.4304 H   0  0  0  0  0  0
  -18.4665  -30.2468   25.0528 H   0  0  0  0  0  0
  -16.4965  -29.6520   23.5578 H   0  0  0  0  0  0
  -16.7936  -27.4504   22.4103 H   0  0  0  0  0  0
  -24.5246  -30.7576   25.6720 H   0  0  0  0  0  0
  -24.8891  -32.2760   26.4664 H   0  0  0  0  0  0
  -25.7432  -30.8141   26.9272 H   0  0  0  0  0  0
  -26.3773  -29.7846   23.8923 H   0  0  0  0  0  0
  -27.2748  -29.6764   25.3960 H   0  0  0  0  0  0
  -27.9653  -30.4893   24.0053 H   0  0  0  0  0  0
  -27.2325  -33.3342   26.2124 H   0  0  0  0  0  0
  -28.3654  -32.6834   25.0385 H   0  0  0  0  0  0
  -28.0246  -31.8042   26.5138 H   0  0  0  0  0  0
  -28.2592  -38.0096   24.7630 H   0  0  0  0  0  0
  -28.1099  -36.2684   24.6155 H   0  0  0  0  0  0
  -27.2357  -37.1276   25.8872 H   0  0  0  0  0  0
  -24.2737  -27.5119   21.9825 H   0  0  0  0  0  0
  -26.0180  -38.2903   24.1420 H   0  0  0  0  0  0
  -23.2437  -23.5178   23.6742 H   0  0  0  0  0  0
  -24.6238  -21.6047   23.4312 H   0  0  0  0  0  0
  -24.0451  -20.0354   17.6648 H   0  0  0  0  0  0
  -23.3247  -19.4182   19.2494 H   0  0  0  0  0  0
  -24.6385  -22.1162   18.6637 H   0  0  0  0  0  0
  -19.3660  -30.1286   22.2179 H   0  0  0  0  0  0
  -20.6316  -30.5397   21.1625 H   0  0  0  0  0  0
  -20.8941  -30.4053   24.0341 H   0  0  0  0  0  0
  -22.0699  -30.7016   22.9300 H   0  0  0  0  0  0
  -21.9158  -28.4331   24.5244 H   0  0  0  0  0  0
  -21.8837  -22.5360   19.0200 H   0  0  0  0  0  0
  -23.2038  -23.7145   18.8413 H   0  0  0  0  0  0
  -21.6377  -24.2064   19.2290 H   0  0  0  0  0  0
  -24.1293  -27.2640   24.7303 H   0  0  0  0  0  0
  -24.5679  -28.8427   24.4556 H   0  0  0  0  0  0
  -25.7617  -18.0031   20.6548 H   0  0  0  0  0  0
  1 25  1  0  0  0
  1 30  2  0  0  0
  1 86  1  0  0  0
  2  3  1  0  0  0
  2 25  1  0  0  0
  2 88  1  0  0  0
  2 89  1  0  0  0
  3  4  1  0  0  0
  3 90  1  0  0  0
  3 91  1  0  0  0
  4  5  1  0  0  0
  4 92  1  0  0  0
  4 93  1  0  0  0
  5  6  1  0  0  0
  5 26  1  0  0  0
  5 94  1  0  0  0
  6 25  1  0  0  0
  6 95  1  0  0  0
  6 96  1  0  0  0
  7  8  2  0  0  0
  7 26  1  0  0  0
  7 29  1  0  0  0
  8  9  1  0  0  0
  8 22  1  0  0  0
  9 10  1  0  0  0
  9 27  2  0  0  0
 10 11  2  0  0  0
 10 15  1  0  0  0
 11 12  1  0  0  0
 11 97  1  0  0  0
 12 13  2  0  0  0
 12 98  1  0  0  0
 13 14  1  0  0  0
 13 31  1  0  0  0
 14 15  2  0  0  0
 14 99  1  0  0  0
 15100  1  0  0  0
 16 17  2  0  0  0
 16 21  1  0  0  0
 16 31  1  0  0  0
 17 18  1  0  0  0
 17101  1  0  0  0
 18 19  2  0  0  0
 18102  1  0  0  0
 19 20  1  0  0  0
 19 24  1  0  0  0
 20 21  2  0  0  0
 20103  1  0  0  0
 21 23  1  0  0  0
 22 28  1  0  0  0
 22 32  2  0  0  0
 26 27  1  0  0  0
 28104  1  0  0  0
 28105  1  0  0  0
 29106  1  0  0  0
 29107  1  0  0  0
 33 34  1  0  0  0
 33 66  1  0  0  0
 33 70  2  0  0  0
 34 36  1  0  0  0
 34 59  1  0  0  0
 34108  1  0  0  0
 35 44  2  0  0  0
 35 45  1  0  0  0
 35 68  1  0  0  0
 36 56  1  0  0  0
 36109  1  0  0  0
 37 39  1  0  0  0
 37 47  1  0  0  0
 37 66  1  0  0  0
 37110  1  0  0  0
 38 43  2  0  0  0
 38 46  1  0  0  0
 38 47  1  0  0  0
 39 64  1  0  0  0
 39 67  2  0  0  0
 40 52  1  0  0  0
 40 53  2  0  0  0
 40 58  1  0  0  0
 41111  1  0  0  0
 41112  1  0  0  0
 41113  1  0  0  0
 41 48  1  0  0  0
 42 43  1  0  0  0
 42 66  1  0  0  0
 42114  1  0  0  0
 42115  1  0  0  0
 43 44  1  0  0  0
 44116  1  0  0  0
 45 46  2  0  0  0
 45117  1  0  0  0
 46118  1  0  0  0
 47119  1  0  0  0
 47120  1  0  0  0
 48 56  1  0  0  0
 48 65  1  0  0  0
 48121  1  0  0  0
 49 50  1  0  0  0
 49 53  1  0  0  0
 49 64  1  0  0  0
 49122  1  0  0  0
 50 51  1  0  0  0
 50123  1  0  0  0
 50124  1  0  0  0
 51 52  1  0  0  0
 51125  1  0  0  0
 51126  1  0  0  0
 52127  1  0  0  0
 52128  1  0  0  0
 53 54  1  0  0  0
 54 55  2  0  0  0
 54129  1  0  0  0
 55 57  1  0  0  0
 55130  1  0  0  0
 56 69  2  0  0  0
 57 58  2  0  0  0
 57131  1  0  0  0
 58132  1  0  0  0
 59 60  1  0  0  0
 59 61  1  0  0  0
 59 62  1  0  0  0
 60133  1  0  0  0
 60134  1  0  0  0
 60135  1  0  0  0
 61136  1  0  0  0
 61137  1  0  0  0
 61138  1  0  0  0
 62139  1  0  0  0
 62140  1  0  0  0
 62141  1  0  0  0
 63 65  1  0  0  0
 63142  1  0  0  0
 63143  1  0  0  0
 63144  1  0  0  0
 64145  1  0  0  0
 65146  1  0  0  0
 68 84  1  0  0  0
 71 72  2  0  0  0
 71 75  1  0  0  0
 71147  1  0  0  0
 72 76  1  0  0  0
 72148  1  0  0  0
 73 74  1  0  0  0
 73 76  2  0  0  0
 73 79  1  0  0  0
 74 75  2  0  0  0
 74 83  1  0  0  0
 75 85  1  0  0  0
 76 86  1  0  0  0
 77 80  1  0  0  0
 77 85  1  0  0  0
 77 87  2  0  0  0
 78 79  2  0  0  0
 78149  1  0  0  0
 78150  1  0  0  0
 79151  1  0  0  0
 80 81  1  0  0  0
 80152  1  0  0  0
 80153  1  0  0  0
 81 82  1  0  0  0
 81154  1  0  0  0
 81155  1  0  0  0
 82 84  1  0  0  0
 82 85  1  0  0  0
 82156  1  0  0  0
 83157  1  0  0  0
 83158  1  0  0  0
 83159  1  0  0  0
 84160  1  0  0  0
 84161  1  0  0  0
 86162  1  0  0  0
M  ISO  4   1 100  68 101  84 101  86 100
M  END
> <chiral flag>
0

> <version>
0

> <s_m_source_file>
/data/baiqing/PycharmProjects/Reinvent-master-3.2/result/LINK_invent/BTK/process_docking_weight1_custom_product_contain_oxygen_bond_distance_aromatic_linkinvent_7_9_3/rearranged_h_0117.sdf

> <i_m_source_file_index>
90

> <r_mmod_Potential_Energy-OPLS-2005>
33952.76171875

> <r_mmod_Stretch_Energy-OPLS-2005>
14947.5478515625

> <r_mmod_Bend_Energy-OPLS-2005>
3713.96728515625

> <r_mmod_Torsional_Energy-OPLS-2005>
780.4833984375

> <r_mmod_Improper_Torsional_Energy-OPLS-2005>
102.89981842041

> <r_mmod_Van_der_Waal_Energy-OPLS-2005>
3572.46142578125

> <r_mmod_Electrostatic_Energy-OPLS-2005>
-422.591613769531

> <r_mmod_Solvation_Energy-OPLS-2005>
-193.368743896484

> <b_mmod_Minimization_Converged-OPLS-2005>
0

> <r_mmod_RMS_Derivative-OPLS-2005>
8.05944633483887

$$$$
90
                    3D
 Structure written by MMmdl.
153161  0  0  1  0            999 V2000
  -30.5258  -15.0857   20.4101 C   0  0  0  0  0  0
  -30.4145  -12.6972   19.5058 C   0  0  0  0  0  0
  -29.5163  -12.5681   18.2546 C   0  0  0  0  0  0
  -28.0460  -12.3475   18.6561 C   0  0  0  0  0  0
  -27.6074  -13.2728   19.8238 C   0  0  2  0  0  0
  -28.6481  -13.3304   20.9548 C   0  0  0  0  0  0
  -25.2336  -13.8253   20.5702 C   0  0  0  0  0  0
  -24.1717  -13.0422   20.9258 C   0  0  0  0  0  0
  -24.6370  -11.6922   20.8753 C   0  0  0  0  0  0
  -23.9074  -10.4280   21.0400 C   0  0  0  0  0  0
  -24.3661   -9.4186   21.9122 C   0  0  0  0  0  0
  -23.6322   -8.2233   22.0704 C   0  0  0  0  0  0
  -22.4252   -8.0300   21.3562 C   0  0  0  0  0  0
  -21.9862   -9.0291   20.4705 C   0  0  0  0  0  0
  -22.7218  -10.2142   20.3082 C   0  0  0  0  0  0
  -21.6881   -6.0725   22.5280 C   0  0  0  0  0  0
  -21.4052   -6.5642   23.8210 C   0  0  0  0  0  0
  -21.3681   -5.6798   24.9180 C   0  0  0  0  0  0
  -21.6045   -4.3061   24.7225 C   0  0  0  0  0  0
  -21.8821   -3.8136   23.4357 C   0  0  0  0  0  0
  -21.9208   -4.6949   22.3406 C   0  0  0  0  0  0
  -22.7721  -13.5175   21.1926 C   0  0  0  0  0  0
  -22.1652   -4.2108   21.0982 F   0  0  0  0  0  0
  -21.5616   -3.4565   25.7751 F   0  0  0  0  0  0
  -29.8827  -13.8314   20.3343 N   0  0  0  0  0  0
  -26.2758  -12.9523   20.3174 N   0  0  0  0  0  0
  -25.9287  -11.6619   20.5669 N   0  0  0  0  0  0
  -22.0363  -12.8174   22.0479 N   0  0  0  0  0  0
  -25.3969  -15.1985   20.4083 N   0  0  0  0  0  0
  -31.7504  -15.0201   20.2558 O   0  0  0  0  0  0
  -21.6647   -6.8880   21.4249 O   0  0  0  0  0  0
  -22.3414  -14.5471   20.6783 O   0  0  0  0  0  0
  -24.6525  -31.8364   23.1780 C   0  0  0  0  0  0
  -25.9264  -32.4661   23.8210 C   0  0  1  0  0  0
  -27.2063  -27.0214   20.1755 C   0  0  0  0  0  0
  -25.5949  -33.8460   24.2142 N   0  0  0  0  0  0
  -23.4592  -30.4500   21.5289 C   0  0  2  0  0  0
  -24.9079  -28.8486   20.1199 C   0  0  0  0  0  0
  -22.7591  -29.4508   22.4839 C   0  0  0  0  0  0
  -18.0286  -28.1426   22.8462 C   0  0  0  0  0  0
  -24.1478  -36.7247   23.2629 C   0  0  0  0  0  0
  -26.0198  -30.6761   21.3829 C   0  0  0  0  0  0
  -26.0922  -29.2687   20.7422 C   0  0  0  0  0  0
  -27.2450  -28.3755   20.7423 C   0  0  0  0  0  0
  -25.9912  -26.7220   19.5228 C   0  0  0  0  0  0
  -24.8771  -27.5951   19.4907 C   0  0  0  0  0  0
  -23.6923  -29.7705   20.1530 C   0  0  0  0  0  0
  -25.4114  -36.3016   24.0310 C   0  0  1  0  0  0
  -20.5913  -28.3751   23.1230 C   0  0  2  0  0  0
  -20.6777  -26.9454   22.5398 C   0  0  0  0  0  0
  -19.5770  -26.6413   21.5179 C   0  0  0  0  0  0
  -18.1952  -26.7960   22.1597 C   0  0  0  0  0  0
  -19.1549  -28.8903   23.2838 C   0  0  0  0  0  0
  -18.9460  -30.1483   23.8893 C   0  0  0  0  0  0
  -17.6470  -30.6620   24.0553 C   0  0  0  0  0  0
  -25.9090  -34.9385   23.5043 C   0  0  0  0  0  0
  -16.5361  -29.9131   23.6313 C   0  0  0  0  0  0
  -16.7274  -28.6542   23.0346 C   0  0  0  0  0  0
  -26.4551  -31.6535   25.0669 C   0  0  0  0  0  0
  -25.3700  -31.3786   26.1339 C   0  0  0  0  0  0
  -27.0353  -30.2904   24.6233 C   0  0  0  0  0  0
  -27.6082  -32.4274   25.7493 C   0  0  0  0  0  0
  -27.5568  -37.1786   24.8471 C   0  0  0  0  0  0
  -21.4278  -29.3065   22.3593 N   0  0  0  0  0  0
  -26.4274  -37.3741   23.9419 N   0  0  0  0  0  0
  -24.7329  -31.0106   22.0861 N   0  0  0  0  0  0
  -23.4186  -28.8056   23.3029 O   0  0  0  0  0  0
  -28.2346  -25.9741   20.1780 O   0  0  0  0  0  0
  -26.5676  -34.8886   22.4627 O   0  0  0  0  0  0
  -23.5625  -32.1259   23.6961 O   0  0  0  0  0  0
  -28.3930  -16.9061   21.9764 C   0  0  0  0  0  0
  -27.7800  -19.0524   21.9483 C   0  0  0  0  0  0
  -29.1049  -17.4688   20.9569 C   0  0  0  0  0  0
  -28.7473  -19.0019   20.9651 C   0  0  0  0  0  0
  -27.9903  -24.5181   20.4575 C   0  0  0  0  0  0
  -28.7222  -23.2869   20.2152 C   0  0  0  0  0  0
  -30.0302  -23.3531   19.4446 C   0  0  0  0  0  0
  -26.6423  -17.5441   23.6333 C   0  0  0  0  0  0
  -28.3654  -21.6965   20.6969 C   0  0  0  0  0  0
  -27.5699  -17.8311   22.5520 N   0  0  0  0  0  0
  -29.9405  -16.4075   20.1968 N   0  0  0  0  0  0
  -29.0828  -20.3067   20.3182 O   0  0  0  0  0  0
  -31.4470  -12.8562   19.1959 H   0  0  0  0  0  0
  -30.4264  -11.7619   20.0688 H   0  0  0  0  0  0
  -29.8622  -11.7549   17.6153 H   0  0  0  0  0  0
  -29.5949  -13.4763   17.6556 H   0  0  0  0  0  0
  -27.9328  -11.3045   18.9528 H   0  0  0  0  0  0
  -27.3982  -12.4939   17.7901 H   0  0  0  0  0  0
  -27.5506  -14.2768   19.3985 H   0  0  0  0  0  0
  -28.7907  -12.3446   21.4009 H   0  0  0  0  0  0
  -28.3071  -13.9591   21.7683 H   0  0  0  0  0  0
  -25.2853   -9.5627   22.4634 H   0  0  0  0  0  0
  -24.0052   -7.4594   22.7372 H   0  0  0  0  0  0
  -21.0728   -8.8875   19.9096 H   0  0  0  0  0  0
  -22.3654  -10.9693   19.6231 H   0  0  0  0  0  0
  -21.2046   -7.6151   23.9704 H   0  0  0  0  0  0
  -21.1517   -6.0535   25.9083 H   0  0  0  0  0  0
  -22.0574   -2.7580   23.2865 H   0  0  0  0  0  0
  -22.3964  -11.9857   22.4914 H   0  0  0  0  0  0
  -21.0962  -13.1194   22.2606 H   0  0  0  0  0  0
  -24.6152  -15.8395   20.4967 H   0  0  0  0  0  0
  -26.2489  -15.6490   20.0985 H   0  0  0  0  0  0
  -26.7305  -32.5262   23.0907 H   0  0  0  0  0  0
  -25.0061  -33.9564   25.0265 H   0  0  0  0  0  0
  -22.7650  -31.2785   21.3686 H   0  0  0  0  0  0
  -23.3734  -35.9579   23.3298 H   0  0  0  0  0  0
  -24.3539  -36.8869   22.2036 H   0  0  0  0  0  0
  -23.7224  -37.6440   23.6663 H   0  0  0  0  0  0
  -26.1509  -31.4089   20.5874 H   0  0  0  0  0  0
  -26.9000  -30.7615   22.0085 H   0  0  0  0  0  0
  -28.1555  -28.6967   21.2294 H   0  0  0  0  0  0
  -25.8774  -25.7526   19.0570 H   0  0  0  0  0  0
  -23.9718  -27.2697   18.9965 H   0  0  0  0  0  0
  -23.8433  -30.5401   19.3955 H   0  0  0  0  0  0
  -22.8022  -29.2251   19.8372 H   0  0  0  0  0  0
  -25.1281  -36.1841   25.0796 H   0  0  0  0  0  0
  -20.9968  -28.3374   24.1368 H   0  0  0  0  0  0
  -20.5634  -26.2390   23.3634 H   0  0  0  0  0  0
  -21.6661  -26.7476   22.1220 H   0  0  0  0  0  0
  -19.6968  -25.6310   21.1255 H   0  0  0  0  0  0
  -19.6724  -27.3197   20.6684 H   0  0  0  0  0  0
  -17.4207  -26.6642   21.4026 H   0  0  0  0  0  0
  -18.0403  -26.0128   22.9026 H   0  0  0  0  0  0
  -19.7936  -30.7263   24.2318 H   0  0  0  0  0  0
  -17.5033  -31.6299   24.5156 H   0  0  0  0  0  0
  -15.5374  -30.3041   23.7649 H   0  0  0  0  0  0
  -15.8659  -28.0857   22.7105 H   0  0  0  0  0  0
  -24.5945  -30.7037   25.7703 H   0  0  0  0  0  0
  -24.8792  -32.2964   26.4571 H   0  0  0  0  0  0
  -25.7955  -30.9136   27.0227 H   0  0  0  0  0  0
  -26.2952  -29.6714   24.1136 H   0  0  0  0  0  0
  -27.3829  -29.7117   25.4796 H   0  0  0  0  0  0
  -27.8918  -30.4109   23.9600 H   0  0  0  0  0  0
  -27.2711  -33.3628   26.1953 H   0  0  0  0  0  0
  -28.3993  -32.6715   25.0405 H   0  0  0  0  0  0
  -28.0586  -31.8415   26.5501 H   0  0  0  0  0  0
  -28.2581  -38.0089   24.7479 H   0  0  0  0  0  0
  -28.1063  -36.2600   24.6334 H   0  0  0  0  0  0
  -27.2273  -37.1479   25.8873 H   0  0  0  0  0  0
  -20.9536  -29.8799   21.6770 H   0  0  0  0  0  0
  -26.0137  -38.2797   24.1431 H   0  0  0  0  0  0
  -28.3737  -15.9017   22.3604 H   0  0  0  0  0  0
  -27.2017  -19.8885   22.3118 H   0  0  0  0  0  0
  -27.0555  -24.4346   20.9942 H   0  0  0  0  0  0
  -30.2270  -24.3583   19.0683 H   0  0  0  0  0  0
  -29.9991  -22.6798   18.5863 H   0  0  0  0  0  0
  -30.8671  -23.0556   20.0786 H   0  0  0  0  0  0
  -26.4888  -16.4662   23.7251 H   0  0  0  0  0  0
  -25.6736  -18.0061   23.4458 H   0  0  0  0  0  0
  -27.0462  -17.9144   24.5756 H   0  0  0  0  0  0
  -27.3039  -21.5656   20.4787 H   0  0  0  0  0  0
  -28.4197  -21.7565   21.7868 H   0  0  0  0  0  0
  -30.5848  -16.8920   19.5905 H   0  0  0  0  0  0
  1 25  1  0  0  0
  1 30  2  0  0  0
  1 81  1  0  0  0
  2  3  1  0  0  0
  2 25  1  0  0  0
  2 83  1  0  0  0
  2 84  1  0  0  0
  3  4  1  0  0  0
  3 85  1  0  0  0
  3 86  1  0  0  0
  4  5  1  0  0  0
  4 87  1  0  0  0
  4 88  1  0  0  0
  5  6  1  0  0  0
  5 26  1  0  0  0
  5 89  1  0  0  0
  6 25  1  0  0  0
  6 90  1  0  0  0
  6 91  1  0  0  0
  7  8  2  0  0  0
  7 26  1  0  0  0
  7 29  1  0  0  0
  8  9  1  0  0  0
  8 22  1  0  0  0
  9 10  1  0  0  0
  9 27  2  0  0  0
 10 11  2  0  0  0
 10 15  1  0  0  0
 11 12  1  0  0  0
 11 92  1  0  0  0
 12 13  2  0  0  0
 12 93  1  0  0  0
 13 14  1  0  0  0
 13 31  1  0  0  0
 14 15  2  0  0  0
 14 94  1  0  0  0
 15 95  1  0  0  0
 16 17  2  0  0  0
 16 21  1  0  0  0
 16 31  1  0  0  0
 17 18  1  0  0  0
 17 96  1  0  0  0
 18 19  2  0  0  0
 18 97  1  0  0  0
 19 20  1  0  0  0
 19 24  1  0  0  0
 20 21  2  0  0  0
 20 98  1  0  0  0
 21 23  1  0  0  0
 22 28  1  0  0  0
 22 32  2  0  0  0
 26 27  1  0  0  0
 28 99  1  0  0  0
 28100  1  0  0  0
 29101  1  0  0  0
 29102  1  0  0  0
 33 34  1  0  0  0
 33 66  1  0  0  0
 33 70  2  0  0  0
 34 36  1  0  0  0
 34 59  1  0  0  0
 34103  1  0  0  0
 35 44  2  0  0  0
 35 45  1  0  0  0
 35 68  1  0  0  0
 36 56  1  0  0  0
 36104  1  0  0  0
 37 39  1  0  0  0
 37 47  1  0  0  0
 37 66  1  0  0  0
 37105  1  0  0  0
 38 43  2  0  0  0
 38 46  1  0  0  0
 38 47  1  0  0  0
 39 64  1  0  0  0
 39 67  2  0  0  0
 40 52  1  0  0  0
 40 53  2  0  0  0
 40 58  1  0  0  0
 41106  1  0  0  0
 41107  1  0  0  0
 41108  1  0  0  0
 41 48  1  0  0  0
 42 43  1  0  0  0
 42 66  1  0  0  0
 42109  1  0  0  0
 42110  1  0  0  0
 43 44  1  0  0  0
 44111  1  0  0  0
 45 46  2  0  0  0
 45112  1  0  0  0
 46113  1  0  0  0
 47114  1  0  0  0
 47115  1  0  0  0
 48 56  1  0  0  0
 48 65  1  0  0  0
 48116  1  0  0  0
 49 50  1  0  0  0
 49 53  1  0  0  0
 49 64  1  0  0  0
 49117  1  0  0  0
 50 51  1  0  0  0
 50118  1  0  0  0
 50119  1  0  0  0
 51 52  1  0  0  0
 51120  1  0  0  0
 51121  1  0  0  0
 52122  1  0  0  0
 52123  1  0  0  0
 53 54  1  0  0  0
 54 55  2  0  0  0
 54124  1  0  0  0
 55 57  1  0  0  0
 55125  1  0  0  0
 56 69  2  0  0  0
 57 58  2  0  0  0
 57126  1  0  0  0
 58127  1  0  0  0
 59 60  1  0  0  0
 59 61  1  0  0  0
 59 62  1  0  0  0
 60128  1  0  0  0
 60129  1  0  0  0
 60130  1  0  0  0
 61131  1  0  0  0
 61132  1  0  0  0
 61133  1  0  0  0
 62134  1  0  0  0
 62135  1  0  0  0
 62136  1  0  0  0
 63 65  1  0  0  0
 63137  1  0  0  0
 63138  1  0  0  0
 63139  1  0  0  0
 64140  1  0  0  0
 65141  1  0  0  0
 68 75  1  0  0  0
 71 73  2  0  0  0
 71 80  1  0  0  0
 71142  1  0  0  0
 72 74  2  0  0  0
 72 80  1  0  0  0
 72143  1  0  0  0
 73 74  1  0  0  0
 73 81  1  0  0  0
 74 82  1  0  0  0
 75 76  2  0  0  0
 75144  1  0  0  0
 76 77  1  0  0  0
 76 79  1  0  0  0
 77145  1  0  0  0
 77146  1  0  0  0
 77147  1  0  0  0
 78 80  1  0  0  0
 78148  1  0  0  0
 78149  1  0  0  0
 78150  1  0  0  0
 79 82  1  0  0  0
 79151  1  0  0  0
 79152  1  0  0  0
 81153  1  0  0  0
M  ISO  4   1 100  68 101  75 101  81 100
M  END
> <chiral flag>
0

> <version>
0

> <s_m_source_file>
/data/baiqing/PycharmProjects/Reinvent-master-3.2/result/LINK_invent/BTK/process_docking_weight1_custom_product_contain_oxygen_bond_distance_aromatic_linkinvent_7_9_3/rearranged_h_0117.sdf

> <i_m_source_file_index>
91

> <r_mmod_Potential_Energy-OPLS-2005>
882.375

> <r_mmod_Stretch_Energy-OPLS-2005>
395.214324951172

> <r_mmod_Bend_Energy-OPLS-2005>
404.011657714844

> <r_mmod_Torsional_Energy-OPLS-2005>
254.649261474609

> <r_mmod_Improper_Torsional_Energy-OPLS-2005>
17.3008060455322

> <r_mmod_Van_der_Waal_Energy-OPLS-2005>
110.583030700684

> <r_mmod_Electrostatic_Energy-OPLS-2005>
-392.572021484375

> <r_mmod_Solvation_Energy-OPLS-2005>
-205.546585083008

> <b_mmod_Minimization_Converged-OPLS-2005>
0

> <r_mmod_RMS_Derivative-OPLS-2005>
4.77046203613281

$$$$
91
                    3D
 Structure written by MMmdl.
160168  0  0  1  0            999 V2000
  -30.7434  -14.5322   20.5271 C   0  0  0  0  0  0
  -30.4129  -12.3372   19.4562 C   0  0  0  0  0  0
  -29.4956  -12.4880   18.2270 C   0  0  0  0  0  0
  -28.0224  -12.3422   18.6452 C   0  0  0  0  0  0
  -27.6553  -13.2230   19.8696 C   0  0  2  0  0  0
  -28.7006  -13.0995   21.0030 C   0  0  0  0  0  0
  -25.2528  -13.8154   20.5672 C   0  0  0  0  0  0
  -24.1823  -13.0427   20.9219 C   0  0  0  0  0  0
  -24.6411  -11.6906   20.8789 C   0  0  0  0  0  0
  -23.9071  -10.4294   21.0450 C   0  0  0  0  0  0
  -24.3619   -9.4201   21.9212 C   0  0  0  0  0  0
  -23.6296   -8.2235   22.0760 C   0  0  0  0  0  0
  -22.4280   -8.0288   21.3542 C   0  0  0  0  0  0
  -21.9923   -9.0272   20.4648 C   0  0  0  0  0  0
  -22.7255  -10.2149   20.3082 C   0  0  0  0  0  0
  -21.6849   -6.0746   22.5281 C   0  0  0  0  0  0
  -21.4019   -6.5648   23.8218 C   0  0  0  0  0  0
  -21.3659   -5.6795   24.9176 C   0  0  0  0  0  0
  -21.6035   -4.3058   24.7217 C   0  0  0  0  0  0
  -21.8823   -3.8155   23.4339 C   0  0  0  0  0  0
  -21.9193   -4.6974   22.3399 C   0  0  0  0  0  0
  -22.7846  -13.5236   21.1854 C   0  0  0  0  0  0
  -22.1663   -4.2165   21.0975 F   0  0  0  0  0  0
  -21.5616   -3.4539   25.7725 F   0  0  0  0  0  0
  -30.0262  -13.3759   20.4297 N   0  0  0  0  0  0
  -26.3003  -12.9378   20.3383 N   0  0  0  0  0  0
  -25.9356  -11.6526   20.5848 N   0  0  0  0  0  0
  -22.0477  -12.8247   22.0415 N   0  0  0  0  0  0
  -25.4118  -15.1843   20.3916 N   0  0  0  0  0  0
  -31.8969  -14.6138   20.1033 O   0  0  0  0  0  0
  -21.6634   -6.8894   21.4245 O   0  0  0  0  0  0
  -22.3549  -14.5546   20.6692 O   0  0  0  0  0  0
  -24.6200  -31.8656   23.2083 C   0  0  0  0  0  0
  -25.9072  -32.4821   23.8401 C   0  0  1  0  0  0
  -27.2368  -27.4061   20.1122 C   0  0  0  0  0  0
  -25.5913  -33.8617   24.2324 N   0  0  0  0  0  0
  -23.4093  -30.4875   21.5499 C   0  0  2  0  0  0
  -24.8600  -28.9483   20.1155 C   0  0  0  0  0  0
  -22.7435  -29.4646   22.4993 C   0  0  0  0  0  0
  -18.0269  -28.1374   22.8489 C   0  0  0  0  0  0
  -24.1474  -36.7313   23.2642 C   0  0  0  0  0  0
  -25.9400  -30.8259   21.3624 C   0  0  0  0  0  0
  -26.0215  -29.4551   20.7148 C   0  0  0  0  0  0
  -27.2155  -28.6912   20.7112 C   0  0  0  0  0  0
  -26.0641  -26.9220   19.5015 C   0  0  0  0  0  0
  -24.8773  -27.6819   19.5033 C   0  0  0  0  0  0
  -23.6196  -29.8157   20.1660 C   0  0  0  0  0  0
  -25.4091  -36.3107   24.0339 C   0  0  1  0  0  0
  -20.5866  -28.3669   23.1305 C   0  0  2  0  0  0
  -20.6748  -26.9394   22.5423 C   0  0  0  0  0  0
  -19.5727  -26.6373   21.5222 C   0  0  0  0  0  0
  -18.1906  -26.7917   22.1626 C   0  0  0  0  0  0
  -19.1520  -28.8836   23.2897 C   0  0  0  0  0  0
  -18.9449  -30.1431   23.8923 C   0  0  0  0  0  0
  -17.6451  -30.6582   24.0551 C   0  0  0  0  0  0
  -25.9024  -34.9477   23.5123 C   0  0  0  0  0  0
  -16.5345  -29.9079   23.6319 C   0  0  0  0  0  0
  -16.7258  -28.6489   23.0361 C   0  0  0  0  0  0
  -26.4494  -31.6604   25.0733 C   0  0  0  0  0  0
  -25.3752  -31.3708   26.1475 C   0  0  0  0  0  0
  -27.0330  -30.3054   24.6097 C   0  0  0  0  0  0
  -27.6073  -32.4329   25.7501 C   0  0  0  0  0  0
  -27.5564  -37.1803   24.8466 C   0  0  0  0  0  0
  -21.4159  -29.3039   22.3724 N   0  0  0  0  0  0
  -26.4277  -37.3788   23.9413 N   0  0  0  0  0  0
  -24.6755  -31.0735   22.0999 N   0  0  0  0  0  0
  -23.4204  -28.8187   23.3039 O   0  0  0  0  0  0
  -28.3645  -26.6048   20.1136 O   0  0  0  0  0  0
  -26.5583  -34.8935   22.4680 O   0  0  0  0  0  0
  -23.5378  -32.1417   23.7449 O   0  0  0  0  0  0
  -30.7691  -19.5243   21.0549 C   0  0  0  0  0  0
  -28.1316  -19.7456   21.8449 C   0  0  0  0  0  0
  -30.2740  -20.8058   21.4182 C   0  0  0  0  0  0
  -30.0030  -18.3304   21.1290 C   0  0  0  0  0  0
  -28.6463  -18.4657   21.5187 C   0  0  0  0  0  0
  -28.9141  -20.9264   21.8328 C   0  0  0  0  0  0
  -31.3943  -22.8401   22.4008 C   0  0  0  0  0  0
  -31.2753  -21.8907   21.4571 C   0  0  0  0  0  0
  -28.1362  -23.2704   22.0989 C   0  0  0  0  0  0
  -27.7177  -17.2727   21.6316 C   0  0  0  0  0  0
  -30.7419  -17.0000   20.8024 C   0  0  0  0  0  0
  -28.4613  -24.1156   20.8512 C   0  0  0  0  0  0
  -28.4260  -25.6504   21.2016 C   0  0  0  0  0  0
  -28.3101  -22.0432   22.4555 N   0  0  0  0  0  0
  -30.1054  -15.6600   20.9260 N   0  0  0  0  0  0
  -31.4596  -12.4021   19.1549 H   0  0  0  0  0  0
  -30.2965  -11.3497   19.9038 H   0  0  0  0  0  0
  -29.7473  -11.7378   17.4762 H   0  0  0  0  0  0
  -29.6568  -13.4594   17.7561 H   0  0  0  0  0  0
  -27.8566  -11.2915   18.8861 H   0  0  0  0  0  0
  -27.3648  -12.5655   17.8043 H   0  0  0  0  0  0
  -27.6725  -14.2575   19.5267 H   0  0  0  0  0  0
  -28.6855  -12.0996   21.4383 H   0  0  0  0  0  0
  -28.4646  -13.7841   21.8192 H   0  0  0  0  0  0
  -25.2764   -9.5667   22.4795 H   0  0  0  0  0  0
  -23.9995   -7.4623   22.7485 H   0  0  0  0  0  0
  -21.0850   -8.8808   19.8955 H   0  0  0  0  0  0
  -22.3728  -10.9698   19.6200 H   0  0  0  0  0  0
  -21.2027   -7.6161   23.9725 H   0  0  0  0  0  0
  -21.1469   -6.0523   25.9076 H   0  0  0  0  0  0
  -22.0602   -2.7618   23.2830 H   0  0  0  0  0  0
  -22.4073  -11.9900   22.4802 H   0  0  0  0  0  0
  -21.1103  -13.1297   22.2622 H   0  0  0  0  0  0
  -24.6270  -15.8221   20.4670 H   0  0  0  0  0  0
  -26.2345  -15.6097   19.9857 H   0  0  0  0  0  0
  -26.7157  -32.5541   23.1184 H   0  0  0  0  0  0
  -25.0096  -33.9771   25.0493 H   0  0  0  0  0  0
  -22.7002  -31.3056   21.4079 H   0  0  0  0  0  0
  -23.3725  -35.9660   23.3327 H   0  0  0  0  0  0
  -24.3566  -36.8899   22.2051 H   0  0  0  0  0  0
  -23.7241  -37.6530   23.6642 H   0  0  0  0  0  0
  -26.0413  -31.5838   20.5834 H   0  0  0  0  0  0
  -26.8342  -30.8934   21.9715 H   0  0  0  0  0  0
  -28.1117  -29.0747   21.1806 H   0  0  0  0  0  0
  -26.0670  -25.9469   19.0356 H   0  0  0  0  0  0
  -23.9848  -27.2835   19.0402 H   0  0  0  0  0  0
  -23.7280  -30.5899   19.4055 H   0  0  0  0  0  0
  -22.7433  -29.2344   19.8736 H   0  0  0  0  0  0
  -25.1258  -36.1964   25.0830 H   0  0  0  0  0  0
  -20.9957  -28.3244   24.1422 H   0  0  0  0  0  0
  -20.5632  -26.2284   23.3622 H   0  0  0  0  0  0
  -21.6621  -26.7408   22.1226 H   0  0  0  0  0  0
  -19.6887  -25.6289   21.1232 H   0  0  0  0  0  0
  -19.6671  -27.3203   20.6771 H   0  0  0  0  0  0
  -17.4174  -26.6683   21.4025 H   0  0  0  0  0  0
  -18.0288  -26.0064   22.9025 H   0  0  0  0  0  0
  -19.7933  -30.7220   24.2338 H   0  0  0  0  0  0
  -17.5013  -31.6272   24.5134 H   0  0  0  0  0  0
  -15.5346  -30.2990   23.7622 H   0  0  0  0  0  0
  -15.8658  -28.0797   22.7097 H   0  0  0  0  0  0
  -24.5934  -30.7048   25.7800 H   0  0  0  0  0  0
  -24.8942  -32.2862   26.4934 H   0  0  0  0  0  0
  -25.8106  -30.8871   27.0226 H   0  0  0  0  0  0
  -26.2876  -29.6812   24.1161 H   0  0  0  0  0  0
  -27.4116  -29.7291   25.4543 H   0  0  0  0  0  0
  -27.8696  -30.4386   23.9238 H   0  0  0  0  0  0
  -27.2702  -33.3617   26.2117 H   0  0  0  0  0  0
  -28.3877  -32.6906   25.0328 H   0  0  0  0  0  0
  -28.0763  -31.8435   26.5386 H   0  0  0  0  0  0
  -28.2589  -38.0089   24.7480 H   0  0  0  0  0  0
  -28.1045  -36.2614   24.6321 H   0  0  0  0  0  0
  -27.2285  -37.1487   25.8872 H   0  0  0  0  0  0
  -20.9330  -29.8792   21.6958 H   0  0  0  0  0  0
  -26.0162  -38.2860   24.1428 H   0  0  0  0  0  0
  -31.8107  -19.4411   20.7723 H   0  0  0  0  0  0
  -27.1063  -19.8127   22.1838 H   0  0  0  0  0  0
  -32.1546  -23.6037   22.3287 H   0  0  0  0  0  0
  -30.7422  -22.8744   23.2608 H   0  0  0  0  0  0
  -31.9709  -21.9140   20.6291 H   0  0  0  0  0  0
  -27.6180  -23.8909   22.8355 H   0  0  0  0  0  0
  -26.7060  -17.5676   21.9113 H   0  0  0  0  0  0
  -28.0730  -16.5748   22.3898 H   0  0  0  0  0  0
  -27.6589  -16.7630   20.6709 H   0  0  0  0  0  0
  -31.6363  -16.9828   21.4282 H   0  0  0  0  0  0
  -31.1058  -17.0991   19.7773 H   0  0  0  0  0  0
  -27.7174  -23.8891   20.0887 H   0  0  0  0  0  0
  -29.4338  -23.8390   20.4455 H   0  0  0  0  0  0
  -29.3261  -25.8818   21.7733 H   0  0  0  0  0  0
  -27.6011  -25.8498   21.8899 H   0  0  0  0  0  0
  -29.1473  -15.6044   21.2279 H   0  0  0  0  0  0
  1 25  1  0  0  0
  1 30  2  0  0  0
  1 85  1  0  0  0
  2  3  1  0  0  0
  2 25  1  0  0  0
  2 86  1  0  0  0
  2 87  1  0  0  0
  3  4  1  0  0  0
  3 88  1  0  0  0
  3 89  1  0  0  0
  4  5  1  0  0  0
  4 90  1  0  0  0
  4 91  1  0  0  0
  5  6  1  0  0  0
  5 26  1  0  0  0
  5 92  1  0  0  0
  6 25  1  0  0  0
  6 93  1  0  0  0
  6 94  1  0  0  0
  7  8  2  0  0  0
  7 26  1  0  0  0
  7 29  1  0  0  0
  8  9  1  0  0  0
  8 22  1  0  0  0
  9 10  1  0  0  0
  9 27  2  0  0  0
 10 11  2  0  0  0
 10 15  1  0  0  0
 11 12  1  0  0  0
 11 95  1  0  0  0
 12 13  2  0  0  0
 12 96  1  0  0  0
 13 14  1  0  0  0
 13 31  1  0  0  0
 14 15  2  0  0  0
 14 97  1  0  0  0
 15 98  1  0  0  0
 16 17  2  0  0  0
 16 21  1  0  0  0
 16 31  1  0  0  0
 17 18  1  0  0  0
 17 99  1  0  0  0
 18 19  2  0  0  0
 18100  1  0  0  0
 19 20  1  0  0  0
 19 24  1  0  0  0
 20 21  2  0  0  0
 20101  1  0  0  0
 21 23  1  0  0  0
 22 28  1  0  0  0
 22 32  2  0  0  0
 26 27  1  0  0  0
 28102  1  0  0  0
 28103  1  0  0  0
 29104  1  0  0  0
 29105  1  0  0  0
 33 34  1  0  0  0
 33 66  1  0  0  0
 33 70  2  0  0  0
 34 36  1  0  0  0
 34 59  1  0  0  0
 34106  1  0  0  0
 35 44  2  0  0  0
 35 45  1  0  0  0
 35 68  1  0  0  0
 36 56  1  0  0  0
 36107  1  0  0  0
 37 39  1  0  0  0
 37 47  1  0  0  0
 37 66  1  0  0  0
 37108  1  0  0  0
 38 43  2  0  0  0
 38 46  1  0  0  0
 38 47  1  0  0  0
 39 64  1  0  0  0
 39 67  2  0  0  0
 40 52  1  0  0  0
 40 53  2  0  0  0
 40 58  1  0  0  0
 41109  1  0  0  0
 41110  1  0  0  0
 41111  1  0  0  0
 41 48  1  0  0  0
 42 43  1  0  0  0
 42 66  1  0  0  0
 42112  1  0  0  0
 42113  1  0  0  0
 43 44  1  0  0  0
 44114  1  0  0  0
 45 46  2  0  0  0
 45115  1  0  0  0
 46116  1  0  0  0
 47117  1  0  0  0
 47118  1  0  0  0
 48 56  1  0  0  0
 48 65  1  0  0  0
 48119  1  0  0  0
 49 50  1  0  0  0
 49 53  1  0  0  0
 49 64  1  0  0  0
 49120  1  0  0  0
 50 51  1  0  0  0
 50121  1  0  0  0
 50122  1  0  0  0
 51 52  1  0  0  0
 51123  1  0  0  0
 51124  1  0  0  0
 52125  1  0  0  0
 52126  1  0  0  0
 53 54  1  0  0  0
 54 55  2  0  0  0
 54127  1  0  0  0
 55 57  1  0  0  0
 55128  1  0  0  0
 56 69  2  0  0  0
 57 58  2  0  0  0
 57129  1  0  0  0
 58130  1  0  0  0
 59 60  1  0  0  0
 59 61  1  0  0  0
 59 62  1  0  0  0
 60131  1  0  0  0
 60132  1  0  0  0
 60133  1  0  0  0
 61134  1  0  0  0
 61135  1  0  0  0
 61136  1  0  0  0
 62137  1  0  0  0
 62138  1  0  0  0
 62139  1  0  0  0
 63 65  1  0  0  0
 63140  1  0  0  0
 63141  1  0  0  0
 63142  1  0  0  0
 64143  1  0  0  0
 65144  1  0  0  0
 68 83  1  0  0  0
 71 73  2  0  0  0
 71 74  1  0  0  0
 71145  1  0  0  0
 72 75  1  0  0  0
 72 76  2  0  0  0
 72146  1  0  0  0
 73 76  1  0  0  0
 73 78  1  0  0  0
 74 75  2  0  0  0
 74 81  1  0  0  0
 75 80  1  0  0  0
 76 84  1  0  0  0
 77 78  2  0  0  0
 77147  1  0  0  0
 77148  1  0  0  0
 78149  1  0  0  0
 79 82  1  0  0  0
 79 84  2  0  0  0
 79150  1  0  0  0
 80151  1  0  0  0
 80152  1  0  0  0
 80153  1  0  0  0
 81 85  1  0  0  0
 81154  1  0  0  0
 81155  1  0  0  0
 82 83  1  0  0  0
 82156  1  0  0  0
 82157  1  0  0  0
 83158  1  0  0  0
 83159  1  0  0  0
 85160  1  0  0  0
M  ISO  4   1 100  68 101  83 101  85 100
M  END
> <chiral flag>
0

> <version>
0

> <s_m_source_file>
/data/baiqing/PycharmProjects/Reinvent-master-3.2/result/LINK_invent/BTK/process_docking_weight1_custom_product_contain_oxygen_bond_distance_aromatic_linkinvent_7_9_3/rearranged_h_0117.sdf

> <i_m_source_file_index>
92

> <r_mmod_Potential_Energy-OPLS-2005>
22.4836349487305

> <r_mmod_Stretch_Energy-OPLS-2005>
51.1775894165039

> <r_mmod_Bend_Energy-OPLS-2005>
178.226119995117

> <r_mmod_Torsional_Energy-OPLS-2005>
255.3798828125

> <r_mmod_Improper_Torsional_Energy-OPLS-2005>
6.35503959655762

> <r_mmod_Van_der_Waal_Energy-OPLS-2005>
150.764419555664

> <r_mmod_Electrostatic_Energy-OPLS-2005>
-434.087951660156

> <r_mmod_Solvation_Energy-OPLS-2005>
-210.169876098633

> <b_mmod_Minimization_Converged-OPLS-2005>
0

> <r_mmod_RMS_Derivative-OPLS-2005>
2.43151926994324

$$$$
92
                    3D
 Structure written by MMmdl.
160168  0  0  1  0            999 V2000
  -30.7341  -14.3892   20.6797 C   0  0  0  0  0  0
  -30.4216  -12.2938   19.3955 C   0  0  0  0  0  0
  -29.4892  -12.5262   18.1904 C   0  0  0  0  0  0
  -28.0100  -12.3832   18.6024 C   0  0  0  0  0  0
  -27.6665  -13.1996   19.8767 C   0  0  2  0  0  0
  -28.7050  -12.9379   20.9887 C   0  0  0  0  0  0
  -25.2618  -13.8145   20.5657 C   0  0  0  0  0  0
  -24.1854  -13.0433   20.9141 C   0  0  0  0  0  0
  -24.6393  -11.6896   20.8704 C   0  0  0  0  0  0
  -23.9055  -10.4288   21.0395 C   0  0  0  0  0  0
  -24.3613   -9.4212   21.9178 C   0  0  0  0  0  0
  -23.6286   -8.2251   22.0759 C   0  0  0  0  0  0
  -22.4268   -8.0281   21.3547 C   0  0  0  0  0  0
  -21.9898   -9.0253   20.4651 C   0  0  0  0  0  0
  -22.7225  -10.2132   20.3050 C   0  0  0  0  0  0
  -21.6857   -6.0734   22.5281 C   0  0  0  0  0  0
  -21.4020   -6.5641   23.8213 C   0  0  0  0  0  0
  -21.3656   -5.6791   24.9172 C   0  0  0  0  0  0
  -21.6042   -4.3055   24.7227 C   0  0  0  0  0  0
  -21.8818   -3.8145   23.4350 C   0  0  0  0  0  0
  -21.9195   -4.6961   22.3403 C   0  0  0  0  0  0
  -22.7889  -13.5254   21.1808 C   0  0  0  0  0  0
  -22.1663   -4.2149   21.0981 F   0  0  0  0  0  0
  -21.5622   -3.4539   25.7739 F   0  0  0  0  0  0
  -30.0418  -13.2418   20.4512 N   0  0  0  0  0  0
  -26.3050  -12.9299   20.3357 N   0  0  0  0  0  0
  -25.9321  -11.6461   20.5735 N   0  0  0  0  0  0
  -22.0525  -12.8255   22.0372 N   0  0  0  0  0  0
  -25.4354  -15.1863   20.4092 N   0  0  0  0  0  0
  -31.7902  -14.6398   20.0844 O   0  0  0  0  0  0
  -21.6639   -6.8874   21.4243 O   0  0  0  0  0  0
  -22.3582  -14.5561   20.6660 O   0  0  0  0  0  0
  -24.6084  -31.8703   23.2111 C   0  0  0  0  0  0
  -25.9004  -32.4829   23.8395 C   0  0  1  0  0  0
  -27.2389  -27.4707   20.1011 C   0  0  0  0  0  0
  -25.5885  -33.8631   24.2335 N   0  0  0  0  0  0
  -23.3952  -30.4909   21.5514 C   0  0  2  0  0  0
  -24.8443  -28.9601   20.1127 C   0  0  0  0  0  0
  -22.7384  -29.4645   22.5009 C   0  0  0  0  0  0
  -18.0256  -28.1353   22.8475 C   0  0  0  0  0  0
  -24.1491  -36.7320   23.2641 C   0  0  0  0  0  0
  -25.9176  -30.8482   21.3579 C   0  0  0  0  0  0
  -25.9978  -29.4842   20.7094 C   0  0  0  0  0  0
  -27.1982  -28.7469   20.7032 C   0  0  0  0  0  0
  -26.0794  -26.9565   19.4887 C   0  0  0  0  0  0
  -24.8785  -27.6942   19.4985 C   0  0  0  0  0  0
  -23.6013  -29.8200   20.1656 C   0  0  0  0  0  0
  -25.4108  -36.3118   24.0344 C   0  0  1  0  0  0
  -20.5846  -28.3624   23.1333 C   0  0  2  0  0  0
  -20.6745  -26.9368   22.5417 C   0  0  0  0  0  0
  -19.5735  -26.6366   21.5201 C   0  0  0  0  0  0
  -18.1908  -26.7898   22.1609 C   0  0  0  0  0  0
  -19.1508  -28.8808   23.2898 C   0  0  0  0  0  0
  -18.9443  -30.1418   23.8907 C   0  0  0  0  0  0
  -17.6449  -30.6568   24.0555 C   0  0  0  0  0  0
  -25.9026  -34.9481   23.5135 C   0  0  0  0  0  0
  -16.5338  -29.9066   23.6326 C   0  0  0  0  0  0
  -16.7247  -28.6487   23.0333 C   0  0  0  0  0  0
  -26.4454  -31.6602   25.0706 C   0  0  0  0  0  0
  -25.3738  -31.3711   26.1475 C   0  0  0  0  0  0
  -27.0278  -30.3055   24.6031 C   0  0  0  0  0  0
  -27.6032  -32.4326   25.7468 C   0  0  0  0  0  0
  -27.5582  -37.1806   24.8462 C   0  0  0  0  0  0
  -21.4115  -29.3006   22.3764 N   0  0  0  0  0  0
  -26.4292  -37.3796   23.9412 N   0  0  0  0  0  0
  -24.6587  -31.0828   22.0999 N   0  0  0  0  0  0
  -23.4180  -28.8188   23.3032 O   0  0  0  0  0  0
  -28.3870  -26.7192   20.1001 O   0  0  0  0  0  0
  -26.5577  -34.8925   22.4686 O   0  0  0  0  0  0
  -23.5295  -32.1435   23.7541 O   0  0  0  0  0  0
  -32.4895  -19.9581   19.9316 C   0  0  0  0  0  0
  -32.0978  -22.3468   19.7016 C   0  0  0  0  0  0
  -31.3013  -21.1769   21.6806 C   0  0  0  0  0  0
  -32.6324  -21.1477   19.1846 C   0  0  0  0  0  0
  -31.8408  -19.9712   21.1832 C   0  0  0  0  0  0
  -31.4246  -22.3782   20.9500 C   0  0  0  0  0  0
  -33.9353  -20.1575   17.2716 C   0  0  0  0  0  0
  -33.3527  -21.1930   17.8994 C   0  0  0  0  0  0
  -31.0788  -16.5714   21.9854 C   0  0  0  0  0  0
  -30.5569  -24.5456   20.8482 C   0  0  0  0  0  0
  -31.7971  -18.7222   22.0070 C   0  0  0  0  0  0
  -30.1465  -15.4093   21.6807 C   0  0  0  0  0  0
  -30.2713  -25.9104   21.4397 C   0  0  0  0  0  0
  -28.7921  -26.3127   21.4091 C   0  0  0  0  0  0
  -30.9735  -23.5640   21.5485 N   0  0  0  0  0  0
  -30.8933  -17.7655   21.5665 N   0  0  0  0  0  0
  -32.5493  -18.6559   22.9842 O   0  0  0  0  0  0
  -31.4646  -12.3973   19.0941 H   0  0  0  0  0  0
  -30.3222  -11.2713   19.7632 H   0  0  0  0  0  0
  -29.7250  -11.8233   17.3892 H   0  0  0  0  0  0
  -29.6629  -13.5234   17.7817 H   0  0  0  0  0  0
  -27.8099  -11.3243   18.7716 H   0  0  0  0  0  0
  -27.3616  -12.6861   17.7795 H   0  0  0  0  0  0
  -27.7252  -14.2550   19.6092 H   0  0  0  0  0  0
  -28.6706  -11.8910   21.2941 H   0  0  0  0  0  0
  -28.4473  -13.5014   21.8836 H   0  0  0  0  0  0
  -25.2766   -9.5695   22.4741 H   0  0  0  0  0  0
  -23.9998   -7.4652   22.7488 H   0  0  0  0  0  0
  -21.0825   -8.8768   19.8969 H   0  0  0  0  0  0
  -22.3682  -10.9662   19.6152 H   0  0  0  0  0  0
  -21.2021   -7.6150   23.9716 H   0  0  0  0  0  0
  -21.1473   -6.0522   25.9074 H   0  0  0  0  0  0
  -22.0601   -2.7608   23.2848 H   0  0  0  0  0  0
  -22.4131  -11.9919   22.4764 H   0  0  0  0  0  0
  -21.1148  -13.1297   22.2569 H   0  0  0  0  0  0
  -24.6724  -15.8447   20.5231 H   0  0  0  0  0  0
  -26.2952  -15.6270   20.1059 H   0  0  0  0  0  0
  -26.7068  -32.5560   23.1163 H   0  0  0  0  0  0
  -25.0066  -33.9810   25.0500 H   0  0  0  0  0  0
  -22.6807  -31.3046   21.4139 H   0  0  0  0  0  0
  -23.3748  -35.9657   23.3316 H   0  0  0  0  0  0
  -24.3592  -36.8913   22.2054 H   0  0  0  0  0  0
  -23.7246  -37.6533   23.6639 H   0  0  0  0  0  0
  -26.0194  -31.6148   20.5883 H   0  0  0  0  0  0
  -26.8096  -30.9072   21.9693 H   0  0  0  0  0  0
  -28.0879  -29.1578   21.1597 H   0  0  0  0  0  0
  -26.1035  -25.9825   19.0206 H   0  0  0  0  0  0
  -23.9928  -27.2839   19.0335 H   0  0  0  0  0  0
  -23.7003  -30.5949   19.4053 H   0  0  0  0  0  0
  -22.7269  -29.2346   19.8750 H   0  0  0  0  0  0
  -25.1284  -36.1994   25.0840 H   0  0  0  0  0  0
  -20.9918  -28.3172   24.1459 H   0  0  0  0  0  0
  -20.5634  -26.2230   23.3592 H   0  0  0  0  0  0
  -21.6619  -26.7397   22.1225 H   0  0  0  0  0  0
  -19.6906  -25.6283   21.1215 H   0  0  0  0  0  0
  -19.6690  -27.3188   20.6744 H   0  0  0  0  0  0
  -17.4180  -26.6626   21.4012 H   0  0  0  0  0  0
  -18.0316  -26.0035   22.9005 H   0  0  0  0  0  0
  -19.7928  -30.7217   24.2279 H   0  0  0  0  0  0
  -17.5016  -31.6259   24.5140 H   0  0  0  0  0  0
  -15.5342  -30.2978   23.7656 H   0  0  0  0  0  0
  -15.8637  -28.0830   22.7023 H   0  0  0  0  0  0
  -24.5883  -30.7082   25.7829 H   0  0  0  0  0  0
  -24.8965  -32.2876   26.4951 H   0  0  0  0  0  0
  -25.8106  -30.8861   27.0215 H   0  0  0  0  0  0
  -26.2801  -29.6831   24.1095 H   0  0  0  0  0  0
  -27.4095  -29.7267   25.4453 H   0  0  0  0  0  0
  -27.8616  -30.4405   23.9135 H   0  0  0  0  0  0
  -27.2632  -33.3602   26.2089 H   0  0  0  0  0  0
  -28.3811  -32.6930   25.0277 H   0  0  0  0  0  0
  -28.0731  -31.8428   26.5346 H   0  0  0  0  0  0
  -28.2595  -38.0106   24.7512 H   0  0  0  0  0  0
  -28.1081  -36.2637   24.6285 H   0  0  0  0  0  0
  -27.2305  -37.1459   25.8865 H   0  0  0  0  0  0
  -20.9263  -29.8760   21.7026 H   0  0  0  0  0  0
  -26.0193  -38.2877   24.1409 H   0  0  0  0  0  0
  -32.9034  -19.0269   19.5727 H   0  0  0  0  0  0
  -32.2437  -23.2571   19.1381 H   0  0  0  0  0  0
  -30.8229  -21.1842   22.6504 H   0  0  0  0  0  0
  -34.4438  -20.3084   16.3298 H   0  0  0  0  0  0
  -33.9270  -19.1515   17.6633 H   0  0  0  0  0  0
  -33.4164  -22.1632   17.4237 H   0  0  0  0  0  0
  -31.9271  -16.2761   22.6144 H   0  0  0  0  0  0
  -30.3998  -24.4852   19.7680 H   0  0  0  0  0  0
  -29.1972  -15.7895   21.3020 H   0  0  0  0  0  0
  -29.9471  -14.9055   22.6265 H   0  0  0  0  0  0
  -30.8697  -26.6571   20.9178 H   0  0  0  0  0  0
  -30.6163  -25.9159   22.4750 H   0  0  0  0  0  0
  -28.6607  -27.1197   22.1311 H   0  0  0  0  0  0
  -28.1576  -25.4937   21.7529 H   0  0  0  0  0  0
  1 25  1  0  0  0
  1 30  2  0  0  0
  1 82  1  0  0  0
  2  3  1  0  0  0
  2 25  1  0  0  0
  2 88  1  0  0  0
  2 89  1  0  0  0
  3  4  1  0  0  0
  3 90  1  0  0  0
  3 91  1  0  0  0
  4  5  1  0  0  0
  4 92  1  0  0  0
  4 93  1  0  0  0
  5  6  1  0  0  0
  5 26  1  0  0  0
  5 94  1  0  0  0
  6 25  1  0  0  0
  6 95  1  0  0  0
  6 96  1  0  0  0
  7  8  2  0  0  0
  7 26  1  0  0  0
  7 29  1  0  0  0
  8  9  1  0  0  0
  8 22  1  0  0  0
  9 10  1  0  0  0
  9 27  2  0  0  0
 10 11  2  0  0  0
 10 15  1  0  0  0
 11 12  1  0  0  0
 11 97  1  0  0  0
 12 13  2  0  0  0
 12 98  1  0  0  0
 13 14  1  0  0  0
 13 31  1  0  0  0
 14 15  2  0  0  0
 14 99  1  0  0  0
 15100  1  0  0  0
 16 17  2  0  0  0
 16 21  1  0  0  0
 16 31  1  0  0  0
 17 18  1  0  0  0
 17101  1  0  0  0
 18 19  2  0  0  0
 18102  1  0  0  0
 19 20  1  0  0  0
 19 24  1  0  0  0
 20 21  2  0  0  0
 20103  1  0  0  0
 21 23  1  0  0  0
 22 28  1  0  0  0
 22 32  2  0  0  0
 26 27  1  0  0  0
 28104  1  0  0  0
 28105  1  0  0  0
 29106  1  0  0  0
 29107  1  0  0  0
 33 34  1  0  0  0
 33 66  1  0  0  0
 33 70  2  0  0  0
 34 36  1  0  0  0
 34 59  1  0  0  0
 34108  1  0  0  0
 35 44  2  0  0  0
 35 45  1  0  0  0
 35 68  1  0  0  0
 36 56  1  0  0  0
 36109  1  0  0  0
 37 39  1  0  0  0
 37 47  1  0  0  0
 37 66  1  0  0  0
 37110  1  0  0  0
 38 43  2  0  0  0
 38 46  1  0  0  0
 38 47  1  0  0  0
 39 64  1  0  0  0
 39 67  2  0  0  0
 40 52  1  0  0  0
 40 53  2  0  0  0
 40 58  1  0  0  0
 41111  1  0  0  0
 41112  1  0  0  0
 41113  1  0  0  0
 41 48  1  0  0  0
 42 43  1  0  0  0
 42 66  1  0  0  0
 42114  1  0  0  0
 42115  1  0  0  0
 43 44  1  0  0  0
 44116  1  0  0  0
 45 46  2  0  0  0
 45117  1  0  0  0
 46118  1  0  0  0
 47119  1  0  0  0
 47120  1  0  0  0
 48 56  1  0  0  0
 48 65  1  0  0  0
 48121  1  0  0  0
 49 50  1  0  0  0
 49 53  1  0  0  0
 49 64  1  0  0  0
 49122  1  0  0  0
 50 51  1  0  0  0
 50123  1  0  0  0
 50124  1  0  0  0
 51 52  1  0  0  0
 51125  1  0  0  0
 51126  1  0  0  0
 52127  1  0  0  0
 52128  1  0  0  0
 53 54  1  0  0  0
 54 55  2  0  0  0
 54129  1  0  0  0
 55 57  1  0  0  0
 55130  1  0  0  0
 56 69  2  0  0  0
 57 58  2  0  0  0
 57131  1  0  0  0
 58132  1  0  0  0
 59 60  1  0  0  0
 59 61  1  0  0  0
 59 62  1  0  0  0
 60133  1  0  0  0
 60134  1  0  0  0
 60135  1  0  0  0
 61136  1  0  0  0
 61137  1  0  0  0
 61138  1  0  0  0
 62139  1  0  0  0
 62140  1  0  0  0
 62141  1  0  0  0
 63 65  1  0  0  0
 63142  1  0  0  0
 63143  1  0  0  0
 63144  1  0  0  0
 64145  1  0  0  0
 65146  1  0  0  0
 68 84  1  0  0  0
 71 74  2  0  0  0
 71 75  1  0  0  0
 71147  1  0  0  0
 72 74  1  0  0  0
 72 76  2  0  0  0
 72148  1  0  0  0
 73 75  2  0  0  0
 73 76  1  0  0  0
 73149  1  0  0  0
 74 78  1  0  0  0
 75 81  1  0  0  0
 76 85  1  0  0  0
 77 78  2  0  0  0
 77150  1  0  0  0
 77151  1  0  0  0
 78152  1  0  0  0
 79 82  1  0  0  0
 79 86  2  0  0  0
 79153  1  0  0  0
 80 83  1  0  0  0
 80 85  2  0  0  0
 80154  1  0  0  0
 81 86  1  0  0  0
 81 87  2  0  0  0
 82155  1  0  0  0
 82156  1  0  0  0
 83 84  1  0  0  0
 83157  1  0  0  0
 83158  1  0  0  0
 84159  1  0  0  0
 84160  1  0  0  0
M  ISO  4   1 100  68 101  82 100  84 101
M  END
> <chiral flag>
0

> <version>
0

> <s_m_source_file>
/data/baiqing/PycharmProjects/Reinvent-master-3.2/result/LINK_invent/BTK/process_docking_weight1_custom_product_contain_oxygen_bond_distance_aromatic_linkinvent_7_9_3/rearranged_h_0117.sdf

> <i_m_source_file_index>
93

> <r_mmod_Potential_Energy-OPLS-2005>
-78.1645660400391

> <r_mmod_Stretch_Energy-OPLS-2005>
34.5303726196289

> <r_mmod_Bend_Energy-OPLS-2005>
94.9728546142578

> <r_mmod_Torsional_Energy-OPLS-2005>
205.762573242188

> <r_mmod_Improper_Torsional_Energy-OPLS-2005>
2.26514339447021

> <r_mmod_Van_der_Waal_Energy-OPLS-2005>
172.138214111328

> <r_mmod_Electrostatic_Energy-OPLS-2005>
-383.7216796875

> <r_mmod_Solvation_Energy-OPLS-2005>
-211.315200805664

> <b_mmod_Minimization_Converged-OPLS-2005>
0

> <r_mmod_RMS_Derivative-OPLS-2005>
1.45362257957458

$$$$
93
                    3D
 Structure written by MMmdl.
155163  0  0  1  0            999 V2000
  -30.6665  -14.6172   20.5970 C   0  0  0  0  0  0
  -30.4341  -12.4058   19.4629 C   0  0  0  0  0  0
  -29.5094  -12.5360   18.2323 C   0  0  0  0  0  0
  -28.0319  -12.3606   18.6343 C   0  0  0  0  0  0
  -27.6548  -13.2157   19.8711 C   0  0  2  0  0  0
  -28.6885  -13.0311   21.0013 C   0  0  0  0  0  0
  -25.2513  -13.8136   20.5607 C   0  0  0  0  0  0
  -24.1805  -13.0411   20.9166 C   0  0  0  0  0  0
  -24.6384  -11.6886   20.8731 C   0  0  0  0  0  0
  -23.9054  -10.4275   21.0404 C   0  0  0  0  0  0
  -24.3604   -9.4198   21.9187 C   0  0  0  0  0  0
  -23.6279   -8.2233   22.0756 C   0  0  0  0  0  0
  -22.4267   -8.0267   21.3535 C   0  0  0  0  0  0
  -21.9898   -9.0245   20.4642 C   0  0  0  0  0  0
  -22.7222  -10.2124   20.3054 C   0  0  0  0  0  0
  -21.6854   -6.0725   22.5271 C   0  0  0  0  0  0
  -21.4007   -6.5635   23.8208 C   0  0  0  0  0  0
  -21.3654   -5.6791   24.9170 C   0  0  0  0  0  0
  -21.6053   -4.3053   24.7218 C   0  0  0  0  0  0
  -21.8816   -3.8140   23.4343 C   0  0  0  0  0  0
  -21.9186   -4.6950   22.3399 C   0  0  0  0  0  0
  -22.7828  -13.5207   21.1843 C   0  0  0  0  0  0
  -22.1661   -4.2140   21.0977 F   0  0  0  0  0  0
  -21.5630   -3.4537   25.7740 F   0  0  0  0  0  0
  -30.0158  -13.4056   20.4744 N   0  0  0  0  0  0
  -26.2973  -12.9340   20.3301 N   0  0  0  0  0  0
  -25.9307  -11.6487   20.5738 N   0  0  0  0  0  0
  -22.0480  -12.8215   22.0414 N   0  0  0  0  0  0
  -25.4146  -15.1841   20.3900 N   0  0  0  0  0  0
  -31.7378  -14.8174   20.0138 O   0  0  0  0  0  0
  -21.6630   -6.8871   21.4234 O   0  0  0  0  0  0
  -22.3507  -14.5512   20.6687 O   0  0  0  0  0  0
  -24.6281  -31.8588   23.2053 C   0  0  0  0  0  0
  -25.9124  -32.4767   23.8379 C   0  0  1  0  0  0
  -27.2238  -27.3174   20.1233 C   0  0  0  0  0  0
  -25.5944  -33.8567   24.2307 N   0  0  0  0  0  0
  -23.4227  -30.4854   21.5486 C   0  0  2  0  0  0
  -24.8692  -28.9468   20.1144 C   0  0  0  0  0  0
  -22.7481  -29.4631   22.4951 C   0  0  0  0  0  0
  -18.0269  -28.1368   22.8492 C   0  0  0  0  0  0
  -24.1488  -36.7279   23.2646 C   0  0  0  0  0  0
  -25.9658  -30.7927   21.3786 C   0  0  0  0  0  0
  -26.0403  -29.4216   20.7178 C   0  0  0  0  0  0
  -27.2231  -28.6207   20.7100 C   0  0  0  0  0  0
  -26.0273  -26.9043   19.4883 C   0  0  0  0  0  0
  -24.8652  -27.6925   19.4915 C   0  0  0  0  0  0
  -23.6363  -29.8247   20.1640 C   0  0  0  0  0  0
  -25.4105  -36.3060   24.0334 C   0  0  1  0  0  0
  -20.5882  -28.3683   23.1249 C   0  0  2  0  0  0
  -20.6765  -26.9403   22.5389 C   0  0  0  0  0  0
  -19.5752  -26.6377   21.5182 C   0  0  0  0  0  0
  -18.1926  -26.7922   22.1600 C   0  0  0  0  0  0
  -19.1532  -28.8838   23.2868 C   0  0  0  0  0  0
  -18.9464  -30.1438   23.8889 C   0  0  0  0  0  0
  -17.6461  -30.6581   24.0544 C   0  0  0  0  0  0
  -25.9039  -34.9436   23.5109 C   0  0  0  0  0  0
  -16.5341  -29.9081   23.6333 C   0  0  0  0  0  0
  -16.7258  -28.6489   23.0375 C   0  0  0  0  0  0
  -26.4509  -31.6580   25.0748 C   0  0  0  0  0  0
  -25.3730  -31.3680   26.1471 C   0  0  0  0  0  0
  -27.0410  -30.3023   24.6213 C   0  0  0  0  0  0
  -27.6094  -32.4308   25.7495 C   0  0  0  0  0  0
  -27.5577  -37.1779   24.8464 C   0  0  0  0  0  0
  -21.4196  -29.3045   22.3664 N   0  0  0  0  0  0
  -26.4284  -37.3758   23.9412 N   0  0  0  0  0  0
  -24.6913  -31.0618   22.0996 N   0  0  0  0  0  0
  -23.4194  -28.8155   23.3024 O   0  0  0  0  0  0
  -28.3261  -26.4472   20.1753 O   0  0  0  0  0  0
  -26.5614  -34.8910   22.4682 O   0  0  0  0  0  0
  -23.5447  -32.1396   23.7374 O   0  0  0  0  0  0
  -28.7426  -19.4281   21.0900 C   0  0  0  0  0  0
  -31.0217  -17.9219   20.5191 C   0  0  0  0  0  0
  -28.7554  -18.0139   21.3450 C   0  0  0  0  0  0
  -29.9277  -17.2119   21.0822 C   0  0  0  0  0  0
  -29.8578  -20.1263   20.5633 C   0  0  0  0  0  0
  -30.9896  -19.3226   20.2688 C   0  0  0  0  0  0
  -26.5589  -18.0474   22.6049 C   0  0  0  0  0  0
  -27.5420  -17.4077   21.9461 C   0  0  0  0  0  0
  -30.0764  -15.7356   21.5375 C   0  0  0  0  0  0
  -29.1712  -23.9632   20.3601 C   0  0  0  0  0  0
  -27.9916  -25.0063   20.3312 C   0  0  0  0  0  0
  -28.8375  -22.4388   20.6413 C   0  0  0  0  0  0
  -29.7712  -15.4499   22.7360 N   0  0  0  0  0  0
  -30.3361  -24.3265   20.1521 O   0  0  0  0  0  0
  -29.9291  -21.5171   20.3223 O   0  0  0  0  0  0
  -32.0935  -19.9127   19.7506 F   0  0  0  0  0  0
  -31.4754  -12.5279   19.1627 H   0  0  0  0  0  0
  -30.3709  -11.4001   19.8813 H   0  0  0  0  0  0
  -29.7812  -11.7988   17.4761 H   0  0  0  0  0  0
  -29.6502  -13.5148   17.7709 H   0  0  0  0  0  0
  -27.8738  -11.3047   18.8543 H   0  0  0  0  0  0
  -27.3788  -12.5996   17.7942 H   0  0  0  0  0  0
  -27.6878  -14.2605   19.5620 H   0  0  0  0  0  0
  -28.7026  -11.9906   21.3324 H   0  0  0  0  0  0
  -28.3784  -13.5954   21.8760 H   0  0  0  0  0  0
  -25.2752   -9.5676   22.4761 H   0  0  0  0  0  0
  -23.9981   -7.4630   22.7485 H   0  0  0  0  0  0
  -21.0824   -8.8757   19.8957 H   0  0  0  0  0  0
  -22.3675  -10.9659   19.6162 H   0  0  0  0  0  0
  -21.2002   -7.6140   23.9700 H   0  0  0  0  0  0
  -21.1485   -6.0525   25.9070 H   0  0  0  0  0  0
  -22.0600   -2.7601   23.2849 H   0  0  0  0  0  0
  -22.4109  -11.9889   22.4810 H   0  0  0  0  0  0
  -21.1105  -13.1237   22.2635 H   0  0  0  0  0  0
  -24.6441  -15.8333   20.5019 H   0  0  0  0  0  0
  -26.2551  -15.6260   20.0433 H   0  0  0  0  0  0
  -26.7194  -32.5440   23.1132 H   0  0  0  0  0  0
  -25.0096  -33.9691   25.0457 H   0  0  0  0  0  0
  -22.7155  -31.3065   21.4062 H   0  0  0  0  0  0
  -23.3754  -35.9609   23.3291 H   0  0  0  0  0  0
  -24.3602  -36.8925   22.2068 H   0  0  0  0  0  0
  -23.7250  -37.6470   23.6692 H   0  0  0  0  0  0
  -26.0975  -31.5564   20.6106 H   0  0  0  0  0  0
  -26.8426  -30.8375   22.0106 H   0  0  0  0  0  0
  -28.1223  -28.9808   21.1916 H   0  0  0  0  0  0
  -25.9513  -25.9560   18.9823 H   0  0  0  0  0  0
  -23.9690  -27.3241   19.0137 H   0  0  0  0  0  0
  -23.7537  -30.6023   19.4070 H   0  0  0  0  0  0
  -22.7550  -29.2534   19.8653 H   0  0  0  0  0  0
  -25.1280  -36.1907   25.0826 H   0  0  0  0  0  0
  -20.9950  -28.3274   24.1385 H   0  0  0  0  0  0
  -20.5642  -26.2301   23.3593 H   0  0  0  0  0  0
  -21.6638  -26.7432   22.1191 H   0  0  0  0  0  0
  -19.6913  -25.6284   21.1226 H   0  0  0  0  0  0
  -19.6686  -27.3173   20.6704 H   0  0  0  0  0  0
  -17.4180  -26.6645   21.4007 H   0  0  0  0  0  0
  -18.0337  -26.0046   22.8997 H   0  0  0  0  0  0
  -19.7949  -30.7241   24.2275 H   0  0  0  0  0  0
  -17.5034  -31.6281   24.5144 H   0  0  0  0  0  0
  -15.5354  -30.2982   23.7692 H   0  0  0  0  0  0
  -15.8650  -28.0803   22.7120 H   0  0  0  0  0  0
  -24.5938  -30.6991   25.7780 H   0  0  0  0  0  0
  -24.8863  -32.2804   26.4911 H   0  0  0  0  0  0
  -25.8053  -30.8854   27.0245 H   0  0  0  0  0  0
  -26.3012  -29.6673   24.1324 H   0  0  0  0  0  0
  -27.4233  -29.7367   25.4720 H   0  0  0  0  0  0
  -27.8800  -30.4343   23.9384 H   0  0  0  0  0  0
  -27.2783  -33.3670   26.2012 H   0  0  0  0  0  0
  -28.3932  -32.6762   25.0314 H   0  0  0  0  0  0
  -28.0726  -31.8451   26.5447 H   0  0  0  0  0  0
  -28.2559  -38.0110   24.7568 H   0  0  0  0  0  0
  -28.1117  -36.2647   24.6233 H   0  0  0  0  0  0
  -27.2304  -37.1351   25.8868 H   0  0  0  0  0  0
  -20.9372  -29.8797   21.6889 H   0  0  0  0  0  0
  -26.0159  -38.2827   24.1443 H   0  0  0  0  0  0
  -27.8511  -19.9946   21.3058 H   0  0  0  0  0  0
  -31.9436  -17.3970   20.3168 H   0  0  0  0  0  0
  -25.7091  -17.4963   22.9837 H   0  0  0  0  0  0
  -26.5661  -19.1108   22.7911 H   0  0  0  0  0  0
  -27.4211  -16.3402   21.8244 H   0  0  0  0  0  0
  -27.4110  -24.8831   21.2463 H   0  0  0  0  0  0
  -27.3651  -24.6691   19.5102 H   0  0  0  0  0  0
  -27.9517  -22.1585   20.0724 H   0  0  0  0  0  0
  -28.5837  -22.3371   21.6968 H   0  0  0  0  0  0
  -29.4332  -16.2713   23.2235 H   0  0  0  0  0  0
  1 25  1  0  0  0
  1 30  2  0  0  0
  1 79  1  0  0  0
  2  3  1  0  0  0
  2 25  1  0  0  0
  2 87  1  0  0  0
  2 88  1  0  0  0
  3  4  1  0  0  0
  3 89  1  0  0  0
  3 90  1  0  0  0
  4  5  1  0  0  0
  4 91  1  0  0  0
  4 92  1  0  0  0
  5  6  1  0  0  0
  5 26  1  0  0  0
  5 93  1  0  0  0
  6 25  1  0  0  0
  6 94  1  0  0  0
  6 95  1  0  0  0
  7  8  2  0  0  0
  7 26  1  0  0  0
  7 29  1  0  0  0
  8  9  1  0  0  0
  8 22  1  0  0  0
  9 10  1  0  0  0
  9 27  2  0  0  0
 10 11  2  0  0  0
 10 15  1  0  0  0
 11 12  1  0  0  0
 11 96  1  0  0  0
 12 13  2  0  0  0
 12 97  1  0  0  0
 13 14  1  0  0  0
 13 31  1  0  0  0
 14 15  2  0  0  0
 14 98  1  0  0  0
 15 99  1  0  0  0
 16 17  2  0  0  0
 16 21  1  0  0  0
 16 31  1  0  0  0
 17 18  1  0  0  0
 17100  1  0  0  0
 18 19  2  0  0  0
 18101  1  0  0  0
 19 20  1  0  0  0
 19 24  1  0  0  0
 20 21  2  0  0  0
 20102  1  0  0  0
 21 23  1  0  0  0
 22 28  1  0  0  0
 22 32  2  0  0  0
 26 27  1  0  0  0
 28103  1  0  0  0
 28104  1  0  0  0
 29105  1  0  0  0
 29106  1  0  0  0
 33 34  1  0  0  0
 33 66  1  0  0  0
 33 70  2  0  0  0
 34 36  1  0  0  0
 34 59  1  0  0  0
 34107  1  0  0  0
 35 44  2  0  0  0
 35 45  1  0  0  0
 35 68  1  0  0  0
 36 56  1  0  0  0
 36108  1  0  0  0
 37 39  1  0  0  0
 37 47  1  0  0  0
 37 66  1  0  0  0
 37109  1  0  0  0
 38 43  2  0  0  0
 38 46  1  0  0  0
 38 47  1  0  0  0
 39 64  1  0  0  0
 39 67  2  0  0  0
 40 52  1  0  0  0
 40 53  2  0  0  0
 40 58  1  0  0  0
 41110  1  0  0  0
 41111  1  0  0  0
 41112  1  0  0  0
 41 48  1  0  0  0
 42 43  1  0  0  0
 42 66  1  0  0  0
 42113  1  0  0  0
 42114  1  0  0  0
 43 44  1  0  0  0
 44115  1  0  0  0
 45 46  2  0  0  0
 45116  1  0  0  0
 46117  1  0  0  0
 47118  1  0  0  0
 47119  1  0  0  0
 48 56  1  0  0  0
 48 65  1  0  0  0
 48120  1  0  0  0
 49 50  1  0  0  0
 49 53  1  0  0  0
 49 64  1  0  0  0
 49121  1  0  0  0
 50 51  1  0  0  0
 50122  1  0  0  0
 50123  1  0  0  0
 51 52  1  0  0  0
 51124  1  0  0  0
 51125  1  0  0  0
 52126  1  0  0  0
 52127  1  0  0  0
 53 54  1  0  0  0
 54 55  2  0  0  0
 54128  1  0  0  0
 55 57  1  0  0  0
 55129  1  0  0  0
 56 69  2  0  0  0
 57 58  2  0  0  0
 57130  1  0  0  0
 58131  1  0  0  0
 59 60  1  0  0  0
 59 61  1  0  0  0
 59 62  1  0  0  0
 60132  1  0  0  0
 60133  1  0  0  0
 60134  1  0  0  0
 61135  1  0  0  0
 61136  1  0  0  0
 61137  1  0  0  0
 62138  1  0  0  0
 62139  1  0  0  0
 62140  1  0  0  0
 63 65  1  0  0  0
 63141  1  0  0  0
 63142  1  0  0  0
 63143  1  0  0  0
 64144  1  0  0  0
 65145  1  0  0  0
 68 81  1  0  0  0
 71 73  2  0  0  0
 71 75  1  0  0  0
 71146  1  0  0  0
 72 74  2  0  0  0
 72 76  1  0  0  0
 72147  1  0  0  0
 73 74  1  0  0  0
 73 78  1  0  0  0
 74 79  1  0  0  0
 75 76  2  0  0  0
 75 85  1  0  0  0
 76 86  1  0  0  0
 77 78  2  0  0  0
 77148  1  0  0  0
 77149  1  0  0  0
 78150  1  0  0  0
 79 83  2  0  0  0
 80 81  1  0  0  0
 80 82  1  0  0  0
 80 84  2  0  0  0
 81151  1  0  0  0
 81152  1  0  0  0
 82 85  1  0  0  0
 82153  1  0  0  0
 82154  1  0  0  0
 83155  1  0  0  0
M  ISO  4   1 100  68 101  79 100  81 101
M  END
> <chiral flag>
0

> <version>
0

> <s_m_source_file>
/data/baiqing/PycharmProjects/Reinvent-master-3.2/result/LINK_invent/BTK/process_docking_weight1_custom_product_contain_oxygen_bond_distance_aromatic_linkinvent_7_9_3/rearranged_h_0117.sdf

> <i_m_source_file_index>
94

> <r_mmod_Potential_Energy-OPLS-2005>
249.952606201172

> <r_mmod_Stretch_Energy-OPLS-2005>
95.139274597168

> <r_mmod_Bend_Energy-OPLS-2005>
149.275146484375

> <r_mmod_Torsional_Energy-OPLS-2005>
215.915512084961

> <r_mmod_Improper_Torsional_Energy-OPLS-2005>
3.43913292884827

> <r_mmod_Van_der_Waal_Energy-OPLS-2005>
155.136520385742

> <r_mmod_Electrostatic_Energy-OPLS-2005>
-181.459213256836

> <r_mmod_Solvation_Energy-OPLS-2005>
-233.055068969727

> <b_mmod_Minimization_Converged-OPLS-2005>
0

> <r_mmod_RMS_Derivative-OPLS-2005>
2.6260290145874

$$$$
94
                    3D
 Structure written by MMmdl.
166174  0  0  1  0            999 V2000
  -30.6951  -14.5068   20.5494 C   0  0  0  0  0  0
  -30.4235  -12.3154   19.4431 C   0  0  0  0  0  0
  -29.4965  -12.4887   18.2237 C   0  0  0  0  0  0
  -28.0199  -12.3501   18.6419 C   0  0  0  0  0  0
  -27.6607  -13.2120   19.8817 C   0  0  2  0  0  0
  -28.7075  -13.0237   21.0045 C   0  0  0  0  0  0
  -25.2569  -13.8157   20.5746 C   0  0  0  0  0  0
  -24.1828  -13.0419   20.9215 C   0  0  0  0  0  0
  -24.6419  -11.6898   20.8785 C   0  0  0  0  0  0
  -23.9086  -10.4288   21.0426 C   0  0  0  0  0  0
  -24.3630   -9.4191   21.9191 C   0  0  0  0  0  0
  -23.6301   -8.2235   22.0766 C   0  0  0  0  0  0
  -22.4280   -8.0287   21.3549 C   0  0  0  0  0  0
  -21.9922   -9.0263   20.4653 C   0  0  0  0  0  0
  -22.7261  -10.2143   20.3077 C   0  0  0  0  0  0
  -21.6850   -6.0747   22.5278 C   0  0  0  0  0  0
  -21.4016   -6.5650   23.8203 C   0  0  0  0  0  0
  -21.3667   -5.6792   24.9163 C   0  0  0  0  0  0
  -21.6047   -4.3067   24.7214 C   0  0  0  0  0  0
  -21.8813   -3.8158   23.4327 C   0  0  0  0  0  0
  -21.9191   -4.6968   22.3385 C   0  0  0  0  0  0
  -22.7835  -13.5201   21.1828 C   0  0  0  0  0  0
  -22.1647   -4.2166   21.0953 F   0  0  0  0  0  0
  -21.5647   -3.4547   25.7727 F   0  0  0  0  0  0
  -30.0336  -13.3208   20.4430 N   0  0  0  0  0  0
  -26.3041  -12.9356   20.3466 N   0  0  0  0  0  0
  -25.9359  -11.6516   20.5848 N   0  0  0  0  0  0
  -22.0498  -12.8206   22.0407 N   0  0  0  0  0  0
  -25.4219  -15.1872   20.4155 N   0  0  0  0  0  0
  -31.8270  -14.6619   20.0767 O   0  0  0  0  0  0
  -21.6633   -6.8891   21.4250 O   0  0  0  0  0  0
  -22.3508  -14.5488   20.6649 O   0  0  0  0  0  0
  -24.6140  -31.8693   23.2114 C   0  0  0  0  0  0
  -25.9026  -32.4811   23.8414 C   0  0  1  0  0  0
  -27.2273  -27.4268   20.0968 C   0  0  0  0  0  0
  -25.5892  -33.8618   24.2316 N   0  0  0  0  0  0
  -23.4020  -30.4930   21.5532 C   0  0  2  0  0  0
  -24.8471  -28.9703   20.1145 C   0  0  0  0  0  0
  -22.7404  -29.4655   22.4988 C   0  0  0  0  0  0
  -18.0260  -28.1344   22.8494 C   0  0  0  0  0  0
  -24.1515  -36.7342   23.2621 C   0  0  0  0  0  0
  -25.9360  -30.8362   21.3660 C   0  0  0  0  0  0
  -26.0135  -29.4756   20.7013 C   0  0  0  0  0  0
  -27.2125  -28.7192   20.6755 C   0  0  0  0  0  0
  -26.0374  -26.9523   19.4932 C   0  0  0  0  0  0
  -24.8552  -27.7076   19.5078 C   0  0  0  0  0  0
  -23.6074  -29.8309   20.1673 C   0  0  0  0  0  0
  -25.4135  -36.3111   24.0313 C   0  0  1  0  0  0
  -20.5858  -28.3653   23.1308 C   0  0  2  0  0  0
  -20.6736  -26.9390   22.5405 C   0  0  0  0  0  0
  -19.5730  -26.6360   21.5190 C   0  0  0  0  0  0
  -18.1906  -26.7894   22.1597 C   0  0  0  0  0  0
  -19.1507  -28.8819   23.2887 C   0  0  0  0  0  0
  -18.9425  -30.1434   23.8901 C   0  0  0  0  0  0
  -17.6428  -30.6560   24.0564 C   0  0  0  0  0  0
  -25.9049  -34.9469   23.5107 C   0  0  0  0  0  0
  -16.5319  -29.9064   23.6330 C   0  0  0  0  0  0
  -16.7247  -28.6477   23.0377 C   0  0  0  0  0  0
  -26.4449  -31.6601   25.0756 C   0  0  0  0  0  0
  -25.3712  -31.3713   26.1509 C   0  0  0  0  0  0
  -27.0272  -30.3018   24.6196 C   0  0  0  0  0  0
  -27.6056  -32.4334   25.7507 C   0  0  0  0  0  0
  -27.5599  -37.1815   24.8448 C   0  0  0  0  0  0
  -21.4129  -29.3041   22.3736 N   0  0  0  0  0  0
  -26.4310  -37.3793   23.9389 N   0  0  0  0  0  0
  -24.6668  -31.0822   22.0989 N   0  0  0  0  0  0
  -23.4180  -28.8183   23.2999 O   0  0  0  0  0  0
  -28.3671  -26.6397   20.1541 O   0  0  0  0  0  0
  -26.5619  -34.8896   22.4667 O   0  0  0  0  0  0
  -23.5346  -32.1453   23.7516 O   0  0  0  0  0  0
  -30.1633  -19.3385   20.3356 C   0  0  0  0  0  0
  -31.1691  -18.2661   22.2636 C   0  0  0  0  0  0
  -31.0122  -20.7208   22.1665 C   0  0  0  0  0  0
  -30.3988  -20.6242   20.8874 C   0  0  0  0  0  0
  -30.5308  -18.1480   21.0104 C   0  0  0  0  0  0
  -31.4017  -19.5329   22.8411 C   0  0  0  0  0  0
  -31.0711  -22.3794   24.0545 C   0  0  0  0  0  0
  -31.2562  -22.0466   22.7671 C   0  0  0  0  0  0
  -28.9562  -22.8020   20.5137 C   0  0  0  0  0  0
  -34.2209  -20.4031   24.7532 C   0  0  0  0  0  0
  -30.0925  -21.8828   20.0437 C   0  0  0  0  0  0
  -29.2718  -24.3092   20.6541 C   0  0  0  0  0  0
  -29.9987  -15.7571   21.1507 C   0  0  0  0  0  0
  -33.4704  -19.3584   23.9256 C   0  0  0  0  0  0
  -28.1164  -25.2149   20.1655 C   0  0  0  0  0  0
  -27.8001  -22.3352   20.7427 N   0  0  0  0  0  0
  -30.3237  -16.9345   20.3757 O   0  0  0  0  0  0
  -32.0719  -19.6000   24.0369 O   0  0  0  0  0  0
  -31.4676  -12.4035   19.1435 H   0  0  0  0  0  0
  -30.3250  -11.3169   19.8702 H   0  0  0  0  0  0
  -29.7335  -11.7455   17.4626 H   0  0  0  0  0  0
  -29.6635  -13.4653   17.7690 H   0  0  0  0  0  0
  -27.8362  -11.2967   18.8596 H   0  0  0  0  0  0
  -27.3661  -12.5987   17.8084 H   0  0  0  0  0  0
  -27.6886  -14.2535   19.5612 H   0  0  0  0  0  0
  -28.6891  -11.9968   21.3748 H   0  0  0  0  0  0
  -28.4723  -13.6453   21.8699 H   0  0  0  0  0  0
  -25.2784   -9.5667   22.4747 H   0  0  0  0  0  0
  -24.0009   -7.4621   22.7487 H   0  0  0  0  0  0
  -21.0856   -8.8786   19.8936 H   0  0  0  0  0  0
  -22.3722  -10.9683   19.6188 H   0  0  0  0  0  0
  -21.1999   -7.6157   23.9720 H   0  0  0  0  0  0
  -21.1499   -6.0523   25.9066 H   0  0  0  0  0  0
  -22.0588   -2.7629   23.2815 H   0  0  0  0  0  0
  -22.4139  -11.9885   22.4793 H   0  0  0  0  0  0
  -21.1128  -13.1240   22.2635 H   0  0  0  0  0  0
  -24.6484  -15.8355   20.5211 H   0  0  0  0  0  0
  -26.2703  -15.6379   20.0978 H   0  0  0  0  0  0
  -26.7085  -32.5515   23.1179 H   0  0  0  0  0  0
  -25.0033  -33.9836   25.0450 H   0  0  0  0  0  0
  -22.6870  -31.3093   21.4173 H   0  0  0  0  0  0
  -23.3753  -35.9692   23.3282 H   0  0  0  0  0  0
  -24.3591  -36.8988   22.2028 H   0  0  0  0  0  0
  -23.7309  -37.6545   23.6680 H   0  0  0  0  0  0
  -26.0635  -31.6121   20.6103 H   0  0  0  0  0  0
  -26.8111  -30.8719   22.0010 H   0  0  0  0  0  0
  -28.1175  -29.1135   21.1169 H   0  0  0  0  0  0
  -25.9902  -25.9859   19.0126 H   0  0  0  0  0  0
  -23.9543  -27.3137   19.0598 H   0  0  0  0  0  0
  -23.7087  -30.6074   19.4072 H   0  0  0  0  0  0
  -22.7322  -29.2455   19.8778 H   0  0  0  0  0  0
  -25.1313  -36.1938   25.0802 H   0  0  0  0  0  0
  -20.9940  -28.3206   24.1423 H   0  0  0  0  0  0
  -20.5618  -26.2259   23.3591 H   0  0  0  0  0  0
  -21.6610  -26.7403   22.1219 H   0  0  0  0  0  0
  -19.6902  -25.6263   21.1252 H   0  0  0  0  0  0
  -19.6678  -27.3139   20.6701 H   0  0  0  0  0  0
  -17.4175  -26.6662   21.3995 H   0  0  0  0  0  0
  -18.0312  -26.0007   22.8954 H   0  0  0  0  0  0
  -19.7902  -30.7253   24.2275 H   0  0  0  0  0  0
  -17.4979  -31.6254   24.5135 H   0  0  0  0  0  0
  -15.5328  -30.2963   23.7665 H   0  0  0  0  0  0
  -15.8639  -28.0789   22.7126 H   0  0  0  0  0  0
  -24.5897  -30.7057   25.7841 H   0  0  0  0  0  0
  -24.8894  -32.2865   26.4966 H   0  0  0  0  0  0
  -25.8055  -30.8872   27.0268 H   0  0  0  0  0  0
  -26.2832  -29.6775   24.1239 H   0  0  0  0  0  0
  -27.3950  -29.7272   25.4703 H   0  0  0  0  0  0
  -27.8721  -30.4270   23.9426 H   0  0  0  0  0  0
  -27.2691  -33.3620   26.2127 H   0  0  0  0  0  0
  -28.3832  -32.6901   25.0300 H   0  0  0  0  0  0
  -28.0765  -31.8428   26.5367 H   0  0  0  0  0  0
  -28.2599  -38.0123   24.7479 H   0  0  0  0  0  0
  -28.1108  -36.2637   24.6293 H   0  0  0  0  0  0
  -27.2308  -37.1511   25.8848 H   0  0  0  0  0  0
  -20.9276  -29.8813   21.6998 H   0  0  0  0  0  0
  -26.0187  -38.2868   24.1360 H   0  0  0  0  0  0
  -29.7086  -19.2604   19.3565 H   0  0  0  0  0  0
  -31.5289  -17.3970   22.7886 H   0  0  0  0  0  0
  -31.2950  -23.3773   24.4032 H   0  0  0  0  0  0
  -30.6946  -21.6712   24.7805 H   0  0  0  0  0  0
  -31.6445  -22.8078   22.1045 H   0  0  0  0  0  0
  -35.2959  -20.3029   24.6154 H   0  0  0  0  0  0
  -34.0133  -20.2920   25.8178 H   0  0  0  0  0  0
  -33.9406  -21.4146   24.4572 H   0  0  0  0  0  0
  -29.8633  -21.5743   19.0243 H   0  0  0  0  0  0
  -31.0084  -22.4646   19.9525 H   0  0  0  0  0  0
  -30.1743  -24.5522   20.0946 H   0  0  0  0  0  0
  -29.4864  -24.5181   21.7025 H   0  0  0  0  0  0
  -28.9153  -15.6650   21.0929 H   0  0  0  0  0  0
  -30.2454  -15.8199   22.2056 H   0  0  0  0  0  0
  -33.6987  -18.3532   24.2837 H   0  0  0  0  0  0
  -33.8132  -19.4188   22.8888 H   0  0  0  0  0  0
  -27.2534  -25.0127   20.8050 H   0  0  0  0  0  0
  -27.8505  -24.9003   19.1560 H   0  0  0  0  0  0
  -27.7675  -21.3352   20.5743 H   0  0  0  0  0  0
  1 25  1  0  0  0
  1 30  2  0  0  0
  1 83  1  0  0  0
  2  3  1  0  0  0
  2 25  1  0  0  0
  2 89  1  0  0  0
  2 90  1  0  0  0
  3  4  1  0  0  0
  3 91  1  0  0  0
  3 92  1  0  0  0
  4  5  1  0  0  0
  4 93  1  0  0  0
  4 94  1  0  0  0
  5  6  1  0  0  0
  5 26  1  0  0  0
  5 95  1  0  0  0
  6 25  1  0  0  0
  6 96  1  0  0  0
  6 97  1  0  0  0
  7  8  2  0  0  0
  7 26  1  0  0  0
  7 29  1  0  0  0
  8  9  1  0  0  0
  8 22  1  0  0  0
  9 10  1  0  0  0
  9 27  2  0  0  0
 10 11  2  0  0  0
 10 15  1  0  0  0
 11 12  1  0  0  0
 11 98  1  0  0  0
 12 13  2  0  0  0
 12 99  1  0  0  0
 13 14  1  0  0  0
 13 31  1  0  0  0
 14 15  2  0  0  0
 14100  1  0  0  0
 15101  1  0  0  0
 16 17  2  0  0  0
 16 21  1  0  0  0
 16 31  1  0  0  0
 17 18  1  0  0  0
 17102  1  0  0  0
 18 19  2  0  0  0
 18103  1  0  0  0
 19 20  1  0  0  0
 19 24  1  0  0  0
 20 21  2  0  0  0
 20104  1  0  0  0
 21 23  1  0  0  0
 22 28  1  0  0  0
 22 32  2  0  0  0
 26 27  1  0  0  0
 28105  1  0  0  0
 28106  1  0  0  0
 29107  1  0  0  0
 29108  1  0  0  0
 33 34  1  0  0  0
 33 66  1  0  0  0
 33 70  2  0  0  0
 34 36  1  0  0  0
 34 59  1  0  0  0
 34109  1  0  0  0
 35 44  2  0  0  0
 35 45  1  0  0  0
 35 68  1  0  0  0
 36 56  1  0  0  0
 36110  1  0  0  0
 37 39  1  0  0  0
 37 47  1  0  0  0
 37 66  1  0  0  0
 37111  1  0  0  0
 38 43  2  0  0  0
 38 46  1  0  0  0
 38 47  1  0  0  0
 39 64  1  0  0  0
 39 67  2  0  0  0
 40 52  1  0  0  0
 40 53  2  0  0  0
 40 58  1  0  0  0
 41112  1  0  0  0
 41113  1  0  0  0
 41114  1  0  0  0
 41 48  1  0  0  0
 42 43  1  0  0  0
 42 66  1  0  0  0
 42115  1  0  0  0
 42116  1  0  0  0
 43 44  1  0  0  0
 44117  1  0  0  0
 45 46  2  0  0  0
 45118  1  0  0  0
 46119  1  0  0  0
 47120  1  0  0  0
 47121  1  0  0  0
 48 56  1  0  0  0
 48 65  1  0  0  0
 48122  1  0  0  0
 49 50  1  0  0  0
 49 53  1  0  0  0
 49 64  1  0  0  0
 49123  1  0  0  0
 50 51  1  0  0  0
 50124  1  0  0  0
 50125  1  0  0  0
 51 52  1  0  0  0
 51126  1  0  0  0
 51127  1  0  0  0
 52128  1  0  0  0
 52129  1  0  0  0
 53 54  1  0  0  0
 54 55  2  0  0  0
 54130  1  0  0  0
 55 57  1  0  0  0
 55131  1  0  0  0
 56 69  2  0  0  0
 57 58  2  0  0  0
 57132  1  0  0  0
 58133  1  0  0  0
 59 60  1  0  0  0
 59 61  1  0  0  0
 59 62  1  0  0  0
 60134  1  0  0  0
 60135  1  0  0  0
 60136  1  0  0  0
 61137  1  0  0  0
 61138  1  0  0  0
 61139  1  0  0  0
 62140  1  0  0  0
 62141  1  0  0  0
 62142  1  0  0  0
 63 65  1  0  0  0
 63143  1  0  0  0
 63144  1  0  0  0
 63145  1  0  0  0
 64146  1  0  0  0
 65147  1  0  0  0
 68 85  1  0  0  0
 71 74  2  0  0  0
 71 75  1  0  0  0
 71148  1  0  0  0
 72 75  2  0  0  0
 72 76  1  0  0  0
 72149  1  0  0  0
 73 74  1  0  0  0
 73 76  2  0  0  0
 73 78  1  0  0  0
 74 81  1  0  0  0
 75 87  1  0  0  0
 76 88  1  0  0  0
 77 78  2  0  0  0
 77150  1  0  0  0
 77151  1  0  0  0
 78152  1  0  0  0
 79 81  1  0  0  0
 79 82  1  0  0  0
 79 86  2  0  0  0
 80 84  1  0  0  0
 80153  1  0  0  0
 80154  1  0  0  0
 80155  1  0  0  0
 81156  1  0  0  0
 81157  1  0  0  0
 82 85  1  0  0  0
 82158  1  0  0  0
 82159  1  0  0  0
 83 87  1  0  0  0
 83160  1  0  0  0
 83161  1  0  0  0
 84 88  1  0  0  0
 84162  1  0  0  0
 84163  1  0  0  0
 85164  1  0  0  0
 85165  1  0  0  0
 86166  1  0  0  0
M  ISO  4   1 100  68 101  83 100  85 101
M  END
> <chiral flag>
0

> <version>
0

> <s_m_source_file>
/data/baiqing/PycharmProjects/Reinvent-master-3.2/result/LINK_invent/BTK/process_docking_weight1_custom_product_contain_oxygen_bond_distance_aromatic_linkinvent_7_9_3/rearranged_h_0117.sdf

> <i_m_source_file_index>
95

> <r_mmod_Potential_Energy-OPLS-2005>
69.5681838989258

> <r_mmod_Stretch_Energy-OPLS-2005>
45.3282318115234

> <r_mmod_Bend_Energy-OPLS-2005>
104.227523803711

> <r_mmod_Torsional_Energy-OPLS-2005>
236.624252319336

> <r_mmod_Improper_Torsional_Energy-OPLS-2005>
3.5671648979187

> <r_mmod_Van_der_Waal_Energy-OPLS-2005>
164.767791748047

> <r_mmod_Electrostatic_Energy-OPLS-2005>
-286.159637451172

> <r_mmod_Solvation_Energy-OPLS-2005>
-216.868560791016

> <b_mmod_Minimization_Converged-OPLS-2005>
0

> <r_mmod_RMS_Derivative-OPLS-2005>
4.17854785919189

$$$$
95
                    3D
 Structure written by MMmdl.
165173  0  0  1  0            999 V2000
  -30.6916  -14.6528   20.4804 C   0  0  0  0  0  0
  -30.4116  -12.4034   19.4555 C   0  0  0  0  0  0
  -29.4955  -12.4959   18.2202 C   0  0  0  0  0  0
  -28.0213  -12.3409   18.6382 C   0  0  0  0  0  0
  -27.6423  -13.2329   19.8516 C   0  0  2  0  0  0
  -28.6921  -13.1584   20.9819 C   0  0  0  0  0  0
  -25.2504  -13.8199   20.5704 C   0  0  0  0  0  0
  -24.1797  -13.0441   20.9200 C   0  0  0  0  0  0
  -24.6398  -11.6920   20.8764 C   0  0  0  0  0  0
  -23.9081  -10.4292   21.0425 C   0  0  0  0  0  0
  -24.3629   -9.4201   21.9193 C   0  0  0  0  0  0
  -23.6289   -8.2245   22.0766 C   0  0  0  0  0  0
  -22.4278   -8.0285   21.3548 C   0  0  0  0  0  0
  -21.9919   -9.0262   20.4654 C   0  0  0  0  0  0
  -22.7257  -10.2135   20.3063 C   0  0  0  0  0  0
  -21.6852   -6.0739   22.5276 C   0  0  0  0  0  0
  -21.4018   -6.5641   23.8206 C   0  0  0  0  0  0
  -21.3652   -5.6790   24.9169 C   0  0  0  0  0  0
  -21.6045   -4.3060   24.7222 C   0  0  0  0  0  0
  -21.8819   -3.8149   23.4339 C   0  0  0  0  0  0
  -21.9189   -4.6962   22.3397 C   0  0  0  0  0  0
  -22.7819  -13.5220   21.1853 C   0  0  0  0  0  0
  -22.1660   -4.2151   21.0975 F   0  0  0  0  0  0
  -21.5624   -3.4542   25.7735 F   0  0  0  0  0  0
  -29.9943  -13.4742   20.3854 N   0  0  0  0  0  0
  -26.2946  -12.9420   20.3318 N   0  0  0  0  0  0
  -25.9329  -11.6558   20.5773 N   0  0  0  0  0  0
  -22.0468  -12.8203   22.0406 N   0  0  0  0  0  0
  -25.4159  -15.1923   20.4109 N   0  0  0  0  0  0
  -31.8869  -14.6580   20.1779 O   0  0  0  0  0  0
  -21.6645   -6.8882   21.4238 O   0  0  0  0  0  0
  -22.3497  -14.5518   20.6695 O   0  0  0  0  0  0
  -24.6291  -31.8583   23.2056 C   0  0  0  0  0  0
  -25.9132  -32.4770   23.8379 C   0  0  1  0  0  0
  -27.2042  -27.2975   20.1184 C   0  0  0  0  0  0
  -25.5940  -33.8579   24.2285 N   0  0  0  0  0  0
  -23.4212  -30.4882   21.5487 C   0  0  2  0  0  0
  -24.8624  -28.9480   20.1085 C   0  0  0  0  0  0
  -22.7463  -29.4643   22.4931 C   0  0  0  0  0  0
  -18.0275  -28.1374   22.8491 C   0  0  0  0  0  0
  -24.1478  -36.7301   23.2638 C   0  0  0  0  0  0
  -25.9653  -30.7836   21.3774 C   0  0  0  0  0  0
  -26.0348  -29.4118   20.7172 C   0  0  0  0  0  0
  -27.2110  -28.5997   20.7123 C   0  0  0  0  0  0
  -26.0098  -26.9060   19.4666 C   0  0  0  0  0  0
  -24.8531  -27.7013   19.4719 C   0  0  0  0  0  0
  -23.6338  -29.8308   20.1615 C   0  0  0  0  0  0
  -25.4104  -36.3091   24.0323 C   0  0  1  0  0  0
  -20.5878  -28.3693   23.1272 C   0  0  2  0  0  0
  -20.6759  -26.9420   22.5389 C   0  0  0  0  0  0
  -19.5743  -26.6383   21.5191 C   0  0  0  0  0  0
  -18.1926  -26.7919   22.1612 C   0  0  0  0  0  0
  -19.1530  -28.8850   23.2884 C   0  0  0  0  0  0
  -18.9461  -30.1454   23.8910 C   0  0  0  0  0  0
  -17.6459  -30.6591   24.0567 C   0  0  0  0  0  0
  -25.9055  -34.9455   23.5107 C   0  0  0  0  0  0
  -16.5353  -29.9084   23.6335 C   0  0  0  0  0  0
  -16.7261  -28.6490   23.0372 C   0  0  0  0  0  0
  -26.4508  -31.6586   25.0751 C   0  0  0  0  0  0
  -25.3736  -31.3701   26.1471 C   0  0  0  0  0  0
  -27.0343  -30.3012   24.6213 C   0  0  0  0  0  0
  -27.6071  -32.4314   25.7516 C   0  0  0  0  0  0
  -27.5575  -37.1811   24.8465 C   0  0  0  0  0  0
  -21.4176  -29.3066   22.3675 N   0  0  0  0  0  0
  -26.4286  -37.3785   23.9409 N   0  0  0  0  0  0
  -24.6919  -31.0589   22.1012 N   0  0  0  0  0  0
  -23.4185  -28.8176   23.3008 O   0  0  0  0  0  0
  -28.2888  -26.3994   20.1977 O   0  0  0  0  0  0
  -26.5608  -34.8915   22.4666 O   0  0  0  0  0  0
  -23.5450  -32.1403   23.7356 O   0  0  0  0  0  0
  -29.5556  -18.9773   19.4496 C   0  0  0  0  0  0
  -29.7510  -18.4004   20.7282 C   0  0  0  0  0  0
  -28.9768  -20.5935   21.6873 C   0  0  0  0  0  0
  -29.4285  -19.2310   21.8504 C   0  0  0  0  0  0
  -29.0939  -20.3182   19.2787 C   0  0  0  0  0  0
  -28.8242  -21.1706   20.3857 C   0  0  0  0  0  0
  -28.5919  -21.3515   22.8966 C   0  0  0  0  0  0
  -27.5107  -22.1390   23.0299 C   0  0  0  0  0  0
  -30.5481  -17.0823   20.8612 C   0  0  0  0  0  0
  -29.5605  -18.6543   23.2631 C   0  0  0  0  0  0
  -27.1604  -22.8854   24.2993 C   0  0  0  0  0  0
  -28.5933  -19.9829   16.8801 C   0  0  0  0  0  0
  -27.9712  -24.9527   20.0141 C   0  0  0  0  0  0
  -28.9108  -23.7319   20.4385 C   0  0  0  0  0  0
  -28.8980  -20.8652   18.0002 N   0  0  0  0  0  0
  -29.9974  -15.8325   20.6691 N   0  0  0  0  0  0
  -31.7351  -17.2381   21.1678 O   0  0  0  0  0  0
  -28.2680  -22.4462   20.1209 O   0  0  0  0  0  0
  -31.4556  -12.4865   19.1498 H   0  0  0  0  0  0
  -30.3181  -11.4255   19.9319 H   0  0  0  0  0  0
  -29.7615  -11.7274   17.4934 H   0  0  0  0  0  0
  -29.6377  -13.4546   17.7190 H   0  0  0  0  0  0
  -27.8606  -11.2911   18.8863 H   0  0  0  0  0  0
  -27.3662  -12.5568   17.7935 H   0  0  0  0  0  0
  -27.6401  -14.2587   19.4808 H   0  0  0  0  0  0
  -28.7107  -12.1649   21.4330 H   0  0  0  0  0  0
  -28.4470  -13.8564   21.7839 H   0  0  0  0  0  0
  -25.2773   -9.5669   22.4772 H   0  0  0  0  0  0
  -23.9993   -7.4637   22.7492 H   0  0  0  0  0  0
  -21.0846   -8.8775   19.8959 H   0  0  0  0  0  0
  -22.3712  -10.9674   19.6173 H   0  0  0  0  0  0
  -21.2024   -7.6151   23.9706 H   0  0  0  0  0  0
  -21.1472   -6.0531   25.9068 H   0  0  0  0  0  0
  -22.0607   -2.7613   23.2842 H   0  0  0  0  0  0
  -22.4088  -11.9852   22.4781 H   0  0  0  0  0  0
  -21.1088  -13.1230   22.2631 H   0  0  0  0  0  0
  -24.6446  -15.8404   20.5254 H   0  0  0  0  0  0
  -26.2537  -15.6371   20.0594 H   0  0  0  0  0  0
  -26.7172  -32.5424   23.1111 H   0  0  0  0  0  0
  -25.0082  -33.9722   25.0425 H   0  0  0  0  0  0
  -22.7188  -31.3127   21.4088 H   0  0  0  0  0  0
  -23.3735  -35.9640   23.3299 H   0  0  0  0  0  0
  -24.3575  -36.8933   22.2054 H   0  0  0  0  0  0
  -23.7227  -37.6504   23.6659 H   0  0  0  0  0  0
  -26.0959  -31.5424   20.6053 H   0  0  0  0  0  0
  -26.8460  -30.8329   22.0048 H   0  0  0  0  0  0
  -28.1077  -28.9494   21.2052 H   0  0  0  0  0  0
  -25.9219  -25.9594   18.9563 H   0  0  0  0  0  0
  -23.9572  -27.3453   18.9824 H   0  0  0  0  0  0
  -23.7517  -30.6117   19.4096 H   0  0  0  0  0  0
  -22.7502  -29.2652   19.8578 H   0  0  0  0  0  0
  -25.1271  -36.1949   25.0808 H   0  0  0  0  0  0
  -20.9971  -28.3243   24.1390 H   0  0  0  0  0  0
  -20.5641  -26.2305   23.3583 H   0  0  0  0  0  0
  -21.6635  -26.7424   22.1214 H   0  0  0  0  0  0
  -19.6922  -25.6288   21.1238 H   0  0  0  0  0  0
  -19.6690  -27.3166   20.6705 H   0  0  0  0  0  0
  -17.4193  -26.6667   21.4018 H   0  0  0  0  0  0
  -18.0371  -26.0041   22.8995 H   0  0  0  0  0  0
  -19.7939  -30.7273   24.2288 H   0  0  0  0  0  0
  -17.5013  -31.6280   24.5156 H   0  0  0  0  0  0
  -15.5357  -30.2996   23.7659 H   0  0  0  0  0  0
  -15.8655  -28.0803   22.7105 H   0  0  0  0  0  0
  -24.5961  -30.6985   25.7806 H   0  0  0  0  0  0
  -24.8867  -32.2843   26.4875 H   0  0  0  0  0  0
  -25.8078  -30.8921   27.0270 H   0  0  0  0  0  0
  -26.2904  -29.6778   24.1238 H   0  0  0  0  0  0
  -27.4026  -29.7267   25.4735 H   0  0  0  0  0  0
  -27.8799  -30.4287   23.9443 H   0  0  0  0  0  0
  -27.2695  -33.3638   26.2062 H   0  0  0  0  0  0
  -28.3911  -32.6839   25.0352 H   0  0  0  0  0  0
  -28.0714  -31.8454   26.5471 H   0  0  0  0  0  0
  -28.2595  -38.0112   24.7522 H   0  0  0  0  0  0
  -28.1073  -36.2643   24.6273 H   0  0  0  0  0  0
  -27.2308  -37.1448   25.8878 H   0  0  0  0  0  0
  -20.9340  -29.8813   21.6915 H   0  0  0  0  0  0
  -26.0168  -38.2865   24.1412 H   0  0  0  0  0  0
  -29.8268  -18.3856   18.5869 H   0  0  0  0  0  0
  -29.2597  -21.2635   23.7414 H   0  0  0  0  0  0
  -26.8232  -22.2622   22.2038 H   0  0  0  0  0  0
  -29.5074  -17.5661   23.2790 H   0  0  0  0  0  0
  -28.7510  -18.9855   23.9131 H   0  0  0  0  0  0
  -30.5082  -18.9547   23.7112 H   0  0  0  0  0  0
  -27.8611  -22.6595   25.1047 H   0  0  0  0  0  0
  -26.1619  -22.6013   24.6341 H   0  0  0  0  0  0
  -27.1703  -23.9616   24.1259 H   0  0  0  0  0  0
  -28.2081  -20.5614   16.0388 H   0  0  0  0  0  0
  -27.8357  -19.2434   17.1456 H   0  0  0  0  0  0
  -29.4859  -19.4590   16.5360 H   0  0  0  0  0  0
  -27.0313  -24.7571   20.5338 H   0  0  0  0  0  0
  -27.7713  -24.8111   18.9522 H   0  0  0  0  0  0
  -29.1434  -23.7910   21.5012 H   0  0  0  0  0  0
  -29.8598  -23.7914   19.9060 H   0  0  0  0  0  0
  -28.4397  -21.7753   18.0069 H   0  0  0  0  0  0
  -28.9942  -15.7876   20.6291 H   0  0  0  0  0  0
  1 25  1  0  0  0
  1 30  2  0  0  0
  1 86  1  0  0  0
  2  3  1  0  0  0
  2 25  1  0  0  0
  2 89  1  0  0  0
  2 90  1  0  0  0
  3  4  1  0  0  0
  3 91  1  0  0  0
  3 92  1  0  0  0
  4  5  1  0  0  0
  4 93  1  0  0  0
  4 94  1  0  0  0
  5  6  1  0  0  0
  5 26  1  0  0  0
  5 95  1  0  0  0
  6 25  1  0  0  0
  6 96  1  0  0  0
  6 97  1  0  0  0
  7  8  2  0  0  0
  7 26  1  0  0  0
  7 29  1  0  0  0
  8  9  1  0  0  0
  8 22  1  0  0  0
  9 10  1  0  0  0
  9 27  2  0  0  0
 10 11  2  0  0  0
 10 15  1  0  0  0
 11 12  1  0  0  0
 11 98  1  0  0  0
 12 13  2  0  0  0
 12 99  1  0  0  0
 13 14  1  0  0  0
 13 31  1  0  0  0
 14 15  2  0  0  0
 14100  1  0  0  0
 15101  1  0  0  0
 16 17  2  0  0  0
 16 21  1  0  0  0
 16 31  1  0  0  0
 17 18  1  0  0  0
 17102  1  0  0  0
 18 19  2  0  0  0
 18103  1  0  0  0
 19 20  1  0  0  0
 19 24  1  0  0  0
 20 21  2  0  0  0
 20104  1  0  0  0
 21 23  1  0  0  0
 22 28  1  0  0  0
 22 32  2  0  0  0
 26 27  1  0  0  0
 28105  1  0  0  0
 28106  1  0  0  0
 29107  1  0  0  0
 29108  1  0  0  0
 33 34  1  0  0  0
 33 66  1  0  0  0
 33 70  2  0  0  0
 34 36  1  0  0  0
 34 59  1  0  0  0
 34109  1  0  0  0
 35 44  2  0  0  0
 35 45  1  0  0  0
 35 68  1  0  0  0
 36 56  1  0  0  0
 36110  1  0  0  0
 37 39  1  0  0  0
 37 47  1  0  0  0
 37 66  1  0  0  0
 37111  1  0  0  0
 38 43  2  0  0  0
 38 46  1  0  0  0
 38 47  1  0  0  0
 39 64  1  0  0  0
 39 67  2  0  0  0
 40 52  1  0  0  0
 40 53  2  0  0  0
 40 58  1  0  0  0
 41112  1  0  0  0
 41113  1  0  0  0
 41114  1  0  0  0
 41 48  1  0  0  0
 42 43  1  0  0  0
 42 66  1  0  0  0
 42115  1  0  0  0
 42116  1  0  0  0
 43 44  1  0  0  0
 44117  1  0  0  0
 45 46  2  0  0  0
 45118  1  0  0  0
 46119  1  0  0  0
 47120  1  0  0  0
 47121  1  0  0  0
 48 56  1  0  0  0
 48 65  1  0  0  0
 48122  1  0  0  0
 49 50  1  0  0  0
 49 53  1  0  0  0
 49 64  1  0  0  0
 49123  1  0  0  0
 50 51  1  0  0  0
 50124  1  0  0  0
 50125  1  0  0  0
 51 52  1  0  0  0
 51126  1  0  0  0
 51127  1  0  0  0
 52128  1  0  0  0
 52129  1  0  0  0
 53 54  1  0  0  0
 54 55  2  0  0  0
 54130  1  0  0  0
 55 57  1  0  0  0
 55131  1  0  0  0
 56 69  2  0  0  0
 57 58  2  0  0  0
 57132  1  0  0  0
 58133  1  0  0  0
 59 60  1  0  0  0
 59 61  1  0  0  0
 59 62  1  0  0  0
 60134  1  0  0  0
 60135  1  0  0  0
 60136  1  0  0  0
 61137  1  0  0  0
 61138  1  0  0  0
 61139  1  0  0  0
 62140  1  0  0  0
 62141  1  0  0  0
 62142  1  0  0  0
 63 65  1  0  0  0
 63143  1  0  0  0
 63144  1  0  0  0
 63145  1  0  0  0
 64146  1  0  0  0
 65147  1  0  0  0
 68 83  1  0  0  0
 71 72  2  0  0  0
 71 75  1  0  0  0
 71148  1  0  0  0
 72 74  1  0  0  0
 72 79  1  0  0  0
 73 74  2  0  0  0
 73 76  1  0  0  0
 73 77  1  0  0  0
 74 80  1  0  0  0
 75 76  2  0  0  0
 75 85  1  0  0  0
 76 88  1  0  0  0
 77 78  2  0  0  0
 77149  1  0  0  0
 78 81  1  0  0  0
 78150  1  0  0  0
 79 86  1  0  0  0
 79 87  2  0  0  0
 80151  1  0  0  0
 80152  1  0  0  0
 80153  1  0  0  0
 81154  1  0  0  0
 81155  1  0  0  0
 81156  1  0  0  0
 82 85  1  0  0  0
 82157  1  0  0  0
 82158  1  0  0  0
 82159  1  0  0  0
 83 84  1  0  0  0
 83160  1  0  0  0
 83161  1  0  0  0
 84 88  1  0  0  0
 84162  1  0  0  0
 84163  1  0  0  0
 85164  1  0  0  0
 86165  1  0  0  0
M  ISO  4   1 100  68 101  83 101  86 100
M  END
> <chiral flag>
0

> <version>
0

> <s_m_source_file>
/data/baiqing/PycharmProjects/Reinvent-master-3.2/result/LINK_invent/BTK/process_docking_weight1_custom_product_contain_oxygen_bond_distance_aromatic_linkinvent_7_9_3/rearranged_h_0117.sdf

> <i_m_source_file_index>
96

> <r_mmod_Potential_Energy-OPLS-2005>
111.499481201172

> <r_mmod_Stretch_Energy-OPLS-2005>
90.5656890869141

> <r_mmod_Bend_Energy-OPLS-2005>
166.198165893555

> <r_mmod_Torsional_Energy-OPLS-2005>
283.372344970703

> <r_mmod_Improper_Torsional_Energy-OPLS-2005>
11.027512550354

> <r_mmod_Van_der_Waal_Energy-OPLS-2005>
165.123733520508

> <r_mmod_Electrostatic_Energy-OPLS-2005>
-433.143951416016

> <r_mmod_Solvation_Energy-OPLS-2005>
-236.224411010742

> <b_mmod_Minimization_Converged-OPLS-2005>
0

> <r_mmod_RMS_Derivative-OPLS-2005>
2.12081336975098

$$$$
