0
                    3D
 Structure written by MMmdl.
154162  0  0  1  0            999 V2000
  -30.6257  -14.7209   20.4382 C   0  0  0  0  0  0
  -30.4280  -12.4184   19.4833 C   0  0  0  0  0  0
  -29.4868  -12.3833   18.2549 C   0  0  0  0  0  0
  -28.0161  -12.2740   18.6802 C   0  0  0  0  0  0
  -27.6383  -13.2233   19.8447 C   0  0  2  0  0  0
  -28.6787  -13.1813   20.9841 C   0  0  0  0  0  0
  -25.2556  -13.8183   20.5714 C   0  0  0  0  0  0
  -24.1817  -13.0438   20.9214 C   0  0  0  0  0  0
  -24.6394  -11.6923   20.8816 C   0  0  0  0  0  0
  -23.9064  -10.4312   21.0462 C   0  0  0  0  0  0
  -24.3625   -9.4238   21.9230 C   0  0  0  0  0  0
  -23.6301   -8.2280   22.0794 C   0  0  0  0  0  0
  -22.4305   -8.0309   21.3546 C   0  0  0  0  0  0
  -21.9919   -9.0290   20.4662 C   0  0  0  0  0  0
  -22.7246  -10.2174   20.3091 C   0  0  0  0  0  0
  -21.6866   -6.0755   22.5272 C   0  0  0  0  0  0
  -21.4010   -6.5649   23.8207 C   0  0  0  0  0  0
  -21.3681   -5.6814   24.9169 C   0  0  0  0  0  0
  -21.6031   -4.3072   24.7226 C   0  0  0  0  0  0
  -21.8803   -3.8161   23.4343 C   0  0  0  0  0  0
  -21.9205   -4.6976   22.3407 C   0  0  0  0  0  0
  -22.7870  -13.5282   21.1797 C   0  0  0  0  0  0
  -22.1691   -4.2158   21.0988 F   0  0  0  0  0  0
  -21.5609   -3.4567   25.7748 F   0  0  0  0  0  0
  -29.9908  -13.5006   20.4013 N   0  0  0  0  0  0
  -26.2945  -12.9364   20.3327 N   0  0  0  0  0  0
  -25.9333  -11.6518   20.5900 N   0  0  0  0  0  0
  -22.0478  -12.8289   22.0324 N   0  0  0  0  0  0
  -25.4265  -15.1882   20.4117 N   0  0  0  0  0  0
  -31.8099  -14.8088   20.0961 O   0  0  0  0  0  0
  -21.6648   -6.8916   21.4256 O   0  0  0  0  0  0
  -22.3603  -14.5622   20.6669 O   0  0  0  0  0  0
  -24.6324  -31.8538   23.1976 C   0  0  0  0  0  0
  -25.9128  -32.4746   23.8350 C   0  0  1  0  0  0
  -27.2302  -27.2812   20.1193 C   0  0  0  0  0  0
  -25.5946  -33.8546   24.2294 N   0  0  0  0  0  0
  -23.4318  -30.4799   21.5390 C   0  0  2  0  0  0
  -24.8834  -28.9345   20.0991 C   0  0  0  0  0  0
  -22.7530  -29.4579   22.4866 C   0  0  0  0  0  0
  -18.0289  -28.1340   22.8511 C   0  0  0  0  0  0
  -24.1496  -36.7290   23.2646 C   0  0  0  0  0  0
  -25.9794  -30.7679   21.3812 C   0  0  0  0  0  0
  -26.0501  -29.3955   20.7228 C   0  0  0  0  0  0
  -27.2244  -28.5805   20.7253 C   0  0  0  0  0  0
  -26.0498  -26.8970   19.4418 C   0  0  0  0  0  0
  -24.8903  -27.6960   19.4409 C   0  0  0  0  0  0
  -23.6548  -29.8218   20.1517 C   0  0  0  0  0  0
  -25.4120  -36.3068   24.0353 C   0  0  1  0  0  0
  -20.5891  -28.3683   23.1176 C   0  0  2  0  0  0
  -20.6842  -26.9432   22.5212 C   0  0  0  0  0  0
  -19.5674  -26.6228   21.5231 C   0  0  0  0  0  0
  -18.1934  -26.7802   22.1820 C   0  0  0  0  0  0
  -19.1533  -28.8837   23.2830 C   0  0  0  0  0  0
  -18.9444  -30.1454   23.8823 C   0  0  0  0  0  0
  -17.6449  -30.6592   24.0470 C   0  0  0  0  0  0
  -25.9058  -34.9448   23.5129 C   0  0  0  0  0  0
  -16.5343  -29.9089   23.6270 C   0  0  0  0  0  0
  -16.7280  -28.6476   23.0369 C   0  0  0  0  0  0
  -26.4526  -31.6555   25.0730 C   0  0  0  0  0  0
  -25.3757  -31.3683   26.1470 C   0  0  0  0  0  0
  -27.0381  -30.2986   24.6165 C   0  0  0  0  0  0
  -27.6103  -32.4287   25.7477 C   0  0  0  0  0  0
  -27.5584  -37.1801   24.8477 C   0  0  0  0  0  0
  -21.4219  -29.3111   22.3674 N   0  0  0  0  0  0
  -26.4283  -37.3772   23.9415 N   0  0  0  0  0  0
  -24.7016  -31.0517   22.0949 N   0  0  0  0  0  0
  -23.4231  -28.8017   23.2882 O   0  0  0  0  0  0
  -28.3407  -26.4112   20.2088 O   0  0  0  0  0  0
  -26.5617  -34.8919   22.4685 O   0  0  0  0  0  0
  -23.5457  -32.1345   23.7249 O   0  0  0  0  0  0
  -29.5625  -19.7202   18.6352 C   0  0  0  0  0  0
  -29.7091  -18.5252   17.9228 C   0  0  0  0  0  0
  -29.6815  -18.4552   20.6946 C   0  0  0  0  0  0
  -29.5362  -19.7537   20.0408 C   0  0  0  0  0  0
  -29.8450  -17.2766   18.5580 C   0  0  0  0  0  0
  -29.8497  -17.1836   19.9850 C   0  0  0  0  0  0
  -29.3652  -21.1473   20.6961 C   0  0  0  0  0  0
  -29.1431  -22.3763   20.0858 C   0  0  0  0  0  0
  -29.9023  -16.0982   17.5963 C   0  0  0  0  0  0
  -29.0628  -23.8439   20.6786 C   0  0  0  0  0  0
  -28.2245  -24.9570   19.8728 C   0  0  0  0  0  0
  -29.8609  -15.8558   20.6614 N   0  0  0  0  0  0
  -31.4584  -12.5434   19.1451 H   0  0  0  0  0  0
  -30.3968  -11.4621   20.0099 H   0  0  0  0  0  0
  -29.7399  -11.5198   17.6360 H   0  0  0  0  0  0
  -29.6212  -13.2413   17.6069 H   0  0  0  0  0  0
  -27.8650  -11.2417   18.9972 H   0  0  0  0  0  0
  -27.3523  -12.4201   17.8280 H   0  0  0  0  0  0
  -27.6334  -14.2325   19.4305 H   0  0  0  0  0  0
  -28.6950  -12.2014   21.4635 H   0  0  0  0  0  0
  -28.4079  -13.8972   21.7616 H   0  0  0  0  0  0
  -25.2770   -9.5722   22.4792 H   0  0  0  0  0  0
  -23.9980   -7.4710   22.7559 H   0  0  0  0  0  0
  -21.0820   -8.8818   19.9018 H   0  0  0  0  0  0
  -22.3682  -10.9720   19.6208 H   0  0  0  0  0  0
  -21.1976   -7.6158   23.9691 H   0  0  0  0  0  0
  -21.1537   -6.0559   25.9069 H   0  0  0  0  0  0
  -22.0549   -2.7622   23.2828 H   0  0  0  0  0  0
  -22.4096  -11.9958   22.4712 H   0  0  0  0  0  0
  -21.1131  -13.1393   22.2609 H   0  0  0  0  0  0
  -24.6594  -15.8386   20.5421 H   0  0  0  0  0  0
  -26.2708  -15.6341   20.0726 H   0  0  0  0  0  0
  -26.7184  -32.5406   23.1097 H   0  0  0  0  0  0
  -25.0181  -33.9705   25.0504 H   0  0  0  0  0  0
  -22.7270  -31.3020   21.3947 H   0  0  0  0  0  0
  -23.3754  -35.9618   23.3301 H   0  0  0  0  0  0
  -24.3597  -36.8886   22.2049 H   0  0  0  0  0  0
  -23.7243  -37.6505   23.6648 H   0  0  0  0  0  0
  -26.1284  -31.5259   20.6117 H   0  0  0  0  0  0
  -26.8556  -30.8140   22.0156 H   0  0  0  0  0  0
  -28.1204  -28.9273   21.2237 H   0  0  0  0  0  0
  -25.9928  -25.9707   18.8899 H   0  0  0  0  0  0
  -24.0098  -27.3557   18.9121 H   0  0  0  0  0  0
  -23.7823  -30.6021   19.4021 H   0  0  0  0  0  0
  -22.7722  -29.2609   19.8382 H   0  0  0  0  0  0
  -25.1271  -36.1950   25.0834 H   0  0  0  0  0  0
  -20.9965  -28.3238   24.1307 H   0  0  0  0  0  0
  -20.6023  -26.2291   23.3411 H   0  0  0  0  0  0
  -21.6612  -26.7590   22.0765 H   0  0  0  0  0  0
  -19.6773  -25.6033   21.1501 H   0  0  0  0  0  0
  -19.6412  -27.2816   20.6574 H   0  0  0  0  0  0
  -17.4076  -26.6290   21.4418 H   0  0  0  0  0  0
  -18.0584  -26.0080   22.9405 H   0  0  0  0  0  0
  -19.7943  -30.7256   24.2179 H   0  0  0  0  0  0
  -17.5013  -31.6284   24.5040 H   0  0  0  0  0  0
  -15.5341  -30.2994   23.7579 H   0  0  0  0  0  0
  -15.8681  -28.0769   22.7132 H   0  0  0  0  0  0
  -24.5947  -30.7018   25.7787 H   0  0  0  0  0  0
  -24.8957  -32.2838   26.4906 H   0  0  0  0  0  0
  -25.8101  -30.8848   27.0222 H   0  0  0  0  0  0
  -26.2935  -29.6724   24.1239 H   0  0  0  0  0  0
  -27.4161  -29.7255   25.4628 H   0  0  0  0  0  0
  -27.8770  -30.4312   23.9346 H   0  0  0  0  0  0
  -27.2746  -33.3583   26.2092 H   0  0  0  0  0  0
  -28.3898  -32.6840   25.0283 H   0  0  0  0  0  0
  -28.0823  -31.8397   26.5353 H   0  0  0  0  0  0
  -28.2608  -38.0091   24.7500 H   0  0  0  0  0  0
  -28.1075  -36.2618   24.6319 H   0  0  0  0  0  0
  -27.2320  -37.1479   25.8889 H   0  0  0  0  0  0
  -20.9428  -29.9045   21.7048 H   0  0  0  0  0  0
  -26.0184  -38.2848   24.1389 H   0  0  0  0  0  0
  -29.4691  -20.6226   18.0571 H   0  0  0  0  0  0
  -29.6904  -18.5752   16.8419 H   0  0  0  0  0  0
  -29.6612  -18.4340   21.7754 H   0  0  0  0  0  0
  -29.4636  -21.1527   21.7716 H   0  0  0  0  0  0
  -29.0404  -22.3935   19.0150 H   0  0  0  0  0  0
  -28.9096  -15.8735   17.2013 H   0  0  0  0  0  0
  -30.3157  -15.1897   17.9974 H   0  0  0  0  0  0
  -30.5417  -16.3521   16.7501 H   0  0  0  0  0  0
  -30.0942  -24.1921   20.7387 H   0  0  0  0  0  0
  -28.7050  -23.7974   21.7067 H   0  0  0  0  0  0
  -27.1896  -24.6315   19.9450 H   0  0  0  0  0  0
  -28.4863  -24.8778   18.8167 H   0  0  0  0  0  0
  -29.0219  -15.6595   21.1851 H   0  0  0  0  0  0
  1 25  1  0  0  0
  1 30  2  0  0  0
  1 82  1  0  0  0
  2  3  1  0  0  0
  2 25  1  0  0  0
  2 83  1  0  0  0
  2 84  1  0  0  0
  3  4  1  0  0  0
  3 85  1  0  0  0
  3 86  1  0  0  0
  4  5  1  0  0  0
  4 87  1  0  0  0
  4 88  1  0  0  0
  5  6  1  0  0  0
  5 26  1  0  0  0
  5 89  1  0  0  0
  6 25  1  0  0  0
  6 90  1  0  0  0
  6 91  1  0  0  0
  7  8  2  0  0  0
  7 26  1  0  0  0
  7 29  1  0  0  0
  8  9  1  0  0  0
  8 22  1  0  0  0
  9 10  1  0  0  0
  9 27  2  0  0  0
 10 11  2  0  0  0
 10 15  1  0  0  0
 11 12  1  0  0  0
 11 92  1  0  0  0
 12 13  2  0  0  0
 12 93  1  0  0  0
 13 14  1  0  0  0
 13 31  1  0  0  0
 14 15  2  0  0  0
 14 94  1  0  0  0
 15 95  1  0  0  0
 16 17  2  0  0  0
 16 21  1  0  0  0
 16 31  1  0  0  0
 17 18  1  0  0  0
 17 96  1  0  0  0
 18 19  2  0  0  0
 18 97  1  0  0  0
 19 20  1  0  0  0
 19 24  1  0  0  0
 20 21  2  0  0  0
 20 98  1  0  0  0
 21 23  1  0  0  0
 22 28  1  0  0  0
 22 32  2  0  0  0
 26 27  1  0  0  0
 28 99  1  0  0  0
 28100  1  0  0  0
 29101  1  0  0  0
 29102  1  0  0  0
 33 34  1  0  0  0
 33 66  1  0  0  0
 33 70  2  0  0  0
 34 36  1  0  0  0
 34 59  1  0  0  0
 34103  1  0  0  0
 35 44  2  0  0  0
 35 45  1  0  0  0
 35 68  1  0  0  0
 36 56  1  0  0  0
 36104  1  0  0  0
 37 39  1  0  0  0
 37 47  1  0  0  0
 37 66  1  0  0  0
 37105  1  0  0  0
 38 43  2  0  0  0
 38 46  1  0  0  0
 38 47  1  0  0  0
 39 64  1  0  0  0
 39 67  2  0  0  0
 40 52  1  0  0  0
 40 53  2  0  0  0
 40 58  1  0  0  0
 41106  1  0  0  0
 41107  1  0  0  0
 41108  1  0  0  0
 41 48  1  0  0  0
 42 43  1  0  0  0
 42 66  1  0  0  0
 42109  1  0  0  0
 42110  1  0  0  0
 43 44  1  0  0  0
 44111  1  0  0  0
 45 46  2  0  0  0
 45112  1  0  0  0
 46113  1  0  0  0
 47114  1  0  0  0
 47115  1  0  0  0
 48 56  1  0  0  0
 48 65  1  0  0  0
 48116  1  0  0  0
 49 50  1  0  0  0
 49 53  1  0  0  0
 49 64  1  0  0  0
 49117  1  0  0  0
 50 51  1  0  0  0
 50118  1  0  0  0
 50119  1  0  0  0
 51 52  1  0  0  0
 51120  1  0  0  0
 51121  1  0  0  0
 52122  1  0  0  0
 52123  1  0  0  0
 53 54  1  0  0  0
 54 55  2  0  0  0
 54124  1  0  0  0
 55 57  1  0  0  0
 55125  1  0  0  0
 56 69  2  0  0  0
 57 58  2  0  0  0
 57126  1  0  0  0
 58127  1  0  0  0
 59 60  1  0  0  0
 59 61  1  0  0  0
 59 62  1  0  0  0
 60128  1  0  0  0
 60129  1  0  0  0
 60130  1  0  0  0
 61131  1  0  0  0
 61132  1  0  0  0
 61133  1  0  0  0
 62134  1  0  0  0
 62135  1  0  0  0
 62136  1  0  0  0
 63 65  1  0  0  0
 63137  1  0  0  0
 63138  1  0  0  0
 63139  1  0  0  0
 64140  1  0  0  0
 65141  1  0  0  0
 68 81  1  0  0  0
 71 72  2  0  0  0
 71 74  1  0  0  0
 71142  1  0  0  0
 72 75  1  0  0  0
 72143  1  0  0  0
 73 74  2  0  0  0
 73 76  1  0  0  0
 73144  1  0  0  0
 74 77  1  0  0  0
 75 76  2  0  0  0
 75 79  1  0  0  0
 76 82  1  0  0  0
 77 78  2  0  0  0
 77145  1  0  0  0
 78 80  1  0  0  0
 78146  1  0  0  0
 79147  1  0  0  0
 79148  1  0  0  0
 79149  1  0  0  0
 80 81  1  0  0  0
 80150  1  0  0  0
 80151  1  0  0  0
 81152  1  0  0  0
 81153  1  0  0  0
 82154  1  0  0  0
M  ISO  4   1 100  68 101  81 101  82 100
M  END
> <chiral flag>
0

> <version>
0

> <s_m_source_file>
/data/baiqing/PycharmProjects/Reinvent-master-3.2/result/LINK_invent/BTK/process_docking_weight1_custom_product_contain_oxygen_bond_distance_aromatic_linkinvent_7_9_3/rearranged_h_0125.sdf

> <i_m_source_file_index>
1

> <r_mmod_Potential_Energy-OPLS-2005>
181.869201660156

> <r_mmod_Stretch_Energy-OPLS-2005>
118.174728393555

> <r_mmod_Bend_Energy-OPLS-2005>
156.911224365234

> <r_mmod_Torsional_Energy-OPLS-2005>
246.07502746582

> <r_mmod_Improper_Torsional_Energy-OPLS-2005>
6.28940200805664

> <r_mmod_Van_der_Waal_Energy-OPLS-2005>
151.774963378906

> <r_mmod_Electrostatic_Energy-OPLS-2005>
-370.474914550781

> <r_mmod_Solvation_Energy-OPLS-2005>
-207.688140869141

> <b_mmod_Minimization_Converged-OPLS-2005>
0

> <r_mmod_RMS_Derivative-OPLS-2005>
5.55993223190308

$$$$
1
                    3D
 Structure written by MMmdl.
153161  0  0  1  0            999 V2000
  -30.6020  -14.7578   20.4102 C   0  0  0  0  0  0
  -30.4386  -12.4419   19.4907 C   0  0  0  0  0  0
  -29.5215  -12.4540   18.2469 C   0  0  0  0  0  0
  -28.0410  -12.3140   18.6539 C   0  0  0  0  0  0
  -27.6437  -13.2309   19.8417 C   0  0  2  0  0  0
  -28.6855  -13.1801   20.9804 C   0  0  0  0  0  0
  -25.2525  -13.8199   20.5671 C   0  0  0  0  0  0
  -24.1814  -13.0447   20.9199 C   0  0  0  0  0  0
  -24.6405  -11.6926   20.8740 C   0  0  0  0  0  0
  -23.9080  -10.4302   21.0402 C   0  0  0  0  0  0
  -24.3631   -9.4208   21.9180 C   0  0  0  0  0  0
  -23.6307   -8.2238   22.0745 C   0  0  0  0  0  0
  -22.4282   -8.0282   21.3538 C   0  0  0  0  0  0
  -21.9924   -9.0256   20.4638 C   0  0  0  0  0  0
  -22.7255  -10.2134   20.3053 C   0  0  0  0  0  0
  -21.6849   -6.0740   22.5282 C   0  0  0  0  0  0
  -21.4011   -6.5643   23.8216 C   0  0  0  0  0  0
  -21.3660   -5.6790   24.9175 C   0  0  0  0  0  0
  -21.6049   -4.3055   24.7223 C   0  0  0  0  0  0
  -21.8818   -3.8148   23.4341 C   0  0  0  0  0  0
  -21.9189   -4.6967   22.3396 C   0  0  0  0  0  0
  -22.7834  -13.5223   21.1868 C   0  0  0  0  0  0
  -22.1659   -4.2154   21.0974 F   0  0  0  0  0  0
  -21.5632   -3.4539   25.7738 F   0  0  0  0  0  0
  -29.9879  -13.5242   20.3982 N   0  0  0  0  0  0
  -26.2948  -12.9409   20.3225 N   0  0  0  0  0  0
  -25.9334  -11.6554   20.5734 N   0  0  0  0  0  0
  -22.0483  -12.8200   22.0420 N   0  0  0  0  0  0
  -25.4231  -15.1924   20.4090 N   0  0  0  0  0  0
  -31.8031  -14.8385   20.1397 O   0  0  0  0  0  0
  -21.6635   -6.8885   21.4246 O   0  0  0  0  0  0
  -22.3511  -14.5519   20.6715 O   0  0  0  0  0  0
  -24.6306  -31.8560   23.1976 C   0  0  0  0  0  0
  -25.9131  -32.4760   23.8328 C   0  0  1  0  0  0
  -27.2273  -27.2775   20.1188 C   0  0  0  0  0  0
  -25.5926  -33.8560   24.2257 N   0  0  0  0  0  0
  -23.4257  -30.4785   21.5404 C   0  0  2  0  0  0
  -24.8726  -28.9255   20.1094 C   0  0  0  0  0  0
  -22.7496  -29.4613   22.4913 C   0  0  0  0  0  0
  -18.0294  -28.1392   22.8487 C   0  0  0  0  0  0
  -24.1487  -36.7289   23.2640 C   0  0  0  0  0  0
  -25.9686  -30.7767   21.3709 C   0  0  0  0  0  0
  -26.0423  -29.3988   20.7154 C   0  0  0  0  0  0
  -27.2180  -28.5852   20.7115 C   0  0  0  0  0  0
  -26.0274  -26.8639   19.4940 C   0  0  0  0  0  0
  -24.8698  -27.6668   19.4905 C   0  0  0  0  0  0
  -23.6417  -29.8088   20.1573 C   0  0  0  0  0  0
  -25.4113  -36.3071   24.0328 C   0  0  1  0  0  0
  -20.5894  -28.3702   23.1270 C   0  0  2  0  0  0
  -20.6775  -26.9417   22.5406 C   0  0  0  0  0  0
  -19.5747  -26.6386   21.5216 C   0  0  0  0  0  0
  -18.1933  -26.7933   22.1627 C   0  0  0  0  0  0
  -19.1544  -28.8862   23.2873 C   0  0  0  0  0  0
  -18.9467  -30.1461   23.8889 C   0  0  0  0  0  0
  -17.6465  -30.6586   24.0562 C   0  0  0  0  0  0
  -25.9056  -34.9444   23.5098 C   0  0  0  0  0  0
  -16.5359  -29.9085   23.6323 C   0  0  0  0  0  0
  -16.7282  -28.6505   23.0347 C   0  0  0  0  0  0
  -26.4495  -31.6583   25.0717 C   0  0  0  0  0  0
  -25.3713  -31.3755   26.1439 C   0  0  0  0  0  0
  -27.0321  -30.2996   24.6184 C   0  0  0  0  0  0
  -27.6062  -32.4303   25.7486 C   0  0  0  0  0  0
  -27.5575  -37.1798   24.8459 C   0  0  0  0  0  0
  -21.4204  -29.3054   22.3658 N   0  0  0  0  0  0
  -26.4282  -37.3774   23.9410 N   0  0  0  0  0  0
  -24.6941  -31.0547   22.0935 N   0  0  0  0  0  0
  -23.4204  -28.8158   23.3006 O   0  0  0  0  0  0
  -28.3525  -26.4279   20.1999 O   0  0  0  0  0  0
  -26.5621  -34.8917   22.4664 O   0  0  0  0  0  0
  -23.5458  -32.1365   23.7290 O   0  0  0  0  0  0
  -29.8832  -19.8121   18.5498 C   0  0  0  0  0  0
  -30.2153  -18.6283   17.8771 C   0  0  0  0  0  0
  -29.5393  -18.5064   20.5637 C   0  0  0  0  0  0
  -29.5194  -19.8149   19.9101 C   0  0  0  0  0  0
  -30.2026  -17.3700   18.5116 C   0  0  0  0  0  0
  -29.9010  -17.2502   19.9019 C   0  0  0  0  0  0
  -29.1356  -21.1863   20.5242 C   0  0  0  0  0  0
  -28.9628  -22.4113   19.8851 C   0  0  0  0  0  0
  -28.6351  -23.7868   20.4976 C   0  0  0  0  0  0
  -30.4225  -16.1755   17.6014 C   0  0  0  0  0  0
  -28.4221  -25.0699   19.5653 C   0  0  0  0  0  0
  -29.8139  -15.9000   20.5447 N   0  0  0  0  0  0
  -28.5380  -23.9322   21.7200 O   0  0  0  0  0  0
  -31.4816  -12.5604   19.1906 H   0  0  0  0  0  0
  -30.3810  -11.4764   19.9965 H   0  0  0  0  0  0
  -29.7975  -11.6414   17.5736 H   0  0  0  0  0  0
  -29.6717  -13.3660   17.6768 H   0  0  0  0  0  0
  -27.8859  -11.2714   18.9310 H   0  0  0  0  0  0
  -27.3923  -12.4981   17.7971 H   0  0  0  0  0  0
  -27.6371  -14.2479   19.4478 H   0  0  0  0  0  0
  -28.7180  -12.1872   21.4321 H   0  0  0  0  0  0
  -28.4184  -13.8732   21.7796 H   0  0  0  0  0  0
  -25.2781   -9.5673   22.4751 H   0  0  0  0  0  0
  -24.0015   -7.4623   22.7460 H   0  0  0  0  0  0
  -21.0850   -8.8779   19.8951 H   0  0  0  0  0  0
  -22.3718  -10.9670   19.6155 H   0  0  0  0  0  0
  -21.2003   -7.6153   23.9721 H   0  0  0  0  0  0
  -21.1487   -6.0518   25.9078 H   0  0  0  0  0  0
  -22.0597   -2.7613   23.2831 H   0  0  0  0  0  0
  -22.4101  -11.9863   22.4801 H   0  0  0  0  0  0
  -21.1101  -13.1218   22.2639 H   0  0  0  0  0  0
  -24.6554  -15.8469   20.5150 H   0  0  0  0  0  0
  -26.2698  -15.6301   20.0682 H   0  0  0  0  0  0
  -26.7203  -32.5414   23.1080 H   0  0  0  0  0  0
  -25.0072  -33.9699   25.0397 H   0  0  0  0  0  0
  -22.7218  -31.3002   21.3940 H   0  0  0  0  0  0
  -23.3747  -35.9619   23.3290 H   0  0  0  0  0  0
  -24.3585  -36.8921   22.2055 H   0  0  0  0  0  0
  -23.7233  -37.6488   23.6668 H   0  0  0  0  0  0
  -26.0983  -31.5369   20.5990 H   0  0  0  0  0  0
  -26.8491  -30.8319   21.9996 H   0  0  0  0  0  0
  -28.1140  -28.9467   21.1973 H   0  0  0  0  0  0
  -25.9285  -25.8983   19.0269 H   0  0  0  0  0  0
  -23.9702  -27.2972   19.0180 H   0  0  0  0  0  0
  -23.7628  -30.5811   19.3968 H   0  0  0  0  0  0
  -22.7608  -29.2377   19.8571 H   0  0  0  0  0  0
  -25.1295  -36.1919   25.0819 H   0  0  0  0  0  0
  -20.9999  -28.3279   24.1385 H   0  0  0  0  0  0
  -20.5670  -26.2320   23.3619 H   0  0  0  0  0  0
  -21.6641  -26.7433   22.1207 H   0  0  0  0  0  0
  -19.6907  -25.6293   21.1252 H   0  0  0  0  0  0
  -19.6681  -27.3184   20.6735 H   0  0  0  0  0  0
  -17.4204  -26.6678   21.4033 H   0  0  0  0  0  0
  -18.0333  -26.0078   22.9029 H   0  0  0  0  0  0
  -19.7945  -30.7279   24.2253 H   0  0  0  0  0  0
  -17.5024  -31.6266   24.5168 H   0  0  0  0  0  0
  -15.5359  -30.2987   23.7651 H   0  0  0  0  0  0
  -15.8688  -28.0827   22.7056 H   0  0  0  0  0  0
  -24.5861  -30.7142   25.7763 H   0  0  0  0  0  0
  -24.8941  -32.2944   26.4859 H   0  0  0  0  0  0
  -25.8016  -30.8918   27.0219 H   0  0  0  0  0  0
  -26.2894  -29.6762   24.1196 H   0  0  0  0  0  0
  -27.3991  -29.7248   25.4698 H   0  0  0  0  0  0
  -27.8783  -30.4271   23.9427 H   0  0  0  0  0  0
  -27.2697  -33.3625   26.2038 H   0  0  0  0  0  0
  -28.3892  -32.6820   25.0321 H   0  0  0  0  0  0
  -28.0703  -31.8432   26.5421 H   0  0  0  0  0  0
  -28.2588  -38.0099   24.7507 H   0  0  0  0  0  0
  -28.1075  -36.2632   24.6277 H   0  0  0  0  0  0
  -27.2302  -37.1437   25.8864 H   0  0  0  0  0  0
  -20.9391  -29.8798   21.6882 H   0  0  0  0  0  0
  -26.0163  -38.2850   24.1400 H   0  0  0  0  0  0
  -29.9055  -20.7241   17.9737 H   0  0  0  0  0  0
  -30.4490  -18.6988   16.8231 H   0  0  0  0  0  0
  -29.2566  -18.4683   21.6057 H   0  0  0  0  0  0
  -29.0081  -21.1800   21.5982 H   0  0  0  0  0  0
  -29.0713  -22.4493   18.8131 H   0  0  0  0  0  0
  -30.4532  -16.4697   16.5519 H   0  0  0  0  0  0
  -29.5851  -15.4914   17.7069 H   0  0  0  0  0  0
  -31.3593  -15.6632   17.8117 H   0  0  0  0  0  0
  -27.5930  -24.8675   18.8940 H   0  0  0  0  0  0
  -29.2928  -25.1026   18.9095 H   0  0  0  0  0  0
  -28.9301  -15.7205   20.9952 H   0  0  0  0  0  0
  1 25  1  0  0  0
  1 30  2  0  0  0
  1 82  1  0  0  0
  2  3  1  0  0  0
  2 25  1  0  0  0
  2 84  1  0  0  0
  2 85  1  0  0  0
  3  4  1  0  0  0
  3 86  1  0  0  0
  3 87  1  0  0  0
  4  5  1  0  0  0
  4 88  1  0  0  0
  4 89  1  0  0  0
  5  6  1  0  0  0
  5 26  1  0  0  0
  5 90  1  0  0  0
  6 25  1  0  0  0
  6 91  1  0  0  0
  6 92  1  0  0  0
  7  8  2  0  0  0
  7 26  1  0  0  0
  7 29  1  0  0  0
  8  9  1  0  0  0
  8 22  1  0  0  0
  9 10  1  0  0  0
  9 27  2  0  0  0
 10 11  2  0  0  0
 10 15  1  0  0  0
 11 12  1  0  0  0
 11 93  1  0  0  0
 12 13  2  0  0  0
 12 94  1  0  0  0
 13 14  1  0  0  0
 13 31  1  0  0  0
 14 15  2  0  0  0
 14 95  1  0  0  0
 15 96  1  0  0  0
 16 17  2  0  0  0
 16 21  1  0  0  0
 16 31  1  0  0  0
 17 18  1  0  0  0
 17 97  1  0  0  0
 18 19  2  0  0  0
 18 98  1  0  0  0
 19 20  1  0  0  0
 19 24  1  0  0  0
 20 21  2  0  0  0
 20 99  1  0  0  0
 21 23  1  0  0  0
 22 28  1  0  0  0
 22 32  2  0  0  0
 26 27  1  0  0  0
 28100  1  0  0  0
 28101  1  0  0  0
 29102  1  0  0  0
 29103  1  0  0  0
 33 34  1  0  0  0
 33 66  1  0  0  0
 33 70  2  0  0  0
 34 36  1  0  0  0
 34 59  1  0  0  0
 34104  1  0  0  0
 35 44  2  0  0  0
 35 45  1  0  0  0
 35 68  1  0  0  0
 36 56  1  0  0  0
 36105  1  0  0  0
 37 39  1  0  0  0
 37 47  1  0  0  0
 37 66  1  0  0  0
 37106  1  0  0  0
 38 43  2  0  0  0
 38 46  1  0  0  0
 38 47  1  0  0  0
 39 64  1  0  0  0
 39 67  2  0  0  0
 40 52  1  0  0  0
 40 53  2  0  0  0
 40 58  1  0  0  0
 41107  1  0  0  0
 41108  1  0  0  0
 41109  1  0  0  0
 41 48  1  0  0  0
 42 43  1  0  0  0
 42 66  1  0  0  0
 42110  1  0  0  0
 42111  1  0  0  0
 43 44  1  0  0  0
 44112  1  0  0  0
 45 46  2  0  0  0
 45113  1  0  0  0
 46114  1  0  0  0
 47115  1  0  0  0
 47116  1  0  0  0
 48 56  1  0  0  0
 48 65  1  0  0  0
 48117  1  0  0  0
 49 50  1  0  0  0
 49 53  1  0  0  0
 49 64  1  0  0  0
 49118  1  0  0  0
 50 51  1  0  0  0
 50119  1  0  0  0
 50120  1  0  0  0
 51 52  1  0  0  0
 51121  1  0  0  0
 51122  1  0  0  0
 52123  1  0  0  0
 52124  1  0  0  0
 53 54  1  0  0  0
 54 55  2  0  0  0
 54125  1  0  0  0
 55 57  1  0  0  0
 55126  1  0  0  0
 56 69  2  0  0  0
 57 58  2  0  0  0
 57127  1  0  0  0
 58128  1  0  0  0
 59 60  1  0  0  0
 59 61  1  0  0  0
 59 62  1  0  0  0
 60129  1  0  0  0
 60130  1  0  0  0
 60131  1  0  0  0
 61132  1  0  0  0
 61133  1  0  0  0
 61134  1  0  0  0
 62135  1  0  0  0
 62136  1  0  0  0
 62137  1  0  0  0
 63 65  1  0  0  0
 63138  1  0  0  0
 63139  1  0  0  0
 63140  1  0  0  0
 64141  1  0  0  0
 65142  1  0  0  0
 68 81  1  0  0  0
 71 72  2  0  0  0
 71 74  1  0  0  0
 71143  1  0  0  0
 72 75  1  0  0  0
 72144  1  0  0  0
 73 74  2  0  0  0
 73 76  1  0  0  0
 73145  1  0  0  0
 74 77  1  0  0  0
 75 76  2  0  0  0
 75 80  1  0  0  0
 76 82  1  0  0  0
 77 78  2  0  0  0
 77146  1  0  0  0
 78 79  1  0  0  0
 78147  1  0  0  0
 79 81  1  0  0  0
 79 83  2  0  0  0
 80148  1  0  0  0
 80149  1  0  0  0
 80150  1  0  0  0
 81151  1  0  0  0
 81152  1  0  0  0
 82153  1  0  0  0
M  ISO  4   1 100  68 101  81 101  82 100
M  END
> <chiral flag>
0

> <version>
0

> <s_m_source_file>
/data/baiqing/PycharmProjects/Reinvent-master-3.2/result/LINK_invent/BTK/process_docking_weight1_custom_product_contain_oxygen_bond_distance_aromatic_linkinvent_7_9_3/rearranged_h_0125.sdf

> <i_m_source_file_index>
2

> <r_mmod_Potential_Energy-OPLS-2005>
165.492034912109

> <r_mmod_Stretch_Energy-OPLS-2005>
125.623550415039

> <r_mmod_Bend_Energy-OPLS-2005>
162.685928344727

> <r_mmod_Torsional_Energy-OPLS-2005>
235.893569946289

> <r_mmod_Improper_Torsional_Energy-OPLS-2005>
5.52134895324707

> <r_mmod_Van_der_Waal_Energy-OPLS-2005>
145.038269042969

> <r_mmod_Electrostatic_Energy-OPLS-2005>
-358.529541015625

> <r_mmod_Solvation_Energy-OPLS-2005>
-235.611251831055

> <b_mmod_Minimization_Converged-OPLS-2005>
0

> <r_mmod_RMS_Derivative-OPLS-2005>
1.64242672920227

$$$$
2
                    3D
 Structure written by MMmdl.
159167  0  0  1  0            999 V2000
  -30.7152  -14.4621   20.6093 C   0  0  0  0  0  0
  -30.4382  -12.3156   19.4070 C   0  0  0  0  0  0
  -29.4926  -12.5029   18.2012 C   0  0  0  0  0  0
  -28.0169  -12.3603   18.6227 C   0  0  0  0  0  0
  -27.6693  -13.2008   19.8798 C   0  0  2  0  0  0
  -28.7155  -12.9585   20.9919 C   0  0  0  0  0  0
  -25.2625  -13.8149   20.5633 C   0  0  0  0  0  0
  -24.1872  -13.0447   20.9184 C   0  0  0  0  0  0
  -24.6421  -11.6914   20.8766 C   0  0  0  0  0  0
  -23.9080  -10.4293   21.0426 C   0  0  0  0  0  0
  -24.3620   -9.4205   21.9197 C   0  0  0  0  0  0
  -23.6298   -8.2244   22.0764 C   0  0  0  0  0  0
  -22.4275   -8.0290   21.3557 C   0  0  0  0  0  0
  -21.9922   -9.0265   20.4659 C   0  0  0  0  0  0
  -22.7254  -10.2145   20.3073 C   0  0  0  0  0  0
  -21.6854   -6.0741   22.5279 C   0  0  0  0  0  0
  -21.4005   -6.5639   23.8210 C   0  0  0  0  0  0
  -21.3659   -5.6799   24.9172 C   0  0  0  0  0  0
  -21.6042   -4.3055   24.7218 C   0  0  0  0  0  0
  -21.8824   -3.8147   23.4338 C   0  0  0  0  0  0
  -21.9192   -4.6969   22.3397 C   0  0  0  0  0  0
  -22.7893  -13.5252   21.1840 C   0  0  0  0  0  0
  -22.1661   -4.2148   21.0977 F   0  0  0  0  0  0
  -21.5635   -3.4542   25.7731 F   0  0  0  0  0  0
  -30.0537  -13.2784   20.4505 N   0  0  0  0  0  0
  -26.3075  -12.9318   20.3416 N   0  0  0  0  0  0
  -25.9353  -11.6483   20.5843 N   0  0  0  0  0  0
  -22.0522  -12.8251   22.0394 N   0  0  0  0  0  0
  -25.4352  -15.1843   20.3856 N   0  0  0  0  0  0
  -31.7766  -14.7188   20.0308 O   0  0  0  0  0  0
  -21.6658   -6.8880   21.4237 O   0  0  0  0  0  0
  -22.3574  -14.5562   20.6697 O   0  0  0  0  0  0
  -24.6127  -31.8669   23.2115 C   0  0  0  0  0  0
  -25.9010  -32.4829   23.8394 C   0  0  1  0  0  0
  -27.2485  -27.4503   20.0987 C   0  0  0  0  0  0
  -25.5865  -33.8633   24.2327 N   0  0  0  0  0  0
  -23.4035  -30.4898   21.5509 C   0  0  2  0  0  0
  -24.8537  -28.9521   20.1185 C   0  0  0  0  0  0
  -22.7410  -29.4649   22.4995 C   0  0  0  0  0  0
  -18.0270  -28.1373   22.8533 C   0  0  0  0  0  0
  -24.1474  -36.7307   23.2648 C   0  0  0  0  0  0
  -25.9275  -30.8382   21.3589 C   0  0  0  0  0  0
  -26.0107  -29.4696   20.7166 C   0  0  0  0  0  0
  -27.2137  -28.7253   20.7071 C   0  0  0  0  0  0
  -26.0778  -26.9376   19.5065 C   0  0  0  0  0  0
  -24.8794  -27.6821   19.5137 C   0  0  0  0  0  0
  -23.6136  -29.8198   20.1647 C   0  0  0  0  0  0
  -25.4099  -36.3124   24.0360 C   0  0  1  0  0  0
  -20.5869  -28.3639   23.1341 C   0  0  2  0  0  0
  -20.6773  -26.9383   22.5419 C   0  0  0  0  0  0
  -19.5735  -26.6386   21.5224 C   0  0  0  0  0  0
  -18.1910  -26.7931   22.1637 C   0  0  0  0  0  0
  -19.1523  -28.8816   23.2943 C   0  0  0  0  0  0
  -18.9461  -30.1438   23.8921 C   0  0  0  0  0  0
  -17.6467  -30.6600   24.0584 C   0  0  0  0  0  0
  -25.9018  -34.9493   23.5159 C   0  0  0  0  0  0
  -16.5349  -29.9124   23.6340 C   0  0  0  0  0  0
  -16.7260  -28.6540   23.0354 C   0  0  0  0  0  0
  -26.4439  -31.6614   25.0706 C   0  0  0  0  0  0
  -25.3706  -31.3751   26.1469 C   0  0  0  0  0  0
  -27.0262  -30.3081   24.6033 C   0  0  0  0  0  0
  -27.6029  -32.4308   25.7448 C   0  0  0  0  0  0
  -27.5577  -37.1818   24.8481 C   0  0  0  0  0  0
  -21.4140  -29.3030   22.3751 N   0  0  0  0  0  0
  -26.4294  -37.3803   23.9426 N   0  0  0  0  0  0
  -24.6661  -31.0775   22.1007 N   0  0  0  0  0  0
  -23.4194  -28.8172   23.3013 O   0  0  0  0  0  0
  -28.4219  -26.7383   19.9871 O   0  0  0  0  0  0
  -26.5596  -34.8945   22.4724 O   0  0  0  0  0  0
  -23.5316  -32.1421   23.7512 O   0  0  0  0  0  0
  -29.3183  -18.6012   22.9394 C   0  0  0  0  0  0
  -30.2640  -18.9135   20.7635 C   0  0  0  0  0  0
  -29.6548  -19.4891   21.9016 C   0  0  0  0  0  0
  -29.5415  -17.2159   22.7983 C   0  0  0  0  0  0
  -30.1087  -16.7179   21.6005 C   0  0  0  0  0  0
  -29.3616  -20.9347   22.0987 C   0  0  0  0  0  0
  -29.6707  -22.0033   21.3295 C   0  0  0  0  0  0
  -27.6659  -15.8726   23.8296 C   0  0  0  0  0  0
  -29.1327  -16.2975   23.9453 C   0  0  0  0  0  0
  -29.3260  -23.4413   21.7353 C   0  0  0  0  0  0
  -28.8789  -24.3945   20.6003 C   0  0  0  0  0  0
  -28.7582  -25.8697   21.0712 C   0  0  0  0  0  0
  -30.4788  -17.5772   20.6165 N   0  0  0  0  0  0
  -30.1370  -15.2951   21.4908 N   0  0  0  0  0  0
  -31.4764  -12.4363   19.0923 H   0  0  0  0  0  0
  -30.3666  -11.2998   19.7979 H   0  0  0  0  0  0
  -29.7281  -11.7685   17.4288 H   0  0  0  0  0  0
  -29.6533  -13.4824   17.7501 H   0  0  0  0  0  0
  -27.8303  -11.3047   18.8227 H   0  0  0  0  0  0
  -27.3594  -12.6286   17.7951 H   0  0  0  0  0  0
  -27.7212  -14.2505   19.5912 H   0  0  0  0  0  0
  -28.6964  -11.9145   21.3055 H   0  0  0  0  0  0
  -28.4565  -13.5215   21.8875 H   0  0  0  0  0  0
  -25.2762   -9.5681   22.4776 H   0  0  0  0  0  0
  -24.0008   -7.4631   22.7475 H   0  0  0  0  0  0
  -21.0860   -8.8781   19.8957 H   0  0  0  0  0  0
  -22.3715  -10.9687   19.6180 H   0  0  0  0  0  0
  -21.1986   -7.6150   23.9707 H   0  0  0  0  0  0
  -21.1483   -6.0529   25.9078 H   0  0  0  0  0  0
  -22.0602   -2.7608   23.2838 H   0  0  0  0  0  0
  -22.4127  -11.9893   22.4759 H   0  0  0  0  0  0
  -21.1161  -13.1306   22.2638 H   0  0  0  0  0  0
  -24.6551  -15.8311   20.4292 H   0  0  0  0  0  0
  -26.2679  -15.5967   19.9846 H   0  0  0  0  0  0
  -26.7080  -32.5537   23.1154 H   0  0  0  0  0  0
  -24.9991  -33.9787   25.0449 H   0  0  0  0  0  0
  -22.6956  -31.3089   21.4103 H   0  0  0  0  0  0
  -23.3744  -35.9631   23.3334 H   0  0  0  0  0  0
  -24.3575  -36.8870   22.2055 H   0  0  0  0  0  0
  -23.7230  -37.6531   23.6634 H   0  0  0  0  0  0
  -26.0245  -31.5992   20.5822 H   0  0  0  0  0  0
  -26.8220  -30.9010   21.9672 H   0  0  0  0  0  0
  -28.1151  -29.1365   21.1435 H   0  0  0  0  0  0
  -26.0999  -25.9709   19.0242 H   0  0  0  0  0  0
  -23.9931  -27.2781   19.0434 H   0  0  0  0  0  0
  -23.7214  -30.5987   19.4065 H   0  0  0  0  0  0
  -22.7379  -29.2400   19.8691 H   0  0  0  0  0  0
  -25.1276  -36.1985   25.0860 H   0  0  0  0  0  0
  -20.9962  -28.3162   24.1457 H   0  0  0  0  0  0
  -20.5649  -26.2244   23.3590 H   0  0  0  0  0  0
  -21.6639  -26.7415   22.1187 H   0  0  0  0  0  0
  -19.6908  -25.6303   21.1224 H   0  0  0  0  0  0
  -19.6698  -27.3231   20.6775 H   0  0  0  0  0  0
  -17.4206  -26.6698   21.4022 H   0  0  0  0  0  0
  -18.0296  -26.0060   22.9004 H   0  0  0  0  0  0
  -19.7931  -30.7262   24.2279 H   0  0  0  0  0  0
  -17.5030  -31.6278   24.5175 H   0  0  0  0  0  0
  -15.5357  -30.3044   23.7649 H   0  0  0  0  0  0
  -15.8656  -28.0887   22.7020 H   0  0  0  0  0  0
  -24.5829  -30.7157   25.7824 H   0  0  0  0  0  0
  -24.8930  -32.2918   26.4936 H   0  0  0  0  0  0
  -25.8006  -30.8900   27.0229 H   0  0  0  0  0  0
  -26.2806  -29.6856   24.1082 H   0  0  0  0  0  0
  -27.4102  -29.7304   25.4441 H   0  0  0  0  0  0
  -27.8593  -30.4455   23.9139 H   0  0  0  0  0  0
  -27.2684  -33.3619   26.2033 H   0  0  0  0  0  0
  -28.3820  -32.6836   25.0245 H   0  0  0  0  0  0
  -28.0712  -31.8420   26.5340 H   0  0  0  0  0  0
  -28.2621  -38.0081   24.7492 H   0  0  0  0  0  0
  -28.1032  -36.2629   24.6326 H   0  0  0  0  0  0
  -27.2303  -37.1475   25.8881 H   0  0  0  0  0  0
  -20.9276  -29.8803   21.7025 H   0  0  0  0  0  0
  -26.0186  -38.2887   24.1418 H   0  0  0  0  0  0
  -28.8678  -18.9751   23.8480 H   0  0  0  0  0  0
  -30.5654  -19.5293   19.9301 H   0  0  0  0  0  0
  -28.8213  -21.1524   23.0112 H   0  0  0  0  0  0
  -30.2164  -21.8809   20.4033 H   0  0  0  0  0  0
  -27.4081  -15.1483   24.6036 H   0  0  0  0  0  0
  -27.4524  -15.4176   22.8631 H   0  0  0  0  0  0
  -27.0055  -16.7327   23.9387 H   0  0  0  0  0  0
  -29.2935  -16.8144   24.8931 H   0  0  0  0  0  0
  -29.7794  -15.4199   23.9940 H   0  0  0  0  0  0
  -30.2134  -23.8576   22.2128 H   0  0  0  0  0  0
  -28.5491  -23.4213   22.5020 H   0  0  0  0  0  0
  -27.9233  -24.0642   20.1932 H   0  0  0  0  0  0
  -29.5980  -24.3432   19.7824 H   0  0  0  0  0  0
  -29.7269  -26.2048   21.4485 H   0  0  0  0  0  0
  -28.0563  -25.9614   21.9020 H   0  0  0  0  0  0
  -29.4439  -14.8346   22.0544 H   0  0  0  0  0  0
  1 25  1  0  0  0
  1 30  2  0  0  0
  1 84  1  0  0  0
  2  3  1  0  0  0
  2 25  1  0  0  0
  2 85  1  0  0  0
  2 86  1  0  0  0
  3  4  1  0  0  0
  3 87  1  0  0  0
  3 88  1  0  0  0
  4  5  1  0  0  0
  4 89  1  0  0  0
  4 90  1  0  0  0
  5  6  1  0  0  0
  5 26  1  0  0  0
  5 91  1  0  0  0
  6 25  1  0  0  0
  6 92  1  0  0  0
  6 93  1  0  0  0
  7  8  2  0  0  0
  7 26  1  0  0  0
  7 29  1  0  0  0
  8  9  1  0  0  0
  8 22  1  0  0  0
  9 10  1  0  0  0
  9 27  2  0  0  0
 10 11  2  0  0  0
 10 15  1  0  0  0
 11 12  1  0  0  0
 11 94  1  0  0  0
 12 13  2  0  0  0
 12 95  1  0  0  0
 13 14  1  0  0  0
 13 31  1  0  0  0
 14 15  2  0  0  0
 14 96  1  0  0  0
 15 97  1  0  0  0
 16 17  2  0  0  0
 16 21  1  0  0  0
 16 31  1  0  0  0
 17 18  1  0  0  0
 17 98  1  0  0  0
 18 19  2  0  0  0
 18 99  1  0  0  0
 19 20  1  0  0  0
 19 24  1  0  0  0
 20 21  2  0  0  0
 20100  1  0  0  0
 21 23  1  0  0  0
 22 28  1  0  0  0
 22 32  2  0  0  0
 26 27  1  0  0  0
 28101  1  0  0  0
 28102  1  0  0  0
 29103  1  0  0  0
 29104  1  0  0  0
 33 34  1  0  0  0
 33 66  1  0  0  0
 33 70  2  0  0  0
 34 36  1  0  0  0
 34 59  1  0  0  0
 34105  1  0  0  0
 35 44  2  0  0  0
 35 45  1  0  0  0
 35 68  1  0  0  0
 36 56  1  0  0  0
 36106  1  0  0  0
 37 39  1  0  0  0
 37 47  1  0  0  0
 37 66  1  0  0  0
 37107  1  0  0  0
 38 43  2  0  0  0
 38 46  1  0  0  0
 38 47  1  0  0  0
 39 64  1  0  0  0
 39 67  2  0  0  0
 40 52  1  0  0  0
 40 53  2  0  0  0
 40 58  1  0  0  0
 41108  1  0  0  0
 41109  1  0  0  0
 41110  1  0  0  0
 41 48  1  0  0  0
 42 43  1  0  0  0
 42 66  1  0  0  0
 42111  1  0  0  0
 42112  1  0  0  0
 43 44  1  0  0  0
 44113  1  0  0  0
 45 46  2  0  0  0
 45114  1  0  0  0
 46115  1  0  0  0
 47116  1  0  0  0
 47117  1  0  0  0
 48 56  1  0  0  0
 48 65  1  0  0  0
 48118  1  0  0  0
 49 50  1  0  0  0
 49 53  1  0  0  0
 49 64  1  0  0  0
 49119  1  0  0  0
 50 51  1  0  0  0
 50120  1  0  0  0
 50121  1  0  0  0
 51 52  1  0  0  0
 51122  1  0  0  0
 51123  1  0  0  0
 52124  1  0  0  0
 52125  1  0  0  0
 53 54  1  0  0  0
 54 55  2  0  0  0
 54126  1  0  0  0
 55 57  1  0  0  0
 55127  1  0  0  0
 56 69  2  0  0  0
 57 58  2  0  0  0
 57128  1  0  0  0
 58129  1  0  0  0
 59 60  1  0  0  0
 59 61  1  0  0  0
 59 62  1  0  0  0
 60130  1  0  0  0
 60131  1  0  0  0
 60132  1  0  0  0
 61133  1  0  0  0
 61134  1  0  0  0
 61135  1  0  0  0
 62136  1  0  0  0
 62137  1  0  0  0
 62138  1  0  0  0
 63 65  1  0  0  0
 63139  1  0  0  0
 63140  1  0  0  0
 63141  1  0  0  0
 64142  1  0  0  0
 65143  1  0  0  0
 68 82  1  0  0  0
 71 73  2  0  0  0
 71 74  1  0  0  0
 71144  1  0  0  0
 72 73  1  0  0  0
 72 83  2  0  0  0
 72145  1  0  0  0
 73 76  1  0  0  0
 74 75  2  0  0  0
 74 79  1  0  0  0
 75 83  1  0  0  0
 75 84  1  0  0  0
 76 77  2  0  0  0
 76146  1  0  0  0
 77 80  1  0  0  0
 77147  1  0  0  0
 78 79  1  0  0  0
 78148  1  0  0  0
 78149  1  0  0  0
 78150  1  0  0  0
 79151  1  0  0  0
 79152  1  0  0  0
 80 81  1  0  0  0
 80153  1  0  0  0
 80154  1  0  0  0
 81 82  1  0  0  0
 81155  1  0  0  0
 81156  1  0  0  0
 82157  1  0  0  0
 82158  1  0  0  0
 84159  1  0  0  0
M  ISO  4   1 100  68 101  82 101  84 100
M  END
> <chiral flag>
0

> <version>
0

> <s_m_source_file>
/data/baiqing/PycharmProjects/Reinvent-master-3.2/result/LINK_invent/BTK/process_docking_weight1_custom_product_contain_oxygen_bond_distance_aromatic_linkinvent_7_9_3/rearranged_h_0125.sdf

> <i_m_source_file_index>
3

> <r_mmod_Potential_Energy-OPLS-2005>
-143.138153076172

> <r_mmod_Stretch_Energy-OPLS-2005>
38.1271820068359

> <r_mmod_Bend_Energy-OPLS-2005>
110.099075317383

> <r_mmod_Torsional_Energy-OPLS-2005>
232.084976196289

> <r_mmod_Improper_Torsional_Energy-OPLS-2005>
4.04529190063477

> <r_mmod_Van_der_Waal_Energy-OPLS-2005>
144.712692260742

> <r_mmod_Electrostatic_Energy-OPLS-2005>
-461.105224609375

> <r_mmod_Solvation_Energy-OPLS-2005>
-220.802749633789

> <b_mmod_Minimization_Converged-OPLS-2005>
0

> <r_mmod_RMS_Derivative-OPLS-2005>
3.5262188911438

$$$$
3
                    3D
 Structure written by MMmdl.
151159  0  0  1  0            999 V2000
  -30.5218  -14.9111   20.4333 C   0  0  0  0  0  0
  -30.4492  -12.5593   19.4981 C   0  0  0  0  0  0
  -29.5254  -12.5334   18.2566 C   0  0  0  0  0  0
  -28.0551  -12.3257   18.6690 C   0  0  0  0  0  0
  -27.6387  -13.2410   19.8497 C   0  0  2  0  0  0
  -28.6810  -13.2219   20.9894 C   0  0  0  0  0  0
  -25.2494  -13.8201   20.5695 C   0  0  0  0  0  0
  -24.1800  -13.0438   20.9220 C   0  0  0  0  0  0
  -24.6404  -11.6919   20.8752 C   0  0  0  0  0  0
  -23.9081  -10.4293   21.0408 C   0  0  0  0  0  0
  -24.3627   -9.4206   21.9185 C   0  0  0  0  0  0
  -23.6298   -8.2244   22.0754 C   0  0  0  0  0  0
  -22.4279   -8.0283   21.3545 C   0  0  0  0  0  0
  -21.9918   -9.0259   20.4647 C   0  0  0  0  0  0
  -22.7252  -10.2136   20.3057 C   0  0  0  0  0  0
  -21.6855   -6.0737   22.5279 C   0  0  0  0  0  0
  -21.4016   -6.5641   23.8212 C   0  0  0  0  0  0
  -21.3660   -5.6793   24.9174 C   0  0  0  0  0  0
  -21.6044   -4.3056   24.7225 C   0  0  0  0  0  0
  -21.8819   -3.8148   23.4346 C   0  0  0  0  0  0
  -21.9193   -4.6965   22.3402 C   0  0  0  0  0  0
  -22.7819  -13.5215   21.1874 C   0  0  0  0  0  0
  -22.1662   -4.2150   21.0980 F   0  0  0  0  0  0
  -21.5628   -3.4539   25.7737 F   0  0  0  0  0  0
  -29.9674  -13.6345   20.4090 N   0  0  0  0  0  0
  -26.2926  -12.9422   20.3272 N   0  0  0  0  0  0
  -25.9338  -11.6558   20.5750 N   0  0  0  0  0  0
  -22.0467  -12.8204   22.0430 N   0  0  0  0  0  0
  -25.4159  -15.1922   20.4077 N   0  0  0  0  0  0
  -31.7012  -15.0370   20.0840 O   0  0  0  0  0  0
  -21.6642   -6.8881   21.4241 O   0  0  0  0  0  0
  -22.3501  -14.5518   20.6717 O   0  0  0  0  0  0
  -24.6423  -31.8446   23.1891 C   0  0  0  0  0  0
  -25.9201  -32.4696   23.8275 C   0  0  1  0  0  0
  -27.2222  -27.1465   20.1367 C   0  0  0  0  0  0
  -25.5952  -33.8503   24.2191 N   0  0  0  0  0  0
  -23.4452  -30.4646   21.5343 C   0  0  2  0  0  0
  -24.8945  -28.8952   20.1062 C   0  0  0  0  0  0
  -22.7562  -29.4547   22.4859 C   0  0  0  0  0  0
  -18.0304  -28.1395   22.8477 C   0  0  0  0  0  0
  -24.1491  -36.7257   23.2642 C   0  0  0  0  0  0
  -26.0006  -30.7200   21.3877 C   0  0  0  0  0  0
  -26.0702  -29.3332   20.7266 C   0  0  0  0  0  0
  -27.2294  -28.4723   20.7307 C   0  0  0  0  0  0
  -26.0149  -26.8070   19.4828 C   0  0  0  0  0  0
  -24.8793  -27.6449   19.4720 C   0  0  0  0  0  0
  -23.6704  -29.7955   20.1524 C   0  0  0  0  0  0
  -25.4124  -36.3033   24.0315 C   0  0  1  0  0  0
  -20.5916  -28.3719   23.1237 C   0  0  2  0  0  0
  -20.6787  -26.9422   22.5405 C   0  0  0  0  0  0
  -19.5761  -26.6380   21.5212 C   0  0  0  0  0  0
  -18.1943  -26.7933   22.1624 C   0  0  0  0  0  0
  -19.1560  -28.8875   23.2849 C   0  0  0  0  0  0
  -18.9477  -30.1471   23.8875 C   0  0  0  0  0  0
  -17.6473  -30.6591   24.0559 C   0  0  0  0  0  0
  -25.9073  -34.9408   23.5062 C   0  0  0  0  0  0
  -16.5364  -29.9084   23.6336 C   0  0  0  0  0  0
  -16.7288  -28.6503   23.0356 C   0  0  0  0  0  0
  -26.4525  -31.6565   25.0717 C   0  0  0  0  0  0
  -25.3709  -31.3755   26.1413 C   0  0  0  0  0  0
  -27.0394  -30.2962   24.6302 C   0  0  0  0  0  0
  -27.6051  -32.4336   25.7504 C   0  0  0  0  0  0
  -27.5575  -37.1786   24.8466 C   0  0  0  0  0  0
  -21.4255  -29.3045   22.3609 N   0  0  0  0  0  0
  -26.4288  -37.3745   23.9406 N   0  0  0  0  0  0
  -24.7158  -31.0309   22.0921 N   0  0  0  0  0  0
  -23.4210  -28.8096   23.3007 O   0  0  0  0  0  0
  -28.2914  -26.1842   20.2513 O   0  0  0  0  0  0
  -26.5660  -34.8904   22.4641 O   0  0  0  0  0  0
  -23.5545  -32.1320   23.7116 O   0  0  0  0  0  0
  -30.2386  -19.7607   19.4643 C   0  0  0  0  0  0
  -30.4206  -18.3282   19.6444 C   0  0  0  0  0  0
  -28.5869  -19.8077   21.1304 C   0  0  0  0  0  0
  -29.3003  -20.5968   20.1711 C   0  0  0  0  0  0
  -28.7445  -18.3674   21.3101 C   0  0  0  0  0  0
  -29.6658  -17.5365   20.5672 C   0  0  0  0  0  0
  -29.1215  -22.1506   19.8147 C   0  0  0  0  0  0
  -28.5022  -23.3214   20.3160 C   0  0  0  0  0  0
  -27.8609  -17.6966   22.3477 C   0  0  0  0  0  0
  -28.3486  -24.7859   19.5828 C   0  0  0  0  0  0
  -29.6858  -16.0126   20.7326 N   0  0  0  0  0  0
  -31.4832  -12.7218   19.1899 H   0  0  0  0  0  0
  -30.4399  -11.5944   20.0075 H   0  0  0  0  0  0
  -29.8365  -11.7458   17.5690 H   0  0  0  0  0  0
  -29.6220  -13.4728   17.7099 H   0  0  0  0  0  0
  -27.9391  -11.2800   18.9566 H   0  0  0  0  0  0
  -27.3949  -12.4816   17.8151 H   0  0  0  0  0  0
  -27.6165  -14.2534   19.4455 H   0  0  0  0  0  0
  -28.7552  -12.2284   21.4341 H   0  0  0  0  0  0
  -28.3836  -13.8938   21.7959 H   0  0  0  0  0  0
  -25.2771   -9.5681   22.4762 H   0  0  0  0  0  0
  -24.0005   -7.4634   22.7474 H   0  0  0  0  0  0
  -21.0850   -8.8781   19.8952 H   0  0  0  0  0  0
  -22.3711  -10.9677   19.6168 H   0  0  0  0  0  0
  -21.2010   -7.6149   23.9716 H   0  0  0  0  0  0
  -21.1481   -6.0523   25.9077 H   0  0  0  0  0  0
  -22.0598   -2.7610   23.2846 H   0  0  0  0  0  0
  -22.4090  -11.9870   22.4822 H   0  0  0  0  0  0
  -21.1082  -13.1222   22.2634 H   0  0  0  0  0  0
  -24.6389  -15.8372   20.5013 H   0  0  0  0  0  0
  -26.2446  -15.6266   20.0232 H   0  0  0  0  0  0
  -26.7265  -32.5302   23.1002 H   0  0  0  0  0  0
  -25.0075  -33.9618   25.0322 H   0  0  0  0  0  0
  -22.7473  -31.2904   21.3815 H   0  0  0  0  0  0
  -23.3757  -35.9585   23.3294 H   0  0  0  0  0  0
  -24.3576  -36.8900   22.2059 H   0  0  0  0  0  0
  -23.7244  -37.6449   23.6687 H   0  0  0  0  0  0
  -26.1577  -31.4762   20.6174 H   0  0  0  0  0  0
  -26.8706  -30.7673   22.0311 H   0  0  0  0  0  0
  -28.1223  -28.8009   21.2437 H   0  0  0  0  0  0
  -25.8837  -25.8505   19.0062 H   0  0  0  0  0  0
  -23.9784  -27.3012   18.9822 H   0  0  0  0  0  0
  -23.8050  -30.5711   19.3975 H   0  0  0  0  0  0
  -22.7854  -29.2371   19.8423 H   0  0  0  0  0  0
  -25.1312  -36.1861   25.0808 H   0  0  0  0  0  0
  -21.0008  -28.3309   24.1358 H   0  0  0  0  0  0
  -20.5680  -26.2332   23.3623 H   0  0  0  0  0  0
  -21.6653  -26.7428   22.1203 H   0  0  0  0  0  0
  -19.6921  -25.6285   21.1256 H   0  0  0  0  0  0
  -19.6697  -27.3178   20.6732 H   0  0  0  0  0  0
  -17.4211  -26.6676   21.4029 H   0  0  0  0  0  0
  -18.0343  -26.0081   22.9027 H   0  0  0  0  0  0
  -19.7952  -30.7294   24.2233 H   0  0  0  0  0  0
  -17.5026  -31.6269   24.5165 H   0  0  0  0  0  0
  -15.5363  -30.2977   23.7673 H   0  0  0  0  0  0
  -15.8689  -28.0814   22.7083 H   0  0  0  0  0  0
  -24.5896  -30.7094   25.7735 H   0  0  0  0  0  0
  -24.8890  -32.2936   26.4780 H   0  0  0  0  0  0
  -25.7993  -30.8967   27.0227 H   0  0  0  0  0  0
  -26.3014  -29.6680   24.1299 H   0  0  0  0  0  0
  -27.3995  -29.7265   25.4879 H   0  0  0  0  0  0
  -27.8926  -30.4198   23.9629 H   0  0  0  0  0  0
  -27.2639  -33.3653   26.2027 H   0  0  0  0  0  0
  -28.3890  -32.6870   25.0355 H   0  0  0  0  0  0
  -28.0688  -31.8500   26.5467 H   0  0  0  0  0  0
  -28.2587  -38.0087   24.7508 H   0  0  0  0  0  0
  -28.1076  -36.2616   24.6300 H   0  0  0  0  0  0
  -27.2291  -37.1442   25.8869 H   0  0  0  0  0  0
  -20.9464  -29.8758   21.6790 H   0  0  0  0  0  0
  -26.0155  -38.2814   24.1406 H   0  0  0  0  0  0
  -30.8504  -20.2341   18.7093 H   0  0  0  0  0  0
  -31.1450  -17.8286   19.0164 H   0  0  0  0  0  0
  -27.8499  -20.3209   21.7321 H   0  0  0  0  0  0
  -29.5878  -22.3503   18.8597 H   0  0  0  0  0  0
  -27.9998  -23.2502   21.2699 H   0  0  0  0  0  0
  -27.2944  -18.4250   22.9284 H   0  0  0  0  0  0
  -28.4631  -17.1155   23.0467 H   0  0  0  0  0  0
  -27.1478  -17.0270   21.8676 H   0  0  0  0  0  0
  -27.5166  -24.6615   18.8976 H   0  0  0  0  0  0
  -29.2046  -24.8481   18.9106 H   0  0  0  0  0  0
  -28.8237  -15.6702   21.1273 H   0  0  0  0  0  0
  1 25  1  0  0  0
  1 30  2  0  0  0
  1 81  1  0  0  0
  2  3  1  0  0  0
  2 25  1  0  0  0
  2 82  1  0  0  0
  2 83  1  0  0  0
  3  4  1  0  0  0
  3 84  1  0  0  0
  3 85  1  0  0  0
  4  5  1  0  0  0
  4 86  1  0  0  0
  4 87  1  0  0  0
  5  6  1  0  0  0
  5 26  1  0  0  0
  5 88  1  0  0  0
  6 25  1  0  0  0
  6 89  1  0  0  0
  6 90  1  0  0  0
  7  8  2  0  0  0
  7 26  1  0  0  0
  7 29  1  0  0  0
  8  9  1  0  0  0
  8 22  1  0  0  0
  9 10  1  0  0  0
  9 27  2  0  0  0
 10 11  2  0  0  0
 10 15  1  0  0  0
 11 12  1  0  0  0
 11 91  1  0  0  0
 12 13  2  0  0  0
 12 92  1  0  0  0
 13 14  1  0  0  0
 13 31  1  0  0  0
 14 15  2  0  0  0
 14 93  1  0  0  0
 15 94  1  0  0  0
 16 17  2  0  0  0
 16 21  1  0  0  0
 16 31  1  0  0  0
 17 18  1  0  0  0
 17 95  1  0  0  0
 18 19  2  0  0  0
 18 96  1  0  0  0
 19 20  1  0  0  0
 19 24  1  0  0  0
 20 21  2  0  0  0
 20 97  1  0  0  0
 21 23  1  0  0  0
 22 28  1  0  0  0
 22 32  2  0  0  0
 26 27  1  0  0  0
 28 98  1  0  0  0
 28 99  1  0  0  0
 29100  1  0  0  0
 29101  1  0  0  0
 33 34  1  0  0  0
 33 66  1  0  0  0
 33 70  2  0  0  0
 34 36  1  0  0  0
 34 59  1  0  0  0
 34102  1  0  0  0
 35 44  2  0  0  0
 35 45  1  0  0  0
 35 68  1  0  0  0
 36 56  1  0  0  0
 36103  1  0  0  0
 37 39  1  0  0  0
 37 47  1  0  0  0
 37 66  1  0  0  0
 37104  1  0  0  0
 38 43  2  0  0  0
 38 46  1  0  0  0
 38 47  1  0  0  0
 39 64  1  0  0  0
 39 67  2  0  0  0
 40 52  1  0  0  0
 40 53  2  0  0  0
 40 58  1  0  0  0
 41105  1  0  0  0
 41106  1  0  0  0
 41107  1  0  0  0
 41 48  1  0  0  0
 42 43  1  0  0  0
 42 66  1  0  0  0
 42108  1  0  0  0
 42109  1  0  0  0
 43 44  1  0  0  0
 44110  1  0  0  0
 45 46  2  0  0  0
 45111  1  0  0  0
 46112  1  0  0  0
 47113  1  0  0  0
 47114  1  0  0  0
 48 56  1  0  0  0
 48 65  1  0  0  0
 48115  1  0  0  0
 49 50  1  0  0  0
 49 53  1  0  0  0
 49 64  1  0  0  0
 49116  1  0  0  0
 50 51  1  0  0  0
 50117  1  0  0  0
 50118  1  0  0  0
 51 52  1  0  0  0
 51119  1  0  0  0
 51120  1  0  0  0
 52121  1  0  0  0
 52122  1  0  0  0
 53 54  1  0  0  0
 54 55  2  0  0  0
 54123  1  0  0  0
 55 57  1  0  0  0
 55124  1  0  0  0
 56 69  2  0  0  0
 57 58  2  0  0  0
 57125  1  0  0  0
 58126  1  0  0  0
 59 60  1  0  0  0
 59 61  1  0  0  0
 59 62  1  0  0  0
 60127  1  0  0  0
 60128  1  0  0  0
 60129  1  0  0  0
 61130  1  0  0  0
 61131  1  0  0  0
 61132  1  0  0  0
 62133  1  0  0  0
 62134  1  0  0  0
 62135  1  0  0  0
 63 65  1  0  0  0
 63136  1  0  0  0
 63137  1  0  0  0
 63138  1  0  0  0
 64139  1  0  0  0
 65140  1  0  0  0
 68 80  1  0  0  0
 71 72  2  0  0  0
 71 74  1  0  0  0
 71141  1  0  0  0
 72 76  1  0  0  0
 72142  1  0  0  0
 73 74  2  0  0  0
 73 75  1  0  0  0
 73143  1  0  0  0
 74 77  1  0  0  0
 75 76  2  0  0  0
 75 79  1  0  0  0
 76 81  1  0  0  0
 77 78  2  0  0  0
 77144  1  0  0  0
 78 80  1  0  0  0
 78145  1  0  0  0
 79146  1  0  0  0
 79147  1  0  0  0
 79148  1  0  0  0
 80149  1  0  0  0
 80150  1  0  0  0
 81151  1  0  0  0
M  ISO  4   1 100  68 101  80 101  81 100
M  END
> <chiral flag>
0

> <version>
0

> <s_m_source_file>
/data/baiqing/PycharmProjects/Reinvent-master-3.2/result/LINK_invent/BTK/process_docking_weight1_custom_product_contain_oxygen_bond_distance_aromatic_linkinvent_7_9_3/rearranged_h_0125.sdf

> <i_m_source_file_index>
4

> <r_mmod_Potential_Energy-OPLS-2005>
408.698364257812

> <r_mmod_Stretch_Energy-OPLS-2005>
215.310684204102

> <r_mmod_Bend_Energy-OPLS-2005>
258.638916015625

> <r_mmod_Torsional_Energy-OPLS-2005>
216.464721679688

> <r_mmod_Improper_Torsional_Energy-OPLS-2005>
4.63520336151123

> <r_mmod_Van_der_Waal_Energy-OPLS-2005>
132.428573608398

> <r_mmod_Electrostatic_Energy-OPLS-2005>
-386.17919921875

> <r_mmod_Solvation_Energy-OPLS-2005>
-206.719619750977

> <b_mmod_Minimization_Converged-OPLS-2005>
0

> <r_mmod_RMS_Derivative-OPLS-2005>
0.0722123458981514

$$$$
4
                    3D
 Structure written by MMmdl.
157165  0  0  1  0            999 V2000
  -29.9215  -14.2082   19.2538 C   0  0  0  0  0  0
  -30.7362  -12.1536   19.7786 C   0  0  0  0  0  0
  -29.6743  -11.4632   18.9809 C   0  0  0  0  0  0
  -28.3835  -11.5451   19.8963 C   0  0  0  0  0  0
  -27.9480  -13.0035   20.6639 C   0  0  2  0  0  0
  -29.1714  -13.3297   21.3720 C   0  0  0  0  0  0
  -25.7881  -14.5970   21.2276 C   0  0  0  0  0  0
  -24.6747  -14.0711   21.8530 C   0  0  0  0  0  0
  -25.1073  -13.1187   20.9262 C   0  0  0  0  0  0
  -23.7733  -11.0043   19.2530 C   0  0  0  0  0  0
  -24.0706   -9.4436   19.6671 C   0  0  0  0  0  0
  -23.7060   -8.5310   20.8048 C   0  0  0  0  0  0
  -22.3370   -8.3478   21.0030 C   0  0  0  0  0  0
  -21.6846   -9.3884   20.2569 C   0  0  0  0  0  0
  -22.3411  -10.4924   19.4732 C   0  0  0  0  0  0
  -21.7802   -6.2600   22.4605 C   0  0  0  0  0  0
  -21.4802   -6.6865   23.7787 C   0  0  0  0  0  0
  -21.4044   -5.7712   24.8616 C   0  0  0  0  0  0
  -21.6186   -4.3943   24.6593 C   0  0  0  0  0  0
  -21.8946   -3.9386   23.3604 C   0  0  0  0  0  0
  -21.9601   -4.8502   22.2785 C   0  0  0  0  0  0
  -23.2095  -14.4749   22.2615 C   0  0  0  0  0  0
  -22.1716   -4.3368   21.0432 F   0  0  0  0  0  0
  -21.5551   -3.5201   25.6981 F   0  0  0  0  0  0
  -30.1051  -13.3619   20.2577 N   0  0  0  0  0  0
  -26.6998  -13.5023   21.2075 N   0  0  0  0  0  0
  -26.0172  -12.8128   21.9269 N   0  0  0  0  0  0
  -22.5155  -13.5123   22.9146 N   0  0  0  0  0  0
  -26.1163  -15.7864   20.6607 N   0  0  0  0  0  0
  -30.8970  -14.9926   19.2050 O   0  0  0  0  0  0
  -21.6729   -7.1261   21.3466 O   0  0  0  0  0  0
  -22.4822  -15.2098   21.5885 O   0  0  0  0  0  0
  -24.7341  -31.7264   23.1190 C   0  0  0  0  0  0
  -25.9731  -32.4031   23.7812 C   0  0  1  0  0  0
  -26.3863  -25.8998   20.1347 C   0  0  0  0  0  0
  -25.6108  -33.7934   24.1591 N   0  0  0  0  0  0
  -23.5322  -30.3702   21.4987 C   0  0  2  0  0  0
  -24.8297  -28.6203   20.0329 C   0  0  0  0  0  0
  -22.7772  -29.4038   22.4522 C   0  0  0  0  0  0
  -18.0326  -28.1426   22.8440 C   0  0  0  0  0  0
  -24.1505  -36.6963   23.2666 C   0  0  0  0  0  0
  -26.1044  -30.1274   21.5033 C   0  0  0  0  0  0
  -25.9882  -28.6530   20.7987 C   0  0  0  0  0  0
  -26.7660  -27.3064   20.8316 C   0  0  0  0  0  0
  -25.4410  -26.3249   19.1988 C   0  0  0  0  0  0
  -24.6630  -27.5160   19.1944 C   0  0  0  0  0  0
  -23.7626  -29.7260   20.1029 C   0  0  0  0  0  0
  -25.4189  -36.2653   24.0223 C   0  0  1  0  0  0
  -20.5954  -28.3775   23.1079 C   0  0  2  0  0  0
  -20.6764  -26.9404   22.5416 C   0  0  0  0  0  0
  -19.5755  -26.6336   21.5219 C   0  0  0  0  0  0
  -18.1935  -26.7950   22.1607 C   0  0  0  0  0  0
  -19.1597  -28.8935   23.2740 C   0  0  0  0  0  0
  -18.9514  -30.1515   23.8794 C   0  0  0  0  0  0
  -17.6506  -30.6604   24.0546 C   0  0  0  0  0  0
  -25.9226  -34.9061   23.4781 C   0  0  0  0  0  0
  -16.5390  -29.9086   23.6361 C   0  0  0  0  0  0
  -16.7311  -28.6512   23.0370 C   0  0  0  0  0  0
  -26.4715  -31.6434   25.0741 C   0  0  0  0  0  0
  -25.3621  -31.3974   26.1251 C   0  0  0  0  0  0
  -27.0763  -30.2708   24.7221 C   0  0  0  0  0  0
  -27.6040  -32.4498   25.7530 C   0  0  0  0  0  0
  -27.5548  -37.1641   24.8462 C   0  0  0  0  0  0
  -21.4403  -29.2949   22.3318 N   0  0  0  0  0  0
  -26.4246  -37.3500   23.9404 N   0  0  0  0  0  0
  -24.8356  -30.8028   22.0827 N   0  0  0  0  0  0
  -23.4089  -28.7621   23.2956 O   0  0  0  0  0  0
  -26.5903  -24.1940   20.1855 O   0  0  0  0  0  0
  -26.5935  -34.8766   22.4449 O   0  0  0  0  0  0
  -23.6320  -32.0808   23.5826 O   0  0  0  0  0  0
  -24.8983  -13.4599   18.5412 C   0  0  0  0  0  0
  -25.6694  -11.0291   20.4307 C   0  0  0  0  0  0
  -22.9272  -12.8870   20.3249 C   0  0  0  0  0  0
  -25.9429  -12.2144   18.9370 C   0  0  0  0  0  0
  -23.7280  -14.2683   19.3213 C   0  0  0  0  0  0
  -23.8589  -11.4075   21.4017 C   0  0  0  0  0  0
  -25.0623  -20.2183   19.8064 C   0  0  0  0  0  0
  -24.8894  -18.5230   19.3796 C   0  0  0  0  0  0
  -22.8657  -16.8065   18.2635 C   0  0  0  0  0  0
  -27.3748  -12.8966   18.0133 C   0  0  0  0  0  0
  -25.8610  -22.2930   19.5631 C   0  0  0  0  0  0
  -23.8692  -16.5305   19.3852 C   0  0  1  0  0  0
  -28.7579  -13.9476   18.3060 N   0  0  0  0  0  0
  -23.3657  -10.7754   22.4962 F   0  0  0  0  0  0
  -31.6394  -12.3363   19.1898 H   0  0  0  0  0  0
  -31.0393  -11.5447   20.6320 H   0  0  0  0  0  0
  -29.9579  -10.4122   18.9045 H   0  0  0  0  0  0
  -29.6629  -11.7609   17.9360 H   0  0  0  0  0  0
  -28.6081  -10.8962   20.7448 H   0  0  0  0  0  0
  -27.7422  -10.8651   19.3569 H   0  0  0  0  0  0
  -27.7251  -13.8876   20.1373 H   0  0  0  0  0  0
  -29.4394  -12.5850   22.1217 H   0  0  0  0  0  0
  -29.1187  -14.3027   21.8647 H   0  0  0  0  0  0
  -25.0020   -9.0897   19.2408 H   0  0  0  0  0  0
  -24.3524   -7.6986   21.0444 H   0  0  0  0  0  0
  -20.6073   -9.3266   20.1906 H   0  0  0  0  0  0
  -21.5986  -11.1436   19.0335 H   0  0  0  0  0  0
  -21.2824   -7.7328   23.9598 H   0  0  0  0  0  0
  -21.1762   -6.1330   25.8539 H   0  0  0  0  0  0
  -22.0433   -2.8849   23.1818 H   0  0  0  0  0  0
  -22.9893  -12.6984   23.2836 H   0  0  0  0  0  0
  -21.5216  -13.6138   23.0545 H   0  0  0  0  0  0
  -25.5046  -16.5924   20.6607 H   0  0  0  0  0  0
  -27.0161  -15.9802   20.2412 H   0  0  0  0  0  0
  -26.7814  -32.4224   23.0484 H   0  0  0  0  0  0
  -25.0071  -33.8885   24.9624 H   0  0  0  0  0  0
  -22.8951  -31.2423   21.3376 H   0  0  0  0  0  0
  -23.3815  -35.9237   23.3205 H   0  0  0  0  0  0
  -24.3550  -36.8797   22.2106 H   0  0  0  0  0  0
  -23.7224  -37.6059   23.6889 H   0  0  0  0  0  0
  -26.4821  -30.8043   20.7363 H   0  0  0  0  0  0
  -26.9108  -30.0734   22.2180 H   0  0  0  0  0  0
  -27.5759  -27.2661   21.5467 H   0  0  0  0  0  0
  -25.0885  -25.5589   18.5224 H   0  0  0  0  0  0
  -23.8262  -27.5356   18.5093 H   0  0  0  0  0  0
  -24.0538  -30.5047   19.3965 H   0  0  0  0  0  0
  -22.8168  -29.3332   19.7261 H   0  0  0  0  0  0
  -25.1429  -36.1309   25.0710 H   0  0  0  0  0  0
  -21.0051  -28.3443   24.1200 H   0  0  0  0  0  0
  -20.5587  -26.2410   23.3706 H   0  0  0  0  0  0
  -21.6623  -26.7287   22.1259 H   0  0  0  0  0  0
  -19.6891  -25.6218   21.1318 H   0  0  0  0  0  0
  -19.6717  -27.3089   20.6706 H   0  0  0  0  0  0
  -17.4209  -26.6714   21.4000 H   0  0  0  0  0  0
  -18.0289  -26.0115   22.9018 H   0  0  0  0  0  0
  -19.7998  -30.7350   24.2110 H   0  0  0  0  0  0
  -17.5064  -31.6273   24.5168 H   0  0  0  0  0  0
  -15.5389  -30.2961   23.7746 H   0  0  0  0  0  0
  -15.8710  -28.0805   22.7138 H   0  0  0  0  0  0
  -24.5859  -30.7257   25.7568 H   0  0  0  0  0  0
  -24.8764  -32.3266   26.4238 H   0  0  0  0  0  0
  -25.7654  -30.9432   27.0310 H   0  0  0  0  0  0
  -26.3447  -29.5924   24.2830 H   0  0  0  0  0  0
  -27.4423  -29.7691   25.6191 H   0  0  0  0  0  0
  -27.9379  -30.3650   24.0610 H   0  0  0  0  0  0
  -27.2498  -33.3965   26.1624 H   0  0  0  0  0  0
  -28.4049  -32.6798   25.0491 H   0  0  0  0  0  0
  -28.0496  -31.9002   26.5832 H   0  0  0  0  0  0
  -28.2471  -38.0020   24.7534 H   0  0  0  0  0  0
  -28.1137  -36.2532   24.6259 H   0  0  0  0  0  0
  -27.2261  -37.1217   25.8861 H   0  0  0  0  0  0
  -20.9738  -29.8642   21.6395 H   0  0  0  0  0  0
  -25.9999  -38.2504   24.1453 H   0  0  0  0  0  0
  -25.2881  -14.1618   17.8223 H   0  0  0  0  0  0
  -26.3663  -10.3055   20.8296 H   0  0  0  0  0  0
  -21.8982  -13.0658   20.6108 H   0  0  0  0  0  0
  -24.2828  -20.3889   20.5350 H   0  0  0  0  0  0
  -25.6442  -18.3624   18.6225 H   0  0  0  0  0  0
  -21.9428  -16.2480   18.4187 H   0  0  0  0  0  0
  -23.2780  -16.5099   17.2991 H   0  0  0  0  0  0
  -22.6059  -17.8631   18.2048 H   0  0  0  0  0  0
  -26.9663  -13.4138   17.1489 H   0  0  0  0  0  0
  -27.7101  -12.0361   17.4371 H   0  0  0  0  0  0
  -25.0391  -22.6713   18.9558 H   0  0  0  0  0  0
  -26.6388  -22.0692   18.8334 H   0  0  0  0  0  0
  -23.3335  -16.7901   20.2846 H   0  0  0  0  0  0
  -28.8265  -14.6119   17.5479 H   0  0  0  0  0  0
  1 25  1  0  0  0
  1 30  2  0  0  0
  1 83  1  0  0  0
  2  3  1  0  0  0
  2 25  1  0  0  0
  2 85  1  0  0  0
  2 86  1  0  0  0
  3  4  1  0  0  0
  3 87  1  0  0  0
  3 88  1  0  0  0
  4  5  1  0  0  0
  4 89  1  0  0  0
  4 90  1  0  0  0
  5  6  1  0  0  0
  5 26  1  0  0  0
  5 91  1  0  0  0
  6 25  1  0  0  0
  6 92  1  0  0  0
  6 93  1  0  0  0
  7  8  2  0  0  0
  7 26  1  0  0  0
  7 29  1  0  0  0
  8  9  1  0  0  0
  8 22  1  0  0  0
  9 10  1  0  0  0
  9 27  2  0  0  0
 10 11  2  0  0  0
 10 15  1  0  0  0
 11 12  1  0  0  0
 11 94  1  0  0  0
 12 13  2  0  0  0
 12 95  1  0  0  0
 13 14  1  0  0  0
 13 31  1  0  0  0
 14 15  2  0  0  0
 14 96  1  0  0  0
 15 97  1  0  0  0
 16 17  2  0  0  0
 16 21  1  0  0  0
 16 31  1  0  0  0
 17 18  1  0  0  0
 17 98  1  0  0  0
 18 19  2  0  0  0
 18 99  1  0  0  0
 19 20  1  0  0  0
 19 24  1  0  0  0
 20 21  2  0  0  0
 20100  1  0  0  0
 21 23  1  0  0  0
 22 28  1  0  0  0
 22 32  2  0  0  0
 26 27  1  0  0  0
 28101  1  0  0  0
 28102  1  0  0  0
 29103  1  0  0  0
 29104  1  0  0  0
 33 34  1  0  0  0
 33 66  1  0  0  0
 33 70  2  0  0  0
 34 36  1  0  0  0
 34 59  1  0  0  0
 34105  1  0  0  0
 35 44  2  0  0  0
 35 45  1  0  0  0
 35 68  1  0  0  0
 36 56  1  0  0  0
 36106  1  0  0  0
 37 39  1  0  0  0
 37 47  1  0  0  0
 37 66  1  0  0  0
 37107  1  0  0  0
 38 43  2  0  0  0
 38 46  1  0  0  0
 38 47  1  0  0  0
 39 64  1  0  0  0
 39 67  2  0  0  0
 40 52  1  0  0  0
 40 53  2  0  0  0
 40 58  1  0  0  0
 41108  1  0  0  0
 41109  1  0  0  0
 41110  1  0  0  0
 41 48  1  0  0  0
 42 43  1  0  0  0
 42 66  1  0  0  0
 42111  1  0  0  0
 42112  1  0  0  0
 43 44  1  0  0  0
 44113  1  0  0  0
 45 46  2  0  0  0
 45114  1  0  0  0
 46115  1  0  0  0
 47116  1  0  0  0
 47117  1  0  0  0
 48 56  1  0  0  0
 48 65  1  0  0  0
 48118  1  0  0  0
 49 50  1  0  0  0
 49 53  1  0  0  0
 49 64  1  0  0  0
 49119  1  0  0  0
 50 51  1  0  0  0
 50120  1  0  0  0
 50121  1  0  0  0
 51 52  1  0  0  0
 51122  1  0  0  0
 51123  1  0  0  0
 52124  1  0  0  0
 52125  1  0  0  0
 53 54  1  0  0  0
 54 55  2  0  0  0
 54126  1  0  0  0
 55 57  1  0  0  0
 55127  1  0  0  0
 56 69  2  0  0  0
 57 58  2  0  0  0
 57128  1  0  0  0
 58129  1  0  0  0
 59 60  1  0  0  0
 59 61  1  0  0  0
 59 62  1  0  0  0
 60130  1  0  0  0
 60131  1  0  0  0
 60132  1  0  0  0
 61133  1  0  0  0
 61134  1  0  0  0
 61135  1  0  0  0
 62136  1  0  0  0
 62137  1  0  0  0
 62138  1  0  0  0
 63 65  1  0  0  0
 63139  1  0  0  0
 63140  1  0  0  0
 63141  1  0  0  0
 64142  1  0  0  0
 65143  1  0  0  0
 68 81  1  0  0  0
 71 74  2  0  0  0
 71 75  1  0  0  0
 71144  1  0  0  0
 72 74  1  0  0  0
 72 76  2  0  0  0
 72145  1  0  0  0
 73 75  2  0  0  0
 73 76  1  0  0  0
 73146  1  0  0  0
 74 80  1  0  0  0
 75 82  1  0  0  0
 76 84  1  0  0  0
 77 78  2  0  0  0
 77 81  1  0  0  0
 77147  1  0  0  0
 78 82  1  0  0  0
 78148  1  0  0  0
 79149  1  0  0  0
 79150  1  0  0  0
 79151  1  0  0  0
 79 82  1  0  0  0
 80 83  1  0  0  0
 80152  1  0  0  0
 80153  1  0  0  0
 81154  1  0  0  0
 81155  1  0  0  0
 82156  1  0  0  0
 83157  1  0  0  0
M  ISO  4   1 100  68 101  81 101  83 100
M  END
> <chiral flag>
0

> <version>
0

> <s_m_source_file>
/data/baiqing/PycharmProjects/Reinvent-master-3.2/result/LINK_invent/BTK/process_docking_weight1_custom_product_contain_oxygen_bond_distance_aromatic_linkinvent_7_9_3/rearranged_h_0125.sdf

> <i_m_source_file_index>
5

> <r_mmod_Potential_Energy-OPLS-2005>
22484.091796875

> <r_mmod_Stretch_Energy-OPLS-2005>
10725.970703125

> <r_mmod_Bend_Energy-OPLS-2005>
2218.9775390625

> <r_mmod_Torsional_Energy-OPLS-2005>
878.314819335938

> <r_mmod_Improper_Torsional_Energy-OPLS-2005>
127.191909790039

> <r_mmod_Van_der_Waal_Energy-OPLS-2005>
3482.74633789062

> <r_mmod_Electrostatic_Energy-OPLS-2005>
-427.770477294922

> <r_mmod_Solvation_Energy-OPLS-2005>
-204.934509277344

> <b_mmod_Minimization_Converged-OPLS-2005>
0

> <r_mmod_RMS_Derivative-OPLS-2005>
1.70891797542572

$$$$
5
                    3D
 Structure written by MMmdl.
162171  0  0  1  0            999 V2000
  -30.6048  -14.7386   20.3829 C   0  0  0  0  0  0
  -30.4416  -12.4355   19.4349 C   0  0  0  0  0  0
  -29.5001  -12.4571   18.2127 C   0  0  0  0  0  0
  -28.0281  -12.2980   18.6490 C   0  0  0  0  0  0
  -27.6385  -13.2210   19.8356 C   0  0  2  0  0  0
  -28.7007  -13.1765   20.9537 C   0  0  0  0  0  0
  -25.2570  -13.8187   20.5736 C   0  0  0  0  0  0
  -24.1839  -13.0457   20.9239 C   0  0  0  0  0  0
  -24.6407  -11.6917   20.8784 C   0  0  0  0  0  0
  -23.9062  -10.4313   21.0456 C   0  0  0  0  0  0
  -24.3612   -9.4215   21.9214 C   0  0  0  0  0  0
  -23.6291   -8.2247   22.0750 C   0  0  0  0  0  0
  -22.4274   -8.0293   21.3548 C   0  0  0  0  0  0
  -21.9918   -9.0279   20.4652 C   0  0  0  0  0  0
  -22.7242  -10.2166   20.3094 C   0  0  0  0  0  0
  -21.6853   -6.0741   22.5272 C   0  0  0  0  0  0
  -21.4011   -6.5639   23.8213 C   0  0  0  0  0  0
  -21.3665   -5.6792   24.9177 C   0  0  0  0  0  0
  -21.6038   -4.3051   24.7227 C   0  0  0  0  0  0
  -21.8813   -3.8145   23.4354 C   0  0  0  0  0  0
  -21.9202   -4.6966   22.3410 C   0  0  0  0  0  0
  -22.7859  -13.5258   21.1914 C   0  0  0  0  0  0
  -22.1673   -4.2146   21.0996 F   0  0  0  0  0  0
  -21.5632   -3.4545   25.7746 F   0  0  0  0  0  0
  -29.9902  -13.5124   20.3345 N   0  0  0  0  0  0
  -26.2964  -12.9365   20.3301 N   0  0  0  0  0  0
  -25.9337  -11.6517   20.5814 N   0  0  0  0  0  0
  -22.0483  -12.8255   22.0453 N   0  0  0  0  0  0
  -25.4305  -15.1902   20.4192 N   0  0  0  0  0  0
  -31.8312  -14.8325   20.2842 O   0  0  0  0  0  0
  -21.6640   -6.8884   21.4244 O   0  0  0  0  0  0
  -22.3548  -14.5549   20.6719 O   0  0  0  0  0  0
  -24.6309  -31.8550   23.1966 C   0  0  0  0  0  0
  -25.9152  -32.4754   23.8315 C   0  0  1  0  0  0
  -27.2290  -27.2659   20.1254 C   0  0  0  0  0  0
  -25.5932  -33.8554   24.2259 N   0  0  0  0  0  0
  -23.4303  -30.4727   21.5416 C   0  0  2  0  0  0
  -24.8797  -28.9164   20.1118 C   0  0  0  0  0  0
  -22.7530  -29.4573   22.4929 C   0  0  0  0  0  0
  -18.0332  -28.1387   22.8491 C   0  0  0  0  0  0
  -24.1483  -36.7276   23.2634 C   0  0  0  0  0  0
  -25.9746  -30.7690   21.3735 C   0  0  0  0  0  0
  -26.0512  -29.3883   20.7187 C   0  0  0  0  0  0
  -27.2334  -28.5776   20.7069 C   0  0  0  0  0  0
  -26.0331  -26.8561   19.4986 C   0  0  0  0  0  0
  -24.8753  -27.6590   19.4887 C   0  0  0  0  0  0
  -23.6490  -29.8040   20.1595 C   0  0  0  0  0  0
  -25.4114  -36.3070   24.0327 C   0  0  1  0  0  0
  -20.5922  -28.3723   23.1308 C   0  0  2  0  0  0
  -20.6805  -26.9420   22.5499 C   0  0  0  0  0  0
  -19.5824  -26.6346   21.5247 C   0  0  0  0  0  0
  -18.2006  -26.7900   22.1664 C   0  0  0  0  0  0
  -19.1564  -28.8888   23.2873 C   0  0  0  0  0  0
  -18.9467  -30.1510   23.8871 C   0  0  0  0  0  0
  -17.6454  -30.6603   24.0530 C   0  0  0  0  0  0
  -25.9065  -34.9440   23.5098 C   0  0  0  0  0  0
  -16.5361  -29.9082   23.6298 C   0  0  0  0  0  0
  -16.7307  -28.6481   23.0360 C   0  0  0  0  0  0
  -26.4518  -31.6582   25.0710 C   0  0  0  0  0  0
  -25.3718  -31.3747   26.1418 C   0  0  0  0  0  0
  -27.0364  -30.2991   24.6200 C   0  0  0  0  0  0
  -27.6075  -32.4314   25.7486 C   0  0  0  0  0  0
  -27.5582  -37.1789   24.8470 C   0  0  0  0  0  0
  -21.4244  -29.3028   22.3650 N   0  0  0  0  0  0
  -26.4300  -37.3773   23.9414 N   0  0  0  0  0  0
  -24.6978  -31.0505   22.0947 N   0  0  0  0  0  0
  -23.4219  -28.8133   23.3043 O   0  0  0  0  0  0
  -28.3216  -26.3716   20.1167 O   0  0  0  0  0  0
  -26.5634  -34.8928   22.4659 O   0  0  0  0  0  0
  -23.5459  -32.1377   23.7246 O   0  0  0  0  0  0
  -28.5294  -19.5225   21.8113 C   0  0  0  0  0  0
  -29.7774  -18.4582   20.0337 C   0  0  0  0  0  0
  -28.9340  -17.1096   21.8879 C   0  0  0  0  0  0
  -29.2716  -19.7041   20.6214 C   0  0  0  0  0  0
  -28.3870  -18.2755   22.4485 C   0  0  0  0  0  0
  -29.6101  -17.1442   20.6559 C   0  0  0  0  0  0
  -29.8806  -21.3444   18.8108 C   0  0  0  0  0  0
  -29.3875  -21.1703   20.0580 C   0  0  0  0  0  0
  -28.9996  -22.4832   20.7533 C   0  0  0  0  0  0
  -28.6958  -23.6628   20.0734 C   0  0  0  0  0  0
  -29.9607  -22.6992   18.1094 C   0  0  0  0  0  0
  -28.8469  -23.6704   18.5649 C   0  0  0  0  0  0
  -27.5926  -18.1950   23.7337 C   0  0  0  0  0  0
  -29.0638  -22.5848   22.2707 C   0  0  0  0  0  0
  -28.1231  -25.0134   20.7231 C   0  0  0  0  0  0
  -29.8155  -15.8214   20.0400 N   0  0  0  0  0  0
  -31.4771  -12.5741   19.1164 H   0  0  0  0  0  0
  -30.4012  -11.4708   19.9401 H   0  0  0  0  0  0
  -29.7687  -11.6538   17.5257 H   0  0  0  0  0  0
  -29.6240  -13.3883   17.6576 H   0  0  0  0  0  0
  -27.8934  -11.2553   18.9399 H   0  0  0  0  0  0
  -27.3631  -12.4577   17.8013 H   0  0  0  0  0  0
  -27.6175  -14.2332   19.4335 H   0  0  0  0  0  0
  -28.7430  -12.1878   21.4149 H   0  0  0  0  0  0
  -28.4549  -13.8831   21.7476 H   0  0  0  0  0  0
  -25.2763   -9.5703   22.4779 H   0  0  0  0  0  0
  -23.9997   -7.4645   22.7455 H   0  0  0  0  0  0
  -21.0862   -8.8846   19.8937 H   0  0  0  0  0  0
  -22.3741  -10.9720   19.6208 H   0  0  0  0  0  0
  -21.1971   -7.6148   23.9717 H   0  0  0  0  0  0
  -21.1499   -6.0526   25.9074 H   0  0  0  0  0  0
  -22.0574   -2.7603   23.2865 H   0  0  0  0  0  0
  -22.4050  -11.9924   22.4908 H   0  0  0  0  0  0
  -21.1091  -13.1283   22.2619 H   0  0  0  0  0  0
  -24.6706  -15.8500   20.5437 H   0  0  0  0  0  0
  -26.3045  -15.6343   20.1714 H   0  0  0  0  0  0
  -26.7202  -32.5429   23.1044 H   0  0  0  0  0  0
  -25.0087  -33.9701   25.0411 H   0  0  0  0  0  0
  -22.7258  -31.2934   21.3930 H   0  0  0  0  0  0
  -23.3762  -35.9591   23.3303 H   0  0  0  0  0  0
  -24.3572  -36.8889   22.2045 H   0  0  0  0  0  0
  -23.7241  -37.6481   23.6652 H   0  0  0  0  0  0
  -26.1085  -31.5277   20.5995 H   0  0  0  0  0  0
  -26.8556  -30.8233   22.0023 H   0  0  0  0  0  0
  -28.1359  -28.9371   21.1822 H   0  0  0  0  0  0
  -25.9928  -25.8886   19.0202 H   0  0  0  0  0  0
  -23.9794  -27.2916   19.0070 H   0  0  0  0  0  0
  -23.7697  -30.5799   19.4023 H   0  0  0  0  0  0
  -22.7691  -29.2333   19.8572 H   0  0  0  0  0  0
  -25.1285  -36.1908   25.0821 H   0  0  0  0  0  0
  -20.9996  -28.3344   24.1453 H   0  0  0  0  0  0
  -20.5610  -26.2353   23.3720 H   0  0  0  0  0  0
  -21.6708  -26.7392   22.1415 H   0  0  0  0  0  0
  -19.6988  -25.6241   21.1341 H   0  0  0  0  0  0
  -19.6814  -27.3094   20.6741 H   0  0  0  0  0  0
  -17.4265  -26.6566   21.4086 H   0  0  0  0  0  0
  -18.0476  -26.0089   22.9117 H   0  0  0  0  0  0
  -19.7937  -30.7367   24.2203 H   0  0  0  0  0  0
  -17.4981  -31.6314   24.5071 H   0  0  0  0  0  0
  -15.5358  -30.2966   23.7582 H   0  0  0  0  0  0
  -15.8731  -28.0756   22.7111 H   0  0  0  0  0  0
  -24.5905  -30.7089   25.7751 H   0  0  0  0  0  0
  -24.8892  -32.2908   26.4807 H   0  0  0  0  0  0
  -25.8006  -30.8958   27.0221 H   0  0  0  0  0  0
  -26.2952  -29.6732   24.1208 H   0  0  0  0  0  0
  -27.4032  -29.7276   25.4740 H   0  0  0  0  0  0
  -27.8834  -30.4287   23.9463 H   0  0  0  0  0  0
  -27.2704  -33.3615   26.2073 H   0  0  0  0  0  0
  -28.3884  -32.6857   25.0313 H   0  0  0  0  0  0
  -28.0734  -31.8423   26.5393 H   0  0  0  0  0  0
  -28.2592  -38.0092   24.7504 H   0  0  0  0  0  0
  -28.1089  -36.2616   24.6295 H   0  0  0  0  0  0
  -27.2302  -37.1436   25.8879 H   0  0  0  0  0  0
  -20.9454  -29.8722   21.6804 H   0  0  0  0  0  0
  -26.0170  -38.2850   24.1413 H   0  0  0  0  0  0
  -28.0082  -20.3508   22.2589 H   0  0  0  0  0  0
  -30.2767  -18.4939   19.0762 H   0  0  0  0  0  0
  -28.7554  -16.1628   22.3747 H   0  0  0  0  0  0
  -30.2358  -20.5067   18.2315 H   0  0  0  0  0  0
  -29.9091  -22.5586   17.0282 H   0  0  0  0  0  0
  -30.9404  -23.1316   18.3179 H   0  0  0  0  0  0
  -29.0628  -24.6793   18.2109 H   0  0  0  0  0  0
  -27.8908  -23.3833   18.1275 H   0  0  0  0  0  0
  -28.0994  -18.7536   24.5212 H   0  0  0  0  0  0
  -27.4706  -17.1656   24.0716 H   0  0  0  0  0  0
  -26.6003  -18.6259   23.5917 H   0  0  0  0  0  0
  -29.5504  -21.7297   22.7335 H   0  0  0  0  0  0
  -28.0699  -22.7157   22.7025 H   0  0  0  0  0  0
  -29.6874  -23.4309   22.5551 H   0  0  0  0  0  0
  -28.5089  -25.1061   21.7365 H   0  0  0  0  0  0
  -27.0571  -24.8328   20.8637 H   0  0  0  0  0  0
  -28.9702  -15.4875   19.6052 H   0  0  0  0  0  0
  1 25  1  0  0  0
  1 30  2  0  0  0
  1 86  1  0  0  0
  2  3  1  0  0  0
  2 25  1  0  0  0
  2 87  1  0  0  0
  2 88  1  0  0  0
  3  4  1  0  0  0
  3 89  1  0  0  0
  3 90  1  0  0  0
  4  5  1  0  0  0
  4 91  1  0  0  0
  4 92  1  0  0  0
  5  6  1  0  0  0
  5 26  1  0  0  0
  5 93  1  0  0  0
  6 25  1  0  0  0
  6 94  1  0  0  0
  6 95  1  0  0  0
  7  8  2  0  0  0
  7 26  1  0  0  0
  7 29  1  0  0  0
  8  9  1  0  0  0
  8 22  1  0  0  0
  9 10  1  0  0  0
  9 27  2  0  0  0
 10 11  2  0  0  0
 10 15  1  0  0  0
 11 12  1  0  0  0
 11 96  1  0  0  0
 12 13  2  0  0  0
 12 97  1  0  0  0
 13 14  1  0  0  0
 13 31  1  0  0  0
 14 15  2  0  0  0
 14 98  1  0  0  0
 15 99  1  0  0  0
 16 17  2  0  0  0
 16 21  1  0  0  0
 16 31  1  0  0  0
 17 18  1  0  0  0
 17100  1  0  0  0
 18 19  2  0  0  0
 18101  1  0  0  0
 19 20  1  0  0  0
 19 24  1  0  0  0
 20 21  2  0  0  0
 20102  1  0  0  0
 21 23  1  0  0  0
 22 28  1  0  0  0
 22 32  2  0  0  0
 26 27  1  0  0  0
 28103  1  0  0  0
 28104  1  0  0  0
 29105  1  0  0  0
 29106  1  0  0  0
 33 34  1  0  0  0
 33 66  1  0  0  0
 33 70  2  0  0  0
 34 36  1  0  0  0
 34 59  1  0  0  0
 34107  1  0  0  0
 35 44  2  0  0  0
 35 45  1  0  0  0
 35 68  1  0  0  0
 36 56  1  0  0  0
 36108  1  0  0  0
 37 39  1  0  0  0
 37 47  1  0  0  0
 37 66  1  0  0  0
 37109  1  0  0  0
 38 43  2  0  0  0
 38 46  1  0  0  0
 38 47  1  0  0  0
 39 64  1  0  0  0
 39 67  2  0  0  0
 40 52  1  0  0  0
 40 53  2  0  0  0
 40 58  1  0  0  0
 41110  1  0  0  0
 41111  1  0  0  0
 41112  1  0  0  0
 41 48  1  0  0  0
 42 43  1  0  0  0
 42 66  1  0  0  0
 42113  1  0  0  0
 42114  1  0  0  0
 43 44  1  0  0  0
 44115  1  0  0  0
 45 46  2  0  0  0
 45116  1  0  0  0
 46117  1  0  0  0
 47118  1  0  0  0
 47119  1  0  0  0
 48 56  1  0  0  0
 48 65  1  0  0  0
 48120  1  0  0  0
 49 50  1  0  0  0
 49 53  1  0  0  0
 49 64  1  0  0  0
 49121  1  0  0  0
 50 51  1  0  0  0
 50122  1  0  0  0
 50123  1  0  0  0
 51 52  1  0  0  0
 51124  1  0  0  0
 51125  1  0  0  0
 52126  1  0  0  0
 52127  1  0  0  0
 53 54  1  0  0  0
 54 55  2  0  0  0
 54128  1  0  0  0
 55 57  1  0  0  0
 55129  1  0  0  0
 56 69  2  0  0  0
 57 58  2  0  0  0
 57130  1  0  0  0
 58131  1  0  0  0
 59 60  1  0  0  0
 59 61  1  0  0  0
 59 62  1  0  0  0
 60132  1  0  0  0
 60133  1  0  0  0
 60134  1  0  0  0
 61135  1  0  0  0
 61136  1  0  0  0
 61137  1  0  0  0
 62138  1  0  0  0
 62139  1  0  0  0
 62140  1  0  0  0
 63 65  1  0  0  0
 63141  1  0  0  0
 63142  1  0  0  0
 63143  1  0  0  0
 64144  1  0  0  0
 65145  1  0  0  0
 68 85  1  0  0  0
 71 74  2  0  0  0
 71 75  1  0  0  0
 71146  1  0  0  0
 72 74  1  0  0  0
 72 76  2  0  0  0
 72147  1  0  0  0
 73 75  2  0  0  0
 73 76  1  0  0  0
 73148  1  0  0  0
 74 78  1  0  0  0
 75 83  1  0  0  0
 76 86  1  0  0  0
 77 78  2  0  0  0
 77 81  1  0  0  0
 77149  1  0  0  0
 78 79  1  0  0  0
 79 80  2  0  0  0
 79 84  1  0  0  0
 80 82  1  0  0  0
 80 85  1  0  0  0
 81 82  1  0  0  0
 81150  1  0  0  0
 81151  1  0  0  0
 82152  1  0  0  0
 82153  1  0  0  0
 83154  1  0  0  0
 83155  1  0  0  0
 83156  1  0  0  0
 84157  1  0  0  0
 84158  1  0  0  0
 84159  1  0  0  0
 85160  1  0  0  0
 85161  1  0  0  0
 86162  1  0  0  0
M  ISO  4   1 100  68 101  85 101  86 100
M  END
> <chiral flag>
0

> <version>
0

> <s_m_source_file>
/data/baiqing/PycharmProjects/Reinvent-master-3.2/result/LINK_invent/BTK/process_docking_weight1_custom_product_contain_oxygen_bond_distance_aromatic_linkinvent_7_9_3/rearranged_h_0125.sdf

> <i_m_source_file_index>
6

> <r_mmod_Potential_Energy-OPLS-2005>
332.65283203125

> <r_mmod_Stretch_Energy-OPLS-2005>
133.06706237793

> <r_mmod_Bend_Energy-OPLS-2005>
174.368988037109

> <r_mmod_Torsional_Energy-OPLS-2005>
310.104034423828

> <r_mmod_Improper_Torsional_Energy-OPLS-2005>
19.6092700958252

> <r_mmod_Van_der_Waal_Energy-OPLS-2005>
150.494827270508

> <r_mmod_Electrostatic_Energy-OPLS-2005>
-345.515319824219

> <r_mmod_Solvation_Energy-OPLS-2005>
-201.739776611328

> <b_mmod_Minimization_Converged-OPLS-2005>
0

> <r_mmod_RMS_Derivative-OPLS-2005>
4.24926376342773

$$$$
6
                    3D
 Structure written by MMmdl.
153161  0  0  1  0            999 V2000
  -30.6759  -14.6279   20.4462 C   0  0  0  0  0  0
  -30.4125  -12.3701   19.4766 C   0  0  0  0  0  0
  -29.5051  -12.4887   18.2337 C   0  0  0  0  0  0
  -28.0258  -12.3400   18.6367 C   0  0  0  0  0  0
  -27.6434  -13.2302   19.8499 C   0  0  2  0  0  0
  -28.6835  -13.1362   20.9862 C   0  0  0  0  0  0
  -25.2517  -13.8206   20.5688 C   0  0  0  0  0  0
  -24.1804  -13.0451   20.9194 C   0  0  0  0  0  0
  -24.6389  -11.6928   20.8736 C   0  0  0  0  0  0
  -23.9067  -10.4301   21.0403 C   0  0  0  0  0  0
  -24.3619   -9.4216   21.9180 C   0  0  0  0  0  0
  -23.6295   -8.2250   22.0752 C   0  0  0  0  0  0
  -22.4276   -8.0284   21.3544 C   0  0  0  0  0  0
  -21.9911   -9.0257   20.4646 C   0  0  0  0  0  0
  -22.7239  -10.2137   20.3054 C   0  0  0  0  0  0
  -21.6856   -6.0736   22.5279 C   0  0  0  0  0  0
  -21.4017   -6.5640   23.8212 C   0  0  0  0  0  0
  -21.3661   -5.6791   24.9174 C   0  0  0  0  0  0
  -21.6044   -4.3054   24.7225 C   0  0  0  0  0  0
  -21.8818   -3.8146   23.4346 C   0  0  0  0  0  0
  -21.9194   -4.6963   22.3401 C   0  0  0  0  0  0
  -22.7826  -13.5231   21.1863 C   0  0  0  0  0  0
  -22.1661   -4.2149   21.0979 F   0  0  0  0  0  0
  -21.5629   -3.4537   25.7737 F   0  0  0  0  0  0
  -30.0034  -13.4331   20.4197 N   0  0  0  0  0  0
  -26.2940  -12.9413   20.3266 N   0  0  0  0  0  0
  -25.9318  -11.6555   20.5734 N   0  0  0  0  0  0
  -22.0475  -12.8219   22.0422 N   0  0  0  0  0  0
  -25.4224  -15.1928   20.4128 N   0  0  0  0  0  0
  -31.8748  -14.6439   20.1544 O   0  0  0  0  0  0
  -21.6643   -6.8879   21.4240 O   0  0  0  0  0  0
  -22.3505  -14.5536   20.6714 O   0  0  0  0  0  0
  -24.6237  -31.8613   23.2036 C   0  0  0  0  0  0
  -25.9094  -32.4785   23.8358 C   0  0  1  0  0  0
  -27.2232  -27.3391   20.1021 C   0  0  0  0  0  0
  -25.5917  -33.8586   24.2286 N   0  0  0  0  0  0
  -23.4151  -30.4857   21.5461 C   0  0  2  0  0  0
  -24.8585  -28.9419   20.1106 C   0  0  0  0  0  0
  -22.7457  -29.4633   22.4946 C   0  0  0  0  0  0
  -18.0283  -28.1381   22.8488 C   0  0  0  0  0  0
  -24.1488  -36.7299   23.2639 C   0  0  0  0  0  0
  -25.9540  -30.7972   21.3707 C   0  0  0  0  0  0
  -26.0257  -29.4258   20.7131 C   0  0  0  0  0  0
  -27.2072  -28.6325   20.7047 C   0  0  0  0  0  0
  -26.0231  -26.8892   19.5043 C   0  0  0  0  0  0
  -24.8572  -27.6773   19.5025 C   0  0  0  0  0  0
  -23.6269  -29.8210   20.1605 C   0  0  0  0  0  0
  -25.4113  -36.3089   24.0332 C   0  0  1  0  0  0
  -20.5881  -28.3682   23.1291 C   0  0  2  0  0  0
  -20.6772  -26.9409   22.5412 C   0  0  0  0  0  0
  -19.5749  -26.6385   21.5211 C   0  0  0  0  0  0
  -18.1929  -26.7926   22.1623 C   0  0  0  0  0  0
  -19.1535  -28.8848   23.2886 C   0  0  0  0  0  0
  -18.9459  -30.1451   23.8903 C   0  0  0  0  0  0
  -17.6459  -30.6585   24.0563 C   0  0  0  0  0  0
  -25.9048  -34.9457   23.5110 C   0  0  0  0  0  0
  -16.5351  -29.9085   23.6327 C   0  0  0  0  0  0
  -16.7272  -28.6501   23.0351 C   0  0  0  0  0  0
  -26.4488  -31.6591   25.0722 C   0  0  0  0  0  0
  -25.3728  -31.3721   26.1453 C   0  0  0  0  0  0
  -27.0330  -30.3020   24.6159 C   0  0  0  0  0  0
  -27.6052  -32.4324   25.7489 C   0  0  0  0  0  0
  -27.5580  -37.1805   24.8465 C   0  0  0  0  0  0
  -21.4174  -29.3040   22.3688 N   0  0  0  0  0  0
  -26.4294  -37.3781   23.9408 N   0  0  0  0  0  0
  -24.6832  -31.0645   22.0973 N   0  0  0  0  0  0
  -23.4194  -28.8173   23.3016 O   0  0  0  0  0  0
  -28.3679  -26.5361   20.1567 O   0  0  0  0  0  0
  -26.5616  -34.8921   22.4676 O   0  0  0  0  0  0
  -23.5408  -32.1403   23.7381 O   0  0  0  0  0  0
  -28.7339  -20.5899   20.6529 C   0  0  0  0  0  0
  -29.0206  -19.1874   20.7878 C   0  0  0  0  0  0
  -30.4916  -20.7739   19.0388 C   0  0  0  0  0  0
  -29.4701  -21.4246   19.7658 C   0  0  0  0  0  0
  -30.0731  -18.5494   20.0675 C   0  0  0  0  0  0
  -30.7870  -19.3932   19.1640 C   0  0  0  0  0  0
  -29.2891  -22.9049   19.4694 C   0  0  0  0  0  0
  -30.4817  -17.0817   20.1596 C   0  0  0  0  0  0
  -29.9055  -15.9062   20.5816 C   0  0  0  0  0  0
  -28.5057  -23.9217   19.9429 C   0  0  0  0  0  0
  -31.9004  -18.8509   18.2760 C   0  0  0  0  0  0
  -28.5219  -25.3519   19.3045 C   0  0  0  0  0  0
  -31.4613  -12.4392   19.1839 H   0  0  0  0  0  0
  -30.3016  -11.3894   19.9419 H   0  0  0  0  0  0
  -29.7703  -11.7281   17.4983 H   0  0  0  0  0  0
  -29.6626  -13.4534   17.7490 H   0  0  0  0  0  0
  -27.8581  -11.2904   18.8807 H   0  0  0  0  0  0
  -27.3779  -12.5602   17.7875 H   0  0  0  0  0  0
  -27.6495  -14.2575   19.4854 H   0  0  0  0  0  0
  -28.6825  -12.1387   21.4282 H   0  0  0  0  0  0
  -28.4387  -13.8243   21.7961 H   0  0  0  0  0  0
  -25.2762   -9.5697   22.4755 H   0  0  0  0  0  0
  -24.0008   -7.4641   22.7470 H   0  0  0  0  0  0
  -21.0842   -8.8774   19.8951 H   0  0  0  0  0  0
  -22.3693  -10.9674   19.6164 H   0  0  0  0  0  0
  -21.2010   -7.6148   23.9716 H   0  0  0  0  0  0
  -21.1484   -6.0521   25.9077 H   0  0  0  0  0  0
  -22.0596   -2.7609   23.2844 H   0  0  0  0  0  0
  -22.4094  -11.9883   22.4812 H   0  0  0  0  0  0
  -21.1092  -13.1243   22.2630 H   0  0  0  0  0  0
  -24.6588  -15.8500   20.5300 H   0  0  0  0  0  0
  -26.2786  -15.6333   20.1004 H   0  0  0  0  0  0
  -26.7159  -32.5456   23.1106 H   0  0  0  0  0  0
  -25.0061  -33.9733   25.0428 H   0  0  0  0  0  0
  -22.7079  -31.3057   21.4052 H   0  0  0  0  0  0
  -23.3749  -35.9633   23.3307 H   0  0  0  0  0  0
  -24.3579  -36.8913   22.2053 H   0  0  0  0  0  0
  -23.7245  -37.6505   23.6656 H   0  0  0  0  0  0
  -26.0828  -31.5614   20.6029 H   0  0  0  0  0  0
  -26.8359  -30.8450   21.9981 H   0  0  0  0  0  0
  -28.1052  -29.0011   21.1805 H   0  0  0  0  0  0
  -25.9415  -25.9077   19.0636 H   0  0  0  0  0  0
  -23.9556  -27.2931   19.0454 H   0  0  0  0  0  0
  -23.7447  -30.5974   19.4037 H   0  0  0  0  0  0
  -22.7466  -29.2500   19.8597 H   0  0  0  0  0  0
  -25.1292  -36.1946   25.0825 H   0  0  0  0  0  0
  -20.9975  -28.3256   24.1411 H   0  0  0  0  0  0
  -20.5672  -26.2293   23.3608 H   0  0  0  0  0  0
  -21.6642  -26.7441   22.1206 H   0  0  0  0  0  0
  -19.6911  -25.6296   21.1240 H   0  0  0  0  0  0
  -19.6687  -27.3196   20.6741 H   0  0  0  0  0  0
  -17.4198  -26.6675   21.4025 H   0  0  0  0  0  0
  -18.0331  -26.0067   22.9019 H   0  0  0  0  0  0
  -19.7936  -30.7264   24.2278 H   0  0  0  0  0  0
  -17.5015  -31.6266   24.5163 H   0  0  0  0  0  0
  -15.5352  -30.2990   23.7648 H   0  0  0  0  0  0
  -15.8671  -28.0821   22.7066 H   0  0  0  0  0  0
  -24.5901  -30.7072   25.7783 H   0  0  0  0  0  0
  -24.8920  -32.2883   26.4890 H   0  0  0  0  0  0
  -25.8058  -30.8891   27.0222 H   0  0  0  0  0  0
  -26.2897  -29.6772   24.1193 H   0  0  0  0  0  0
  -27.4051  -29.7275   25.4653 H   0  0  0  0  0  0
  -27.8756  -30.4319   23.9363 H   0  0  0  0  0  0
  -27.2664  -33.3620   26.2076 H   0  0  0  0  0  0
  -28.3854  -32.6892   25.0311 H   0  0  0  0  0  0
  -28.0729  -31.8443   26.5396 H   0  0  0  0  0  0
  -28.2602  -38.0098   24.7508 H   0  0  0  0  0  0
  -28.1072  -36.2629   24.6296 H   0  0  0  0  0  0
  -27.2298  -37.1463   25.8868 H   0  0  0  0  0  0
  -20.9347  -29.8766   21.6904 H   0  0  0  0  0  0
  -26.0178  -38.2859   24.1401 H   0  0  0  0  0  0
  -27.9298  -21.0196   21.2336 H   0  0  0  0  0  0
  -28.4296  -18.6010   21.4771 H   0  0  0  0  0  0
  -31.0757  -21.3574   18.3402 H   0  0  0  0  0  0
  -29.9279  -23.2257   18.6578 H   0  0  0  0  0  0
  -31.4919  -16.9486   19.8074 H   0  0  0  0  0  0
  -28.9028  -15.9109   20.9799 H   0  0  0  0  0  0
  -27.8121  -23.7498   20.7532 H   0  0  0  0  0  0
  -32.2220  -19.5839   17.5356 H   0  0  0  0  0  0
  -31.5672  -17.9696   17.7268 H   0  0  0  0  0  0
  -32.7738  -18.5848   18.8720 H   0  0  0  0  0  0
  -27.8475  -25.3586   18.4506 H   0  0  0  0  0  0
  -29.5016  -25.4730   18.8415 H   0  0  0  0  0  0
  1 25  1  0  0  0
  1 30  2  0  0  0
  1 79  1  0  0  0
  2  3  1  0  0  0
  2 25  1  0  0  0
  2 83  1  0  0  0
  2 84  1  0  0  0
  3  4  1  0  0  0
  3 85  1  0  0  0
  3 86  1  0  0  0
  4  5  1  0  0  0
  4 87  1  0  0  0
  4 88  1  0  0  0
  5  6  1  0  0  0
  5 26  1  0  0  0
  5 89  1  0  0  0
  6 25  1  0  0  0
  6 90  1  0  0  0
  6 91  1  0  0  0
  7  8  2  0  0  0
  7 26  1  0  0  0
  7 29  1  0  0  0
  8  9  1  0  0  0
  8 22  1  0  0  0
  9 10  1  0  0  0
  9 27  2  0  0  0
 10 11  2  0  0  0
 10 15  1  0  0  0
 11 12  1  0  0  0
 11 92  1  0  0  0
 12 13  2  0  0  0
 12 93  1  0  0  0
 13 14  1  0  0  0
 13 31  1  0  0  0
 14 15  2  0  0  0
 14 94  1  0  0  0
 15 95  1  0  0  0
 16 17  2  0  0  0
 16 21  1  0  0  0
 16 31  1  0  0  0
 17 18  1  0  0  0
 17 96  1  0  0  0
 18 19  2  0  0  0
 18 97  1  0  0  0
 19 20  1  0  0  0
 19 24  1  0  0  0
 20 21  2  0  0  0
 20 98  1  0  0  0
 21 23  1  0  0  0
 22 28  1  0  0  0
 22 32  2  0  0  0
 26 27  1  0  0  0
 28 99  1  0  0  0
 28100  1  0  0  0
 29101  1  0  0  0
 29102  1  0  0  0
 33 34  1  0  0  0
 33 66  1  0  0  0
 33 70  2  0  0  0
 34 36  1  0  0  0
 34 59  1  0  0  0
 34103  1  0  0  0
 35 44  2  0  0  0
 35 45  1  0  0  0
 35 68  1  0  0  0
 36 56  1  0  0  0
 36104  1  0  0  0
 37 39  1  0  0  0
 37 47  1  0  0  0
 37 66  1  0  0  0
 37105  1  0  0  0
 38 43  2  0  0  0
 38 46  1  0  0  0
 38 47  1  0  0  0
 39 64  1  0  0  0
 39 67  2  0  0  0
 40 52  1  0  0  0
 40 53  2  0  0  0
 40 58  1  0  0  0
 41106  1  0  0  0
 41107  1  0  0  0
 41108  1  0  0  0
 41 48  1  0  0  0
 42 43  1  0  0  0
 42 66  1  0  0  0
 42109  1  0  0  0
 42110  1  0  0  0
 43 44  1  0  0  0
 44111  1  0  0  0
 45 46  2  0  0  0
 45112  1  0  0  0
 46113  1  0  0  0
 47114  1  0  0  0
 47115  1  0  0  0
 48 56  1  0  0  0
 48 65  1  0  0  0
 48116  1  0  0  0
 49 50  1  0  0  0
 49 53  1  0  0  0
 49 64  1  0  0  0
 49117  1  0  0  0
 50 51  1  0  0  0
 50118  1  0  0  0
 50119  1  0  0  0
 51 52  1  0  0  0
 51120  1  0  0  0
 51121  1  0  0  0
 52122  1  0  0  0
 52123  1  0  0  0
 53 54  1  0  0  0
 54 55  2  0  0  0
 54124  1  0  0  0
 55 57  1  0  0  0
 55125  1  0  0  0
 56 69  2  0  0  0
 57 58  2  0  0  0
 57126  1  0  0  0
 58127  1  0  0  0
 59 60  1  0  0  0
 59 61  1  0  0  0
 59 62  1  0  0  0
 60128  1  0  0  0
 60129  1  0  0  0
 60130  1  0  0  0
 61131  1  0  0  0
 61132  1  0  0  0
 61133  1  0  0  0
 62134  1  0  0  0
 62135  1  0  0  0
 62136  1  0  0  0
 63 65  1  0  0  0
 63137  1  0  0  0
 63138  1  0  0  0
 63139  1  0  0  0
 64140  1  0  0  0
 65141  1  0  0  0
 68 82  1  0  0  0
 71 72  2  0  0  0
 71 74  1  0  0  0
 71142  1  0  0  0
 72 75  1  0  0  0
 72143  1  0  0  0
 73 74  2  0  0  0
 73 76  1  0  0  0
 73144  1  0  0  0
 74 77  1  0  0  0
 75 76  2  0  0  0
 75 78  1  0  0  0
 76 81  1  0  0  0
 77 80  2  0  0  0
 77145  1  0  0  0
 78 79  2  0  0  0
 78146  1  0  0  0
 79147  1  0  0  0
 80 82  1  0  0  0
 80148  1  0  0  0
 81149  1  0  0  0
 81150  1  0  0  0
 81151  1  0  0  0
 82152  1  0  0  0
 82153  1  0  0  0
M  ISO  4   1 100  68 101  79 100  82 101
M  END
> <chiral flag>
0

> <version>
0

> <s_m_source_file>
/data/baiqing/PycharmProjects/Reinvent-master-3.2/result/LINK_invent/BTK/process_docking_weight1_custom_product_contain_oxygen_bond_distance_aromatic_linkinvent_7_9_3/rearranged_h_0125.sdf

> <i_m_source_file_index>
7

> <r_mmod_Potential_Energy-OPLS-2005>
100.728958129883

> <r_mmod_Stretch_Energy-OPLS-2005>
72.7813339233398

> <r_mmod_Bend_Energy-OPLS-2005>
166.754089355469

> <r_mmod_Torsional_Energy-OPLS-2005>
185.135589599609

> <r_mmod_Improper_Torsional_Energy-OPLS-2005>
5.74180221557617

> <r_mmod_Van_der_Waal_Energy-OPLS-2005>
160.244033813477

> <r_mmod_Electrostatic_Energy-OPLS-2005>
-344.274353027344

> <r_mmod_Solvation_Energy-OPLS-2005>
-192.296752929688

> <b_mmod_Minimization_Converged-OPLS-2005>
0

> <r_mmod_RMS_Derivative-OPLS-2005>
0.271599352359772

$$$$
7
                    3D
 Structure written by MMmdl.
147155  0  0  1  0            999 V2000
  -30.5798  -14.7112   20.5510 C   0  0  0  0  0  0
  -30.4566  -12.4594   19.4420 C   0  0  0  0  0  0
  -29.5135  -12.5517   18.2179 C   0  0  0  0  0  0
  -28.0347  -12.3718   18.6225 C   0  0  0  0  0  0
  -27.6580  -13.2156   19.8690 C   0  0  2  0  0  0
  -28.7043  -13.0164   20.9817 C   0  0  0  0  0  0
  -25.2590  -13.8167   20.5700 C   0  0  0  0  0  0
  -24.1828  -13.0448   20.9176 C   0  0  0  0  0  0
  -24.6393  -11.6914   20.8733 C   0  0  0  0  0  0
  -23.9067  -10.4300   21.0414 C   0  0  0  0  0  0
  -24.3617   -9.4215   21.9192 C   0  0  0  0  0  0
  -23.6291   -8.2249   22.0757 C   0  0  0  0  0  0
  -22.4266   -8.0290   21.3555 C   0  0  0  0  0  0
  -21.9901   -9.0264   20.4655 C   0  0  0  0  0  0
  -22.7239  -10.2136   20.3072 C   0  0  0  0  0  0
  -21.6853   -6.0740   22.5285 C   0  0  0  0  0  0
  -21.4014   -6.5637   23.8221 C   0  0  0  0  0  0
  -21.3662   -5.6790   24.9179 C   0  0  0  0  0  0
  -21.6045   -4.3051   24.7223 C   0  0  0  0  0  0
  -21.8821   -3.8154   23.4344 C   0  0  0  0  0  0
  -21.9189   -4.6975   22.3403 C   0  0  0  0  0  0
  -22.7850  -13.5258   21.1832 C   0  0  0  0  0  0
  -22.1655   -4.2170   21.0976 F   0  0  0  0  0  0
  -21.5631   -3.4529   25.7732 F   0  0  0  0  0  0
  -30.0095  -13.4544   20.4449 N   0  0  0  0  0  0
  -26.3015  -12.9339   20.3340 N   0  0  0  0  0  0
  -25.9326  -11.6490   20.5740 N   0  0  0  0  0  0
  -22.0461  -12.8276   22.0381 N   0  0  0  0  0  0
  -25.4342  -15.1888   20.4164 N   0  0  0  0  0  0
  -31.6925  -14.9217   20.0558 O   0  0  0  0  0  0
  -21.6637   -6.8883   21.4248 O   0  0  0  0  0  0
  -22.3553  -14.5574   20.6684 O   0  0  0  0  0  0
  -24.6336  -31.8560   23.2016 C   0  0  0  0  0  0
  -25.9157  -32.4762   23.8360 C   0  0  1  0  0  0
  -27.2232  -27.2669   20.1020 C   0  0  0  0  0  0
  -25.5941  -33.8558   24.2278 N   0  0  0  0  0  0
  -23.4300  -30.4839   21.5465 C   0  0  2  0  0  0
  -24.8749  -28.9390   20.1134 C   0  0  0  0  0  0
  -22.7521  -29.4618   22.4912 C   0  0  0  0  0  0
  -18.0298  -28.1400   22.8475 C   0  0  0  0  0  0
  -24.1487  -36.7293   23.2640 C   0  0  0  0  0  0
  -25.9795  -30.7708   21.3815 C   0  0  0  0  0  0
  -26.0525  -29.3958   20.7184 C   0  0  0  0  0  0
  -27.2287  -28.5736   20.7031 C   0  0  0  0  0  0
  -26.0102  -26.8875   19.4725 C   0  0  0  0  0  0
  -24.8590  -27.6909   19.4828 C   0  0  0  0  0  0
  -23.6480  -29.8265   20.1607 C   0  0  0  0  0  0
  -25.4109  -36.3069   24.0327 C   0  0  1  0  0  0
  -20.5903  -28.3715   23.1259 C   0  0  2  0  0  0
  -20.6785  -26.9428   22.5406 C   0  0  0  0  0  0
  -19.5753  -26.6389   21.5216 C   0  0  0  0  0  0
  -18.1935  -26.7938   22.1628 C   0  0  0  0  0  0
  -19.1551  -28.8875   23.2863 C   0  0  0  0  0  0
  -18.9469  -30.1474   23.8887 C   0  0  0  0  0  0
  -17.6461  -30.6589   24.0571 C   0  0  0  0  0  0
  -25.9050  -34.9441   23.5106 C   0  0  0  0  0  0
  -16.5358  -29.9089   23.6329 C   0  0  0  0  0  0
  -16.7284  -28.6515   23.0342 C   0  0  0  0  0  0
  -26.4506  -31.6581   25.0751 C   0  0  0  0  0  0
  -25.3735  -31.3743   26.1482 C   0  0  0  0  0  0
  -27.0334  -30.2985   24.6251 C   0  0  0  0  0  0
  -27.6072  -32.4313   25.7517 C   0  0  0  0  0  0
  -27.5570  -37.1807   24.8464 C   0  0  0  0  0  0
  -21.4230  -29.3059   22.3650 N   0  0  0  0  0  0
  -26.4288  -37.3764   23.9397 N   0  0  0  0  0  0
  -24.7008  -31.0536   22.0994 N   0  0  0  0  0  0
  -23.4217  -28.8134   23.2993 O   0  0  0  0  0  0
  -28.3130  -26.3528   20.1397 O   0  0  0  0  0  0
  -26.5626  -34.8910   22.4676 O   0  0  0  0  0  0
  -23.5483  -32.1375   23.7310 O   0  0  0  0  0  0
  -30.5468  -19.0412   19.7554 C   0  0  0  0  0  0
  -30.3534  -20.4805   19.5632 C   0  0  0  0  0  0
  -29.6988  -18.4590   20.6767 C   0  0  0  0  0  0
  -29.3084  -21.0455   20.2744 C   0  0  0  0  0  0
  -29.5139  -17.1018   21.2662 C   0  0  0  0  0  0
  -28.7029  -22.4126   20.2922 C   0  0  0  0  0  0
  -29.7769  -15.7350   21.3023 C   0  0  0  0  0  0
  -29.0223  -23.7062   19.9116 C   0  0  0  0  0  0
  -27.9928  -24.9139   19.8447 C   0  0  0  0  0  0
  -28.6070  -19.7468   21.2557 S   0  0  0  0  0  0
  -31.4893  -12.6260   19.1313 H   0  0  0  0  0  0
  -30.4378  -11.4546   19.8660 H   0  0  0  0  0  0
  -29.7914  -11.8084   17.4691 H   0  0  0  0  0  0
  -29.6399  -13.5260   17.7433 H   0  0  0  0  0  0
  -27.8689  -11.3129   18.8249 H   0  0  0  0  0  0
  -27.3811  -12.6264   17.7872 H   0  0  0  0  0  0
  -27.6889  -14.2631   19.5678 H   0  0  0  0  0  0
  -28.7522  -11.9618   21.2547 H   0  0  0  0  0  0
  -28.3962  -13.5090   21.9002 H   0  0  0  0  0  0
  -25.2762   -9.5693   22.4765 H   0  0  0  0  0  0
  -24.0010   -7.4643   22.7468 H   0  0  0  0  0  0
  -21.0837   -8.8799   19.8955 H   0  0  0  0  0  0
  -22.3717  -10.9679   19.6182 H   0  0  0  0  0  0
  -21.1998   -7.6144   23.9722 H   0  0  0  0  0  0
  -21.1482   -6.0518   25.9084 H   0  0  0  0  0  0
  -22.0593   -2.7618   23.2833 H   0  0  0  0  0  0
  -22.4042  -11.9953   22.4838 H   0  0  0  0  0  0
  -21.1084  -13.1340   22.2564 H   0  0  0  0  0  0
  -24.6795  -15.8541   20.5463 H   0  0  0  0  0  0
  -26.3070  -15.6274   20.1497 H   0  0  0  0  0  0
  -26.7231  -32.5413   23.1103 H   0  0  0  0  0  0
  -25.0056  -33.9687   25.0403 H   0  0  0  0  0  0
  -22.7268  -31.3074   21.4056 H   0  0  0  0  0  0
  -23.3735  -35.9645   23.3323 H   0  0  0  0  0  0
  -24.3571  -36.8896   22.2049 H   0  0  0  0  0  0
  -23.7269  -37.6513   23.6652 H   0  0  0  0  0  0
  -26.1199  -31.5345   20.6147 H   0  0  0  0  0  0
  -26.8566  -30.8169   22.0157 H   0  0  0  0  0  0
  -28.1300  -28.9214   21.1895 H   0  0  0  0  0  0
  -25.8912  -25.9428   18.9667 H   0  0  0  0  0  0
  -23.9587  -27.3338   19.0019 H   0  0  0  0  0  0
  -23.7794  -30.6077   19.4111 H   0  0  0  0  0  0
  -22.7635  -29.2682   19.8483 H   0  0  0  0  0  0
  -25.1292  -36.1920   25.0820 H   0  0  0  0  0  0
  -20.9999  -28.3305   24.1378 H   0  0  0  0  0  0
  -20.5693  -26.2326   23.3615 H   0  0  0  0  0  0
  -21.6656  -26.7452   22.1199 H   0  0  0  0  0  0
  -19.6913  -25.6297   21.1253 H   0  0  0  0  0  0
  -19.6678  -27.3198   20.6743 H   0  0  0  0  0  0
  -17.4196  -26.6685   21.4038 H   0  0  0  0  0  0
  -18.0335  -26.0096   22.9038 H   0  0  0  0  0  0
  -19.7940  -30.7309   24.2244 H   0  0  0  0  0  0
  -17.5011  -31.6262   24.5184 H   0  0  0  0  0  0
  -15.5358  -30.2990   23.7654 H   0  0  0  0  0  0
  -15.8685  -28.0842   22.7045 H   0  0  0  0  0  0
  -24.5857  -30.7152   25.7812 H   0  0  0  0  0  0
  -24.8989  -32.2922   26.4968 H   0  0  0  0  0  0
  -25.8041  -30.8858   27.0232 H   0  0  0  0  0  0
  -26.2910  -29.6746   24.1260 H   0  0  0  0  0  0
  -27.3969  -29.7239   25.4781 H   0  0  0  0  0  0
  -27.8818  -30.4229   23.9520 H   0  0  0  0  0  0
  -27.2692  -33.3617   26.2094 H   0  0  0  0  0  0
  -28.3881  -32.6868   25.0341 H   0  0  0  0  0  0
  -28.0747  -31.8443   26.5433 H   0  0  0  0  0  0
  -28.2608  -38.0082   24.7472 H   0  0  0  0  0  0
  -28.1044  -36.2612   24.6333 H   0  0  0  0  0  0
  -27.2286  -37.1519   25.8869 H   0  0  0  0  0  0
  -20.9420  -29.8793   21.6864 H   0  0  0  0  0  0
  -26.0168  -38.2845   24.1384 H   0  0  0  0  0  0
  -31.3163  -18.5018   19.2208 H   0  0  0  0  0  0
  -30.9697  -21.0344   18.8682 H   0  0  0  0  0  0
  -28.8406  -17.2685   22.0961 H   0  0  0  0  0  0
  -27.6877  -22.3489   20.6609 H   0  0  0  0  0  0
  -29.2628  -15.3030   22.1431 H   0  0  0  0  0  0
  -30.0151  -23.9173   19.5411 H   0  0  0  0  0  0
  -27.1214  -24.6198   20.4330 H   0  0  0  0  0  0
  -27.6947  -24.8854   18.7960 H   0  0  0  0  0  0
  1 25  1  0  0  0
  1 30  2  0  0  0
  1 77  1  0  0  0
  2  3  1  0  0  0
  2 25  1  0  0  0
  2 81  1  0  0  0
  2 82  1  0  0  0
  3  4  1  0  0  0
  3 83  1  0  0  0
  3 84  1  0  0  0
  4  5  1  0  0  0
  4 85  1  0  0  0
  4 86  1  0  0  0
  5  6  1  0  0  0
  5 26  1  0  0  0
  5 87  1  0  0  0
  6 25  1  0  0  0
  6 88  1  0  0  0
  6 89  1  0  0  0
  7  8  2  0  0  0
  7 26  1  0  0  0
  7 29  1  0  0  0
  8  9  1  0  0  0
  8 22  1  0  0  0
  9 10  1  0  0  0
  9 27  2  0  0  0
 10 11  2  0  0  0
 10 15  1  0  0  0
 11 12  1  0  0  0
 11 90  1  0  0  0
 12 13  2  0  0  0
 12 91  1  0  0  0
 13 14  1  0  0  0
 13 31  1  0  0  0
 14 15  2  0  0  0
 14 92  1  0  0  0
 15 93  1  0  0  0
 16 17  2  0  0  0
 16 21  1  0  0  0
 16 31  1  0  0  0
 17 18  1  0  0  0
 17 94  1  0  0  0
 18 19  2  0  0  0
 18 95  1  0  0  0
 19 20  1  0  0  0
 19 24  1  0  0  0
 20 21  2  0  0  0
 20 96  1  0  0  0
 21 23  1  0  0  0
 22 28  1  0  0  0
 22 32  2  0  0  0
 26 27  1  0  0  0
 28 97  1  0  0  0
 28 98  1  0  0  0
 29 99  1  0  0  0
 29100  1  0  0  0
 33 34  1  0  0  0
 33 66  1  0  0  0
 33 70  2  0  0  0
 34 36  1  0  0  0
 34 59  1  0  0  0
 34101  1  0  0  0
 35 44  2  0  0  0
 35 45  1  0  0  0
 35 68  1  0  0  0
 36 56  1  0  0  0
 36102  1  0  0  0
 37 39  1  0  0  0
 37 47  1  0  0  0
 37 66  1  0  0  0
 37103  1  0  0  0
 38 43  2  0  0  0
 38 46  1  0  0  0
 38 47  1  0  0  0
 39 64  1  0  0  0
 39 67  2  0  0  0
 40 52  1  0  0  0
 40 53  2  0  0  0
 40 58  1  0  0  0
 41104  1  0  0  0
 41105  1  0  0  0
 41106  1  0  0  0
 41 48  1  0  0  0
 42 43  1  0  0  0
 42 66  1  0  0  0
 42107  1  0  0  0
 42108  1  0  0  0
 43 44  1  0  0  0
 44109  1  0  0  0
 45 46  2  0  0  0
 45110  1  0  0  0
 46111  1  0  0  0
 47112  1  0  0  0
 47113  1  0  0  0
 48 56  1  0  0  0
 48 65  1  0  0  0
 48114  1  0  0  0
 49 50  1  0  0  0
 49 53  1  0  0  0
 49 64  1  0  0  0
 49115  1  0  0  0
 50 51  1  0  0  0
 50116  1  0  0  0
 50117  1  0  0  0
 51 52  1  0  0  0
 51118  1  0  0  0
 51119  1  0  0  0
 52120  1  0  0  0
 52121  1  0  0  0
 53 54  1  0  0  0
 54 55  2  0  0  0
 54122  1  0  0  0
 55 57  1  0  0  0
 55123  1  0  0  0
 56 69  2  0  0  0
 57 58  2  0  0  0
 57124  1  0  0  0
 58125  1  0  0  0
 59 60  1  0  0  0
 59 61  1  0  0  0
 59 62  1  0  0  0
 60126  1  0  0  0
 60127  1  0  0  0
 60128  1  0  0  0
 61129  1  0  0  0
 61130  1  0  0  0
 61131  1  0  0  0
 62132  1  0  0  0
 62133  1  0  0  0
 62134  1  0  0  0
 63 65  1  0  0  0
 63135  1  0  0  0
 63136  1  0  0  0
 63137  1  0  0  0
 64138  1  0  0  0
 65139  1  0  0  0
 68 79  1  0  0  0
 71 72  1  0  0  0
 71 73  2  0  0  0
 71140  1  0  0  0
 72 74  2  0  0  0
 72141  1  0  0  0
 73 75  1  0  0  0
 73 80  1  0  0  0
 74 76  1  0  0  0
 74 80  1  0  0  0
 75 77  2  0  0  0
 75142  1  0  0  0
 76 78  2  0  0  0
 76143  1  0  0  0
 77144  1  0  0  0
 78 79  1  0  0  0
 78145  1  0  0  0
 79146  1  0  0  0
 79147  1  0  0  0
M  ISO  4   1 100  68 101  77 100  79 101
M  END
> <chiral flag>
0

> <version>
0

> <s_m_source_file>
/data/baiqing/PycharmProjects/Reinvent-master-3.2/result/LINK_invent/BTK/process_docking_weight1_custom_product_contain_oxygen_bond_distance_aromatic_linkinvent_7_9_3/rearranged_h_0125.sdf

> <i_m_source_file_index>
8

> <r_mmod_Potential_Energy-OPLS-2005>
256.162475585938

> <r_mmod_Stretch_Energy-OPLS-2005>
105.589363098145

> <r_mmod_Bend_Energy-OPLS-2005>
261.31103515625

> <r_mmod_Torsional_Energy-OPLS-2005>
181.437576293945

> <r_mmod_Improper_Torsional_Energy-OPLS-2005>
3.7407865524292

> <r_mmod_Van_der_Waal_Energy-OPLS-2005>
134.618255615234

> <r_mmod_Electrostatic_Energy-OPLS-2005>
-308.183654785156

> <r_mmod_Solvation_Energy-OPLS-2005>
-197.301528930664

> <b_mmod_Minimization_Converged-OPLS-2005>
0

> <r_mmod_RMS_Derivative-OPLS-2005>
1.94889295101166

$$$$
8
                    3D
 Structure written by MMmdl.
156164  0  0  1  0            999 V2000
  -30.5466  -14.9601   20.4161 C   0  0  0  0  0  0
  -30.4373  -12.5954   19.4981 C   0  0  0  0  0  0
  -29.5200  -12.5296   18.2556 C   0  0  0  0  0  0
  -28.0538  -12.3147   18.6750 C   0  0  0  0  0  0
  -27.6276  -13.2511   19.8357 C   0  0  2  0  0  0
  -28.6705  -13.2904   20.9728 C   0  0  0  0  0  0
  -25.2451  -13.8220   20.5709 C   0  0  0  0  0  0
  -24.1776  -13.0440   20.9239 C   0  0  0  0  0  0
  -24.6397  -11.6927   20.8760 C   0  0  0  0  0  0
  -23.9082  -10.4294   21.0410 C   0  0  0  0  0  0
  -24.3629   -9.4207   21.9186 C   0  0  0  0  0  0
  -23.6300   -8.2243   22.0754 C   0  0  0  0  0  0
  -22.4282   -8.0283   21.3545 C   0  0  0  0  0  0
  -21.9921   -9.0258   20.4647 C   0  0  0  0  0  0
  -22.7254  -10.2136   20.3058 C   0  0  0  0  0  0
  -21.6855   -6.0737   22.5278 C   0  0  0  0  0  0
  -21.4016   -6.5640   23.8212 C   0  0  0  0  0  0
  -21.3660   -5.6793   24.9174 C   0  0  0  0  0  0
  -21.6044   -4.3056   24.7224 C   0  0  0  0  0  0
  -21.8819   -3.8147   23.4345 C   0  0  0  0  0  0
  -21.9193   -4.6964   22.3402 C   0  0  0  0  0  0
  -22.7796  -13.5209   21.1889 C   0  0  0  0  0  0
  -22.1662   -4.2150   21.0979 F   0  0  0  0  0  0
  -21.5628   -3.4539   25.7737 F   0  0  0  0  0  0
  -29.9443  -13.7020   20.3693 N   0  0  0  0  0  0
  -26.2877  -12.9460   20.3237 N   0  0  0  0  0  0
  -25.9329  -11.6586   20.5740 N   0  0  0  0  0  0
  -22.0447  -12.8193   22.0443 N   0  0  0  0  0  0
  -25.4094  -15.1946   20.4104 N   0  0  0  0  0  0
  -31.7556  -14.9952   20.1624 O   0  0  0  0  0  0
  -21.6644   -6.8881   21.4240 O   0  0  0  0  0  0
  -22.3477  -14.5510   20.6730 O   0  0  0  0  0  0
  -24.6452  -31.8425   23.1870 C   0  0  0  0  0  0
  -25.9216  -32.4687   23.8265 C   0  0  1  0  0  0
  -27.2149  -27.1192   20.1527 C   0  0  0  0  0  0
  -25.5957  -33.8494   24.2181 N   0  0  0  0  0  0
  -23.4494  -30.4618   21.5332 C   0  0  2  0  0  0
  -24.8984  -28.8863   20.1103 C   0  0  0  0  0  0
  -22.7577  -29.4539   22.4855 C   0  0  0  0  0  0
  -18.0306  -28.1397   22.8477 C   0  0  0  0  0  0
  -24.1492  -36.7251   23.2643 C   0  0  0  0  0  0
  -26.0070  -30.7113   21.3881 C   0  0  0  0  0  0
  -26.0775  -29.3212   20.7290 C   0  0  0  0  0  0
  -27.2369  -28.4547   20.7310 C   0  0  0  0  0  0
  -26.0083  -26.7904   19.4958 C   0  0  0  0  0  0
  -24.8779  -27.6352   19.4777 C   0  0  0  0  0  0
  -23.6765  -29.7910   20.1528 C   0  0  0  0  0  0
  -25.4125  -36.3027   24.0314 C   0  0  1  0  0  0
  -20.5921  -28.3724   23.1233 C   0  0  2  0  0  0
  -20.6791  -26.9425   22.5405 C   0  0  0  0  0  0
  -19.5764  -26.6381   21.5214 C   0  0  0  0  0  0
  -18.1945  -26.7935   22.1624 C   0  0  0  0  0  0
  -19.1564  -28.8879   23.2846 C   0  0  0  0  0  0
  -18.9479  -30.1475   23.8872 C   0  0  0  0  0  0
  -17.6475  -30.6592   24.0560 C   0  0  0  0  0  0
  -25.9076  -34.9403   23.5057 C   0  0  0  0  0  0
  -16.5366  -29.9084   23.6338 C   0  0  0  0  0  0
  -16.7290  -28.6504   23.0357 C   0  0  0  0  0  0
  -26.4530  -31.6562   25.0715 C   0  0  0  0  0  0
  -25.3708  -31.3758   26.1406 C   0  0  0  0  0  0
  -27.0399  -30.2955   24.6312 C   0  0  0  0  0  0
  -27.6056  -32.4334   25.7502 C   0  0  0  0  0  0
  -27.5576  -37.1782   24.8466 C   0  0  0  0  0  0
  -21.4267  -29.3046   22.3604 N   0  0  0  0  0  0
  -26.4286  -37.3742   23.9408 N   0  0  0  0  0  0
  -24.7206  -31.0268   22.0911 N   0  0  0  0  0  0
  -23.4213  -28.8089   23.3013 O   0  0  0  0  0  0
  -28.2610  -26.1212   20.2225 O   0  0  0  0  0  0
  -26.5665  -34.8904   22.4638 O   0  0  0  0  0  0
  -23.5566  -32.1308   23.7080 O   0  0  0  0  0  0
  -31.8042  -19.4413   20.6076 C   0  0  0  0  0  0
  -30.8779  -20.5030   20.5059 C   0  0  0  0  0  0
  -31.4210  -18.0804   20.6030 C   0  0  0  0  0  0
  -29.4931  -20.2750   20.3939 C   0  0  0  0  0  0
  -29.1186  -18.8215   20.3982 C   0  0  0  0  0  0
  -30.0724  -17.6698   20.4965 C   0  0  0  0  0  0
  -27.2253  -18.2062   18.8320 C   0  0  0  0  0  0
  -28.5223  -21.6157   20.2569 C   0  0  0  0  0  0
  -27.6425  -18.4795   20.2816 C   0  0  0  0  0  0
  -28.9804  -23.2511   20.3446 C   0  0  0  0  0  0
  -27.9621  -24.5878   20.1004 C   0  0  0  0  0  0
  -29.7649  -16.1549   20.5215 N   0  0  0  0  0  0
  -31.4712  -12.7488   19.1852 H   0  0  0  0  0  0
  -30.4288  -11.6473   20.0381 H   0  0  0  0  0  0
  -29.8406  -11.7282   17.5887 H   0  0  0  0  0  0
  -29.6069  -13.4564   17.6862 H   0  0  0  0  0  0
  -27.9524  -11.2745   18.9868 H   0  0  0  0  0  0
  -27.3900  -12.4418   17.8190 H   0  0  0  0  0  0
  -27.5870  -14.2508   19.4020 H   0  0  0  0  0  0
  -28.7604  -12.3189   21.4610 H   0  0  0  0  0  0
  -28.3691  -13.9993   21.7456 H   0  0  0  0  0  0
  -25.2772   -9.5682   22.4764 H   0  0  0  0  0  0
  -24.0007   -7.4634   22.7475 H   0  0  0  0  0  0
  -21.0852   -8.8780   19.8953 H   0  0  0  0  0  0
  -22.3711  -10.9677   19.6170 H   0  0  0  0  0  0
  -21.2010   -7.6149   23.9715 H   0  0  0  0  0  0
  -21.1482   -6.0523   25.9076 H   0  0  0  0  0  0
  -22.0598   -2.7610   23.2845 H   0  0  0  0  0  0
  -22.4075  -11.9861   22.4834 H   0  0  0  0  0  0
  -21.1061  -13.1206   22.2646 H   0  0  0  0  0  0
  -24.6307  -15.8367   20.5088 H   0  0  0  0  0  0
  -26.2333  -15.6299   20.0197 H   0  0  0  0  0  0
  -26.7282  -32.5286   23.0993 H   0  0  0  0  0  0
  -25.0079  -33.9606   25.0312 H   0  0  0  0  0  0
  -22.7527  -31.2883   21.3782 H   0  0  0  0  0  0
  -23.3760  -35.9576   23.3291 H   0  0  0  0  0  0
  -24.3576  -36.8898   22.2060 H   0  0  0  0  0  0
  -23.7241  -37.6440   23.6691 H   0  0  0  0  0  0
  -26.1654  -31.4653   20.6159 H   0  0  0  0  0  0
  -26.8763  -30.7609   22.0322 H   0  0  0  0  0  0
  -28.1345  -28.7828   21.2362 H   0  0  0  0  0  0
  -25.9007  -25.8350   19.0061 H   0  0  0  0  0  0
  -23.9781  -27.2971   18.9820 H   0  0  0  0  0  0
  -23.8151  -30.5655   19.3974 H   0  0  0  0  0  0
  -22.7905  -29.2348   19.8412 H   0  0  0  0  0  0
  -25.1314  -36.1852   25.0806 H   0  0  0  0  0  0
  -21.0011  -28.3314   24.1355 H   0  0  0  0  0  0
  -20.5686  -26.2337   23.3626 H   0  0  0  0  0  0
  -21.6656  -26.7430   22.1202 H   0  0  0  0  0  0
  -19.6925  -25.6286   21.1259 H   0  0  0  0  0  0
  -19.6701  -27.3179   20.6735 H   0  0  0  0  0  0
  -17.4215  -26.6681   21.4027 H   0  0  0  0  0  0
  -18.0342  -26.0083   22.9026 H   0  0  0  0  0  0
  -19.7954  -30.7301   24.2227 H   0  0  0  0  0  0
  -17.5026  -31.6269   24.5167 H   0  0  0  0  0  0
  -15.5365  -30.2977   23.7677 H   0  0  0  0  0  0
  -15.8691  -28.0815   22.7084 H   0  0  0  0  0  0
  -24.5897  -30.7095   25.7726 H   0  0  0  0  0  0
  -24.8884  -32.2942   26.4763 H   0  0  0  0  0  0
  -25.7984  -30.8978   27.0227 H   0  0  0  0  0  0
  -26.3023  -29.6672   24.1307 H   0  0  0  0  0  0
  -27.3992  -29.7263   25.4896 H   0  0  0  0  0  0
  -27.8939  -30.4188   23.9648 H   0  0  0  0  0  0
  -27.2646  -33.3657   26.2015 H   0  0  0  0  0  0
  -28.3898  -32.6857   25.0352 H   0  0  0  0  0  0
  -28.0688  -31.8501   26.5470 H   0  0  0  0  0  0
  -28.2585  -38.0086   24.7511 H   0  0  0  0  0  0
  -28.1079  -36.2614   24.6294 H   0  0  0  0  0  0
  -27.2292  -37.1430   25.8868 H   0  0  0  0  0  0
  -20.9482  -29.8755   21.6776 H   0  0  0  0  0  0
  -26.0151  -38.2809   24.1411 H   0  0  0  0  0  0
  -32.8552  -19.6802   20.6930 H   0  0  0  0  0  0
  -31.2517  -21.5176   20.5122 H   0  0  0  0  0  0
  -32.2091  -17.3484   20.6947 H   0  0  0  0  0  0
  -26.1644  -17.9623   18.7719 H   0  0  0  0  0  0
  -27.7834  -17.3703   18.4091 H   0  0  0  0  0  0
  -27.4012  -19.0783   18.2015 H   0  0  0  0  0  0
  -27.7412  -21.4855   21.0057 H   0  0  0  0  0  0
  -28.0092  -21.4927   19.3028 H   0  0  0  0  0  0
  -27.0382  -19.2872   20.6931 H   0  0  0  0  0  0
  -27.4234  -17.6105   20.9025 H   0  0  0  0  0  0
  -29.8040  -23.3751   19.6416 H   0  0  0  0  0  0
  -29.4337  -23.3874   21.3264 H   0  0  0  0  0  0
  -27.1008  -24.4178   20.7474 H   0  0  0  0  0  0
  -27.5831  -24.4521   19.0878 H   0  0  0  0  0  0
  -28.7835  -15.9453   20.6130 H   0  0  0  0  0  0
  1 25  1  0  0  0
  1 30  2  0  0  0
  1 82  1  0  0  0
  2  3  1  0  0  0
  2 25  1  0  0  0
  2 83  1  0  0  0
  2 84  1  0  0  0
  3  4  1  0  0  0
  3 85  1  0  0  0
  3 86  1  0  0  0
  4  5  1  0  0  0
  4 87  1  0  0  0
  4 88  1  0  0  0
  5  6  1  0  0  0
  5 26  1  0  0  0
  5 89  1  0  0  0
  6 25  1  0  0  0
  6 90  1  0  0  0
  6 91  1  0  0  0
  7  8  2  0  0  0
  7 26  1  0  0  0
  7 29  1  0  0  0
  8  9  1  0  0  0
  8 22  1  0  0  0
  9 10  1  0  0  0
  9 27  2  0  0  0
 10 11  2  0  0  0
 10 15  1  0  0  0
 11 12  1  0  0  0
 11 92  1  0  0  0
 12 13  2  0  0  0
 12 93  1  0  0  0
 13 14  1  0  0  0
 13 31  1  0  0  0
 14 15  2  0  0  0
 14 94  1  0  0  0
 15 95  1  0  0  0
 16 17  2  0  0  0
 16 21  1  0  0  0
 16 31  1  0  0  0
 17 18  1  0  0  0
 17 96  1  0  0  0
 18 19  2  0  0  0
 18 97  1  0  0  0
 19 20  1  0  0  0
 19 24  1  0  0  0
 20 21  2  0  0  0
 20 98  1  0  0  0
 21 23  1  0  0  0
 22 28  1  0  0  0
 22 32  2  0  0  0
 26 27  1  0  0  0
 28 99  1  0  0  0
 28100  1  0  0  0
 29101  1  0  0  0
 29102  1  0  0  0
 33 34  1  0  0  0
 33 66  1  0  0  0
 33 70  2  0  0  0
 34 36  1  0  0  0
 34 59  1  0  0  0
 34103  1  0  0  0
 35 44  2  0  0  0
 35 45  1  0  0  0
 35 68  1  0  0  0
 36 56  1  0  0  0
 36104  1  0  0  0
 37 39  1  0  0  0
 37 47  1  0  0  0
 37 66  1  0  0  0
 37105  1  0  0  0
 38 43  2  0  0  0
 38 46  1  0  0  0
 38 47  1  0  0  0
 39 64  1  0  0  0
 39 67  2  0  0  0
 40 52  1  0  0  0
 40 53  2  0  0  0
 40 58  1  0  0  0
 41106  1  0  0  0
 41107  1  0  0  0
 41108  1  0  0  0
 41 48  1  0  0  0
 42 43  1  0  0  0
 42 66  1  0  0  0
 42109  1  0  0  0
 42110  1  0  0  0
 43 44  1  0  0  0
 44111  1  0  0  0
 45 46  2  0  0  0
 45112  1  0  0  0
 46113  1  0  0  0
 47114  1  0  0  0
 47115  1  0  0  0
 48 56  1  0  0  0
 48 65  1  0  0  0
 48116  1  0  0  0
 49 50  1  0  0  0
 49 53  1  0  0  0
 49 64  1  0  0  0
 49117  1  0  0  0
 50 51  1  0  0  0
 50118  1  0  0  0
 50119  1  0  0  0
 51 52  1  0  0  0
 51120  1  0  0  0
 51121  1  0  0  0
 52122  1  0  0  0
 52123  1  0  0  0
 53 54  1  0  0  0
 54 55  2  0  0  0
 54124  1  0  0  0
 55 57  1  0  0  0
 55125  1  0  0  0
 56 69  2  0  0  0
 57 58  2  0  0  0
 57126  1  0  0  0
 58127  1  0  0  0
 59 60  1  0  0  0
 59 61  1  0  0  0
 59 62  1  0  0  0
 60128  1  0  0  0
 60129  1  0  0  0
 60130  1  0  0  0
 61131  1  0  0  0
 61132  1  0  0  0
 61133  1  0  0  0
 62134  1  0  0  0
 62135  1  0  0  0
 62136  1  0  0  0
 63 65  1  0  0  0
 63137  1  0  0  0
 63138  1  0  0  0
 63139  1  0  0  0
 64140  1  0  0  0
 65141  1  0  0  0
 68 81  1  0  0  0
 71 72  2  0  0  0
 71 73  1  0  0  0
 71142  1  0  0  0
 72 74  1  0  0  0
 72143  1  0  0  0
 73 76  2  0  0  0
 73144  1  0  0  0
 74 75  2  0  0  0
 74 78  1  0  0  0
 75 76  1  0  0  0
 75 79  1  0  0  0
 76 82  1  0  0  0
 77 79  1  0  0  0
 77145  1  0  0  0
 77146  1  0  0  0
 77147  1  0  0  0
 78 80  1  0  0  0
 78148  1  0  0  0
 78149  1  0  0  0
 79150  1  0  0  0
 79151  1  0  0  0
 80 81  1  0  0  0
 80152  1  0  0  0
 80153  1  0  0  0
 81154  1  0  0  0
 81155  1  0  0  0
 82156  1  0  0  0
M  ISO  4   1 100  68 101  81 101  82 100
M  END
> <chiral flag>
0

> <version>
0

> <s_m_source_file>
/data/baiqing/PycharmProjects/Reinvent-master-3.2/result/LINK_invent/BTK/process_docking_weight1_custom_product_contain_oxygen_bond_distance_aromatic_linkinvent_7_9_3/rearranged_h_0125.sdf

> <i_m_source_file_index>
9

> <r_mmod_Potential_Energy-OPLS-2005>
494.218963623047

> <r_mmod_Stretch_Energy-OPLS-2005>
282.608703613281

> <r_mmod_Bend_Energy-OPLS-2005>
244.690002441406

> <r_mmod_Torsional_Energy-OPLS-2005>
211.063293457031

> <r_mmod_Improper_Torsional_Energy-OPLS-2005>
5.0632438659668

> <r_mmod_Van_der_Waal_Energy-OPLS-2005>
125.269081115723

> <r_mmod_Electrostatic_Energy-OPLS-2005>
-375.649993896484

> <r_mmod_Solvation_Energy-OPLS-2005>
-202.439331054688

> <b_mmod_Minimization_Converged-OPLS-2005>
0

> <r_mmod_RMS_Derivative-OPLS-2005>
0.11853601783514

$$$$
9
                    3D
 Structure written by MMmdl.
158166  0  0  1  0            999 V2000
  -30.6809  -14.5922   20.5974 C   0  0  0  0  0  0
  -30.4307  -12.3892   19.4601 C   0  0  0  0  0  0
  -29.5073  -12.5285   18.2294 C   0  0  0  0  0  0
  -28.0300  -12.3573   18.6317 C   0  0  0  0  0  0
  -27.6554  -13.2137   19.8683 C   0  0  2  0  0  0
  -28.6885  -13.0274   20.9981 C   0  0  0  0  0  0
  -25.2541  -13.8152   20.5633 C   0  0  0  0  0  0
  -24.1818  -13.0427   20.9181 C   0  0  0  0  0  0
  -24.6380  -11.6900   20.8728 C   0  0  0  0  0  0
  -23.9047  -10.4286   21.0404 C   0  0  0  0  0  0
  -24.3604   -9.4204   21.9184 C   0  0  0  0  0  0
  -23.6282   -8.2234   22.0753 C   0  0  0  0  0  0
  -22.4263   -8.0273   21.3540 C   0  0  0  0  0  0
  -21.9900   -9.0244   20.4641 C   0  0  0  0  0  0
  -22.7222  -10.2125   20.3054 C   0  0  0  0  0  0
  -21.6855   -6.0727   22.5273 C   0  0  0  0  0  0
  -21.4009   -6.5629   23.8206 C   0  0  0  0  0  0
  -21.3659   -5.6787   24.9172 C   0  0  0  0  0  0
  -21.6048   -4.3052   24.7225 C   0  0  0  0  0  0
  -21.8821   -3.8142   23.4347 C   0  0  0  0  0  0
  -21.9188   -4.6953   22.3399 C   0  0  0  0  0  0
  -22.7846  -13.5225   21.1847 C   0  0  0  0  0  0
  -22.1664   -4.2137   21.0975 F   0  0  0  0  0  0
  -21.5631   -3.4538   25.7736 F   0  0  0  0  0  0
  -30.0179  -13.3895   20.4714 N   0  0  0  0  0  0
  -26.2983  -12.9339   20.3298 N   0  0  0  0  0  0
  -25.9304  -11.6492   20.5730 N   0  0  0  0  0  0
  -22.0490  -12.8223   22.0414 N   0  0  0  0  0  0
  -25.4197  -15.1861   20.3953 N   0  0  0  0  0  0
  -31.7524  -14.7877   20.0137 O   0  0  0  0  0  0
  -21.6633   -6.8868   21.4231 O   0  0  0  0  0  0
  -22.3527  -14.5524   20.6689 O   0  0  0  0  0  0
  -24.6231  -31.8613   23.2061 C   0  0  0  0  0  0
  -25.9097  -32.4776   23.8380 C   0  0  1  0  0  0
  -27.2277  -27.3475   20.1228 C   0  0  0  0  0  0
  -25.5916  -33.8572   24.2301 N   0  0  0  0  0  0
  -23.4160  -30.4861   21.5471 C   0  0  2  0  0  0
  -24.8631  -28.9411   20.1163 C   0  0  0  0  0  0
  -22.7451  -29.4639   22.4954 C   0  0  0  0  0  0
  -18.0279  -28.1376   22.8494 C   0  0  0  0  0  0
  -24.1486  -36.7285   23.2651 C   0  0  0  0  0  0
  -25.9541  -30.8022   21.3726 C   0  0  0  0  0  0
  -26.0298  -29.4314   20.7164 C   0  0  0  0  0  0
  -27.2175  -28.6476   20.7065 C   0  0  0  0  0  0
  -26.0431  -26.9024   19.4966 C   0  0  0  0  0  0
  -24.8683  -27.6788   19.5001 C   0  0  0  0  0  0
  -23.6293  -29.8180   20.1635 C   0  0  0  0  0  0
  -25.4114  -36.3073   24.0341 C   0  0  1  0  0  0
  -20.5882  -28.3682   23.1279 C   0  0  2  0  0  0
  -20.6769  -26.9415   22.5399 C   0  0  0  0  0  0
  -19.5745  -26.6385   21.5197 C   0  0  0  0  0  0
  -18.1922  -26.7923   22.1617 C   0  0  0  0  0  0
  -19.1538  -28.8844   23.2876 C   0  0  0  0  0  0
  -18.9458  -30.1443   23.8893 C   0  0  0  0  0  0
  -17.6463  -30.6584   24.0557 C   0  0  0  0  0  0
  -25.9042  -34.9441   23.5118 C   0  0  0  0  0  0
  -16.5349  -29.9081   23.6340 C   0  0  0  0  0  0
  -16.7265  -28.6492   23.0373 C   0  0  0  0  0  0
  -26.4510  -31.6583   25.0740 C   0  0  0  0  0  0
  -25.3758  -31.3652   26.1467 C   0  0  0  0  0  0
  -27.0423  -30.3037   24.6183 C   0  0  0  0  0  0
  -27.6074  -32.4332   25.7498 C   0  0  0  0  0  0
  -27.5579  -37.1786   24.8477 C   0  0  0  0  0  0
  -21.4173  -29.3028   22.3675 N   0  0  0  0  0  0
  -26.4293  -37.3771   23.9421 N   0  0  0  0  0  0
  -24.6827  -31.0660   22.0989 N   0  0  0  0  0  0
  -23.4183  -28.8192   23.3043 O   0  0  0  0  0  0
  -28.3567  -26.5260   20.1365 O   0  0  0  0  0  0
  -26.5614  -34.8909   22.4685 O   0  0  0  0  0  0
  -23.5403  -32.1406   23.7399 O   0  0  0  0  0  0
  -30.9094  -19.2474   20.0915 C   0  0  0  0  0  0
  -30.9722  -17.8576   20.3925 C   0  0  0  0  0  0
  -28.7407  -19.3820   21.0865 C   0  0  0  0  0  0
  -29.8014  -20.0600   20.4410 C   0  0  0  0  0  0
  -29.9313  -17.1687   21.0698 C   0  0  0  0  0  0
  -28.7892  -17.9856   21.3970 C   0  0  0  0  0  0
  -29.8195  -21.5430   20.1168 C   0  0  0  0  0  0
  -28.9207  -22.5473   20.3568 C   0  0  0  0  0  0
  -30.1008  -15.7043   21.5420 C   0  0  0  0  0  0
  -27.5146  -17.7795   23.5960 C   0  0  0  0  0  0
  -27.5557  -17.4247   22.1021 C   0  0  0  0  0  0
  -29.0909  -24.0363   19.9073 C   0  0  0  0  0  0
  -28.1855  -25.1339   20.5933 C   0  0  0  0  0  0
  -29.8198  -15.4217   22.7464 N   0  0  0  0  0  0
  -31.4743  -12.5010   19.1613 H   0  0  0  0  0  0
  -30.3567  -11.3846   19.8794 H   0  0  0  0  0  0
  -29.7754  -11.7898   17.4726 H   0  0  0  0  0  0
  -29.6526  -13.5075   17.7699 H   0  0  0  0  0  0
  -27.8681  -11.3019   18.8555 H   0  0  0  0  0  0
  -27.3756  -12.5950   17.7921 H   0  0  0  0  0  0
  -27.6900  -14.2576   19.5550 H   0  0  0  0  0  0
  -28.6969  -11.9893   21.3344 H   0  0  0  0  0  0
  -28.3828  -13.5998   21.8697 H   0  0  0  0  0  0
  -25.2749   -9.5685   22.4757 H   0  0  0  0  0  0
  -23.9986   -7.4634   22.7486 H   0  0  0  0  0  0
  -21.0826   -8.8763   19.8958 H   0  0  0  0  0  0
  -22.3677  -10.9662   19.6162 H   0  0  0  0  0  0
  -21.2003   -7.6138   23.9701 H   0  0  0  0  0  0
  -21.1484   -6.0522   25.9071 H   0  0  0  0  0  0
  -22.0602   -2.7604   23.2849 H   0  0  0  0  0  0
  -22.4111  -11.9889   22.4805 H   0  0  0  0  0  0
  -21.1112  -13.1258   22.2617 H   0  0  0  0  0  0
  -24.6445  -15.8336   20.4864 H   0  0  0  0  0  0
  -26.2586  -15.6204   20.0341 H   0  0  0  0  0  0
  -26.7165  -32.5473   23.1135 H   0  0  0  0  0  0
  -25.0089  -33.9718   25.0461 H   0  0  0  0  0  0
  -22.7078  -31.3060   21.4045 H   0  0  0  0  0  0
  -23.3751  -35.9613   23.3311 H   0  0  0  0  0  0
  -24.3567  -36.8910   22.2066 H   0  0  0  0  0  0
  -23.7234  -37.6479   23.6683 H   0  0  0  0  0  0
  -26.0845  -31.5686   20.6072 H   0  0  0  0  0  0
  -26.8342  -30.8480   22.0025 H   0  0  0  0  0  0
  -28.1171  -29.0215   21.1753 H   0  0  0  0  0  0
  -26.0186  -25.9415   19.0035 H   0  0  0  0  0  0
  -23.9735  -27.2973   19.0264 H   0  0  0  0  0  0
  -23.7458  -30.5927   19.4049 H   0  0  0  0  0  0
  -22.7502  -29.2445   19.8656 H   0  0  0  0  0  0
  -25.1293  -36.1927   25.0832 H   0  0  0  0  0  0
  -20.9973  -28.3267   24.1398 H   0  0  0  0  0  0
  -20.5661  -26.2300   23.3599 H   0  0  0  0  0  0
  -21.6641  -26.7454   22.1190 H   0  0  0  0  0  0
  -19.6911  -25.6295   21.1221 H   0  0  0  0  0  0
  -19.6679  -27.3197   20.6725 H   0  0  0  0  0  0
  -17.4202  -26.6684   21.4007 H   0  0  0  0  0  0
  -18.0312  -26.0048   22.8997 H   0  0  0  0  0  0
  -19.7937  -30.7252   24.2263 H   0  0  0  0  0  0
  -17.5031  -31.6267   24.5154 H   0  0  0  0  0  0
  -15.5352  -30.2988   23.7675 H   0  0  0  0  0  0
  -15.8660  -28.0801   22.7122 H   0  0  0  0  0  0
  -24.5938  -30.7011   25.7769 H   0  0  0  0  0  0
  -24.8934  -32.2784   26.4959 H   0  0  0  0  0  0
  -25.8099  -30.8775   27.0205 H   0  0  0  0  0  0
  -26.3008  -29.6660   24.1355 H   0  0  0  0  0  0
  -27.4339  -29.7401   25.4665 H   0  0  0  0  0  0
  -27.8758  -30.4384   23.9282 H   0  0  0  0  0  0
  -27.2706  -33.3652   26.2050 H   0  0  0  0  0  0
  -28.3879  -32.6851   25.0305 H   0  0  0  0  0  0
  -28.0755  -31.8473   26.5423 H   0  0  0  0  0  0
  -28.2586  -38.0093   24.7555 H   0  0  0  0  0  0
  -28.1078  -36.2624   24.6275 H   0  0  0  0  0  0
  -27.2289  -37.1403   25.8874 H   0  0  0  0  0  0
  -20.9353  -29.8730   21.6865 H   0  0  0  0  0  0
  -26.0168  -38.2835   24.1437 H   0  0  0  0  0  0
  -31.7558  -19.6981   19.5929 H   0  0  0  0  0  0
  -31.8761  -17.3274   20.1275 H   0  0  0  0  0  0
  -27.8627  -19.9466   21.3669 H   0  0  0  0  0  0
  -30.7113  -21.8505   19.5874 H   0  0  0  0  0  0
  -28.0006  -22.3153   20.8754 H   0  0  0  0  0  0
  -26.6266  -17.3556   24.0665 H   0  0  0  0  0  0
  -27.4837  -18.8582   23.7485 H   0  0  0  0  0  0
  -28.3834  -17.3961   24.1305 H   0  0  0  0  0  0
  -27.4709  -16.3478   21.9669 H   0  0  0  0  0  0
  -26.6671  -17.8337   21.6189 H   0  0  0  0  0  0
  -28.8939  -24.0669   18.8348 H   0  0  0  0  0  0
  -30.1398  -24.3112   20.0237 H   0  0  0  0  0  0
  -28.4013  -25.1329   21.6622 H   0  0  0  0  0  0
  -27.1496  -24.8051   20.5188 H   0  0  0  0  0  0
  -29.4797  -16.2449   23.2277 H   0  0  0  0  0  0
  1 25  1  0  0  0
  1 30  2  0  0  0
  1 79  1  0  0  0
  2  3  1  0  0  0
  2 25  1  0  0  0
  2 85  1  0  0  0
  2 86  1  0  0  0
  3  4  1  0  0  0
  3 87  1  0  0  0
  3 88  1  0  0  0
  4  5  1  0  0  0
  4 89  1  0  0  0
  4 90  1  0  0  0
  5  6  1  0  0  0
  5 26  1  0  0  0
  5 91  1  0  0  0
  6 25  1  0  0  0
  6 92  1  0  0  0
  6 93  1  0  0  0
  7  8  2  0  0  0
  7 26  1  0  0  0
  7 29  1  0  0  0
  8  9  1  0  0  0
  8 22  1  0  0  0
  9 10  1  0  0  0
  9 27  2  0  0  0
 10 11  2  0  0  0
 10 15  1  0  0  0
 11 12  1  0  0  0
 11 94  1  0  0  0
 12 13  2  0  0  0
 12 95  1  0  0  0
 13 14  1  0  0  0
 13 31  1  0  0  0
 14 15  2  0  0  0
 14 96  1  0  0  0
 15 97  1  0  0  0
 16 17  2  0  0  0
 16 21  1  0  0  0
 16 31  1  0  0  0
 17 18  1  0  0  0
 17 98  1  0  0  0
 18 19  2  0  0  0
 18 99  1  0  0  0
 19 20  1  0  0  0
 19 24  1  0  0  0
 20 21  2  0  0  0
 20100  1  0  0  0
 21 23  1  0  0  0
 22 28  1  0  0  0
 22 32  2  0  0  0
 26 27  1  0  0  0
 28101  1  0  0  0
 28102  1  0  0  0
 29103  1  0  0  0
 29104  1  0  0  0
 33 34  1  0  0  0
 33 66  1  0  0  0
 33 70  2  0  0  0
 34 36  1  0  0  0
 34 59  1  0  0  0
 34105  1  0  0  0
 35 44  2  0  0  0
 35 45  1  0  0  0
 35 68  1  0  0  0
 36 56  1  0  0  0
 36106  1  0  0  0
 37 39  1  0  0  0
 37 47  1  0  0  0
 37 66  1  0  0  0
 37107  1  0  0  0
 38 43  2  0  0  0
 38 46  1  0  0  0
 38 47  1  0  0  0
 39 64  1  0  0  0
 39 67  2  0  0  0
 40 52  1  0  0  0
 40 53  2  0  0  0
 40 58  1  0  0  0
 41108  1  0  0  0
 41109  1  0  0  0
 41110  1  0  0  0
 41 48  1  0  0  0
 42 43  1  0  0  0
 42 66  1  0  0  0
 42111  1  0  0  0
 42112  1  0  0  0
 43 44  1  0  0  0
 44113  1  0  0  0
 45 46  2  0  0  0
 45114  1  0  0  0
 46115  1  0  0  0
 47116  1  0  0  0
 47117  1  0  0  0
 48 56  1  0  0  0
 48 65  1  0  0  0
 48118  1  0  0  0
 49 50  1  0  0  0
 49 53  1  0  0  0
 49 64  1  0  0  0
 49119  1  0  0  0
 50 51  1  0  0  0
 50120  1  0  0  0
 50121  1  0  0  0
 51 52  1  0  0  0
 51122  1  0  0  0
 51123  1  0  0  0
 52124  1  0  0  0
 52125  1  0  0  0
 53 54  1  0  0  0
 54 55  2  0  0  0
 54126  1  0  0  0
 55 57  1  0  0  0
 55127  1  0  0  0
 56 69  2  0  0  0
 57 58  2  0  0  0
 57128  1  0  0  0
 58129  1  0  0  0
 59 60  1  0  0  0
 59 61  1  0  0  0
 59 62  1  0  0  0
 60130  1  0  0  0
 60131  1  0  0  0
 60132  1  0  0  0
 61133  1  0  0  0
 61134  1  0  0  0
 61135  1  0  0  0
 62136  1  0  0  0
 62137  1  0  0  0
 62138  1  0  0  0
 63 65  1  0  0  0
 63139  1  0  0  0
 63140  1  0  0  0
 63141  1  0  0  0
 64142  1  0  0  0
 65143  1  0  0  0
 68 83  1  0  0  0
 71 72  2  0  0  0
 71 74  1  0  0  0
 71144  1  0  0  0
 72 75  1  0  0  0
 72145  1  0  0  0
 73 74  2  0  0  0
 73 76  1  0  0  0
 73146  1  0  0  0
 74 77  1  0  0  0
 75 76  2  0  0  0
 75 79  1  0  0  0
 76 81  1  0  0  0
 77 78  2  0  0  0
 77147  1  0  0  0
 78 82  1  0  0  0
 78148  1  0  0  0
 79 84  2  0  0  0
 80 81  1  0  0  0
 80149  1  0  0  0
 80150  1  0  0  0
 80151  1  0  0  0
 81152  1  0  0  0
 81153  1  0  0  0
 82 83  1  0  0  0
 82154  1  0  0  0
 82155  1  0  0  0
 83156  1  0  0  0
 83157  1  0  0  0
 84158  1  0  0  0
M  ISO  4   1 100  68 101  79 100  83 101
M  END
> <chiral flag>
0

> <version>
0

> <s_m_source_file>
/data/baiqing/PycharmProjects/Reinvent-master-3.2/result/LINK_invent/BTK/process_docking_weight1_custom_product_contain_oxygen_bond_distance_aromatic_linkinvent_7_9_3/rearranged_h_0125.sdf

> <i_m_source_file_index>
10

> <r_mmod_Potential_Energy-OPLS-2005>
226.382202148438

> <r_mmod_Stretch_Energy-OPLS-2005>
81.3238372802734

> <r_mmod_Bend_Energy-OPLS-2005>
134.300155639648

> <r_mmod_Torsional_Energy-OPLS-2005>
224.158462524414

> <r_mmod_Improper_Torsional_Energy-OPLS-2005>
3.16041398048401

> <r_mmod_Van_der_Waal_Energy-OPLS-2005>
147.332794189453

> <r_mmod_Electrostatic_Energy-OPLS-2005>
-212.871871948242

> <r_mmod_Solvation_Energy-OPLS-2005>
-184.591903686523

> <b_mmod_Minimization_Converged-OPLS-2005>
0

> <r_mmod_RMS_Derivative-OPLS-2005>
1.48252952098846

$$$$
10
                    3D
 Structure written by MMmdl.
156164  0  0  1  0            999 V2000
  -27.3067  -17.4679   20.8955 C   0  0  0  0  0  0
  -29.2771  -14.9597   19.8060 C   0  0  0  0  0  0
  -29.2728  -13.6208   18.7829 C   0  0  0  0  0  0
  -28.2355  -12.5642   19.1379 C   0  0  0  0  0  0
  -27.2850  -13.4362   19.9290 C   0  0  2  0  0  0
  -27.7839  -14.3401   21.1171 C   0  0  0  0  0  0
  -25.0091  -13.7969   20.5308 C   0  0  0  0  0  0
  -24.0209  -12.9904   20.9362 C   0  0  0  0  0  0
  -24.5474  -11.6609   20.8937 C   0  0  0  0  0  0
  -23.8604  -10.3972   21.0539 C   0  0  0  0  0  0
  -24.3372   -9.3999   21.9272 C   0  0  0  0  0  0
  -23.6153   -8.2001   22.0775 C   0  0  0  0  0  0
  -22.4145   -8.0037   21.3540 C   0  0  0  0  0  0
  -21.9680   -8.9930   20.4629 C   0  0  0  0  0  0
  -22.6892  -10.1826   20.3078 C   0  0  0  0  0  0
  -21.6778   -6.0608   22.5303 C   0  0  0  0  0  0
  -21.3959   -6.5566   23.8217 C   0  0  0  0  0  0
  -21.3639   -5.6749   24.9198 C   0  0  0  0  0  0
  -21.6042   -4.3010   24.7269 C   0  0  0  0  0  0
  -21.8830   -3.8071   23.4403 C   0  0  0  0  0  0
  -21.9176   -4.6859   22.3444 C   0  0  0  0  0  0
  -22.6412  -13.4647   21.2168 C   0  0  0  0  0  0
  -22.1658   -4.2056   21.1019 F   0  0  0  0  0  0
  -21.5640   -3.4512   25.7794 F   0  0  0  0  0  0
  -27.9154  -15.7934   20.5735 N   0  0  0  0  0  0
  -26.0584  -12.9456   20.3093 N   0  0  0  0  0  0
  -25.8338  -11.6503   20.5755 N   0  0  0  0  0  0
  -21.9351  -12.7715   22.0940 N   0  0  0  0  0  0
  -25.0853  -15.1752   20.3232 N   0  0  0  0  0  0
  -28.6652  -17.4558   20.7480 O   0  0  0  0  0  0
  -21.6533   -6.8664   21.4235 O   0  0  0  0  0  0
  -22.2160  -14.5012   20.7055 O   0  0  0  0  0  0
  -24.6316  -32.0863   22.9743 C   0  0  0  0  0  0
  -25.9115  -32.5577   23.7652 C   0  0  1  0  0  0
  -26.3002  -27.5470   21.2565 C   0  0  0  0  0  0
  -25.6001  -33.9104   24.2126 N   0  0  0  0  0  0
  -23.4976  -30.7368   21.0660 C   0  0  2  0  0  0
  -25.0521  -29.2609   19.7083 C   0  0  0  0  0  0
  -23.3805  -29.4424   21.8069 C   0  0  0  0  0  0
  -19.4179  -25.7427   23.4366 C   0  0  0  0  0  0
  -24.1462  -36.7609   23.2650 C   0  0  0  0  0  0
  -26.0155  -31.1576   21.0871 C   0  0  0  0  0  0
  -26.0927  -29.7327   20.5382 C   0  0  0  0  0  0
  -26.9221  -28.7985   21.1682 C   0  0  0  0  0  0
  -25.8292  -27.0049   20.0277 C   0  0  0  0  0  0
  -25.0361  -27.9076   19.2960 C   0  0  0  0  0  0
  -23.8178  -30.1658   19.6583 C   0  0  0  0  0  0
  -25.4100  -36.3473   24.0346 C   0  0  1  0  0  0
  -22.0032  -27.0903   22.6854 C   0  0  2  0  0  0
  -22.4433  -26.4511   21.1802 C   0  0  0  0  0  0
  -21.5461  -25.7769   19.9715 C   0  0  0  0  0  0
  -20.3836  -24.7542   20.4487 C   0  0  0  0  0  0
  -20.3413  -26.9477   23.9047 C   0  0  0  0  0  0
  -19.6203  -28.1534   24.7042 C   0  0  0  0  0  0
  -18.4052  -28.9150   24.3808 C   0  0  0  0  0  0
  -25.9069  -34.9972   23.5014 C   0  0  0  0  0  0
  -17.5220  -28.0632   23.7374 C   0  0  0  0  0  0
  -17.9870  -26.6324   23.5511 C   0  0  0  0  0  0
  -26.4192  -31.6953   25.0040 C   0  0  0  0  0  0
  -25.3392  -31.3767   26.0604 C   0  0  0  0  0  0
  -27.0420  -30.3675   24.5291 C   0  0  0  0  0  0
  -27.5629  -32.4531   25.7289 C   0  0  0  0  0  0
  -27.5617  -37.1978   24.8469 C   0  0  0  0  0  0
  -22.6054  -28.3063   21.6714 N   0  0  0  0  0  0
  -26.4299  -37.4127   23.9481 N   0  0  0  0  0  0
  -24.6998  -31.5253   21.6925 N   0  0  0  0  0  0
  -24.2150  -29.5053   22.6176 O   0  0  0  0  0  0
  -25.6715  -27.1179   22.5152 O   0  0  0  0  0  0
  -26.5562  -34.9485   22.4529 O   0  0  0  0  0  0
  -23.5457  -32.2123   23.5650 O   0  0  0  0  0  0
  -21.3596  -24.6584   22.4070 C   0  0  0  0  0  0
  -20.3194  -22.7881   22.0481 C   0  0  0  0  0  0
  -18.4953  -25.4543   21.3651 C   0  0  0  0  0  0
  -22.0366  -22.7652   21.9671 C   0  0  0  0  0  0
  -19.9749  -26.5425   21.5445 C   0  0  0  0  0  0
  -18.8617  -23.7805   21.8950 C   0  0  0  0  0  0
  -23.9295  -20.6458   21.5556 C   0  0  0  0  0  0
  -20.0719  -28.4418   21.9703 C   0  0  0  0  0  0
  -25.6133  -19.3270   21.2913 C   0  0  0  0  0  0
  -20.9683  -29.3069   23.0288 C   0  0  0  0  0  0
  -17.5885  -22.9675   22.0174 C   0  0  0  0  0  0
  -22.5858  -28.7826   24.2207 C   0  0  0  0  0  0
  -24.4202  -27.6133   23.8308 C   0  0  0  0  0  0
  -29.7029  -15.7399   19.1736 H   0  0  0  0  0  0
  -30.0839  -14.8383   20.5349 H   0  0  0  0  0  0
  -30.2673  -13.1774   18.7201 H   0  0  0  0  0  0
  -29.0494  -13.9787   17.7768 H   0  0  0  0  0  0
  -28.6551  -11.7806   19.7694 H   0  0  0  0  0  0
  -27.7733  -12.1079   18.2613 H   0  0  0  0  0  0
  -26.9788  -14.1119   19.1239 H   0  0  0  0  0  0
  -28.6118  -13.9027   21.6850 H   0  0  0  0  0  0
  -27.0515  -14.4236   21.9205 H   0  0  0  0  0  0
  -25.2481   -9.5608   22.4872 H   0  0  0  0  0  0
  -23.9891   -7.4397   22.7487 H   0  0  0  0  0  0
  -21.0618   -8.8372   19.8938 H   0  0  0  0  0  0
  -22.3299  -10.9372   19.6216 H   0  0  0  0  0  0
  -21.1927   -7.6073   23.9687 H   0  0  0  0  0  0
  -21.1456   -6.0493   25.9093 H   0  0  0  0  0  0
  -22.0637   -2.7535   23.2929 H   0  0  0  0  0  0
  -22.3113  -11.9406   22.5256 H   0  0  0  0  0  0
  -21.0040  -13.0756   22.3420 H   0  0  0  0  0  0
  -24.2425  -15.7400   20.3274 H   0  0  0  0  0  0
  -25.8492  -15.5815   19.8004 H   0  0  0  0  0  0
  -26.7713  -32.6596   23.1129 H   0  0  0  0  0  0
  -25.0207  -34.0063   25.0331 H   0  0  0  0  0  0
  -22.5709  -31.3102   21.0935 H   0  0  0  0  0  0
  -23.3765  -35.9900   23.3310 H   0  0  0  0  0  0
  -24.3549  -36.9246   22.2066 H   0  0  0  0  0  0
  -23.7156  -37.6787   23.6665 H   0  0  0  0  0  0
  -26.1971  -31.8454   20.2609 H   0  0  0  0  0  0
  -26.8784  -31.2584   21.7327 H   0  0  0  0  0  0
  -27.4859  -29.1548   22.0166 H   0  0  0  0  0  0
  -25.5388  -25.9663   19.9555 H   0  0  0  0  0  0
  -24.2775  -27.5335   18.6232 H   0  0  0  0  0  0
  -24.0174  -30.9873   18.9697 H   0  0  0  0  0  0
  -22.9652  -29.6288   19.2370 H   0  0  0  0  0  0
  -25.1285  -36.2270   25.0833 H   0  0  0  0  0  0
  -22.6445  -26.5443   23.3074 H   0  0  0  0  0  0
  -23.1635  -25.6797   21.4704 H   0  0  0  0  0  0
  -23.3040  -26.7489   20.5685 H   0  0  0  0  0  0
  -22.2129  -25.2479   19.2888 H   0  0  0  0  0  0
  -21.1290  -26.5713   19.3474 H   0  0  0  0  0  0
  -19.6915  -24.7889   19.5869 H   0  0  0  0  0  0
  -20.8282  -23.8103   20.1337 H   0  0  0  0  0  0
  -20.2498  -28.7705   25.3244 H   0  0  0  0  0  0
  -18.1465  -29.8871   24.7768 H   0  0  0  0  0  0
  -16.4911  -28.3481   23.5761 H   0  0  0  0  0  0
  -17.1227  -26.0420   23.2789 H   0  0  0  0  0  0
  -24.5717  -30.7194   25.6590 H   0  0  0  0  0  0
  -24.8465  -32.2799   26.4206 H   0  0  0  0  0  0
  -25.7681  -30.8727   26.9278 H   0  0  0  0  0  0
  -26.3424  -29.7898   23.9354 H   0  0  0  0  0  0
  -27.3615  -29.7443   25.3656 H   0  0  0  0  0  0
  -27.9200  -30.5444   23.9066 H   0  0  0  0  0  0
  -27.2150  -33.3778   26.1908 H   0  0  0  0  0  0
  -28.3641  -32.7215   25.0388 H   0  0  0  0  0  0
  -28.0054  -31.8544   26.5257 H   0  0  0  0  0  0
  -28.2654  -38.0271   24.7629 H   0  0  0  0  0  0
  -28.1094  -36.2838   24.6130 H   0  0  0  0  0  0
  -27.2377  -37.1466   25.8878 H   0  0  0  0  0  0
  -22.0383  -28.3515   20.8395 H   0  0  0  0  0  0
  -26.0237  -38.3206   24.1587 H   0  0  0  0  0  0
  -22.0937  -24.8038   23.1706 H   0  0  0  0  0  0
  -20.0027  -21.7574   22.1220 H   0  0  0  0  0  0
  -17.4977  -25.8234   21.1676 H   0  0  0  0  0  0
  -23.1871  -19.8847   21.3627 H   0  0  0  0  0  0
  -19.3399  -29.0187   21.4230 H   0  0  0  0  0  0
  -26.3650  -20.0861   21.4512 H   0  0  0  0  0  0
  -20.7223  -30.3563   23.1019 H   0  0  0  0  0  0
  -17.7374  -22.0729   22.6208 H   0  0  0  0  0  0
  -17.2434  -22.6634   21.0281 H   0  0  0  0  0  0
  -16.8008  -23.5608   22.4821 H   0  0  0  0  0  0
  -22.2285  -28.3496   25.1516 H   0  0  0  0  0  0
  -22.9077  -29.7516   24.6000 H   0  0  0  0  0  0
  -24.3099  -26.6772   24.3819 H   0  0  0  0  0  0
  -25.1010  -28.0936   24.5310 H   0  0  0  0  0  0
  1 25  1  0  0  0
  1 30  2  0  0  0
  1 79  1  0  0  0
  2  3  1  0  0  0
  2 25  1  0  0  0
  2 84  1  0  0  0
  2 85  1  0  0  0
  3  4  1  0  0  0
  3 86  1  0  0  0
  3 87  1  0  0  0
  4  5  1  0  0  0
  4 88  1  0  0  0
  4 89  1  0  0  0
  5  6  1  0  0  0
  5 26  1  0  0  0
  5 90  1  0  0  0
  6 25  1  0  0  0
  6 91  1  0  0  0
  6 92  1  0  0  0
  7  8  2  0  0  0
  7 26  1  0  0  0
  7 29  1  0  0  0
  8  9  1  0  0  0
  8 22  1  0  0  0
  9 10  1  0  0  0
  9 27  2  0  0  0
 10 11  2  0  0  0
 10 15  1  0  0  0
 11 12  1  0  0  0
 11 93  1  0  0  0
 12 13  2  0  0  0
 12 94  1  0  0  0
 13 14  1  0  0  0
 13 31  1  0  0  0
 14 15  2  0  0  0
 14 95  1  0  0  0
 15 96  1  0  0  0
 16 17  2  0  0  0
 16 21  1  0  0  0
 16 31  1  0  0  0
 17 18  1  0  0  0
 17 97  1  0  0  0
 18 19  2  0  0  0
 18 98  1  0  0  0
 19 20  1  0  0  0
 19 24  1  0  0  0
 20 21  2  0  0  0
 20 99  1  0  0  0
 21 23  1  0  0  0
 22 28  1  0  0  0
 22 32  2  0  0  0
 26 27  1  0  0  0
 28100  1  0  0  0
 28101  1  0  0  0
 29102  1  0  0  0
 29103  1  0  0  0
 33 34  1  0  0  0
 33 66  1  0  0  0
 33 70  2  0  0  0
 34 36  1  0  0  0
 34 59  1  0  0  0
 34104  1  0  0  0
 35 44  2  0  0  0
 35 45  1  0  0  0
 35 68  1  0  0  0
 36 56  1  0  0  0
 36105  1  0  0  0
 37 39  1  0  0  0
 37 47  1  0  0  0
 37 66  1  0  0  0
 37106  1  0  0  0
 38 43  2  0  0  0
 38 46  1  0  0  0
 38 47  1  0  0  0
 39 64  1  0  0  0
 39 67  2  0  0  0
 40 52  1  0  0  0
 40 53  2  0  0  0
 40 58  1  0  0  0
 41107  1  0  0  0
 41108  1  0  0  0
 41109  1  0  0  0
 41 48  1  0  0  0
 42 43  1  0  0  0
 42 66  1  0  0  0
 42110  1  0  0  0
 42111  1  0  0  0
 43 44  1  0  0  0
 44112  1  0  0  0
 45 46  2  0  0  0
 45113  1  0  0  0
 46114  1  0  0  0
 47115  1  0  0  0
 47116  1  0  0  0
 48 56  1  0  0  0
 48 65  1  0  0  0
 48117  1  0  0  0
 49 50  1  0  0  0
 49 53  1  0  0  0
 49 64  1  0  0  0
 49118  1  0  0  0
 50 51  1  0  0  0
 50119  1  0  0  0
 50120  1  0  0  0
 51 52  1  0  0  0
 51121  1  0  0  0
 51122  1  0  0  0
 52123  1  0  0  0
 52124  1  0  0  0
 53 54  1  0  0  0
 54 55  2  0  0  0
 54125  1  0  0  0
 55 57  1  0  0  0
 55126  1  0  0  0
 56 69  2  0  0  0
 57 58  2  0  0  0
 57127  1  0  0  0
 58128  1  0  0  0
 59 60  1  0  0  0
 59 61  1  0  0  0
 59 62  1  0  0  0
 60129  1  0  0  0
 60130  1  0  0  0
 60131  1  0  0  0
 61132  1  0  0  0
 61133  1  0  0  0
 61134  1  0  0  0
 62135  1  0  0  0
 62136  1  0  0  0
 62137  1  0  0  0
 63 65  1  0  0  0
 63138  1  0  0  0
 63139  1  0  0  0
 63140  1  0  0  0
 64141  1  0  0  0
 65142  1  0  0  0
 68 83  1  0  0  0
 71 74  2  0  0  0
 71 75  1  0  0  0
 71143  1  0  0  0
 72 74  1  0  0  0
 72 76  2  0  0  0
 72144  1  0  0  0
 73 75  2  0  0  0
 73 76  1  0  0  0
 73145  1  0  0  0
 74 77  1  0  0  0
 75 78  1  0  0  0
 76 81  1  0  0  0
 77 79  2  0  0  0
 77146  1  0  0  0
 78 80  2  0  0  0
 78147  1  0  0  0
 79148  1  0  0  0
 80 82  1  0  0  0
 80149  1  0  0  0
 81150  1  0  0  0
 81151  1  0  0  0
 81152  1  0  0  0
 82 83  1  0  0  0
 82153  1  0  0  0
 82154  1  0  0  0
 83155  1  0  0  0
 83156  1  0  0  0
M  ISO  4   1 100  68 101  79 100  83 101
M  END
> <chiral flag>
0

> <version>
0

> <s_m_source_file>
/data/baiqing/PycharmProjects/Reinvent-master-3.2/result/LINK_invent/BTK/process_docking_weight1_custom_product_contain_oxygen_bond_distance_aromatic_linkinvent_7_9_3/rearranged_h_0125.sdf

> <i_m_source_file_index>
11

> <r_mmod_Potential_Energy-OPLS-2005>
40960.8984375

> <r_mmod_Stretch_Energy-OPLS-2005>
18315.40234375

> <r_mmod_Bend_Energy-OPLS-2005>
2864.71630859375

> <r_mmod_Torsional_Energy-OPLS-2005>
799.324645996094

> <r_mmod_Improper_Torsional_Energy-OPLS-2005>
88.1467056274414

> <r_mmod_Van_der_Waal_Energy-OPLS-2005>
4392.71337890625

> <r_mmod_Electrostatic_Energy-OPLS-2005>
-310.3935546875

> <r_mmod_Solvation_Energy-OPLS-2005>
-174.134902954102

> <b_mmod_Minimization_Converged-OPLS-2005>
0

> <r_mmod_RMS_Derivative-OPLS-2005>
3.52138090133667

$$$$
11
                    3D
 Structure written by MMmdl.
158166  0  0  1  0            999 V2000
  -30.5657  -14.9216   20.3781 C   0  0  0  0  0  0
  -30.4470  -12.5636   19.4769 C   0  0  0  0  0  0
  -29.5117  -12.4929   18.2468 C   0  0  0  0  0  0
  -28.0505  -12.2575   18.6816 C   0  0  0  0  0  0
  -27.6164  -13.1971   19.8324 C   0  0  2  0  0  0
  -28.6763  -13.2790   20.9529 C   0  0  0  0  0  0
  -25.2505  -13.8073   20.5783 C   0  0  0  0  0  0
  -24.1767  -13.0378   20.9273 C   0  0  0  0  0  0
  -24.6312  -11.6838   20.8815 C   0  0  0  0  0  0
  -23.8991  -10.4251   21.0454 C   0  0  0  0  0  0
  -24.3572   -9.4172   21.9214 C   0  0  0  0  0  0
  -23.6261   -8.2207   22.0761 C   0  0  0  0  0  0
  -22.4250   -8.0251   21.3544 C   0  0  0  0  0  0
  -21.9875   -9.0223   20.4652 C   0  0  0  0  0  0
  -22.7185  -10.2104   20.3077 C   0  0  0  0  0  0
  -21.6835   -6.0721   22.5279 C   0  0  0  0  0  0
  -21.4005   -6.5634   23.8211 C   0  0  0  0  0  0
  -21.3659   -5.6791   24.9178 C   0  0  0  0  0  0
  -21.6047   -4.3053   24.7228 C   0  0  0  0  0  0
  -21.8815   -3.8140   23.4350 C   0  0  0  0  0  0
  -21.9183   -4.6954   22.3404 C   0  0  0  0  0  0
  -22.7802  -13.5207   21.1902 C   0  0  0  0  0  0
  -22.1654   -4.2141   21.0982 F   0  0  0  0  0  0
  -21.5632   -3.4537   25.7743 F   0  0  0  0  0  0
  -29.9601  -13.6660   20.3446 N   0  0  0  0  0  0
  -26.2836  -12.9161   20.3334 N   0  0  0  0  0  0
  -25.9222  -11.6362   20.5833 N   0  0  0  0  0  0
  -22.0420  -12.8220   22.0446 N   0  0  0  0  0  0
  -25.4273  -15.1802   20.4187 N   0  0  0  0  0  0
  -31.7951  -14.9775   20.2794 O   0  0  0  0  0  0
  -21.6617   -6.8856   21.4237 O   0  0  0  0  0  0
  -22.3522  -14.5523   20.6733 O   0  0  0  0  0  0
  -24.6376  -31.8486   23.1903 C   0  0  0  0  0  0
  -25.9171  -32.4720   23.8273 C   0  0  1  0  0  0
  -27.2342  -27.1930   20.1604 C   0  0  0  0  0  0
  -25.5940  -33.8522   24.2207 N   0  0  0  0  0  0
  -23.4396  -30.4659   21.5350 C   0  0  2  0  0  0
  -24.8932  -28.8948   20.1168 C   0  0  0  0  0  0
  -22.7539  -29.4569   22.4891 C   0  0  0  0  0  0
  -18.0298  -28.1384   22.8482 C   0  0  0  0  0  0
  -24.1492  -36.7274   23.2640 C   0  0  0  0  0  0
  -25.9899  -30.7425   21.3792 C   0  0  0  0  0  0
  -26.0674  -29.3557   20.7269 C   0  0  0  0  0  0
  -27.2414  -28.5221   20.7283 C   0  0  0  0  0  0
  -26.0364  -26.8159   19.5158 C   0  0  0  0  0  0
  -24.8866  -27.6353   19.4962 C   0  0  0  0  0  0
  -23.6644  -29.7888   20.1565 C   0  0  0  0  0  0
  -25.4119  -36.3045   24.0315 C   0  0  1  0  0  0
  -20.5907  -28.3711   23.1245 C   0  0  2  0  0  0
  -20.6787  -26.9419   22.5402 C   0  0  0  0  0  0
  -19.5764  -26.6379   21.5207 C   0  0  0  0  0  0
  -18.1943  -26.7930   22.1617 C   0  0  0  0  0  0
  -19.1553  -28.8863   23.2856 C   0  0  0  0  0  0
  -18.9473  -30.1462   23.8873 C   0  0  0  0  0  0
  -17.6469  -30.6585   24.0555 C   0  0  0  0  0  0
  -25.9064  -34.9421   23.5067 C   0  0  0  0  0  0
  -16.5359  -29.9077   23.6331 C   0  0  0  0  0  0
  -16.7284  -28.6494   23.0360 C   0  0  0  0  0  0
  -26.4512  -31.6567   25.0693 C   0  0  0  0  0  0
  -25.3709  -31.3739   26.1396 C   0  0  0  0  0  0
  -27.0384  -30.2974   24.6239 C   0  0  0  0  0  0
  -27.6045  -32.4328   25.7481 C   0  0  0  0  0  0
  -27.5578  -37.1783   24.8457 C   0  0  0  0  0  0
  -21.4241  -29.3044   22.3626 N   0  0  0  0  0  0
  -26.4287  -37.3752   23.9406 N   0  0  0  0  0  0
  -24.7082  -31.0392   22.0905 N   0  0  0  0  0  0
  -23.4202  -28.8130   23.3036 O   0  0  0  0  0  0
  -28.3168  -26.2583   20.1834 O   0  0  0  0  0  0
  -26.5650  -34.8912   22.4646 O   0  0  0  0  0  0
  -23.5508  -32.1334   23.7157 O   0  0  0  0  0  0
  -29.8958  -18.8114   19.3301 C   0  0  0  0  0  0
  -29.6490  -20.2305   19.4996 C   0  0  0  0  0  0
  -29.1821  -19.8143   21.7737 C   0  0  0  0  0  0
  -29.7738  -17.7957   20.3493 C   0  0  0  0  0  0
  -29.4264  -18.3894   21.6115 C   0  0  0  0  0  0
  -29.2363  -20.8063   20.7356 C   0  0  0  0  0  0
  -29.6797  -16.2470   19.9354 C   0  0  0  0  0  0
  -30.3611  -16.1443   24.6731 C   0  0  0  0  0  0
  -29.2213  -17.4939   22.8262 C   0  0  0  0  0  0
  -30.5480  -17.1261   23.5099 C   0  0  0  0  0  0
  -28.0925  -24.8047   20.6333 C   0  0  0  0  0  0
  -28.8866  -23.4220   20.1421 C   0  0  0  0  0  0
  -28.8449  -16.0734   19.0020 N   0  0  0  0  0  0
  -28.8601  -22.1807   21.0202 O   0  0  0  0  0  0
  -31.4763  -12.7300   19.1543 H   0  0  0  0  0  0
  -30.4476  -11.6173   20.0209 H   0  0  0  0  0  0
  -29.8329  -11.6932   17.5780 H   0  0  0  0  0  0
  -29.5833  -13.4171   17.6723 H   0  0  0  0  0  0
  -27.9718  -11.2208   19.0115 H   0  0  0  0  0  0
  -27.3761  -12.3571   17.8309 H   0  0  0  0  0  0
  -27.5127  -14.1585   19.3603 H   0  0  0  0  0  0
  -28.7692  -12.3217   21.4687 H   0  0  0  0  0  0
  -28.3810  -14.0100   21.7074 H   0  0  0  0  0  0
  -25.2713   -9.5655   22.4794 H   0  0  0  0  0  0
  -23.9972   -7.4594   22.7470 H   0  0  0  0  0  0
  -21.0813   -8.8741   19.8950 H   0  0  0  0  0  0
  -22.3654  -10.9656   19.6197 H   0  0  0  0  0  0
  -21.1994   -7.6142   23.9714 H   0  0  0  0  0  0
  -21.1491   -6.0523   25.9082 H   0  0  0  0  0  0
  -22.0592   -2.7601   23.2852 H   0  0  0  0  0  0
  -22.4019  -11.9875   22.4846 H   0  0  0  0  0  0
  -21.1036  -13.1261   22.2647 H   0  0  0  0  0  0
  -24.6649  -15.8396   20.5307 H   0  0  0  0  0  0
  -26.2816  -15.6137   20.0858 H   0  0  0  0  0  0
  -26.7245  -32.5359   23.1015 H   0  0  0  0  0  0
  -25.0067  -33.9645   25.0340 H   0  0  0  0  0  0
  -22.7389  -31.2894   21.3792 H   0  0  0  0  0  0
  -23.3752  -35.9606   23.3280 H   0  0  0  0  0  0
  -24.3579  -36.8930   22.2060 H   0  0  0  0  0  0
  -23.7250  -37.6465   23.6691 H   0  0  0  0  0  0
  -26.1360  -31.4980   20.6062 H   0  0  0  0  0  0
  -26.8639  -30.7962   22.0168 H   0  0  0  0  0  0
  -28.1414  -28.8771   21.2112 H   0  0  0  0  0  0
  -25.9784  -25.8523   19.0292 H   0  0  0  0  0  0
  -23.9902  -27.2751   19.0098 H   0  0  0  0  0  0
  -23.7940  -30.5599   19.3962 H   0  0  0  0  0  0
  -22.7821  -29.2223   19.8519 H   0  0  0  0  0  0
  -25.1304  -36.1872   25.0805 H   0  0  0  0  0  0
  -20.9995  -28.3298   24.1371 H   0  0  0  0  0  0
  -20.5686  -26.2322   23.3620 H   0  0  0  0  0  0
  -21.6656  -26.7441   22.1196 H   0  0  0  0  0  0
  -19.6925  -25.6287   21.1253 H   0  0  0  0  0  0
  -19.6696  -27.3180   20.6733 H   0  0  0  0  0  0
  -17.4215  -26.6681   21.4016 H   0  0  0  0  0  0
  -18.0330  -26.0065   22.9007 H   0  0  0  0  0  0
  -19.7950  -30.7285   24.2236 H   0  0  0  0  0  0
  -17.5024  -31.6269   24.5156 H   0  0  0  0  0  0
  -15.5359  -30.2971   23.7669 H   0  0  0  0  0  0
  -15.8689  -28.0804   22.7088 H   0  0  0  0  0  0
  -24.5899  -30.7078   25.7712 H   0  0  0  0  0  0
  -24.8885  -32.2919   26.4761 H   0  0  0  0  0  0
  -25.7999  -30.8950   27.0210 H   0  0  0  0  0  0
  -26.2999  -29.6689   24.1252 H   0  0  0  0  0  0
  -27.4037  -29.7267   25.4787 H   0  0  0  0  0  0
  -27.8881  -30.4227   23.9524 H   0  0  0  0  0  0
  -27.2644  -33.3653   26.1994 H   0  0  0  0  0  0
  -28.3890  -32.6847   25.0333 H   0  0  0  0  0  0
  -28.0677  -31.8495   26.5452 H   0  0  0  0  0  0
  -28.2566  -38.0109   24.7532 H   0  0  0  0  0  0
  -28.1104  -36.2636   24.6245 H   0  0  0  0  0  0
  -27.2299  -37.1386   25.8861 H   0  0  0  0  0  0
  -20.9443  -29.8739   21.6797 H   0  0  0  0  0  0
  -26.0154  -38.2820   24.1411 H   0  0  0  0  0  0
  -30.1216  -18.4768   18.3271 H   0  0  0  0  0  0
  -29.7375  -20.8733   18.6357 H   0  0  0  0  0  0
  -28.8922  -20.1617   22.7556 H   0  0  0  0  0  0
  -31.3152  -15.9222   25.1525 H   0  0  0  0  0  0
  -29.9382  -15.1994   24.3306 H   0  0  0  0  0  0
  -29.6960  -16.5530   25.4345 H   0  0  0  0  0  0
  -28.6836  -16.5927   22.5307 H   0  0  0  0  0  0
  -28.5671  -17.9950   23.5413 H   0  0  0  0  0  0
  -31.2288  -16.6826   22.7834 H   0  0  0  0  0  0
  -31.0373  -18.0317   23.8728 H   0  0  0  0  0  0
  -28.2794  -24.8599   21.7060 H   0  0  0  0  0  0
  -27.0284  -24.5816   20.5742 H   0  0  0  0  0  0
  -29.9388  -23.6720   20.0072 H   0  0  0  0  0  0
  -28.5204  -23.1437   19.1537 H   0  0  0  0  0  0
  -28.8530  -15.1062   18.7013 H   0  0  0  0  0  0
  1 25  1  0  0  0
  1 30  2  0  0  0
  1 77  1  0  0  0
  2  3  1  0  0  0
  2 25  1  0  0  0
  2 85  1  0  0  0
  2 86  1  0  0  0
  3  4  1  0  0  0
  3 87  1  0  0  0
  3 88  1  0  0  0
  4  5  1  0  0  0
  4 89  1  0  0  0
  4 90  1  0  0  0
  5  6  1  0  0  0
  5 26  1  0  0  0
  5 91  1  0  0  0
  6 25  1  0  0  0
  6 92  1  0  0  0
  6 93  1  0  0  0
  7  8  2  0  0  0
  7 26  1  0  0  0
  7 29  1  0  0  0
  8  9  1  0  0  0
  8 22  1  0  0  0
  9 10  1  0  0  0
  9 27  2  0  0  0
 10 11  2  0  0  0
 10 15  1  0  0  0
 11 12  1  0  0  0
 11 94  1  0  0  0
 12 13  2  0  0  0
 12 95  1  0  0  0
 13 14  1  0  0  0
 13 31  1  0  0  0
 14 15  2  0  0  0
 14 96  1  0  0  0
 15 97  1  0  0  0
 16 17  2  0  0  0
 16 21  1  0  0  0
 16 31  1  0  0  0
 17 18  1  0  0  0
 17 98  1  0  0  0
 18 19  2  0  0  0
 18 99  1  0  0  0
 19 20  1  0  0  0
 19 24  1  0  0  0
 20 21  2  0  0  0
 20100  1  0  0  0
 21 23  1  0  0  0
 22 28  1  0  0  0
 22 32  2  0  0  0
 26 27  1  0  0  0
 28101  1  0  0  0
 28102  1  0  0  0
 29103  1  0  0  0
 29104  1  0  0  0
 33 34  1  0  0  0
 33 66  1  0  0  0
 33 70  2  0  0  0
 34 36  1  0  0  0
 34 59  1  0  0  0
 34105  1  0  0  0
 35 44  2  0  0  0
 35 45  1  0  0  0
 35 68  1  0  0  0
 36 56  1  0  0  0
 36106  1  0  0  0
 37 39  1  0  0  0
 37 47  1  0  0  0
 37 66  1  0  0  0
 37107  1  0  0  0
 38 43  2  0  0  0
 38 46  1  0  0  0
 38 47  1  0  0  0
 39 64  1  0  0  0
 39 67  2  0  0  0
 40 52  1  0  0  0
 40 53  2  0  0  0
 40 58  1  0  0  0
 41108  1  0  0  0
 41109  1  0  0  0
 41110  1  0  0  0
 41 48  1  0  0  0
 42 43  1  0  0  0
 42 66  1  0  0  0
 42111  1  0  0  0
 42112  1  0  0  0
 43 44  1  0  0  0
 44113  1  0  0  0
 45 46  2  0  0  0
 45114  1  0  0  0
 46115  1  0  0  0
 47116  1  0  0  0
 47117  1  0  0  0
 48 56  1  0  0  0
 48 65  1  0  0  0
 48118  1  0  0  0
 49 50  1  0  0  0
 49 53  1  0  0  0
 49 64  1  0  0  0
 49119  1  0  0  0
 50 51  1  0  0  0
 50120  1  0  0  0
 50121  1  0  0  0
 51 52  1  0  0  0
 51122  1  0  0  0
 51123  1  0  0  0
 52124  1  0  0  0
 52125  1  0  0  0
 53 54  1  0  0  0
 54 55  2  0  0  0
 54126  1  0  0  0
 55 57  1  0  0  0
 55127  1  0  0  0
 56 69  2  0  0  0
 57 58  2  0  0  0
 57128  1  0  0  0
 58129  1  0  0  0
 59 60  1  0  0  0
 59 61  1  0  0  0
 59 62  1  0  0  0
 60130  1  0  0  0
 60131  1  0  0  0
 60132  1  0  0  0
 61133  1  0  0  0
 61134  1  0  0  0
 61135  1  0  0  0
 62136  1  0  0  0
 62137  1  0  0  0
 62138  1  0  0  0
 63 65  1  0  0  0
 63139  1  0  0  0
 63140  1  0  0  0
 63141  1  0  0  0
 64142  1  0  0  0
 65143  1  0  0  0
 68 81  1  0  0  0
 71 72  2  0  0  0
 71 74  1  0  0  0
 71144  1  0  0  0
 72 76  1  0  0  0
 72145  1  0  0  0
 73 75  1  0  0  0
 73 76  2  0  0  0
 73146  1  0  0  0
 74 75  2  0  0  0
 74 77  1  0  0  0
 75 79  1  0  0  0
 76 84  1  0  0  0
 77 83  2  0  0  0
 78 80  1  0  0  0
 78147  1  0  0  0
 78148  1  0  0  0
 78149  1  0  0  0
 79 80  1  0  0  0
 79150  1  0  0  0
 79151  1  0  0  0
 80152  1  0  0  0
 80153  1  0  0  0
 81 82  1  0  0  0
 81154  1  0  0  0
 81155  1  0  0  0
 82 84  1  0  0  0
 82156  1  0  0  0
 82157  1  0  0  0
 83158  1  0  0  0
M  ISO  4   1 100  68 101  77 100  81 101
M  END
> <chiral flag>
0

> <version>
0

> <s_m_source_file>
/data/baiqing/PycharmProjects/Reinvent-master-3.2/result/LINK_invent/BTK/process_docking_weight1_custom_product_contain_oxygen_bond_distance_aromatic_linkinvent_7_9_3/rearranged_h_0125.sdf

> <i_m_source_file_index>
12

> <r_mmod_Potential_Energy-OPLS-2005>
644.706726074219

> <r_mmod_Stretch_Energy-OPLS-2005>
207.708938598633

> <r_mmod_Bend_Energy-OPLS-2005>
267.606750488281

> <r_mmod_Torsional_Energy-OPLS-2005>
257.321838378906

> <r_mmod_Improper_Torsional_Energy-OPLS-2005>
21.4087734222412

> <r_mmod_Van_der_Waal_Energy-OPLS-2005>
131.693328857422

> <r_mmod_Electrostatic_Energy-OPLS-2005>
-215.614898681641

> <r_mmod_Solvation_Energy-OPLS-2005>
-191.717254638672

> <b_mmod_Minimization_Converged-OPLS-2005>
0

> <r_mmod_RMS_Derivative-OPLS-2005>
1.27886569499969

$$$$
12
                    3D
 Structure written by MMmdl.
151159  0  0  1  0            999 V2000
  -30.5349  -14.9307   20.4127 C   0  0  0  0  0  0
  -30.4458  -12.5695   19.4924 C   0  0  0  0  0  0
  -29.5233  -12.5535   18.2493 C   0  0  0  0  0  0
  -28.0516  -12.3344   18.6555 C   0  0  0  0  0  0
  -27.6355  -13.2353   19.8463 C   0  0  2  0  0  0
  -28.6831  -13.2029   20.9803 C   0  0  0  0  0  0
  -25.2477  -13.8186   20.5676 C   0  0  0  0  0  0
  -24.1756  -13.0429   20.9110 C   0  0  0  0  0  0
  -24.6379  -11.6912   20.8670 C   0  0  0  0  0  0
  -23.9077  -10.4291   21.0363 C   0  0  0  0  0  0
  -24.3639   -9.4230   21.9160 C   0  0  0  0  0  0
  -23.6303   -8.2275   22.0750 C   0  0  0  0  0  0
  -22.4285   -8.0291   21.3540 C   0  0  0  0  0  0
  -21.9909   -9.0261   20.4648 C   0  0  0  0  0  0
  -22.7234  -10.2133   20.3038 C   0  0  0  0  0  0
  -21.6870   -6.0737   22.5282 C   0  0  0  0  0  0
  -21.4029   -6.5638   23.8211 C   0  0  0  0  0  0
  -21.3647   -5.6794   24.9182 C   0  0  0  0  0  0
  -21.6034   -4.3050   24.7231 C   0  0  0  0  0  0
  -21.8816   -3.8146   23.4350 C   0  0  0  0  0  0
  -21.9197   -4.6961   22.3407 C   0  0  0  0  0  0
  -22.7779  -13.5198   21.1789 C   0  0  0  0  0  0
  -22.1646   -4.2146   21.0980 F   0  0  0  0  0  0
  -21.5646   -3.4519   25.7732 F   0  0  0  0  0  0
  -29.9622  -13.6500   20.4041 N   0  0  0  0  0  0
  -26.2906  -12.9395   20.3288 N   0  0  0  0  0  0
  -25.9314  -11.6529   20.5712 N   0  0  0  0  0  0
  -22.0481  -12.8198   22.0383 N   0  0  0  0  0  0
  -25.4250  -15.1903   20.4190 N   0  0  0  0  0  0
  -31.7305  -15.0013   20.1051 O   0  0  0  0  0  0
  -21.6676   -6.8871   21.4232 O   0  0  0  0  0  0
  -22.3447  -14.5495   20.6634 O   0  0  0  0  0  0
  -24.6407  -31.8458   23.1892 C   0  0  0  0  0  0
  -25.9197  -32.4707   23.8269 C   0  0  1  0  0  0
  -27.2237  -27.1614   20.1361 C   0  0  0  0  0  0
  -25.5952  -33.8509   24.2199 N   0  0  0  0  0  0
  -23.4423  -30.4643   21.5370 C   0  0  2  0  0  0
  -24.8916  -28.8931   20.1121 C   0  0  0  0  0  0
  -22.7535  -29.4555   22.4885 C   0  0  0  0  0  0
  -18.0291  -28.1388   22.8467 C   0  0  0  0  0  0
  -24.1498  -36.7266   23.2634 C   0  0  0  0  0  0
  -25.9962  -30.7263   21.3838 C   0  0  0  0  0  0
  -26.0684  -29.3387   20.7264 C   0  0  0  0  0  0
  -27.2341  -28.4870   20.7249 C   0  0  0  0  0  0
  -26.0181  -26.8124   19.4855 C   0  0  0  0  0  0
  -24.8765  -27.6420   19.4793 C   0  0  0  0  0  0
  -23.6669  -29.7920   20.1563 C   0  0  0  0  0  0
  -25.4128  -36.3036   24.0312 C   0  0  1  0  0  0
  -20.5900  -28.3727   23.1238 C   0  0  2  0  0  0
  -20.6786  -26.9434   22.5398 C   0  0  0  0  0  0
  -19.5768  -26.6383   21.5199 C   0  0  0  0  0  0
  -18.1948  -26.7925   22.1609 C   0  0  0  0  0  0
  -19.1543  -28.8874   23.2848 C   0  0  0  0  0  0
  -18.9465  -30.1465   23.8876 C   0  0  0  0  0  0
  -17.6471  -30.6592   24.0555 C   0  0  0  0  0  0
  -25.9078  -34.9408   23.5066 C   0  0  0  0  0  0
  -16.5360  -29.9090   23.6327 C   0  0  0  0  0  0
  -16.7278  -28.6502   23.0351 C   0  0  0  0  0  0
  -26.4532  -31.6552   25.0692 C   0  0  0  0  0  0
  -25.3725  -31.3728   26.1392 C   0  0  0  0  0  0
  -27.0389  -30.2950   24.6247 C   0  0  0  0  0  0
  -27.6072  -32.4293   25.7481 C   0  0  0  0  0  0
  -27.5594  -37.1768   24.8446 C   0  0  0  0  0  0
  -21.4234  -29.3053   22.3621 N   0  0  0  0  0  0
  -26.4288  -37.3757   23.9416 N   0  0  0  0  0  0
  -24.7132  -31.0321   22.0927 N   0  0  0  0  0  0
  -23.4184  -28.8114   23.3040 O   0  0  0  0  0  0
  -28.2886  -26.1945   20.1963 O   0  0  0  0  0  0
  -26.5656  -34.8905   22.4640 O   0  0  0  0  0  0
  -23.5534  -32.1343   23.7120 O   0  0  0  0  0  0
  -29.1955  -19.0560   20.4563 C   0  0  0  0  0  0
  -31.4273  -18.1943   20.1569 C   0  0  0  0  0  0
  -30.9721  -20.6355   20.0225 C   0  0  0  0  0  0
  -30.0763  -17.8572   20.4095 C   0  0  0  0  0  0
  -29.5943  -20.4683   20.2631 C   0  0  0  0  0  0
  -31.8579  -19.5320   19.9719 C   0  0  0  0  0  0
  -29.6202  -16.3230   20.6341 C   0  0  0  0  0  0
  -28.6121  -21.7838   20.2432 C   0  0  0  0  0  0
  -29.0677  -23.3988   20.2876 C   0  0  0  0  0  0
  -28.0159  -24.6786   20.0323 C   0  0  0  0  0  0
  -28.4139  -16.2178   20.9992 N   0  0  0  0  0  0
  -33.1707  -19.7667   19.7376 F   0  0  0  0  0  0
  -31.4786  -12.7251   19.1786 H   0  0  0  0  0  0
  -30.4320  -11.5978   19.9894 H   0  0  0  0  0  0
  -29.8340  -11.7799   17.5481 H   0  0  0  0  0  0
  -29.6213  -13.5056   17.7232 H   0  0  0  0  0  0
  -27.9307  -11.2847   18.9260 H   0  0  0  0  0  0
  -27.3975  -12.5104   17.8009 H   0  0  0  0  0  0
  -27.6076  -14.2459   19.4411 H   0  0  0  0  0  0
  -28.7676  -12.1975   21.3941 H   0  0  0  0  0  0
  -28.3857  -13.8329   21.8188 H   0  0  0  0  0  0
  -25.2798   -9.5724   22.4718 H   0  0  0  0  0  0
  -24.0011   -7.4682   22.7480 H   0  0  0  0  0  0
  -21.0833   -8.8774   19.8959 H   0  0  0  0  0  0
  -22.3684  -10.9660   19.6143 H   0  0  0  0  0  0
  -21.2029   -7.6150   23.9691 H   0  0  0  0  0  0
  -21.1458   -6.0550   25.9073 H   0  0  0  0  0  0
  -22.0603   -2.7606   23.2875 H   0  0  0  0  0  0
  -22.4171  -11.9875   22.4734 H   0  0  0  0  0  0
  -21.1103  -13.1185   22.2654 H   0  0  0  0  0  0
  -24.6838  -15.8649   20.5653 H   0  0  0  0  0  0
  -26.3510  -15.6067   20.3450 H   0  0  0  0  0  0
  -26.7252  -32.5321   23.0993 H   0  0  0  0  0  0
  -25.0073  -33.9634   25.0330 H   0  0  0  0  0  0
  -22.7451  -31.2895   21.3821 H   0  0  0  0  0  0
  -23.3778  -35.9575   23.3231 H   0  0  0  0  0  0
  -24.3606  -36.8968   22.2063 H   0  0  0  0  0  0
  -23.7225  -37.6432   23.6716 H   0  0  0  0  0  0
  -26.1413  -31.4794   20.6082 H   0  0  0  0  0  0
  -26.8706  -30.7811   22.0210 H   0  0  0  0  0  0
  -28.1305  -28.8196   21.2307 H   0  0  0  0  0  0
  -25.9207  -25.8593   18.9889 H   0  0  0  0  0  0
  -23.9785  -27.2952   18.9884 H   0  0  0  0  0  0
  -23.7975  -30.5651   19.3982 H   0  0  0  0  0  0
  -22.7826  -29.2299   19.8500 H   0  0  0  0  0  0
  -25.1307  -36.1863   25.0802 H   0  0  0  0  0  0
  -20.9979  -28.3309   24.1363 H   0  0  0  0  0  0
  -20.5685  -26.2329   23.3618 H   0  0  0  0  0  0
  -21.6661  -26.7452   22.1199 H   0  0  0  0  0  0
  -19.6948  -25.6288   21.1246 H   0  0  0  0  0  0
  -19.6714  -27.3175   20.6716 H   0  0  0  0  0  0
  -17.4218  -26.6643   21.4016 H   0  0  0  0  0  0
  -18.0370  -26.0077   22.9014 H   0  0  0  0  0  0
  -19.7948  -30.7268   24.2251 H   0  0  0  0  0  0
  -17.5032  -31.6271   24.5157 H   0  0  0  0  0  0
  -15.5361  -30.2992   23.7671 H   0  0  0  0  0  0
  -15.8673  -28.0818   22.7093 H   0  0  0  0  0  0
  -24.5897  -30.7097   25.7697 H   0  0  0  0  0  0
  -24.8927  -32.2903   26.4791 H   0  0  0  0  0  0
  -25.8004  -30.8899   27.0184 H   0  0  0  0  0  0
  -26.2992  -29.6666   24.1277 H   0  0  0  0  0  0
  -27.4038  -29.7253   25.4803 H   0  0  0  0  0  0
  -27.8880  -30.4192   23.9527 H   0  0  0  0  0  0
  -27.2689  -33.3607   26.2034 H   0  0  0  0  0  0
  -28.3909  -32.6823   25.0327 H   0  0  0  0  0  0
  -28.0718  -31.8423   26.5424 H   0  0  0  0  0  0
  -28.2533  -38.0141   24.7589 H   0  0  0  0  0  0
  -28.1166  -36.2667   24.6147 H   0  0  0  0  0  0
  -27.2318  -37.1262   25.8847 H   0  0  0  0  0  0
  -20.9446  -29.8761   21.6795 H   0  0  0  0  0  0
  -26.0147  -38.2808   24.1478 H   0  0  0  0  0  0
  -28.1447  -18.8867   20.6424 H   0  0  0  0  0  0
  -32.1807  -17.4242   20.1008 H   0  0  0  0  0  0
  -31.3684  -21.6271   19.8568 H   0  0  0  0  0  0
  -27.9086  -21.6403   21.0636 H   0  0  0  0  0  0
  -28.0082  -21.6589   19.3428 H   0  0  0  0  0  0
  -29.8679  -23.5273   19.5582 H   0  0  0  0  0  0
  -29.5423  -23.5623   21.2551 H   0  0  0  0  0  0
  -27.1340  -24.4644   20.6376 H   0  0  0  0  0  0
  -27.6823  -24.5551   19.0004 H   0  0  0  0  0  0
  -27.9957  -17.1333   21.0971 H   0  0  0  0  0  0
  1 25  1  0  0  0
  1 30  2  0  0  0
  1 77  1  0  0  0
  2  3  1  0  0  0
  2 25  1  0  0  0
  2 83  1  0  0  0
  2 84  1  0  0  0
  3  4  1  0  0  0
  3 85  1  0  0  0
  3 86  1  0  0  0
  4  5  1  0  0  0
  4 87  1  0  0  0
  4 88  1  0  0  0
  5  6  1  0  0  0
  5 26  1  0  0  0
  5 89  1  0  0  0
  6 25  1  0  0  0
  6 90  1  0  0  0
  6 91  1  0  0  0
  7  8  2  0  0  0
  7 26  1  0  0  0
  7 29  1  0  0  0
  8  9  1  0  0  0
  8 22  1  0  0  0
  9 10  1  0  0  0
  9 27  2  0  0  0
 10 11  2  0  0  0
 10 15  1  0  0  0
 11 12  1  0  0  0
 11 92  1  0  0  0
 12 13  2  0  0  0
 12 93  1  0  0  0
 13 14  1  0  0  0
 13 31  1  0  0  0
 14 15  2  0  0  0
 14 94  1  0  0  0
 15 95  1  0  0  0
 16 17  2  0  0  0
 16 21  1  0  0  0
 16 31  1  0  0  0
 17 18  1  0  0  0
 17 96  1  0  0  0
 18 19  2  0  0  0
 18 97  1  0  0  0
 19 20  1  0  0  0
 19 24  1  0  0  0
 20 21  2  0  0  0
 20 98  1  0  0  0
 21 23  1  0  0  0
 22 28  1  0  0  0
 22 32  2  0  0  0
 26 27  1  0  0  0
 28 99  1  0  0  0
 28100  1  0  0  0
 29101  1  0  0  0
 29102  1  0  0  0
 33 34  1  0  0  0
 33 66  1  0  0  0
 33 70  2  0  0  0
 34 36  1  0  0  0
 34 59  1  0  0  0
 34103  1  0  0  0
 35 44  2  0  0  0
 35 45  1  0  0  0
 35 68  1  0  0  0
 36 56  1  0  0  0
 36104  1  0  0  0
 37 39  1  0  0  0
 37 47  1  0  0  0
 37 66  1  0  0  0
 37105  1  0  0  0
 38 43  2  0  0  0
 38 46  1  0  0  0
 38 47  1  0  0  0
 39 64  1  0  0  0
 39 67  2  0  0  0
 40 52  1  0  0  0
 40 53  2  0  0  0
 40 58  1  0  0  0
 41106  1  0  0  0
 41107  1  0  0  0
 41108  1  0  0  0
 41 48  1  0  0  0
 42 43  1  0  0  0
 42 66  1  0  0  0
 42109  1  0  0  0
 42110  1  0  0  0
 43 44  1  0  0  0
 44111  1  0  0  0
 45 46  2  0  0  0
 45112  1  0  0  0
 46113  1  0  0  0
 47114  1  0  0  0
 47115  1  0  0  0
 48 56  1  0  0  0
 48 65  1  0  0  0
 48116  1  0  0  0
 49 50  1  0  0  0
 49 53  1  0  0  0
 49 64  1  0  0  0
 49117  1  0  0  0
 50 51  1  0  0  0
 50118  1  0  0  0
 50119  1  0  0  0
 51 52  1  0  0  0
 51120  1  0  0  0
 51121  1  0  0  0
 52122  1  0  0  0
 52123  1  0  0  0
 53 54  1  0  0  0
 54 55  2  0  0  0
 54124  1  0  0  0
 55 57  1  0  0  0
 55125  1  0  0  0
 56 69  2  0  0  0
 57 58  2  0  0  0
 57126  1  0  0  0
 58127  1  0  0  0
 59 60  1  0  0  0
 59 61  1  0  0  0
 59 62  1  0  0  0
 60128  1  0  0  0
 60129  1  0  0  0
 60130  1  0  0  0
 61131  1  0  0  0
 61132  1  0  0  0
 61133  1  0  0  0
 62134  1  0  0  0
 62135  1  0  0  0
 62136  1  0  0  0
 63 65  1  0  0  0
 63137  1  0  0  0
 63138  1  0  0  0
 63139  1  0  0  0
 64140  1  0  0  0
 65141  1  0  0  0
 68 80  1  0  0  0
 71 74  2  0  0  0
 71 75  1  0  0  0
 71142  1  0  0  0
 72 74  1  0  0  0
 72 76  2  0  0  0
 72143  1  0  0  0
 73 75  2  0  0  0
 73 76  1  0  0  0
 73144  1  0  0  0
 74 77  1  0  0  0
 75 78  1  0  0  0
 76 82  1  0  0  0
 77 81  2  0  0  0
 78 79  1  0  0  0
 78145  1  0  0  0
 78146  1  0  0  0
 79 80  1  0  0  0
 79147  1  0  0  0
 79148  1  0  0  0
 80149  1  0  0  0
 80150  1  0  0  0
 81151  1  0  0  0
M  ISO  4   1 100  68 101  77 100  80 101
M  END
> <chiral flag>
0

> <version>
0

> <s_m_source_file>
/data/baiqing/PycharmProjects/Reinvent-master-3.2/result/LINK_invent/BTK/process_docking_weight1_custom_product_contain_oxygen_bond_distance_aromatic_linkinvent_7_9_3/rearranged_h_0125.sdf

> <i_m_source_file_index>
13

> <r_mmod_Potential_Energy-OPLS-2005>
553.498840332031

> <r_mmod_Stretch_Energy-OPLS-2005>
261.7705078125

> <r_mmod_Bend_Energy-OPLS-2005>
239.626388549805

> <r_mmod_Torsional_Energy-OPLS-2005>
180.755920410156

> <r_mmod_Improper_Torsional_Energy-OPLS-2005>
3.89189505577087

> <r_mmod_Van_der_Waal_Energy-OPLS-2005>
141.620513916016

> <r_mmod_Electrostatic_Energy-OPLS-2005>
-253.319091796875

> <r_mmod_Solvation_Energy-OPLS-2005>
-189.322799682617

> <b_mmod_Minimization_Converged-OPLS-2005>
0

> <r_mmod_RMS_Derivative-OPLS-2005>
2.87581658363342

$$$$
13
                    3D
 Structure written by MMmdl.
158166  0  0  1  0            999 V2000
  -30.6466  -14.6743   20.5174 C   0  0  0  0  0  0
  -30.4325  -12.4189   19.4778 C   0  0  0  0  0  0
  -29.5134  -12.5238   18.2392 C   0  0  0  0  0  0
  -28.0344  -12.3550   18.6389 C   0  0  0  0  0  0
  -27.6511  -13.2245   19.8652 C   0  0  2  0  0  0
  -28.6887  -13.0815   20.9981 C   0  0  0  0  0  0
  -25.2538  -13.8187   20.5682 C   0  0  0  0  0  0
  -24.1811  -13.0440   20.9174 C   0  0  0  0  0  0
  -24.6390  -11.6913   20.8724 C   0  0  0  0  0  0
  -23.9062  -10.4294   21.0394 C   0  0  0  0  0  0
  -24.3614   -9.4212   21.9175 C   0  0  0  0  0  0
  -23.6289   -8.2249   22.0754 C   0  0  0  0  0  0
  -22.4271   -8.0284   21.3545 C   0  0  0  0  0  0
  -21.9903   -9.0256   20.4645 C   0  0  0  0  0  0
  -22.7233  -10.2133   20.3048 C   0  0  0  0  0  0
  -21.6852   -6.0732   22.5279 C   0  0  0  0  0  0
  -21.4016   -6.5637   23.8211 C   0  0  0  0  0  0
  -21.3660   -5.6792   24.9172 C   0  0  0  0  0  0
  -21.6043   -4.3054   24.7224 C   0  0  0  0  0  0
  -21.8818   -3.8145   23.4347 C   0  0  0  0  0  0
  -21.9194   -4.6961   22.3403 C   0  0  0  0  0  0
  -22.7834  -13.5229   21.1849 C   0  0  0  0  0  0
  -22.1660   -4.2146   21.0979 F   0  0  0  0  0  0
  -21.5629   -3.4539   25.7737 F   0  0  0  0  0  0
  -30.0064  -13.4512   20.4542 N   0  0  0  0  0  0
  -26.2971  -12.9382   20.3310 N   0  0  0  0  0  0
  -25.9320  -11.6527   20.5733 N   0  0  0  0  0  0
  -22.0484  -12.8219   22.0412 N   0  0  0  0  0  0
  -25.4243  -15.1911   20.4122 N   0  0  0  0  0  0
  -31.7751  -14.8093   20.0315 O   0  0  0  0  0  0
  -21.6641   -6.8877   21.4240 O   0  0  0  0  0  0
  -22.3515  -14.5536   20.6705 O   0  0  0  0  0  0
  -24.6292  -31.8575   23.2023 C   0  0  0  0  0  0
  -25.9130  -32.4762   23.8351 C   0  0  1  0  0  0
  -27.2176  -27.2874   20.1177 C   0  0  0  0  0  0
  -25.5936  -33.8565   24.2271 N   0  0  0  0  0  0
  -23.4237  -30.4831   21.5452 C   0  0  2  0  0  0
  -24.8698  -28.9390   20.1080 C   0  0  0  0  0  0
  -22.7492  -29.4610   22.4918 C   0  0  0  0  0  0
  -18.0287  -28.1386   22.8479 C   0  0  0  0  0  0
  -24.1489  -36.7286   23.2635 C   0  0  0  0  0  0
  -25.9690  -30.7762   21.3813 C   0  0  0  0  0  0
  -26.0400  -29.4028   20.7214 C   0  0  0  0  0  0
  -27.2146  -28.5867   20.7224 C   0  0  0  0  0  0
  -26.0272  -26.8987   19.4574 C   0  0  0  0  0  0
  -24.8675  -27.6936   19.4661 C   0  0  0  0  0  0
  -23.6398  -29.8225   20.1591 C   0  0  0  0  0  0
  -25.4112  -36.3073   24.0329 C   0  0  1  0  0  0
  -20.5890  -28.3691   23.1272 C   0  0  2  0  0  0
  -20.6778  -26.9410   22.5406 C   0  0  0  0  0  0
  -19.5752  -26.6379   21.5211 C   0  0  0  0  0  0
  -18.1930  -26.7926   22.1622 C   0  0  0  0  0  0
  -19.1541  -28.8854   23.2870 C   0  0  0  0  0  0
  -18.9466  -30.1455   23.8890 C   0  0  0  0  0  0
  -17.6467  -30.6586   24.0561 C   0  0  0  0  0  0
  -25.9057  -34.9443   23.5100 C   0  0  0  0  0  0
  -16.5356  -29.9084   23.6336 C   0  0  0  0  0  0
  -16.7276  -28.6503   23.0353 C   0  0  0  0  0  0
  -26.4508  -31.6581   25.0733 C   0  0  0  0  0  0
  -25.3733  -31.3731   26.1458 C   0  0  0  0  0  0
  -27.0351  -30.2995   24.6215 C   0  0  0  0  0  0
  -27.6068  -32.4318   25.7499 C   0  0  0  0  0  0
  -27.5582  -37.1789   24.8458 C   0  0  0  0  0  0
  -21.4203  -29.3041   22.3663 N   0  0  0  0  0  0
  -26.4283  -37.3776   23.9420 N   0  0  0  0  0  0
  -24.6928  -31.0561   22.0991 N   0  0  0  0  0  0
  -23.4204  -28.8140   23.3000 O   0  0  0  0  0  0
  -28.3131  -26.4005   20.1970 O   0  0  0  0  0  0
  -26.5625  -34.8914   22.4665 O   0  0  0  0  0  0
  -23.5449  -32.1386   23.7335 O   0  0  0  0  0  0
  -29.5387  -18.3361   18.1336 C   0  0  0  0  0  0
  -29.4260  -19.6184   18.7014 C   0  0  0  0  0  0
  -29.7332  -17.1952   18.9345 C   0  0  0  0  0  0
  -29.5167  -19.8203   20.0950 C   0  0  0  0  0  0
  -29.8171  -17.2780   20.3437 C   0  0  0  0  0  0
  -29.6869  -18.6221   20.9069 C   0  0  0  0  0  0
  -29.4332  -21.2681   20.6159 C   0  0  0  0  0  0
  -28.9623  -22.4053   19.9825 C   0  0  0  0  0  0
  -29.9288  -15.9461   21.1487 C   0  0  0  0  0  0
  -28.9758  -23.8428   20.5179 C   0  0  0  0  0  0
  -28.7019  -18.9410   24.4116 C   0  0  0  0  0  0
  -28.0942  -24.9678   19.8239 C   0  0  0  0  0  0
  -28.5085  -19.0563   22.8988 C   0  0  0  0  0  0
  -29.4850  -15.8931   22.3349 N   0  0  0  0  0  0
  -29.6533  -24.1539   21.5025 O   0  0  0  0  0  0
  -29.7529  -18.7664   22.2715 O   0  0  0  0  0  0
  -31.4765  -12.5283   19.1799 H   0  0  0  0  0  0
  -30.3627  -11.4249   19.9224 H   0  0  0  0  0  0
  -29.7886  -11.7708   17.4997 H   0  0  0  0  0  0
  -29.6553  -13.4922   17.7574 H   0  0  0  0  0  0
  -27.8730  -11.3012   18.8691 H   0  0  0  0  0  0
  -27.3842  -12.5837   17.7937 H   0  0  0  0  0  0
  -27.6697  -14.2615   19.5297 H   0  0  0  0  0  0
  -28.7109  -12.0533   21.3621 H   0  0  0  0  0  0
  -28.3991  -13.6778   21.8602 H   0  0  0  0  0  0
  -25.2759   -9.5692   22.4748 H   0  0  0  0  0  0
  -23.9997   -7.4644   22.7475 H   0  0  0  0  0  0
  -21.0834   -8.8770   19.8954 H   0  0  0  0  0  0
  -22.3685  -10.9670   19.6157 H   0  0  0  0  0  0
  -21.2009   -7.6146   23.9712 H   0  0  0  0  0  0
  -21.1482   -6.0523   25.9074 H   0  0  0  0  0  0
  -22.0598   -2.7607   23.2847 H   0  0  0  0  0  0
  -22.4103  -11.9877   22.4793 H   0  0  0  0  0  0
  -21.1108  -13.1248   22.2634 H   0  0  0  0  0  0
  -24.6604  -15.8475   20.5302 H   0  0  0  0  0  0
  -26.2854  -15.6344   20.1198 H   0  0  0  0  0  0
  -26.7188  -32.5421   23.1086 H   0  0  0  0  0  0
  -25.0090  -33.9703   25.0421 H   0  0  0  0  0  0
  -22.7187  -31.3050   21.4027 H   0  0  0  0  0  0
  -23.3758  -35.9608   23.3278 H   0  0  0  0  0  0
  -24.3584  -36.8938   22.2054 H   0  0  0  0  0  0
  -23.7234  -37.6478   23.6671 H   0  0  0  0  0  0
  -26.1080  -31.5380   20.6131 H   0  0  0  0  0  0
  -26.8469  -30.8214   22.0139 H   0  0  0  0  0  0
  -28.1064  -28.9318   21.2261 H   0  0  0  0  0  0
  -25.9506  -25.9607   18.9295 H   0  0  0  0  0  0
  -23.9749  -27.3378   18.9700 H   0  0  0  0  0  0
  -23.7613  -30.6017   19.4056 H   0  0  0  0  0  0
  -22.7582  -29.2559   19.8532 H   0  0  0  0  0  0
  -25.1286  -36.1921   25.0821 H   0  0  0  0  0  0
  -20.9981  -28.3272   24.1393 H   0  0  0  0  0  0
  -20.5687  -26.2299   23.3609 H   0  0  0  0  0  0
  -21.6644  -26.7439   22.1191 H   0  0  0  0  0  0
  -19.6922  -25.6290   21.1237 H   0  0  0  0  0  0
  -19.6696  -27.3194   20.6744 H   0  0  0  0  0  0
  -17.4201  -26.6669   21.4024 H   0  0  0  0  0  0
  -18.0336  -26.0068   22.9022 H   0  0  0  0  0  0
  -19.7945  -30.7266   24.2256 H   0  0  0  0  0  0
  -17.5024  -31.6267   24.5160 H   0  0  0  0  0  0
  -15.5359  -30.2984   23.7660 H   0  0  0  0  0  0
  -15.8675  -28.0819   22.7077 H   0  0  0  0  0  0
  -24.5909  -30.7078   25.7789 H   0  0  0  0  0  0
  -24.8921  -32.2900   26.4870 H   0  0  0  0  0  0
  -25.8050  -30.8919   27.0243 H   0  0  0  0  0  0
  -26.2934  -29.6738   24.1237 H   0  0  0  0  0  0
  -27.4035  -29.7266   25.4737 H   0  0  0  0  0  0
  -27.8814  -30.4267   23.9457 H   0  0  0  0  0  0
  -27.2688  -33.3635   26.2045 H   0  0  0  0  0  0
  -28.3892  -32.6851   25.0331 H   0  0  0  0  0  0
  -28.0710  -31.8457   26.5443 H   0  0  0  0  0  0
  -28.2569  -38.0115   24.7545 H   0  0  0  0  0  0
  -28.1112  -36.2651   24.6230 H   0  0  0  0  0  0
  -27.2306  -37.1372   25.8860 H   0  0  0  0  0  0
  -20.9388  -29.8774   21.6880 H   0  0  0  0  0  0
  -26.0166  -38.2845   24.1449 H   0  0  0  0  0  0
  -29.4737  -18.2254   17.0597 H   0  0  0  0  0  0
  -29.2958  -20.4577   18.0340 H   0  0  0  0  0  0
  -29.7932  -16.2377   18.4363 H   0  0  0  0  0  0
  -29.8381  -21.4038   21.6095 H   0  0  0  0  0  0
  -28.5386  -22.3043   18.9952 H   0  0  0  0  0  0
  -27.7753  -19.1637   24.9409 H   0  0  0  0  0  0
  -29.4630  -19.6377   24.7634 H   0  0  0  0  0  0
  -29.0136  -17.9344   24.6922 H   0  0  0  0  0  0
  -27.0750  -24.6784   20.0755 H   0  0  0  0  0  0
  -28.1944  -24.8696   18.7429 H   0  0  0  0  0  0
  -28.1579  -20.0572   22.6496 H   0  0  0  0  0  0
  -27.7407  -18.3538   22.5698 H   0  0  0  0  0  0
  -29.1081  -16.7934   22.6062 H   0  0  0  0  0  0
  1 25  1  0  0  0
  1 30  2  0  0  0
  1 79  1  0  0  0
  2  3  1  0  0  0
  2 25  1  0  0  0
  2 87  1  0  0  0
  2 88  1  0  0  0
  3  4  1  0  0  0
  3 89  1  0  0  0
  3 90  1  0  0  0
  4  5  1  0  0  0
  4 91  1  0  0  0
  4 92  1  0  0  0
  5  6  1  0  0  0
  5 26  1  0  0  0
  5 93  1  0  0  0
  6 25  1  0  0  0
  6 94  1  0  0  0
  6 95  1  0  0  0
  7  8  2  0  0  0
  7 26  1  0  0  0
  7 29  1  0  0  0
  8  9  1  0  0  0
  8 22  1  0  0  0
  9 10  1  0  0  0
  9 27  2  0  0  0
 10 11  2  0  0  0
 10 15  1  0  0  0
 11 12  1  0  0  0
 11 96  1  0  0  0
 12 13  2  0  0  0
 12 97  1  0  0  0
 13 14  1  0  0  0
 13 31  1  0  0  0
 14 15  2  0  0  0
 14 98  1  0  0  0
 15 99  1  0  0  0
 16 17  2  0  0  0
 16 21  1  0  0  0
 16 31  1  0  0  0
 17 18  1  0  0  0
 17100  1  0  0  0
 18 19  2  0  0  0
 18101  1  0  0  0
 19 20  1  0  0  0
 19 24  1  0  0  0
 20 21  2  0  0  0
 20102  1  0  0  0
 21 23  1  0  0  0
 22 28  1  0  0  0
 22 32  2  0  0  0
 26 27  1  0  0  0
 28103  1  0  0  0
 28104  1  0  0  0
 29105  1  0  0  0
 29106  1  0  0  0
 33 34  1  0  0  0
 33 66  1  0  0  0
 33 70  2  0  0  0
 34 36  1  0  0  0
 34 59  1  0  0  0
 34107  1  0  0  0
 35 44  2  0  0  0
 35 45  1  0  0  0
 35 68  1  0  0  0
 36 56  1  0  0  0
 36108  1  0  0  0
 37 39  1  0  0  0
 37 47  1  0  0  0
 37 66  1  0  0  0
 37109  1  0  0  0
 38 43  2  0  0  0
 38 46  1  0  0  0
 38 47  1  0  0  0
 39 64  1  0  0  0
 39 67  2  0  0  0
 40 52  1  0  0  0
 40 53  2  0  0  0
 40 58  1  0  0  0
 41110  1  0  0  0
 41111  1  0  0  0
 41112  1  0  0  0
 41 48  1  0  0  0
 42 43  1  0  0  0
 42 66  1  0  0  0
 42113  1  0  0  0
 42114  1  0  0  0
 43 44  1  0  0  0
 44115  1  0  0  0
 45 46  2  0  0  0
 45116  1  0  0  0
 46117  1  0  0  0
 47118  1  0  0  0
 47119  1  0  0  0
 48 56  1  0  0  0
 48 65  1  0  0  0
 48120  1  0  0  0
 49 50  1  0  0  0
 49 53  1  0  0  0
 49 64  1  0  0  0
 49121  1  0  0  0
 50 51  1  0  0  0
 50122  1  0  0  0
 50123  1  0  0  0
 51 52  1  0  0  0
 51124  1  0  0  0
 51125  1  0  0  0
 52126  1  0  0  0
 52127  1  0  0  0
 53 54  1  0  0  0
 54 55  2  0  0  0
 54128  1  0  0  0
 55 57  1  0  0  0
 55129  1  0  0  0
 56 69  2  0  0  0
 57 58  2  0  0  0
 57130  1  0  0  0
 58131  1  0  0  0
 59 60  1  0  0  0
 59 61  1  0  0  0
 59 62  1  0  0  0
 60132  1  0  0  0
 60133  1  0  0  0
 60134  1  0  0  0
 61135  1  0  0  0
 61136  1  0  0  0
 61137  1  0  0  0
 62138  1  0  0  0
 62139  1  0  0  0
 62140  1  0  0  0
 63 65  1  0  0  0
 63141  1  0  0  0
 63142  1  0  0  0
 63143  1  0  0  0
 64144  1  0  0  0
 65145  1  0  0  0
 68 82  1  0  0  0
 71 72  2  0  0  0
 71 73  1  0  0  0
 71146  1  0  0  0
 72 74  1  0  0  0
 72147  1  0  0  0
 73 75  2  0  0  0
 73148  1  0  0  0
 74 76  2  0  0  0
 74 77  1  0  0  0
 75 76  1  0  0  0
 75 79  1  0  0  0
 76 86  1  0  0  0
 77 78  2  0  0  0
 77149  1  0  0  0
 78 80  1  0  0  0
 78150  1  0  0  0
 79 84  2  0  0  0
 80 82  1  0  0  0
 80 85  2  0  0  0
 81 83  1  0  0  0
 81151  1  0  0  0
 81152  1  0  0  0
 81153  1  0  0  0
 82154  1  0  0  0
 82155  1  0  0  0
 83 86  1  0  0  0
 83156  1  0  0  0
 83157  1  0  0  0
 84158  1  0  0  0
M  ISO  4   1 100  68 101  79 100  82 101
M  END
> <chiral flag>
0

> <version>
0

> <s_m_source_file>
/data/baiqing/PycharmProjects/Reinvent-master-3.2/result/LINK_invent/BTK/process_docking_weight1_custom_product_contain_oxygen_bond_distance_aromatic_linkinvent_7_9_3/rearranged_h_0125.sdf

> <i_m_source_file_index>
14

> <r_mmod_Potential_Energy-OPLS-2005>
288.460601806641

> <r_mmod_Stretch_Energy-OPLS-2005>
118.051200866699

> <r_mmod_Bend_Energy-OPLS-2005>
147.532196044922

> <r_mmod_Torsional_Energy-OPLS-2005>
234.051956176758

> <r_mmod_Improper_Torsional_Energy-OPLS-2005>
2.75637626647949

> <r_mmod_Van_der_Waal_Energy-OPLS-2005>
146.828384399414

> <r_mmod_Electrostatic_Energy-OPLS-2005>
-198.299057006836

> <r_mmod_Solvation_Energy-OPLS-2005>
-224.547912597656

> <b_mmod_Minimization_Converged-OPLS-2005>
0

> <r_mmod_RMS_Derivative-OPLS-2005>
0.66500598192215

$$$$
14
                    3D
 Structure written by MMmdl.
163171  0  0  1  0            999 V2000
  -30.6864  -14.5724   20.4714 C   0  0  0  0  0  0
  -30.4327  -12.3282   19.4568 C   0  0  0  0  0  0
  -29.5006  -12.3871   18.2261 C   0  0  0  0  0  0
  -28.0201  -12.3010   18.6451 C   0  0  0  0  0  0
  -27.6549  -13.2079   19.8520 C   0  0  2  0  0  0
  -28.7022  -13.0830   20.9816 C   0  0  0  0  0  0
  -25.2584  -13.8169   20.5694 C   0  0  0  0  0  0
  -24.1827  -13.0470   20.9184 C   0  0  0  0  0  0
  -24.6361  -11.6930   20.8752 C   0  0  0  0  0  0
  -23.9025  -10.4312   21.0414 C   0  0  0  0  0  0
  -24.3589   -9.4219   21.9190 C   0  0  0  0  0  0
  -23.6292   -8.2238   22.0753 C   0  0  0  0  0  0
  -22.4271   -8.0282   21.3533 C   0  0  0  0  0  0
  -21.9884   -9.0247   20.4632 C   0  0  0  0  0  0
  -22.7196  -10.2140   20.3058 C   0  0  0  0  0  0
  -21.6842   -6.0728   22.5281 C   0  0  0  0  0  0
  -21.4007   -6.5628   23.8222 C   0  0  0  0  0  0
  -21.3667   -5.6774   24.9180 C   0  0  0  0  0  0
  -21.6060   -4.3046   24.7213 C   0  0  0  0  0  0
  -21.8824   -3.8131   23.4336 C   0  0  0  0  0  0
  -21.9190   -4.6954   22.3393 C   0  0  0  0  0  0
  -22.7842  -13.5263   21.1835 C   0  0  0  0  0  0
  -22.1659   -4.2147   21.0964 F   0  0  0  0  0  0
  -21.5640   -3.4529   25.7717 F   0  0  0  0  0  0
  -30.0188  -13.3821   20.4048 N   0  0  0  0  0  0
  -26.3002  -12.9345   20.3312 N   0  0  0  0  0  0
  -25.9297  -11.6511   20.5815 N   0  0  0  0  0  0
  -22.0459  -12.8306   22.0405 N   0  0  0  0  0  0
  -25.4329  -15.1901   20.4112 N   0  0  0  0  0  0
  -31.8797  -14.6611   20.1877 O   0  0  0  0  0  0
  -21.6644   -6.8879   21.4239 O   0  0  0  0  0  0
  -22.3560  -14.5581   20.6694 O   0  0  0  0  0  0
  -24.6233  -31.8612   23.2042 C   0  0  0  0  0  0
  -25.9116  -32.4770   23.8355 C   0  0  1  0  0  0
  -27.2373  -27.3663   20.0943 C   0  0  0  0  0  0
  -25.5957  -33.8581   24.2302 N   0  0  0  0  0  0
  -23.4146  -30.4862   21.5446 C   0  0  2  0  0  0
  -24.8563  -28.9341   20.1192 C   0  0  0  0  0  0
  -22.7450  -29.4644   22.4924 C   0  0  0  0  0  0
  -18.0296  -28.1381   22.8488 C   0  0  0  0  0  0
  -24.1497  -36.7294   23.2636 C   0  0  0  0  0  0
  -25.9524  -30.7990   21.3717 C   0  0  0  0  0  0
  -26.0194  -29.4300   20.7144 C   0  0  0  0  0  0
  -27.2072  -28.6537   20.6956 C   0  0  0  0  0  0
  -26.0464  -26.8949   19.4899 C   0  0  0  0  0  0
  -24.8646  -27.6672   19.5089 C   0  0  0  0  0  0
  -23.6286  -29.8189   20.1613 C   0  0  0  0  0  0
  -25.4116  -36.3088   24.0337 C   0  0  1  0  0  0
  -20.5889  -28.3687   23.1275 C   0  0  2  0  0  0
  -20.6776  -26.9411   22.5401 C   0  0  0  0  0  0
  -19.5752  -26.6375   21.5213 C   0  0  0  0  0  0
  -18.1934  -26.7924   22.1627 C   0  0  0  0  0  0
  -19.1548  -28.8848   23.2879 C   0  0  0  0  0  0
  -18.9471  -30.1450   23.8884 C   0  0  0  0  0  0
  -17.6471  -30.6580   24.0561 C   0  0  0  0  0  0
  -25.9053  -34.9455   23.5109 C   0  0  0  0  0  0
  -16.5359  -29.9084   23.6329 C   0  0  0  0  0  0
  -16.7284  -28.6507   23.0341 C   0  0  0  0  0  0
  -26.4503  -31.6567   25.0726 C   0  0  0  0  0  0
  -25.3752  -31.3726   26.1468 C   0  0  0  0  0  0
  -27.0317  -30.2980   24.6184 C   0  0  0  0  0  0
  -27.6075  -32.4285   25.7499 C   0  0  0  0  0  0
  -27.5585  -37.1799   24.8468 C   0  0  0  0  0  0
  -21.4168  -29.3049   22.3671 N   0  0  0  0  0  0
  -26.4298  -37.3773   23.9415 N   0  0  0  0  0  0
  -24.6823  -31.0659   22.0971 N   0  0  0  0  0  0
  -23.4190  -28.8184   23.2989 O   0  0  0  0  0  0
  -28.4319  -26.6489   20.1046 O   0  0  0  0  0  0
  -26.5599  -34.8925   22.4668 O   0  0  0  0  0  0
  -23.5407  -32.1402   23.7378 O   0  0  0  0  0  0
  -30.7753  -18.4291   18.1467 C   0  0  0  0  0  0
  -30.1053  -18.2059   20.8412 C   0  0  0  0  0  0
  -30.4361  -17.1644   18.6617 C   0  0  0  0  0  0
  -30.7655  -19.5873   18.9444 C   0  0  0  0  0  0
  -30.1892  -17.0060   20.0579 C   0  0  0  0  0  0
  -30.3400  -19.5117   20.2949 C   0  0  0  0  0  0
  -31.2470  -20.8808   18.3103 C   0  0  0  0  0  0
  -31.5081  -15.4729   17.0122 C   0  0  0  0  0  0
  -30.2277  -16.0520   17.6402 C   0  0  0  0  0  0
  -29.2276  -24.5047   21.0857 C   0  0  0  0  0  0
  -30.0804  -23.1803   20.9127 C   0  0  0  0  0  0
  -28.5113  -25.2055   19.8839 C   0  0  0  0  0  0
  -29.4006  -21.7735   20.7164 C   0  0  0  0  0  0
  -29.9339  -15.6965   20.6440 N   0  0  0  0  0  0
  -30.2556  -20.6520   21.1005 O   0  0  0  0  0  0
  -31.4744  -12.4292   19.1463 H   0  0  0  0  0  0
  -30.3621  -11.3497   19.9352 H   0  0  0  0  0  0
  -29.7335  -11.5596   17.5545 H   0  0  0  0  0  0
  -29.6810  -13.2776   17.6349 H   0  0  0  0  0  0
  -27.8376  -11.2588   18.9099 H   0  0  0  0  0  0
  -27.3684  -12.5106   17.7958 H   0  0  0  0  0  0
  -27.6733  -14.2346   19.4853 H   0  0  0  0  0  0
  -28.7030  -12.0719   21.3937 H   0  0  0  0  0  0
  -28.4689  -13.7513   21.8112 H   0  0  0  0  0  0
  -25.2738   -9.5732   22.4755 H   0  0  0  0  0  0
  -24.0014   -7.4643   22.7486 H   0  0  0  0  0  0
  -21.0800   -8.8746   19.8964 H   0  0  0  0  0  0
  -22.3632  -10.9669   19.6166 H   0  0  0  0  0  0
  -21.1999   -7.6139   23.9727 H   0  0  0  0  0  0
  -21.1493   -6.0494   25.9086 H   0  0  0  0  0  0
  -22.0602   -2.7592   23.2811 H   0  0  0  0  0  0
  -22.4011  -11.9956   22.4823 H   0  0  0  0  0  0
  -21.1092  -13.1414   22.2592 H   0  0  0  0  0  0
  -24.6702  -15.8483   20.5320 H   0  0  0  0  0  0
  -26.2911  -15.6316   20.1094 H   0  0  0  0  0  0
  -26.7176  -32.5451   23.1090 H   0  0  0  0  0  0
  -25.0123  -33.9699   25.0466 H   0  0  0  0  0  0
  -22.7110  -31.3082   21.3999 H   0  0  0  0  0  0
  -23.3753  -35.9630   23.3310 H   0  0  0  0  0  0
  -24.3589  -36.8892   22.2044 H   0  0  0  0  0  0
  -23.7255  -37.6513   23.6631 H   0  0  0  0  0  0
  -26.0863  -31.5617   20.6034 H   0  0  0  0  0  0
  -26.8307  -30.8393   22.0043 H   0  0  0  0  0  0
  -28.1089  -29.0321   21.1562 H   0  0  0  0  0  0
  -26.0041  -25.9414   18.9859 H   0  0  0  0  0  0
  -23.9651  -27.2798   19.0500 H   0  0  0  0  0  0
  -23.7644  -30.5959   19.4086 H   0  0  0  0  0  0
  -22.7461  -29.2572   19.8496 H   0  0  0  0  0  0
  -25.1293  -36.1940   25.0823 H   0  0  0  0  0  0
  -20.9989  -28.3262   24.1390 H   0  0  0  0  0  0
  -20.5668  -26.2308   23.3604 H   0  0  0  0  0  0
  -21.6641  -26.7420   22.1190 H   0  0  0  0  0  0
  -19.6910  -25.6287   21.1241 H   0  0  0  0  0  0
  -19.6696  -27.3182   20.6741 H   0  0  0  0  0  0
  -17.4204  -26.6683   21.4024 H   0  0  0  0  0  0
  -18.0319  -26.0063   22.9015 H   0  0  0  0  0  0
  -19.7954  -30.7270   24.2224 H   0  0  0  0  0  0
  -17.5041  -31.6263   24.5159 H   0  0  0  0  0  0
  -15.5360  -30.2985   23.7650 H   0  0  0  0  0  0
  -15.8692  -28.0829   22.7028 H   0  0  0  0  0  0
  -24.5919  -30.7071   25.7831 H   0  0  0  0  0  0
  -24.8955  -32.2895   26.4900 H   0  0  0  0  0  0
  -25.8076  -30.8918   27.0254 H   0  0  0  0  0  0
  -26.2873  -29.6758   24.1191 H   0  0  0  0  0  0
  -27.3977  -29.7215   25.4699 H   0  0  0  0  0  0
  -27.8779  -30.4251   23.9423 H   0  0  0  0  0  0
  -27.2683  -33.3570   26.2101 H   0  0  0  0  0  0
  -28.3866  -32.6843   25.0312 H   0  0  0  0  0  0
  -28.0765  -31.8401   26.5396 H   0  0  0  0  0  0
  -28.2577  -38.0114   24.7500 H   0  0  0  0  0  0
  -28.1081  -36.2629   24.6281 H   0  0  0  0  0  0
  -27.2301  -37.1453   25.8871 H   0  0  0  0  0  0
  -20.9337  -29.8818   21.6934 H   0  0  0  0  0  0
  -26.0183  -38.2855   24.1403 H   0  0  0  0  0  0
  -31.0272  -18.5100   17.0986 H   0  0  0  0  0  0
  -29.8500  -18.1264   21.8885 H   0  0  0  0  0  0
  -31.9221  -20.6804   17.4763 H   0  0  0  0  0  0
  -31.8004  -21.4879   19.0256 H   0  0  0  0  0  0
  -30.4098  -21.4595   17.9222 H   0  0  0  0  0  0
  -31.2577  -14.6658   16.3224 H   0  0  0  0  0  0
  -32.1949  -15.0625   17.7495 H   0  0  0  0  0  0
  -32.0498  -16.2291   16.4430 H   0  0  0  0  0  0
  -29.6212  -16.4609   16.8329 H   0  0  0  0  0  0
  -29.5924  -15.2880   18.0719 H   0  0  0  0  0  0
  -29.9355  -25.2477   21.4590 H   0  0  0  0  0  0
  -28.5129  -24.3845   21.8988 H   0  0  0  0  0  0
  -30.6456  -23.0976   21.8435 H   0  0  0  0  0  0
  -30.8439  -23.3336   20.1497 H   0  0  0  0  0  0
  -27.5497  -24.7209   19.7268 H   0  0  0  0  0  0
  -29.0903  -25.0417   18.9724 H   0  0  0  0  0  0
  -29.0301  -21.6727   19.6976 H   0  0  0  0  0  0
  -28.5213  -21.7163   21.3574 H   0  0  0  0  0  0
  -29.0225  -15.5585   21.0525 H   0  0  0  0  0  0
  1 25  1  0  0  0
  1 30  2  0  0  0
  1 84  1  0  0  0
  2  3  1  0  0  0
  2 25  1  0  0  0
  2 86  1  0  0  0
  2 87  1  0  0  0
  3  4  1  0  0  0
  3 88  1  0  0  0
  3 89  1  0  0  0
  4  5  1  0  0  0
  4 90  1  0  0  0
  4 91  1  0  0  0
  5  6  1  0  0  0
  5 26  1  0  0  0
  5 92  1  0  0  0
  6 25  1  0  0  0
  6 93  1  0  0  0
  6 94  1  0  0  0
  7  8  2  0  0  0
  7 26  1  0  0  0
  7 29  1  0  0  0
  8  9  1  0  0  0
  8 22  1  0  0  0
  9 10  1  0  0  0
  9 27  2  0  0  0
 10 11  2  0  0  0
 10 15  1  0  0  0
 11 12  1  0  0  0
 11 95  1  0  0  0
 12 13  2  0  0  0
 12 96  1  0  0  0
 13 14  1  0  0  0
 13 31  1  0  0  0
 14 15  2  0  0  0
 14 97  1  0  0  0
 15 98  1  0  0  0
 16 17  2  0  0  0
 16 21  1  0  0  0
 16 31  1  0  0  0
 17 18  1  0  0  0
 17 99  1  0  0  0
 18 19  2  0  0  0
 18100  1  0  0  0
 19 20  1  0  0  0
 19 24  1  0  0  0
 20 21  2  0  0  0
 20101  1  0  0  0
 21 23  1  0  0  0
 22 28  1  0  0  0
 22 32  2  0  0  0
 26 27  1  0  0  0
 28102  1  0  0  0
 28103  1  0  0  0
 29104  1  0  0  0
 29105  1  0  0  0
 33 34  1  0  0  0
 33 66  1  0  0  0
 33 70  2  0  0  0
 34 36  1  0  0  0
 34 59  1  0  0  0
 34106  1  0  0  0
 35 44  2  0  0  0
 35 45  1  0  0  0
 35 68  1  0  0  0
 36 56  1  0  0  0
 36107  1  0  0  0
 37 39  1  0  0  0
 37 47  1  0  0  0
 37 66  1  0  0  0
 37108  1  0  0  0
 38 43  2  0  0  0
 38 46  1  0  0  0
 38 47  1  0  0  0
 39 64  1  0  0  0
 39 67  2  0  0  0
 40 52  1  0  0  0
 40 53  2  0  0  0
 40 58  1  0  0  0
 41109  1  0  0  0
 41110  1  0  0  0
 41111  1  0  0  0
 41 48  1  0  0  0
 42 43  1  0  0  0
 42 66  1  0  0  0
 42112  1  0  0  0
 42113  1  0  0  0
 43 44  1  0  0  0
 44114  1  0  0  0
 45 46  2  0  0  0
 45115  1  0  0  0
 46116  1  0  0  0
 47117  1  0  0  0
 47118  1  0  0  0
 48 56  1  0  0  0
 48 65  1  0  0  0
 48119  1  0  0  0
 49 50  1  0  0  0
 49 53  1  0  0  0
 49 64  1  0  0  0
 49120  1  0  0  0
 50 51  1  0  0  0
 50121  1  0  0  0
 50122  1  0  0  0
 51 52  1  0  0  0
 51123  1  0  0  0
 51124  1  0  0  0
 52125  1  0  0  0
 52126  1  0  0  0
 53 54  1  0  0  0
 54 55  2  0  0  0
 54127  1  0  0  0
 55 57  1  0  0  0
 55128  1  0  0  0
 56 69  2  0  0  0
 57 58  2  0  0  0
 57129  1  0  0  0
 58130  1  0  0  0
 59 60  1  0  0  0
 59 61  1  0  0  0
 59 62  1  0  0  0
 60131  1  0  0  0
 60132  1  0  0  0
 60133  1  0  0  0
 61134  1  0  0  0
 61135  1  0  0  0
 61136  1  0  0  0
 62137  1  0  0  0
 62138  1  0  0  0
 62139  1  0  0  0
 63 65  1  0  0  0
 63140  1  0  0  0
 63141  1  0  0  0
 63142  1  0  0  0
 64143  1  0  0  0
 65144  1  0  0  0
 68 82  1  0  0  0
 71 73  2  0  0  0
 71 74  1  0  0  0
 71145  1  0  0  0
 72 75  2  0  0  0
 72 76  1  0  0  0
 72146  1  0  0  0
 73 75  1  0  0  0
 73 79  1  0  0  0
 74 76  2  0  0  0
 74 77  1  0  0  0
 75 84  1  0  0  0
 76 85  1  0  0  0
 77147  1  0  0  0
 77148  1  0  0  0
 77149  1  0  0  0
 78 79  1  0  0  0
 78150  1  0  0  0
 78151  1  0  0  0
 78152  1  0  0  0
 79153  1  0  0  0
 79154  1  0  0  0
 80 81  1  0  0  0
 80 82  1  0  0  0
 80155  1  0  0  0
 80156  1  0  0  0
 81 83  1  0  0  0
 81157  1  0  0  0
 81158  1  0  0  0
 82159  1  0  0  0
 82160  1  0  0  0
 83 85  1  0  0  0
 83161  1  0  0  0
 83162  1  0  0  0
 84163  1  0  0  0
M  ISO  4   1 100  68 101  82 101  84 100
M  END
> <chiral flag>
0

> <version>
0

> <s_m_source_file>
/data/baiqing/PycharmProjects/Reinvent-master-3.2/result/LINK_invent/BTK/process_docking_weight1_custom_product_contain_oxygen_bond_distance_aromatic_linkinvent_7_9_3/rearranged_h_0125.sdf

> <i_m_source_file_index>
15

> <r_mmod_Potential_Energy-OPLS-2005>
78.8140640258789

> <r_mmod_Stretch_Energy-OPLS-2005>
64.451904296875

> <r_mmod_Bend_Energy-OPLS-2005>
144.297698974609

> <r_mmod_Torsional_Energy-OPLS-2005>
281.074310302734

> <r_mmod_Improper_Torsional_Energy-OPLS-2005>
6.03259897232056

> <r_mmod_Van_der_Waal_Energy-OPLS-2005>
143.378814697266

> <r_mmod_Electrostatic_Energy-OPLS-2005>
-386.49169921875

> <r_mmod_Solvation_Energy-OPLS-2005>
-208.880935668945

> <b_mmod_Minimization_Converged-OPLS-2005>
0

> <r_mmod_RMS_Derivative-OPLS-2005>
3.88031196594238

$$$$
15
                    3D
 Structure written by MMmdl.
155163  0  0  1  0            999 V2000
  -30.6500  -14.6842   20.5376 C   0  0  0  0  0  0
  -30.4356  -12.4283   19.4903 C   0  0  0  0  0  0
  -29.5235  -12.5318   18.2476 C   0  0  0  0  0  0
  -28.0448  -12.3593   18.6419 C   0  0  0  0  0  0
  -27.6528  -13.2338   19.8642 C   0  0  2  0  0  0
  -28.6883  -13.1140   21.0037 C   0  0  0  0  0  0
  -25.2555  -13.8214   20.5678 C   0  0  0  0  0  0
  -24.1825  -13.0466   20.9179 C   0  0  0  0  0  0
  -24.6413  -11.6937   20.8743 C   0  0  0  0  0  0
  -23.9096  -10.4311   21.0412 C   0  0  0  0  0  0
  -24.3642   -9.4228   21.9189 C   0  0  0  0  0  0
  -23.6296   -8.2278   22.0761 C   0  0  0  0  0  0
  -22.4276   -8.0324   21.3560 C   0  0  0  0  0  0
  -21.9930   -9.0311   20.4670 C   0  0  0  0  0  0
  -22.7271  -10.2179   20.3064 C   0  0  0  0  0  0
  -21.6854   -6.0763   22.5278 C   0  0  0  0  0  0
  -21.4024   -6.5635   23.8223 C   0  0  0  0  0  0
  -21.3655   -5.6768   24.9167 C   0  0  0  0  0  0
  -21.6051   -4.3036   24.7208 C   0  0  0  0  0  0
  -21.8811   -3.8148   23.4320 C   0  0  0  0  0  0
  -21.9197   -4.6990   22.3392 C   0  0  0  0  0  0
  -22.7828  -13.5265   21.1792 C   0  0  0  0  0  0
  -22.1653   -4.2181   21.0961 F   0  0  0  0  0  0
  -21.5660   -3.4508   25.7714 F   0  0  0  0  0  0
  -30.0073  -13.4668   20.4602 N   0  0  0  0  0  0
  -26.2993  -12.9413   20.3302 N   0  0  0  0  0  0
  -25.9349  -11.6552   20.5748 N   0  0  0  0  0  0
  -22.0413  -12.8354   22.0355 N   0  0  0  0  0  0
  -25.4268  -15.1950   20.4160 N   0  0  0  0  0  0
  -31.7771  -14.7969   20.0417 O   0  0  0  0  0  0
  -21.6649   -6.8914   21.4239 O   0  0  0  0  0  0
  -22.3505  -14.5518   20.6551 O   0  0  0  0  0  0
  -24.6299  -31.8569   23.2024 C   0  0  0  0  0  0
  -25.9147  -32.4741   23.8370 C   0  0  1  0  0  0
  -27.2251  -27.2857   20.1454 C   0  0  0  0  0  0
  -25.5954  -33.8547   24.2284 N   0  0  0  0  0  0
  -23.4241  -30.4804   21.5447 C   0  0  2  0  0  0
  -24.8754  -28.9328   20.1139 C   0  0  0  0  0  0
  -22.7484  -29.4620   22.4924 C   0  0  0  0  0  0
  -18.0299  -28.1401   22.8498 C   0  0  0  0  0  0
  -24.1495  -36.7285   23.2632 C   0  0  0  0  0  0
  -25.9674  -30.7775   21.3806 C   0  0  0  0  0  0
  -26.0431  -29.4018   20.7279 C   0  0  0  0  0  0
  -27.2183  -28.5895   20.7409 C   0  0  0  0  0  0
  -26.0424  -26.8924   19.4727 C   0  0  0  0  0  0
  -24.8795  -27.6838   19.4763 C   0  0  0  0  0  0
  -23.6436  -29.8127   20.1616 C   0  0  0  0  0  0
  -25.4106  -36.3051   24.0319 C   0  0  1  0  0  0
  -20.5910  -28.3715   23.1271 C   0  0  2  0  0  0
  -20.6811  -26.9434   22.5414 C   0  0  0  0  0  0
  -19.5765  -26.6400   21.5232 C   0  0  0  0  0  0
  -18.1945  -26.7948   22.1637 C   0  0  0  0  0  0
  -19.1562  -28.8880   23.2881 C   0  0  0  0  0  0
  -18.9460  -30.1492   23.8881 C   0  0  0  0  0  0
  -17.6453  -30.6604   24.0567 C   0  0  0  0  0  0
  -25.9057  -34.9424   23.5103 C   0  0  0  0  0  0
  -16.5350  -29.9088   23.6329 C   0  0  0  0  0  0
  -16.7285  -28.6510   23.0348 C   0  0  0  0  0  0
  -26.4536  -31.6556   25.0743 C   0  0  0  0  0  0
  -25.3734  -31.3704   26.1434 C   0  0  0  0  0  0
  -27.0386  -30.2987   24.6208 C   0  0  0  0  0  0
  -27.6119  -32.4261   25.7510 C   0  0  0  0  0  0
  -27.5569  -37.1780   24.8442 C   0  0  0  0  0  0
  -21.4204  -29.3045   22.3645 N   0  0  0  0  0  0
  -26.4267  -37.3747   23.9404 N   0  0  0  0  0  0
  -24.6930  -31.0558   22.0999 N   0  0  0  0  0  0
  -23.4191  -28.8178   23.3025 O   0  0  0  0  0  0
  -28.3189  -26.3999   20.2543 O   0  0  0  0  0  0
  -26.5613  -34.8880   22.4660 O   0  0  0  0  0  0
  -23.5463  -32.1383   23.7326 O   0  0  0  0  0  0
  -29.5062  -18.6166   22.6927 C   0  0  0  0  0  0
  -29.4069  -19.7148   20.5314 C   0  0  0  0  0  0
  -28.9748  -21.0149   22.5394 C   0  0  0  0  0  0
  -29.6536  -18.5061   21.2910 C   0  0  0  0  0  0
  -29.2049  -19.8532   23.3116 C   0  0  0  0  0  0
  -29.0523  -20.9868   21.1309 C   0  0  0  0  0  0
  -30.0905  -17.1628   20.6873 C   0  0  0  0  0  0
  -29.9712  -15.8695   21.1668 C   0  0  0  0  0  0
  -29.1414  -19.9452   24.8291 C   0  0  0  0  0  0
  -28.6311  -22.2699   20.3013 C   0  0  0  0  0  0
  -28.9449  -23.7845   20.7648 C   0  0  0  0  0  0
  -28.0959  -24.9381   20.0363 C   0  0  0  0  0  0
  -31.4814  -12.5324   19.2009 H   0  0  0  0  0  0
  -30.3592  -11.4345   19.9379 H   0  0  0  0  0  0
  -29.8126  -11.7833   17.5088 H   0  0  0  0  0  0
  -29.6653  -13.5018   17.7686 H   0  0  0  0  0  0
  -27.8881  -11.3047   18.8735 H   0  0  0  0  0  0
  -27.4032  -12.5854   17.7885 H   0  0  0  0  0  0
  -27.6678  -14.2694   19.5217 H   0  0  0  0  0  0
  -28.7045  -12.0930   21.3855 H   0  0  0  0  0  0
  -28.4085  -13.7366   21.8534 H   0  0  0  0  0  0
  -25.2804   -9.5722   22.4741 H   0  0  0  0  0  0
  -24.0051   -7.4659   22.7451 H   0  0  0  0  0  0
  -21.0882   -8.8811   19.8942 H   0  0  0  0  0  0
  -22.3731  -10.9724   19.6174 H   0  0  0  0  0  0
  -21.1982   -7.6138   23.9742 H   0  0  0  0  0  0
  -21.1496   -6.0486   25.9085 H   0  0  0  0  0  0
  -22.0593   -2.7619   23.2785 H   0  0  0  0  0  0
  -22.3983  -12.0130   22.4977 H   0  0  0  0  0  0
  -21.1003  -13.1418   22.2367 H   0  0  0  0  0  0
  -24.6687  -15.8547   20.5555 H   0  0  0  0  0  0
  -26.2959  -15.6410   20.1466 H   0  0  0  0  0  0
  -26.7204  -32.5405   23.1120 H   0  0  0  0  0  0
  -25.0080  -33.9695   25.0416 H   0  0  0  0  0  0
  -22.7183  -31.3012   21.3967 H   0  0  0  0  0  0
  -23.3750  -35.9625   23.3263 H   0  0  0  0  0  0
  -24.3619  -36.8950   22.2057 H   0  0  0  0  0  0
  -23.7278  -37.6483   23.6696 H   0  0  0  0  0  0
  -26.0968  -31.5324   20.6039 H   0  0  0  0  0  0
  -26.8497  -30.8356   22.0055 H   0  0  0  0  0  0
  -28.1022  -28.9359   21.2624 H   0  0  0  0  0  0
  -25.9852  -25.9473   18.9521 H   0  0  0  0  0  0
  -23.9846  -27.3164   18.9918 H   0  0  0  0  0  0
  -23.7650  -30.5868   19.4027 H   0  0  0  0  0  0
  -22.7627  -29.2412   19.8611 H   0  0  0  0  0  0
  -25.1306  -36.1873   25.0810 H   0  0  0  0  0  0
  -21.0004  -28.3298   24.1390 H   0  0  0  0  0  0
  -20.5784  -26.2294   23.3609 H   0  0  0  0  0  0
  -21.6656  -26.7498   22.1140 H   0  0  0  0  0  0
  -19.6927  -25.6310   21.1263 H   0  0  0  0  0  0
  -19.6726  -27.3214   20.6770 H   0  0  0  0  0  0
  -17.4227  -26.6735   21.4021 H   0  0  0  0  0  0
  -18.0307  -26.0095   22.9027 H   0  0  0  0  0  0
  -19.7930  -30.7358   24.2205 H   0  0  0  0  0  0
  -17.4988  -31.6278   24.5184 H   0  0  0  0  0  0
  -15.5346  -30.2985   23.7677 H   0  0  0  0  0  0
  -15.8677  -28.0847   22.7034 H   0  0  0  0  0  0
  -24.5912  -30.7073   25.7723 H   0  0  0  0  0  0
  -24.8911  -32.2865   26.4850 H   0  0  0  0  0  0
  -25.8002  -30.8861   27.0220 H   0  0  0  0  0  0
  -26.2984  -29.6710   24.1237 H   0  0  0  0  0  0
  -27.4101  -29.7278   25.4725 H   0  0  0  0  0  0
  -27.8836  -30.4307   23.9451 H   0  0  0  0  0  0
  -27.2800  -33.3559   26.2126 H   0  0  0  0  0  0
  -28.3922  -32.6792   25.0329 H   0  0  0  0  0  0
  -28.0790  -31.8337   26.5381 H   0  0  0  0  0  0
  -28.2546  -38.0114   24.7510 H   0  0  0  0  0  0
  -28.1118  -36.2647   24.6244 H   0  0  0  0  0  0
  -27.2285  -37.1354   25.8841 H   0  0  0  0  0  0
  -20.9384  -29.8697   21.6791 H   0  0  0  0  0  0
  -26.0144  -38.2814   24.1425 H   0  0  0  0  0  0
  -29.6753  -17.7508   23.3165 H   0  0  0  0  0  0
  -29.4774  -19.6639   19.4542 H   0  0  0  0  0  0
  -28.7129  -21.9342   23.0455 H   0  0  0  0  0  0
  -30.6397  -17.2788   19.7600 H   0  0  0  0  0  0
  -29.4074  -15.7121   22.0745 H   0  0  0  0  0  0
  -29.3332  -18.9843   25.3113 H   0  0  0  0  0  0
  -28.1616  -20.2908   25.1621 H   0  0  0  0  0  0
  -29.8911  -20.6464   25.2003 H   0  0  0  0  0  0
  -27.5457  -22.1917   20.2164 H   0  0  0  0  0  0
  -28.9977  -22.1448   19.2819 H   0  0  0  0  0  0
  -30.0095  -23.9802   20.6342 H   0  0  0  0  0  0
  -28.7598  -23.8828   21.8344 H   0  0  0  0  0  0
  -27.0657  -24.7012   20.3017 H   0  0  0  0  0  0
  -28.1739  -24.7742   18.9612 H   0  0  0  0  0  0
  1 25  1  0  0  0
  1 30  2  0  0  0
  1 78  1  0  0  0
  2  3  1  0  0  0
  2 25  1  0  0  0
  2 83  1  0  0  0
  2 84  1  0  0  0
  3  4  1  0  0  0
  3 85  1  0  0  0
  3 86  1  0  0  0
  4  5  1  0  0  0
  4 87  1  0  0  0
  4 88  1  0  0  0
  5  6  1  0  0  0
  5 26  1  0  0  0
  5 89  1  0  0  0
  6 25  1  0  0  0
  6 90  1  0  0  0
  6 91  1  0  0  0
  7  8  2  0  0  0
  7 26  1  0  0  0
  7 29  1  0  0  0
  8  9  1  0  0  0
  8 22  1  0  0  0
  9 10  1  0  0  0
  9 27  2  0  0  0
 10 11  2  0  0  0
 10 15  1  0  0  0
 11 12  1  0  0  0
 11 92  1  0  0  0
 12 13  2  0  0  0
 12 93  1  0  0  0
 13 14  1  0  0  0
 13 31  1  0  0  0
 14 15  2  0  0  0
 14 94  1  0  0  0
 15 95  1  0  0  0
 16 17  2  0  0  0
 16 21  1  0  0  0
 16 31  1  0  0  0
 17 18  1  0  0  0
 17 96  1  0  0  0
 18 19  2  0  0  0
 18 97  1  0  0  0
 19 20  1  0  0  0
 19 24  1  0  0  0
 20 21  2  0  0  0
 20 98  1  0  0  0
 21 23  1  0  0  0
 22 28  1  0  0  0
 22 32  2  0  0  0
 26 27  1  0  0  0
 28 99  1  0  0  0
 28100  1  0  0  0
 29101  1  0  0  0
 29102  1  0  0  0
 33 34  1  0  0  0
 33 66  1  0  0  0
 33 70  2  0  0  0
 34 36  1  0  0  0
 34 59  1  0  0  0
 34103  1  0  0  0
 35 44  2  0  0  0
 35 45  1  0  0  0
 35 68  1  0  0  0
 36 56  1  0  0  0
 36104  1  0  0  0
 37 39  1  0  0  0
 37 47  1  0  0  0
 37 66  1  0  0  0
 37105  1  0  0  0
 38 43  2  0  0  0
 38 46  1  0  0  0
 38 47  1  0  0  0
 39 64  1  0  0  0
 39 67  2  0  0  0
 40 52  1  0  0  0
 40 53  2  0  0  0
 40 58  1  0  0  0
 41106  1  0  0  0
 41107  1  0  0  0
 41108  1  0  0  0
 41 48  1  0  0  0
 42 43  1  0  0  0
 42 66  1  0  0  0
 42109  1  0  0  0
 42110  1  0  0  0
 43 44  1  0  0  0
 44111  1  0  0  0
 45 46  2  0  0  0
 45112  1  0  0  0
 46113  1  0  0  0
 47114  1  0  0  0
 47115  1  0  0  0
 48 56  1  0  0  0
 48 65  1  0  0  0
 48116  1  0  0  0
 49 50  1  0  0  0
 49 53  1  0  0  0
 49 64  1  0  0  0
 49117  1  0  0  0
 50 51  1  0  0  0
 50118  1  0  0  0
 50119  1  0  0  0
 51 52  1  0  0  0
 51120  1  0  0  0
 51121  1  0  0  0
 52122  1  0  0  0
 52123  1  0  0  0
 53 54  1  0  0  0
 54 55  2  0  0  0
 54124  1  0  0  0
 55 57  1  0  0  0
 55125  1  0  0  0
 56 69  2  0  0  0
 57 58  2  0  0  0
 57126  1  0  0  0
 58127  1  0  0  0
 59 60  1  0  0  0
 59 61  1  0  0  0
 59 62  1  0  0  0
 60128  1  0  0  0
 60129  1  0  0  0
 60130  1  0  0  0
 61131  1  0  0  0
 61132  1  0  0  0
 61133  1  0  0  0
 62134  1  0  0  0
 62135  1  0  0  0
 62136  1  0  0  0
 63 65  1  0  0  0
 63137  1  0  0  0
 63138  1  0  0  0
 63139  1  0  0  0
 64140  1  0  0  0
 65141  1  0  0  0
 68 82  1  0  0  0
 71 74  2  0  0  0
 71 75  1  0  0  0
 71142  1  0  0  0
 72 74  1  0  0  0
 72 76  2  0  0  0
 72143  1  0  0  0
 73 75  2  0  0  0
 73 76  1  0  0  0
 73144  1  0  0  0
 74 77  1  0  0  0
 75 79  1  0  0  0
 76 80  1  0  0  0
 77 78  2  0  0  0
 77145  1  0  0  0
 78146  1  0  0  0
 79147  1  0  0  0
 79148  1  0  0  0
 79149  1  0  0  0
 80 81  1  0  0  0
 80150  1  0  0  0
 80151  1  0  0  0
 81 82  1  0  0  0
 81152  1  0  0  0
 81153  1  0  0  0
 82154  1  0  0  0
 82155  1  0  0  0
M  ISO  4   1 100  68 101  78 100  82 101
M  END
> <chiral flag>
0

> <version>
0

> <s_m_source_file>
/data/baiqing/PycharmProjects/Reinvent-master-3.2/result/LINK_invent/BTK/process_docking_weight1_custom_product_contain_oxygen_bond_distance_aromatic_linkinvent_7_9_3/rearranged_h_0125.sdf

> <i_m_source_file_index>
16

> <r_mmod_Potential_Energy-OPLS-2005>
128.596740722656

> <r_mmod_Stretch_Energy-OPLS-2005>
103.473365783691

> <r_mmod_Bend_Energy-OPLS-2005>
149.711090087891

> <r_mmod_Torsional_Energy-OPLS-2005>
190.077835083008

> <r_mmod_Improper_Torsional_Energy-OPLS-2005>
3.44052672386169

> <r_mmod_Van_der_Waal_Energy-OPLS-2005>
143.842575073242

> <r_mmod_Electrostatic_Energy-OPLS-2005>
-336.85693359375

> <r_mmod_Solvation_Energy-OPLS-2005>
-191.578277587891

> <b_mmod_Minimization_Converged-OPLS-2005>
0

> <r_mmod_RMS_Derivative-OPLS-2005>
4.28816509246826

$$$$
16
                    3D
 Structure written by MMmdl.
161169  0  0  1  0            999 V2000
  -30.6834  -14.5479   20.5738 C   0  0  0  0  0  0
  -30.4277  -12.3602   19.4409 C   0  0  0  0  0  0
  -29.5075  -12.5319   18.2140 C   0  0  0  0  0  0
  -28.0269  -12.3806   18.6197 C   0  0  0  0  0  0
  -27.6649  -13.2179   19.8748 C   0  0  2  0  0  0
  -28.7062  -13.0252   21.0023 C   0  0  0  0  0  0
  -25.2606  -13.8176   20.5707 C   0  0  0  0  0  0
  -24.1882  -13.0450   20.9176 C   0  0  0  0  0  0
  -24.6455  -11.6900   20.8742 C   0  0  0  0  0  0
  -23.9110  -10.4287   21.0387 C   0  0  0  0  0  0
  -24.3642   -9.4203   21.9178 C   0  0  0  0  0  0
  -23.6297   -8.2248   22.0770 C   0  0  0  0  0  0
  -22.4272   -8.0299   21.3563 C   0  0  0  0  0  0
  -21.9909   -9.0273   20.4656 C   0  0  0  0  0  0
  -22.7266  -10.2141   20.3051 C   0  0  0  0  0  0
  -21.6854   -6.0735   22.5275 C   0  0  0  0  0  0
  -21.4010   -6.5637   23.8216 C   0  0  0  0  0  0
  -21.3658   -5.6800   24.9174 C   0  0  0  0  0  0
  -21.6051   -4.3062   24.7231 C   0  0  0  0  0  0
  -21.8817   -3.8150   23.4349 C   0  0  0  0  0  0
  -21.9190   -4.6955   22.3409 C   0  0  0  0  0  0
  -22.7897  -13.5235   21.1823 C   0  0  0  0  0  0
  -22.1663   -4.2153   21.0983 F   0  0  0  0  0  0
  -21.5625   -3.4538   25.7741 F   0  0  0  0  0  0
  -30.0289  -13.3521   20.4554 N   0  0  0  0  0  0
  -26.3055  -12.9375   20.3357 N   0  0  0  0  0  0
  -25.9397  -11.6508   20.5787 N   0  0  0  0  0  0
  -22.0525  -12.8260   22.0359 N   0  0  0  0  0  0
  -25.4305  -15.1891   20.4123 N   0  0  0  0  0  0
  -31.7799  -14.7263   20.0338 O   0  0  0  0  0  0
  -21.6651   -6.8885   21.4244 O   0  0  0  0  0  0
  -22.3582  -14.5547   20.6655 O   0  0  0  0  0  0
  -24.6110  -31.8687   23.2115 C   0  0  0  0  0  0
  -25.8998  -32.4837   23.8408 C   0  0  1  0  0  0
  -27.2478  -27.4555   20.0922 C   0  0  0  0  0  0
  -25.5853  -33.8631   24.2326 N   0  0  0  0  0  0
  -23.3999  -30.4862   21.5501 C   0  0  2  0  0  0
  -24.8520  -28.9521   20.1157 C   0  0  0  0  0  0
  -22.7396  -29.4653   22.5032 C   0  0  0  0  0  0
  -18.0254  -28.1398   22.8422 C   0  0  0  0  0  0
  -24.1476  -36.7324   23.2645 C   0  0  0  0  0  0
  -25.9243  -30.8399   21.3611 C   0  0  0  0  0  0
  -26.0094  -29.4732   20.7102 C   0  0  0  0  0  0
  -27.2133  -28.7310   20.6966 C   0  0  0  0  0  0
  -26.0772  -26.9376   19.5028 C   0  0  0  0  0  0
  -24.8800  -27.6798   19.5145 C   0  0  0  0  0  0
  -23.6097  -29.8142   20.1650 C   0  0  0  0  0  0
  -25.4099  -36.3130   24.0350 C   0  0  1  0  0  0
  -20.5834  -28.3682   23.1324 C   0  0  2  0  0  0
  -20.6764  -26.9407   22.5438 C   0  0  0  0  0  0
  -19.5783  -26.6375   21.5200 C   0  0  0  0  0  0
  -18.1904  -26.7976   22.1511 C   0  0  0  0  0  0
  -19.1491  -28.8851   23.2864 C   0  0  0  0  0  0
  -18.9386  -30.1423   23.8901 C   0  0  0  0  0  0
  -17.6408  -30.6551   24.0544 C   0  0  0  0  0  0
  -25.9017  -34.9479   23.5143 C   0  0  0  0  0  0
  -16.5272  -29.9079   23.6274 C   0  0  0  0  0  0
  -16.7225  -28.6505   23.0295 C   0  0  0  0  0  0
  -26.4442  -31.6633   25.0731 C   0  0  0  0  0  0
  -25.3723  -31.3683   26.1484 C   0  0  0  0  0  0
  -27.0285  -30.3100   24.6069 C   0  0  0  0  0  0
  -27.6007  -32.4379   25.7486 C   0  0  0  0  0  0
  -27.5583  -37.1824   24.8469 C   0  0  0  0  0  0
  -21.4135  -29.2999   22.3719 N   0  0  0  0  0  0
  -26.4295  -37.3807   23.9414 N   0  0  0  0  0  0
  -24.6628  -31.0768   22.1004 N   0  0  0  0  0  0
  -23.4168  -28.8265   23.3122 O   0  0  0  0  0  0
  -28.4077  -26.7173   20.0471 O   0  0  0  0  0  0
  -26.5595  -34.8935   22.4708 O   0  0  0  0  0  0
  -23.5297  -32.1434   23.7488 O   0  0  0  0  0  0
  -27.4402  -19.1436   20.5493 C   0  0  0  0  0  0
  -29.1954  -20.6191   21.3397 C   0  0  0  0  0  0
  -28.7073  -19.2988   21.1429 C   0  0  0  0  0  0
  -26.6285  -20.2667   20.2669 C   0  0  0  0  0  0
  -28.4024  -21.7668   21.0637 C   0  0  0  0  0  0
  -27.0817  -21.5769   20.5773 C   0  0  0  0  0  0
  -30.0413  -15.6145   21.3601 C   0  0  0  0  0  0
  -29.8796  -16.8864   20.8959 C   0  0  0  0  0  0
  -25.2315  -20.0243   19.7149 C   0  0  0  0  0  0
  -26.1322  -22.7693   20.4596 C   0  0  0  0  0  0
  -29.4196  -18.0764   21.7662 C   0  0  0  0  0  0
  -28.9149  -23.1625   21.4868 C   0  0  0  0  0  0
  -28.9421  -24.3115   20.4291 C   0  0  0  0  0  0
  -28.4869  -25.6710   21.0217 C   0  0  0  0  0  0
  -31.4703  -12.4598   19.1436 H   0  0  0  0  0  0
  -30.3415  -11.3519   19.8508 H   0  0  0  0  0  0
  -29.7605  -11.7992   17.4469 H   0  0  0  0  0  0
  -29.6760  -13.5117   17.7618 H   0  0  0  0  0  0
  -27.8344  -11.3240   18.8115 H   0  0  0  0  0  0
  -27.3858  -12.6670   17.7845 H   0  0  0  0  0  0
  -27.7044  -14.2667   19.5723 H   0  0  0  0  0  0
  -28.7054  -11.9957   21.3656 H   0  0  0  0  0  0
  -28.4487  -13.6369   21.8672 H   0  0  0  0  0  0
  -25.2774   -9.5683   22.4762 H   0  0  0  0  0  0
  -23.9995   -7.4644   22.7506 H   0  0  0  0  0  0
  -21.0829   -8.8805   19.8973 H   0  0  0  0  0  0
  -22.3717  -10.9689   19.6169 H   0  0  0  0  0  0
  -21.2007   -7.6149   23.9716 H   0  0  0  0  0  0
  -21.1477   -6.0527   25.9080 H   0  0  0  0  0  0
  -22.0595   -2.7607   23.2858 H   0  0  0  0  0  0
  -22.4111  -11.9913   22.4777 H   0  0  0  0  0  0
  -21.1153  -13.1322   22.2552 H   0  0  0  0  0  0
  -24.6642  -15.8427   20.5188 H   0  0  0  0  0  0
  -26.2936  -15.6264   20.1145 H   0  0  0  0  0  0
  -26.7080  -32.5567   23.1199 H   0  0  0  0  0  0
  -24.9993  -33.9784   25.0465 H   0  0  0  0  0  0
  -22.6863  -31.3016   21.4096 H   0  0  0  0  0  0
  -23.3741  -35.9661   23.3330 H   0  0  0  0  0  0
  -24.3560  -36.8915   22.2058 H   0  0  0  0  0  0
  -23.7239  -37.6532   23.6640 H   0  0  0  0  0  0
  -26.0274  -31.6072   20.5913 H   0  0  0  0  0  0
  -26.8121  -30.8991   21.9807 H   0  0  0  0  0  0
  -28.1080  -29.1410   21.1454 H   0  0  0  0  0  0
  -26.0972  -25.9635   19.0348 H   0  0  0  0  0  0
  -23.9902  -27.2702   19.0596 H   0  0  0  0  0  0
  -23.7112  -30.5887   19.4013 H   0  0  0  0  0  0
  -22.7363  -29.2266   19.8743 H   0  0  0  0  0  0
  -25.1285  -36.2015   25.0851 H   0  0  0  0  0  0
  -20.9931  -28.3265   24.1459 H   0  0  0  0  0  0
  -20.5652  -26.2323   23.3653 H   0  0  0  0  0  0
  -21.6642  -26.7489   22.1274 H   0  0  0  0  0  0
  -19.6993  -25.6262   21.1323 H   0  0  0  0  0  0
  -19.6801  -27.3062   20.6625 H   0  0  0  0  0  0
  -17.4179  -26.6883   21.3880 H   0  0  0  0  0  0
  -18.0203  -26.0071   22.8813 H   0  0  0  0  0  0
  -19.7870  -30.7234   24.2325 H   0  0  0  0  0  0
  -17.4960  -31.6227   24.5199 H   0  0  0  0  0  0
  -15.5286  -30.2962   23.7574 H   0  0  0  0  0  0
  -15.8653  -28.0792   22.6983 H   0  0  0  0  0  0
  -24.5949  -30.6951   25.7848 H   0  0  0  0  0  0
  -24.8856  -32.2811   26.4918 H   0  0  0  0  0  0
  -25.8118  -30.8919   27.0258 H   0  0  0  0  0  0
  -26.2824  -29.6925   24.1048 H   0  0  0  0  0  0
  -27.4007  -29.7282   25.4510 H   0  0  0  0  0  0
  -27.8697  -30.4470   23.9276 H   0  0  0  0  0  0
  -27.2560  -33.3589   26.2217 H   0  0  0  0  0  0
  -28.3699  -32.7122   25.0247 H   0  0  0  0  0  0
  -28.0821  -31.8456   26.5290 H   0  0  0  0  0  0
  -28.2626  -38.0094   24.7489 H   0  0  0  0  0  0
  -28.1055  -36.2625   24.6339 H   0  0  0  0  0  0
  -27.2286  -37.1526   25.8866 H   0  0  0  0  0  0
  -20.9294  -29.8631   21.6877 H   0  0  0  0  0  0
  -26.0198  -38.2894   24.1401 H   0  0  0  0  0  0
  -27.0533  -18.1426   20.3889 H   0  0  0  0  0  0
  -30.1619  -20.7605   21.8025 H   0  0  0  0  0  0
  -29.7479  -15.3990   22.3781 H   0  0  0  0  0  0
  -30.1429  -17.1160   19.8726 H   0  0  0  0  0  0
  -25.1463  -19.0266   19.2913 H   0  0  0  0  0  0
  -24.9716  -20.7350   18.9273 H   0  0  0  0  0  0
  -24.4963  -20.1157   20.5162 H   0  0  0  0  0  0
  -25.0868  -22.4852   20.5338 H   0  0  0  0  0  0
  -26.2664  -23.2932   19.5143 H   0  0  0  0  0  0
  -26.2776  -23.4740   21.2762 H   0  0  0  0  0  0
  -28.7764  -17.6920   22.5583 H   0  0  0  0  0  0
  -30.3036  -18.4560   22.2812 H   0  0  0  0  0  0
  -29.9186  -23.0684   21.9031 H   0  0  0  0  0  0
  -28.2987  -23.4577   22.3356 H   0  0  0  0  0  0
  -28.3185  -24.0819   19.5684 H   0  0  0  0  0  0
  -29.9573  -24.4024   20.0366 H   0  0  0  0  0  0
  -29.1927  -25.9919   21.7865 H   0  0  0  0  0  0
  -27.5282  -25.5318   21.5295 H   0  0  0  0  0  0
  1 25  1  0  0  0
  1 30  2  0  0  0
  1 77  1  0  0  0
  2  3  1  0  0  0
  2 25  1  0  0  0
  2 85  1  0  0  0
  2 86  1  0  0  0
  3  4  1  0  0  0
  3 87  1  0  0  0
  3 88  1  0  0  0
  4  5  1  0  0  0
  4 89  1  0  0  0
  4 90  1  0  0  0
  5  6  1  0  0  0
  5 26  1  0  0  0
  5 91  1  0  0  0
  6 25  1  0  0  0
  6 92  1  0  0  0
  6 93  1  0  0  0
  7  8  2  0  0  0
  7 26  1  0  0  0
  7 29  1  0  0  0
  8  9  1  0  0  0
  8 22  1  0  0  0
  9 10  1  0  0  0
  9 27  2  0  0  0
 10 11  2  0  0  0
 10 15  1  0  0  0
 11 12  1  0  0  0
 11 94  1  0  0  0
 12 13  2  0  0  0
 12 95  1  0  0  0
 13 14  1  0  0  0
 13 31  1  0  0  0
 14 15  2  0  0  0
 14 96  1  0  0  0
 15 97  1  0  0  0
 16 17  2  0  0  0
 16 21  1  0  0  0
 16 31  1  0  0  0
 17 18  1  0  0  0
 17 98  1  0  0  0
 18 19  2  0  0  0
 18 99  1  0  0  0
 19 20  1  0  0  0
 19 24  1  0  0  0
 20 21  2  0  0  0
 20100  1  0  0  0
 21 23  1  0  0  0
 22 28  1  0  0  0
 22 32  2  0  0  0
 26 27  1  0  0  0
 28101  1  0  0  0
 28102  1  0  0  0
 29103  1  0  0  0
 29104  1  0  0  0
 33 34  1  0  0  0
 33 66  1  0  0  0
 33 70  2  0  0  0
 34 36  1  0  0  0
 34 59  1  0  0  0
 34105  1  0  0  0
 35 44  2  0  0  0
 35 45  1  0  0  0
 35 68  1  0  0  0
 36 56  1  0  0  0
 36106  1  0  0  0
 37 39  1  0  0  0
 37 47  1  0  0  0
 37 66  1  0  0  0
 37107  1  0  0  0
 38 43  2  0  0  0
 38 46  1  0  0  0
 38 47  1  0  0  0
 39 64  1  0  0  0
 39 67  2  0  0  0
 40 52  1  0  0  0
 40 53  2  0  0  0
 40 58  1  0  0  0
 41108  1  0  0  0
 41109  1  0  0  0
 41110  1  0  0  0
 41 48  1  0  0  0
 42 43  1  0  0  0
 42 66  1  0  0  0
 42111  1  0  0  0
 42112  1  0  0  0
 43 44  1  0  0  0
 44113  1  0  0  0
 45 46  2  0  0  0
 45114  1  0  0  0
 46115  1  0  0  0
 47116  1  0  0  0
 47117  1  0  0  0
 48 56  1  0  0  0
 48 65  1  0  0  0
 48118  1  0  0  0
 49 50  1  0  0  0
 49 53  1  0  0  0
 49 64  1  0  0  0
 49119  1  0  0  0
 50 51  1  0  0  0
 50120  1  0  0  0
 50121  1  0  0  0
 51 52  1  0  0  0
 51122  1  0  0  0
 51123  1  0  0  0
 52124  1  0  0  0
 52125  1  0  0  0
 53 54  1  0  0  0
 54 55  2  0  0  0
 54126  1  0  0  0
 55 57  1  0  0  0
 55127  1  0  0  0
 56 69  2  0  0  0
 57 58  2  0  0  0
 57128  1  0  0  0
 58129  1  0  0  0
 59 60  1  0  0  0
 59 61  1  0  0  0
 59 62  1  0  0  0
 60130  1  0  0  0
 60131  1  0  0  0
 60132  1  0  0  0
 61133  1  0  0  0
 61134  1  0  0  0
 61135  1  0  0  0
 62136  1  0  0  0
 62137  1  0  0  0
 62138  1  0  0  0
 63 65  1  0  0  0
 63139  1  0  0  0
 63140  1  0  0  0
 63141  1  0  0  0
 64142  1  0  0  0
 65143  1  0  0  0
 68 84  1  0  0  0
 71 73  2  0  0  0
 71 74  1  0  0  0
 71144  1  0  0  0
 72 73  1  0  0  0
 72 75  2  0  0  0
 72145  1  0  0  0
 73 81  1  0  0  0
 74 76  2  0  0  0
 74 79  1  0  0  0
 75 76  1  0  0  0
 75 82  1  0  0  0
 76 80  1  0  0  0
 77 78  2  0  0  0
 77146  1  0  0  0
 78 81  1  0  0  0
 78147  1  0  0  0
 79148  1  0  0  0
 79149  1  0  0  0
 79150  1  0  0  0
 80151  1  0  0  0
 80152  1  0  0  0
 80153  1  0  0  0
 81154  1  0  0  0
 81155  1  0  0  0
 82 83  1  0  0  0
 82156  1  0  0  0
 82157  1  0  0  0
 83 84  1  0  0  0
 83158  1  0  0  0
 83159  1  0  0  0
 84160  1  0  0  0
 84161  1  0  0  0
M  ISO  4   1 100  68 101  77 100  84 101
M  END
> <chiral flag>
0

> <version>
0

> <s_m_source_file>
/data/baiqing/PycharmProjects/Reinvent-master-3.2/result/LINK_invent/BTK/process_docking_weight1_custom_product_contain_oxygen_bond_distance_aromatic_linkinvent_7_9_3/rearranged_h_0125.sdf

> <i_m_source_file_index>
17

> <r_mmod_Potential_Energy-OPLS-2005>
9.318190574646

> <r_mmod_Stretch_Energy-OPLS-2005>
45.3569412231445

> <r_mmod_Bend_Energy-OPLS-2005>
103.889724731445

> <r_mmod_Torsional_Energy-OPLS-2005>
236.739791870117

> <r_mmod_Improper_Torsional_Energy-OPLS-2005>
5.4757981300354

> <r_mmod_Van_der_Waal_Energy-OPLS-2005>
147.240386962891

> <r_mmod_Electrostatic_Energy-OPLS-2005>
-357.221618652344

> <r_mmod_Solvation_Energy-OPLS-2005>
-188.349975585938

> <b_mmod_Minimization_Converged-OPLS-2005>
0

> <r_mmod_RMS_Derivative-OPLS-2005>
5.64716958999634

$$$$
17
                    3D
 Structure written by MMmdl.
159167  0  0  1  0            999 V2000
  -30.6272  -14.6933   20.4682 C   0  0  0  0  0  0
  -30.4333  -12.4254   19.4534 C   0  0  0  0  0  0
  -29.5050  -12.4983   18.2217 C   0  0  0  0  0  0
  -28.0309  -12.3300   18.6389 C   0  0  0  0  0  0
  -27.6436  -13.2245   19.8473 C   0  0  2  0  0  0
  -28.6922  -13.1361   20.9780 C   0  0  0  0  0  0
  -25.2522  -13.8174   20.5672 C   0  0  0  0  0  0
  -24.1816  -13.0427   20.9224 C   0  0  0  0  0  0
  -24.6410  -11.6911   20.8772 C   0  0  0  0  0  0
  -23.9086  -10.4285   21.0423 C   0  0  0  0  0  0
  -24.3633   -9.4196   21.9197 C   0  0  0  0  0  0
  -23.6300   -8.2234   22.0760 C   0  0  0  0  0  0
  -22.4279   -8.0286   21.3553 C   0  0  0  0  0  0
  -21.9927   -9.0259   20.4652 C   0  0  0  0  0  0
  -22.7264  -10.2136   20.3065 C   0  0  0  0  0  0
  -21.6850   -6.0749   22.5279 C   0  0  0  0  0  0
  -21.4010   -6.5647   23.8218 C   0  0  0  0  0  0
  -21.3656   -5.6800   24.9179 C   0  0  0  0  0  0
  -21.6042   -4.3061   24.7229 C   0  0  0  0  0  0
  -21.8818   -3.8156   23.4347 C   0  0  0  0  0  0
  -21.9191   -4.6974   22.3406 C   0  0  0  0  0  0
  -22.7840  -13.5218   21.1867 C   0  0  0  0  0  0
  -22.1660   -4.2163   21.0983 F   0  0  0  0  0  0
  -21.5629   -3.4543   25.7738 F   0  0  0  0  0  0
  -29.9955  -13.4772   20.3934 N   0  0  0  0  0  0
  -26.2946  -12.9378   20.3258 N   0  0  0  0  0  0
  -25.9334  -11.6531   20.5753 N   0  0  0  0  0  0
  -22.0476  -12.8209   22.0422 N   0  0  0  0  0  0
  -25.4163  -15.1889   20.4031 N   0  0  0  0  0  0
  -31.8206  -14.7931   20.1703 O   0  0  0  0  0  0
  -21.6638   -6.8888   21.4246 O   0  0  0  0  0  0
  -22.3527  -14.5524   20.6712 O   0  0  0  0  0  0
  -24.6258  -31.8577   23.1998 C   0  0  0  0  0  0
  -25.9106  -32.4763   23.8325 C   0  0  1  0  0  0
  -27.2294  -27.3066   20.1322 C   0  0  0  0  0  0
  -25.5924  -33.8559   24.2269 N   0  0  0  0  0  0
  -23.4215  -30.4769   21.5405 C   0  0  2  0  0  0
  -24.8715  -28.9218   20.1151 C   0  0  0  0  0  0
  -22.7467  -29.4600   22.4916 C   0  0  0  0  0  0
  -18.0285  -28.1380   22.8465 C   0  0  0  0  0  0
  -24.1505  -36.7282   23.2639 C   0  0  0  0  0  0
  -25.9612  -30.7862   21.3707 C   0  0  0  0  0  0
  -26.0387  -29.4091   20.7183 C   0  0  0  0  0  0
  -27.2236  -28.6138   20.7124 C   0  0  0  0  0  0
  -26.0406  -26.8626   19.5191 C   0  0  0  0  0  0
  -24.8737  -27.6544   19.5072 C   0  0  0  0  0  0
  -23.6393  -29.8041   20.1590 C   0  0  0  0  0  0
  -25.4131  -36.3072   24.0333 C   0  0  1  0  0  0
  -20.5883  -28.3674   23.1289 C   0  0  2  0  0  0
  -20.6783  -26.9395   22.5415 C   0  0  0  0  0  0
  -19.5772  -26.6378   21.5204 C   0  0  0  0  0  0
  -18.1940  -26.7916   22.1605 C   0  0  0  0  0  0
  -19.1534  -28.8846   23.2866 C   0  0  0  0  0  0
  -18.9466  -30.1447   23.8885 C   0  0  0  0  0  0
  -17.6466  -30.6579   24.0550 C   0  0  0  0  0  0
  -25.9064  -34.9434   23.5100 C   0  0  0  0  0  0
  -16.5351  -29.9079   23.6327 C   0  0  0  0  0  0
  -16.7270  -28.6505   23.0334 C   0  0  0  0  0  0
  -26.4502  -31.6573   25.0689 C   0  0  0  0  0  0
  -25.3735  -31.3723   26.1418 C   0  0  0  0  0  0
  -27.0353  -30.3002   24.6143 C   0  0  0  0  0  0
  -27.6056  -32.4306   25.7468 C   0  0  0  0  0  0
  -27.5587  -37.1797   24.8464 C   0  0  0  0  0  0
  -21.4180  -29.3026   22.3671 N   0  0  0  0  0  0
  -26.4305  -37.3765   23.9402 N   0  0  0  0  0  0
  -24.6877  -31.0574   22.0945 N   0  0  0  0  0  0
  -23.4180  -28.8148   23.3009 O   0  0  0  0  0  0
  -28.3556  -26.4723   20.1117 O   0  0  0  0  0  0
  -26.5616  -34.8897   22.4655 O   0  0  0  0  0  0
  -23.5420  -32.1379   23.7325 O   0  0  0  0  0  0
  -30.9422  -19.9832   21.1509 C   0  0  0  0  0  0
  -31.3630  -17.5884   21.4491 C   0  0  0  0  0  0
  -29.7429  -19.7472   20.4455 C   0  0  0  0  0  0
  -29.3618  -18.3463   20.2676 C   0  0  0  0  0  0
  -30.1834  -17.2440   20.7540 C   0  0  0  0  0  0
  -31.7311  -18.9314   21.6505 C   0  0  0  0  0  0
  -28.3387  -17.6788   18.0383 C   0  0  0  0  0  0
  -29.0229  -21.0234   19.8161 C   0  0  0  0  0  0
  -28.0826  -17.9893   19.5195 C   0  0  0  0  0  0
  -28.9176  -22.4184   20.6193 C   0  0  0  0  0  0
  -28.5654  -23.7870   19.8414 C   0  0  0  0  0  0
  -28.2678  -25.1105   20.6996 C   0  0  0  0  0  0
  -29.8314  -15.8122   20.6259 N   0  0  0  0  0  0
  -32.8666  -19.2151   22.3326 F   0  0  0  0  0  0
  -31.4732  -12.5505   19.1465 H   0  0  0  0  0  0
  -30.3741  -11.4435   19.9263 H   0  0  0  0  0  0
  -29.7780  -11.7288   17.4985 H   0  0  0  0  0  0
  -29.6361  -13.4544   17.7125 H   0  0  0  0  0  0
  -27.8818  -11.2806   18.8961 H   0  0  0  0  0  0
  -27.3719  -12.5310   17.7927 H   0  0  0  0  0  0
  -27.6431  -14.2481   19.4741 H   0  0  0  0  0  0
  -28.7186  -12.1327   21.4058 H   0  0  0  0  0  0
  -28.4374  -13.8105   21.7972 H   0  0  0  0  0  0
  -25.2779   -9.5668   22.4771 H   0  0  0  0  0  0
  -24.0010   -7.4626   22.7476 H   0  0  0  0  0  0
  -21.0863   -8.8790   19.8951 H   0  0  0  0  0  0
  -22.3736  -10.9682   19.6174 H   0  0  0  0  0  0
  -21.1997   -7.6154   23.9727 H   0  0  0  0  0  0
  -21.1478   -6.0528   25.9085 H   0  0  0  0  0  0
  -22.0597   -2.7619   23.2845 H   0  0  0  0  0  0
  -22.4096  -11.9875   22.4807 H   0  0  0  0  0  0
  -21.1089  -13.1230   22.2609 H   0  0  0  0  0  0
  -24.6350  -15.8292   20.4946 H   0  0  0  0  0  0
  -26.2352  -15.6209   19.9983 H   0  0  0  0  0  0
  -26.7144  -32.5435   23.1043 H   0  0  0  0  0  0
  -25.0069  -33.9708   25.0414 H   0  0  0  0  0  0
  -22.7152  -31.2964   21.3922 H   0  0  0  0  0  0
  -23.3764  -35.9617   23.3306 H   0  0  0  0  0  0
  -24.3586  -36.8906   22.2050 H   0  0  0  0  0  0
  -23.7261  -37.6484   23.6662 H   0  0  0  0  0  0
  -26.0865  -31.5487   20.6003 H   0  0  0  0  0  0
  -26.8421  -30.8416   21.9986 H   0  0  0  0  0  0
  -28.1236  -28.9842   21.1815 H   0  0  0  0  0  0
  -26.0149  -25.8884   19.0515 H   0  0  0  0  0  0
  -23.9788  -27.2756   19.0336 H   0  0  0  0  0  0
  -23.7587  -30.5776   19.3985 H   0  0  0  0  0  0
  -22.7616  -29.2318   19.8545 H   0  0  0  0  0  0
  -25.1310  -36.1918   25.0827 H   0  0  0  0  0  0
  -20.9963  -28.3248   24.1420 H   0  0  0  0  0  0
  -20.5707  -26.2259   23.3601 H   0  0  0  0  0  0
  -21.6648  -26.7446   22.1193 H   0  0  0  0  0  0
  -19.6938  -25.6293   21.1230 H   0  0  0  0  0  0
  -19.6737  -27.3189   20.6733 H   0  0  0  0  0  0
  -17.4213  -26.6649   21.4001 H   0  0  0  0  0  0
  -18.0343  -26.0078   22.9025 H   0  0  0  0  0  0
  -19.7948  -30.7255   24.2254 H   0  0  0  0  0  0
  -17.5027  -31.6264   24.5141 H   0  0  0  0  0  0
  -15.5351  -30.2967   23.7688 H   0  0  0  0  0  0
  -15.8669  -28.0827   22.7042 H   0  0  0  0  0  0
  -24.5909  -30.7078   25.7752 H   0  0  0  0  0  0
  -24.8912  -32.2894   26.4808 H   0  0  0  0  0  0
  -25.8048  -30.8923   27.0209 H   0  0  0  0  0  0
  -26.2929  -29.6733   24.1192 H   0  0  0  0  0  0
  -27.4089  -29.7277   25.4640 H   0  0  0  0  0  0
  -27.8771  -30.4302   23.9338 H   0  0  0  0  0  0
  -27.2673  -33.3623   26.2011 H   0  0  0  0  0  0
  -28.3883  -32.6830   25.0304 H   0  0  0  0  0  0
  -28.0689  -31.8434   26.5411 H   0  0  0  0  0  0
  -28.2594  -38.0097   24.7499 H   0  0  0  0  0  0
  -28.1093  -36.2623   24.6312 H   0  0  0  0  0  0
  -27.2288  -37.1456   25.8861 H   0  0  0  0  0  0
  -20.9356  -29.8739   21.6880 H   0  0  0  0  0  0
  -26.0191  -38.2842   24.1399 H   0  0  0  0  0  0
  -31.2979  -20.9909   21.3026 H   0  0  0  0  0  0
  -32.0039  -16.8203   21.8561 H   0  0  0  0  0  0
  -27.4218  -17.3546   17.5452 H   0  0  0  0  0  0
  -29.0743  -16.8817   17.9223 H   0  0  0  0  0  0
  -28.7101  -18.5552   17.5062 H   0  0  0  0  0  0
  -28.0185  -20.7661   19.4856 H   0  0  0  0  0  0
  -29.5669  -21.2248   18.8926 H   0  0  0  0  0  0
  -27.3327  -18.7713   19.6216 H   0  0  0  0  0  0
  -27.6287  -17.1225   19.9971 H   0  0  0  0  0  0
  -29.8634  -22.6096   21.1227 H   0  0  0  0  0  0
  -28.1935  -22.2805   21.4231 H   0  0  0  0  0  0
  -27.7057  -23.6130   19.1953 H   0  0  0  0  0  0
  -29.3942  -24.0065   19.1668 H   0  0  0  0  0  0
  -28.9963  -25.1206   21.5112 H   0  0  0  0  0  0
  -27.3064  -24.9894   21.1996 H   0  0  0  0  0  0
  -28.8457  -15.6077   20.6472 H   0  0  0  0  0  0
  1 25  1  0  0  0
  1 30  2  0  0  0
  1 83  1  0  0  0
  2  3  1  0  0  0
  2 25  1  0  0  0
  2 85  1  0  0  0
  2 86  1  0  0  0
  3  4  1  0  0  0
  3 87  1  0  0  0
  3 88  1  0  0  0
  4  5  1  0  0  0
  4 89  1  0  0  0
  4 90  1  0  0  0
  5  6  1  0  0  0
  5 26  1  0  0  0
  5 91  1  0  0  0
  6 25  1  0  0  0
  6 92  1  0  0  0
  6 93  1  0  0  0
  7  8  2  0  0  0
  7 26  1  0  0  0
  7 29  1  0  0  0
  8  9  1  0  0  0
  8 22  1  0  0  0
  9 10  1  0  0  0
  9 27  2  0  0  0
 10 11  2  0  0  0
 10 15  1  0  0  0
 11 12  1  0  0  0
 11 94  1  0  0  0
 12 13  2  0  0  0
 12 95  1  0  0  0
 13 14  1  0  0  0
 13 31  1  0  0  0
 14 15  2  0  0  0
 14 96  1  0  0  0
 15 97  1  0  0  0
 16 17  2  0  0  0
 16 21  1  0  0  0
 16 31  1  0  0  0
 17 18  1  0  0  0
 17 98  1  0  0  0
 18 19  2  0  0  0
 18 99  1  0  0  0
 19 20  1  0  0  0
 19 24  1  0  0  0
 20 21  2  0  0  0
 20100  1  0  0  0
 21 23  1  0  0  0
 22 28  1  0  0  0
 22 32  2  0  0  0
 26 27  1  0  0  0
 28101  1  0  0  0
 28102  1  0  0  0
 29103  1  0  0  0
 29104  1  0  0  0
 33 34  1  0  0  0
 33 66  1  0  0  0
 33 70  2  0  0  0
 34 36  1  0  0  0
 34 59  1  0  0  0
 34105  1  0  0  0
 35 44  2  0  0  0
 35 45  1  0  0  0
 35 68  1  0  0  0
 36 56  1  0  0  0
 36106  1  0  0  0
 37 39  1  0  0  0
 37 47  1  0  0  0
 37 66  1  0  0  0
 37107  1  0  0  0
 38 43  2  0  0  0
 38 46  1  0  0  0
 38 47  1  0  0  0
 39 64  1  0  0  0
 39 67  2  0  0  0
 40 52  1  0  0  0
 40 53  2  0  0  0
 40 58  1  0  0  0
 41108  1  0  0  0
 41109  1  0  0  0
 41110  1  0  0  0
 41 48  1  0  0  0
 42 43  1  0  0  0
 42 66  1  0  0  0
 42111  1  0  0  0
 42112  1  0  0  0
 43 44  1  0  0  0
 44113  1  0  0  0
 45 46  2  0  0  0
 45114  1  0  0  0
 46115  1  0  0  0
 47116  1  0  0  0
 47117  1  0  0  0
 48 56  1  0  0  0
 48 65  1  0  0  0
 48118  1  0  0  0
 49 50  1  0  0  0
 49 53  1  0  0  0
 49 64  1  0  0  0
 49119  1  0  0  0
 50 51  1  0  0  0
 50120  1  0  0  0
 50121  1  0  0  0
 51 52  1  0  0  0
 51122  1  0  0  0
 51123  1  0  0  0
 52124  1  0  0  0
 52125  1  0  0  0
 53 54  1  0  0  0
 54 55  2  0  0  0
 54126  1  0  0  0
 55 57  1  0  0  0
 55127  1  0  0  0
 56 69  2  0  0  0
 57 58  2  0  0  0
 57128  1  0  0  0
 58129  1  0  0  0
 59 60  1  0  0  0
 59 61  1  0  0  0
 59 62  1  0  0  0
 60130  1  0  0  0
 60131  1  0  0  0
 60132  1  0  0  0
 61133  1  0  0  0
 61134  1  0  0  0
 61135  1  0  0  0
 62136  1  0  0  0
 62137  1  0  0  0
 62138  1  0  0  0
 63 65  1  0  0  0
 63139  1  0  0  0
 63140  1  0  0  0
 63141  1  0  0  0
 64142  1  0  0  0
 65143  1  0  0  0
 68 82  1  0  0  0
 71 73  2  0  0  0
 71 76  1  0  0  0
 71144  1  0  0  0
 72 75  1  0  0  0
 72 76  2  0  0  0
 72145  1  0  0  0
 73 74  1  0  0  0
 73 78  1  0  0  0
 74 75  2  0  0  0
 74 79  1  0  0  0
 75 83  1  0  0  0
 76 84  1  0  0  0
 77 79  1  0  0  0
 77146  1  0  0  0
 77147  1  0  0  0
 77148  1  0  0  0
 78 80  1  0  0  0
 78149  1  0  0  0
 78150  1  0  0  0
 79151  1  0  0  0
 79152  1  0  0  0
 80 81  1  0  0  0
 80153  1  0  0  0
 80154  1  0  0  0
 81 82  1  0  0  0
 81155  1  0  0  0
 81156  1  0  0  0
 82157  1  0  0  0
 82158  1  0  0  0
 83159  1  0  0  0
M  ISO  4   1 100  68 101  82 101  83 100
M  END
> <chiral flag>
0

> <version>
0

> <s_m_source_file>
/data/baiqing/PycharmProjects/Reinvent-master-3.2/result/LINK_invent/BTK/process_docking_weight1_custom_product_contain_oxygen_bond_distance_aromatic_linkinvent_7_9_3/rearranged_h_0125.sdf

> <i_m_source_file_index>
18

> <r_mmod_Potential_Energy-OPLS-2005>
138.366439819336

> <r_mmod_Stretch_Energy-OPLS-2005>
105.757987976074

> <r_mmod_Bend_Energy-OPLS-2005>
145.76383972168

> <r_mmod_Torsional_Energy-OPLS-2005>
242.166610717773

> <r_mmod_Improper_Torsional_Energy-OPLS-2005>
6.75179529190063

> <r_mmod_Van_der_Waal_Energy-OPLS-2005>
131.560470581055

> <r_mmod_Electrostatic_Energy-OPLS-2005>
-357.016967773438

> <r_mmod_Solvation_Energy-OPLS-2005>
-197.270202636719

> <b_mmod_Minimization_Converged-OPLS-2005>
0

> <r_mmod_RMS_Derivative-OPLS-2005>
1.69810211658478

$$$$
18
                    3D
 Structure written by MMmdl.
156164  0  0  1  0            999 V2000
  -30.5631  -14.8397   20.4555 C   0  0  0  0  0  0
  -30.4469  -12.5122   19.4907 C   0  0  0  0  0  0
  -29.5210  -12.5236   18.2513 C   0  0  0  0  0  0
  -28.0506  -12.3229   18.6653 C   0  0  0  0  0  0
  -27.6435  -13.2329   19.8531 C   0  0  2  0  0  0
  -28.6878  -13.1899   20.9925 C   0  0  0  0  0  0
  -25.2513  -13.8188   20.5686 C   0  0  0  0  0  0
  -24.1815  -13.0435   20.9225 C   0  0  0  0  0  0
  -24.6411  -11.6914   20.8762 C   0  0  0  0  0  0
  -23.9087  -10.4292   21.0418 C   0  0  0  0  0  0
  -24.3630   -9.4204   21.9193 C   0  0  0  0  0  0
  -23.6300   -8.2239   22.0759 C   0  0  0  0  0  0
  -22.4281   -8.0284   21.3548 C   0  0  0  0  0  0
  -21.9925   -9.0261   20.4651 C   0  0  0  0  0  0
  -22.7261  -10.2136   20.3065 C   0  0  0  0  0  0
  -21.6851   -6.0743   22.5284 C   0  0  0  0  0  0
  -21.4012   -6.5646   23.8216 C   0  0  0  0  0  0
  -21.3658   -5.6799   24.9177 C   0  0  0  0  0  0
  -21.6043   -4.3061   24.7226 C   0  0  0  0  0  0
  -21.8817   -3.8155   23.4347 C   0  0  0  0  0  0
  -21.9192   -4.6972   22.3405 C   0  0  0  0  0  0
  -22.7832  -13.5210   21.1871 C   0  0  0  0  0  0
  -22.1662   -4.2159   21.0981 F   0  0  0  0  0  0
  -21.5627   -3.4544   25.7736 F   0  0  0  0  0  0
  -29.9843  -13.5795   20.4165 N   0  0  0  0  0  0
  -26.2950  -12.9396   20.3284 N   0  0  0  0  0  0
  -25.9343  -11.6540   20.5767 N   0  0  0  0  0  0
  -22.0484  -12.8196   22.0429 N   0  0  0  0  0  0
  -25.4176  -15.1902   20.4020 N   0  0  0  0  0  0
  -31.7367  -14.9491   20.0906 O   0  0  0  0  0  0
  -21.6641   -6.8884   21.4243 O   0  0  0  0  0  0
  -22.3509  -14.5514   20.6717 O   0  0  0  0  0  0
  -24.6377  -31.8496   23.1957 C   0  0  0  0  0  0
  -25.9176  -32.4729   23.8317 C   0  0  1  0  0  0
  -27.2164  -27.1928   20.1454 C   0  0  0  0  0  0
  -25.5945  -33.8535   24.2232 N   0  0  0  0  0  0
  -23.4384  -30.4730   21.5395 C   0  0  2  0  0  0
  -24.8879  -28.9109   20.1132 C   0  0  0  0  0  0
  -22.7527  -29.4584   22.4879 C   0  0  0  0  0  0
  -18.0296  -28.1399   22.8488 C   0  0  0  0  0  0
  -24.1490  -36.7271   23.2641 C   0  0  0  0  0  0
  -25.9918  -30.7412   21.3878 C   0  0  0  0  0  0
  -26.0635  -29.3579   20.7302 C   0  0  0  0  0  0
  -27.2313  -28.5142   20.7320 C   0  0  0  0  0  0
  -26.0199  -26.8434   19.4795 C   0  0  0  0  0  0
  -24.8751  -27.6641   19.4739 C   0  0  0  0  0  0
  -23.6632  -29.8076   20.1568 C   0  0  0  0  0  0
  -25.4124  -36.3056   24.0319 C   0  0  1  0  0  0
  -20.5895  -28.3730   23.1252 C   0  0  2  0  0  0
  -20.6782  -26.9440   22.5416 C   0  0  0  0  0  0
  -19.5758  -26.6395   21.5219 C   0  0  0  0  0  0
  -18.1939  -26.7938   22.1633 C   0  0  0  0  0  0
  -19.1546  -28.8886   23.2862 C   0  0  0  0  0  0
  -18.9466  -30.1471   23.8903 C   0  0  0  0  0  0
  -17.6459  -30.6595   24.0578 C   0  0  0  0  0  0
  -25.9066  -34.9428   23.5083 C   0  0  0  0  0  0
  -16.5352  -29.9093   23.6341 C   0  0  0  0  0  0
  -16.7280  -28.6505   23.0361 C   0  0  0  0  0  0
  -26.4522  -31.6576   25.0731 C   0  0  0  0  0  0
  -25.3720  -31.3746   26.1433 C   0  0  0  0  0  0
  -27.0385  -30.2980   24.6273 C   0  0  0  0  0  0
  -27.6057  -32.4336   25.7512 C   0  0  0  0  0  0
  -27.5579  -37.1796   24.8468 C   0  0  0  0  0  0
  -21.4226  -29.3068   22.3629 N   0  0  0  0  0  0
  -26.4294  -37.3761   23.9403 N   0  0  0  0  0  0
  -24.7085  -31.0403   22.0967 N   0  0  0  0  0  0
  -23.4195  -28.8112   23.2996 O   0  0  0  0  0  0
  -28.2826  -26.2381   20.1879 O   0  0  0  0  0  0
  -26.5644  -34.8909   22.4655 O   0  0  0  0  0  0
  -23.5509  -32.1348   23.7211 O   0  0  0  0  0  0
  -30.2480  -19.9287   20.5419 C   0  0  0  0  0  0
  -28.3020  -17.9730   20.6613 C   0  0  0  0  0  0
  -30.6129  -18.5108   20.5789 C   0  0  0  0  0  0
  -28.9046  -20.4299   20.5873 C   0  0  0  0  0  0
  -29.6267  -17.4437   20.6351 C   0  0  0  0  0  0
  -27.9550  -19.3651   20.6434 C   0  0  0  0  0  0
  -32.8342  -18.8505   21.8014 C   0  0  0  0  0  0
  -32.1068  -18.2142   20.6063 C   0  0  0  0  0  0
  -28.3621  -21.9639   20.7567 C   0  0  0  0  0  0
  -28.9345  -23.4239   20.2444 C   0  0  0  0  0  0
  -27.9708  -24.7584   20.4623 C   0  0  0  0  0  0
  -29.7270  -15.9265   20.7660 N   0  0  0  0  0  0
  -26.6395  -19.6775   20.7268 F   0  0  0  0  0  0
  -31.4846  -12.6553   19.1851 H   0  0  0  0  0  0
  -30.4161  -11.5405   19.9869 H   0  0  0  0  0  0
  -29.8206  -11.7465   17.5476 H   0  0  0  0  0  0
  -29.6265  -13.4726   17.7234 H   0  0  0  0  0  0
  -27.9292  -11.2759   18.9457 H   0  0  0  0  0  0
  -27.3880  -12.4886   17.8149 H   0  0  0  0  0  0
  -27.6309  -14.2487   19.4584 H   0  0  0  0  0  0
  -28.7457  -12.1918   21.4300 H   0  0  0  0  0  0
  -28.4012  -13.8576   21.8058 H   0  0  0  0  0  0
  -25.2775   -9.5668   22.4767 H   0  0  0  0  0  0
  -24.0010   -7.4625   22.7476 H   0  0  0  0  0  0
  -21.0859   -8.8781   19.8956 H   0  0  0  0  0  0
  -22.3727  -10.9673   19.6174 H   0  0  0  0  0  0
  -21.2007   -7.6156   23.9719 H   0  0  0  0  0  0
  -21.1479   -6.0532   25.9077 H   0  0  0  0  0  0
  -22.0597   -2.7619   23.2847 H   0  0  0  0  0  0
  -22.4112  -11.9855   22.4797 H   0  0  0  0  0  0
  -21.1102  -13.1209   22.2645 H   0  0  0  0  0  0
  -24.6329  -15.8288   20.4781 H   0  0  0  0  0  0
  -26.2253  -15.6098   19.9617 H   0  0  0  0  0  0
  -26.7242  -32.5353   23.1050 H   0  0  0  0  0  0
  -25.0085  -33.9663   25.0373 H   0  0  0  0  0  0
  -22.7381  -31.2976   21.3895 H   0  0  0  0  0  0
  -23.3752  -35.9602   23.3305 H   0  0  0  0  0  0
  -24.3573  -36.8896   22.2053 H   0  0  0  0  0  0
  -23.7242  -37.6470   23.6672 H   0  0  0  0  0  0
  -26.1422  -31.4990   20.6180 H   0  0  0  0  0  0
  -26.8655  -30.7903   22.0257 H   0  0  0  0  0  0
  -28.1290  -28.8513   21.2313 H   0  0  0  0  0  0
  -25.9395  -25.9083   18.9476 H   0  0  0  0  0  0
  -23.9821  -27.3211   18.9698 H   0  0  0  0  0  0
  -23.7981  -30.5858   19.4047 H   0  0  0  0  0  0
  -22.7794  -29.2486   19.8448 H   0  0  0  0  0  0
  -25.1310  -36.1906   25.0812 H   0  0  0  0  0  0
  -20.9977  -28.3323   24.1373 H   0  0  0  0  0  0
  -20.5669  -26.2346   23.3631 H   0  0  0  0  0  0
  -21.6662  -26.7465   22.1231 H   0  0  0  0  0  0
  -19.6918  -25.6302   21.1268 H   0  0  0  0  0  0
  -19.6688  -27.3196   20.6740 H   0  0  0  0  0  0
  -17.4202  -26.6661   21.4045 H   0  0  0  0  0  0
  -18.0350  -26.0083   22.9037 H   0  0  0  0  0  0
  -19.7940  -30.7285   24.2267 H   0  0  0  0  0  0
  -17.5011  -31.6269   24.5191 H   0  0  0  0  0  0
  -15.5352  -30.2998   23.7668 H   0  0  0  0  0  0
  -15.8688  -28.0822   22.7068 H   0  0  0  0  0  0
  -24.5906  -30.7090   25.7751 H   0  0  0  0  0  0
  -24.8902  -32.2919   26.4822 H   0  0  0  0  0  0
  -25.8014  -30.8943   27.0234 H   0  0  0  0  0  0
  -26.2995  -29.6702   24.1280 H   0  0  0  0  0  0
  -27.4018  -29.7278   25.4834 H   0  0  0  0  0  0
  -27.8894  -30.4227   23.9574 H   0  0  0  0  0  0
  -27.2656  -33.3650   26.2052 H   0  0  0  0  0  0
  -28.3891  -32.6874   25.0359 H   0  0  0  0  0  0
  -28.0700  -31.8485   26.5461 H   0  0  0  0  0  0
  -28.2603  -38.0088   24.7507 H   0  0  0  0  0  0
  -28.1070  -36.2616   24.6314 H   0  0  0  0  0  0
  -27.2289  -37.1472   25.8869 H   0  0  0  0  0  0
  -20.9415  -29.8798   21.6836 H   0  0  0  0  0  0
  -26.0167  -38.2831   24.1404 H   0  0  0  0  0  0
  -31.0394  -20.6650   20.5230 H   0  0  0  0  0  0
  -27.4761  -17.2810   20.7303 H   0  0  0  0  0  0
  -33.8882  -18.5695   21.8021 H   0  0  0  0  0  0
  -32.4035  -18.5197   22.7466 H   0  0  0  0  0  0
  -32.7934  -19.9390   21.7755 H   0  0  0  0  0  0
  -32.5492  -18.5661   19.6734 H   0  0  0  0  0  0
  -32.2926  -17.1511   20.6425 H   0  0  0  0  0  0
  -28.2126  -22.0699   21.8317 H   0  0  0  0  0  0
  -27.3497  -21.9332   20.3542 H   0  0  0  0  0  0
  -29.8941  -23.6040   20.7290 H   0  0  0  0  0  0
  -29.1538  -23.3467   19.1796 H   0  0  0  0  0  0
  -27.0554  -24.4915   19.9435 H   0  0  0  0  0  0
  -27.6840  -24.7416   21.5142 H   0  0  0  0  0  0
  -28.8414  -15.5352   21.0471 H   0  0  0  0  0  0
  1 25  1  0  0  0
  1 30  2  0  0  0
  1 82  1  0  0  0
  2  3  1  0  0  0
  2 25  1  0  0  0
  2 84  1  0  0  0
  2 85  1  0  0  0
  3  4  1  0  0  0
  3 86  1  0  0  0
  3 87  1  0  0  0
  4  5  1  0  0  0
  4 88  1  0  0  0
  4 89  1  0  0  0
  5  6  1  0  0  0
  5 26  1  0  0  0
  5 90  1  0  0  0
  6 25  1  0  0  0
  6 91  1  0  0  0
  6 92  1  0  0  0
  7  8  2  0  0  0
  7 26  1  0  0  0
  7 29  1  0  0  0
  8  9  1  0  0  0
  8 22  1  0  0  0
  9 10  1  0  0  0
  9 27  2  0  0  0
 10 11  2  0  0  0
 10 15  1  0  0  0
 11 12  1  0  0  0
 11 93  1  0  0  0
 12 13  2  0  0  0
 12 94  1  0  0  0
 13 14  1  0  0  0
 13 31  1  0  0  0
 14 15  2  0  0  0
 14 95  1  0  0  0
 15 96  1  0  0  0
 16 17  2  0  0  0
 16 21  1  0  0  0
 16 31  1  0  0  0
 17 18  1  0  0  0
 17 97  1  0  0  0
 18 19  2  0  0  0
 18 98  1  0  0  0
 19 20  1  0  0  0
 19 24  1  0  0  0
 20 21  2  0  0  0
 20 99  1  0  0  0
 21 23  1  0  0  0
 22 28  1  0  0  0
 22 32  2  0  0  0
 26 27  1  0  0  0
 28100  1  0  0  0
 28101  1  0  0  0
 29102  1  0  0  0
 29103  1  0  0  0
 33 34  1  0  0  0
 33 66  1  0  0  0
 33 70  2  0  0  0
 34 36  1  0  0  0
 34 59  1  0  0  0
 34104  1  0  0  0
 35 44  2  0  0  0
 35 45  1  0  0  0
 35 68  1  0  0  0
 36 56  1  0  0  0
 36105  1  0  0  0
 37 39  1  0  0  0
 37 47  1  0  0  0
 37 66  1  0  0  0
 37106  1  0  0  0
 38 43  2  0  0  0
 38 46  1  0  0  0
 38 47  1  0  0  0
 39 64  1  0  0  0
 39 67  2  0  0  0
 40 52  1  0  0  0
 40 53  2  0  0  0
 40 58  1  0  0  0
 41107  1  0  0  0
 41108  1  0  0  0
 41109  1  0  0  0
 41 48  1  0  0  0
 42 43  1  0  0  0
 42 66  1  0  0  0
 42110  1  0  0  0
 42111  1  0  0  0
 43 44  1  0  0  0
 44112  1  0  0  0
 45 46  2  0  0  0
 45113  1  0  0  0
 46114  1  0  0  0
 47115  1  0  0  0
 47116  1  0  0  0
 48 56  1  0  0  0
 48 65  1  0  0  0
 48117  1  0  0  0
 49 50  1  0  0  0
 49 53  1  0  0  0
 49 64  1  0  0  0
 49118  1  0  0  0
 50 51  1  0  0  0
 50119  1  0  0  0
 50120  1  0  0  0
 51 52  1  0  0  0
 51121  1  0  0  0
 51122  1  0  0  0
 52123  1  0  0  0
 52124  1  0  0  0
 53 54  1  0  0  0
 54 55  2  0  0  0
 54125  1  0  0  0
 55 57  1  0  0  0
 55126  1  0  0  0
 56 69  2  0  0  0
 57 58  2  0  0  0
 57127  1  0  0  0
 58128  1  0  0  0
 59 60  1  0  0  0
 59 61  1  0  0  0
 59 62  1  0  0  0
 60129  1  0  0  0
 60130  1  0  0  0
 60131  1  0  0  0
 61132  1  0  0  0
 61133  1  0  0  0
 61134  1  0  0  0
 62135  1  0  0  0
 62136  1  0  0  0
 62137  1  0  0  0
 63 65  1  0  0  0
 63138  1  0  0  0
 63139  1  0  0  0
 63140  1  0  0  0
 64141  1  0  0  0
 65142  1  0  0  0
 68 81  1  0  0  0
 71 73  2  0  0  0
 71 74  1  0  0  0
 71143  1  0  0  0
 72 75  2  0  0  0
 72 76  1  0  0  0
 72144  1  0  0  0
 73 75  1  0  0  0
 73 78  1  0  0  0
 74 76  2  0  0  0
 74 79  1  0  0  0
 75 82  1  0  0  0
 76 83  1  0  0  0
 77 78  1  0  0  0
 77145  1  0  0  0
 77146  1  0  0  0
 77147  1  0  0  0
 78148  1  0  0  0
 78149  1  0  0  0
 79 80  1  0  0  0
 79150  1  0  0  0
 79151  1  0  0  0
 80 81  1  0  0  0
 80152  1  0  0  0
 80153  1  0  0  0
 81154  1  0  0  0
 81155  1  0  0  0
 82156  1  0  0  0
M  ISO  4   1 100  68 101  81 101  82 100
M  END
> <chiral flag>
0

> <version>
0

> <s_m_source_file>
/data/baiqing/PycharmProjects/Reinvent-master-3.2/result/LINK_invent/BTK/process_docking_weight1_custom_product_contain_oxygen_bond_distance_aromatic_linkinvent_7_9_3/rearranged_h_0125.sdf

> <i_m_source_file_index>
19

> <r_mmod_Potential_Energy-OPLS-2005>
398.779357910156

> <r_mmod_Stretch_Energy-OPLS-2005>
186.162963867188

> <r_mmod_Bend_Energy-OPLS-2005>
276.448425292969

> <r_mmod_Torsional_Energy-OPLS-2005>
225.456069946289

> <r_mmod_Improper_Torsional_Energy-OPLS-2005>
5.42237281799316

> <r_mmod_Van_der_Waal_Energy-OPLS-2005>
138.848251342773

> <r_mmod_Electrostatic_Energy-OPLS-2005>
-369.400604248047

> <r_mmod_Solvation_Energy-OPLS-2005>
-195.078048706055

> <b_mmod_Minimization_Converged-OPLS-2005>
0

> <r_mmod_RMS_Derivative-OPLS-2005>
1.14796614646912

$$$$
19
                    3D
 Structure written by MMmdl.
154162  0  0  1  0            999 V2000
  -30.6503  -14.6140   20.5874 C   0  0  0  0  0  0
  -30.4407  -12.4027   19.4529 C   0  0  0  0  0  0
  -29.5106  -12.5375   18.2248 C   0  0  0  0  0  0
  -28.0298  -12.3691   18.6224 C   0  0  0  0  0  0
  -27.6574  -13.2107   19.8701 C   0  0  2  0  0  0
  -28.6932  -12.9944   20.9901 C   0  0  0  0  0  0
  -25.2570  -13.8155   20.5663 C   0  0  0  0  0  0
  -24.1828  -13.0428   20.9161 C   0  0  0  0  0  0
  -24.6389  -11.6897   20.8712 C   0  0  0  0  0  0
  -23.9058  -10.4287   21.0395 C   0  0  0  0  0  0
  -24.3613   -9.4207   21.9176 C   0  0  0  0  0  0
  -23.6289   -8.2242   22.0752 C   0  0  0  0  0  0
  -22.4271   -8.0279   21.3544 C   0  0  0  0  0  0
  -21.9903   -9.0249   20.4646 C   0  0  0  0  0  0
  -22.7229  -10.2128   20.3050 C   0  0  0  0  0  0
  -21.6852   -6.0734   22.5280 C   0  0  0  0  0  0
  -21.4014   -6.5638   23.8213 C   0  0  0  0  0  0
  -21.3659   -5.6792   24.9175 C   0  0  0  0  0  0
  -21.6044   -4.3054   24.7226 C   0  0  0  0  0  0
  -21.8819   -3.8146   23.4348 C   0  0  0  0  0  0
  -21.9193   -4.6962   22.3403 C   0  0  0  0  0  0
  -22.7855  -13.5228   21.1843 C   0  0  0  0  0  0
  -22.1661   -4.2147   21.0981 F   0  0  0  0  0  0
  -21.5630   -3.4538   25.7739 F   0  0  0  0  0  0
  -30.0160  -13.3928   20.4697 N   0  0  0  0  0  0
  -26.2995  -12.9325   20.3304 N   0  0  0  0  0  0
  -25.9310  -11.6481   20.5706 N   0  0  0  0  0  0
  -22.0503  -12.8222   22.0406 N   0  0  0  0  0  0
  -25.4291  -15.1877   20.4100 N   0  0  0  0  0  0
  -31.7366  -14.8189   20.0326 O   0  0  0  0  0  0
  -21.6637   -6.8875   21.4242 O   0  0  0  0  0  0
  -22.3537  -14.5538   20.6700 O   0  0  0  0  0  0
  -24.6235  -31.8606   23.2023 C   0  0  0  0  0  0
  -25.9090  -32.4784   23.8351 C   0  0  1  0  0  0
  -27.2320  -27.3438   20.1200 C   0  0  0  0  0  0
  -25.5913  -33.8584   24.2281 N   0  0  0  0  0  0
  -23.4169  -30.4817   21.5444 C   0  0  2  0  0  0
  -24.8655  -28.9328   20.1158 C   0  0  0  0  0  0
  -22.7459  -29.4624   22.4950 C   0  0  0  0  0  0
  -18.0281  -28.1383   22.8487 C   0  0  0  0  0  0
  -24.1488  -36.7298   23.2640 C   0  0  0  0  0  0
  -25.9542  -30.7998   21.3679 C   0  0  0  0  0  0
  -26.0321  -29.4267   20.7144 C   0  0  0  0  0  0
  -27.2216  -28.6446   20.7027 C   0  0  0  0  0  0
  -26.0461  -26.8872   19.5086 C   0  0  0  0  0  0
  -24.8724  -27.6671   19.5046 C   0  0  0  0  0  0
  -23.6313  -29.8103   20.1617 C   0  0  0  0  0  0
  -25.4113  -36.3088   24.0331 C   0  0  1  0  0  0
  -20.5879  -28.3683   23.1294 C   0  0  2  0  0  0
  -20.6770  -26.9408   22.5417 C   0  0  0  0  0  0
  -19.5751  -26.6384   21.5213 C   0  0  0  0  0  0
  -18.1927  -26.7928   22.1619 C   0  0  0  0  0  0
  -19.1533  -28.8849   23.2886 C   0  0  0  0  0  0
  -18.9458  -30.1452   23.8901 C   0  0  0  0  0  0
  -17.6459  -30.6586   24.0564 C   0  0  0  0  0  0
  -25.9047  -34.9456   23.5107 C   0  0  0  0  0  0
  -16.5351  -29.9086   23.6328 C   0  0  0  0  0  0
  -16.7270  -28.6503   23.0350 C   0  0  0  0  0  0
  -26.4486  -31.6589   25.0712 C   0  0  0  0  0  0
  -25.3730  -31.3719   26.1447 C   0  0  0  0  0  0
  -27.0326  -30.3017   24.6146 C   0  0  0  0  0  0
  -27.6051  -32.4320   25.7481 C   0  0  0  0  0  0
  -27.5582  -37.1802   24.8463 C   0  0  0  0  0  0
  -21.4176  -29.3038   22.3691 N   0  0  0  0  0  0
  -26.4293  -37.3781   23.9409 N   0  0  0  0  0  0
  -24.6835  -31.0635   22.0959 N   0  0  0  0  0  0
  -23.4190  -28.8171   23.3029 O   0  0  0  0  0  0
  -28.3607  -26.5245   20.1136 O   0  0  0  0  0  0
  -26.5617  -34.8923   22.4675 O   0  0  0  0  0  0
  -23.5404  -32.1393   23.7366 O   0  0  0  0  0  0
  -29.1959  -18.9310   19.3000 C   0  0  0  0  0  0
  -29.4313  -17.5777   19.6854 C   0  0  0  0  0  0
  -30.0052  -19.6952   21.4171 C   0  0  0  0  0  0
  -29.4579  -20.0326   20.1573 C   0  0  0  0  0  0
  -29.9546  -17.2262   20.9582 C   0  0  0  0  0  0
  -30.2705  -18.3451   21.8067 C   0  0  0  0  0  0
  -29.1368  -21.4525   19.7158 C   0  0  0  0  0  0
  -28.9954  -22.6124   20.4366 C   0  0  0  0  0  0
  -29.9895  -15.7590   21.4453 C   0  0  0  0  0  0
  -28.7105  -23.9734   19.8166 C   0  0  0  0  0  0
  -30.9012  -18.1508   23.1800 C   0  0  0  0  0  0
  -28.2160  -25.1784   20.7016 C   0  0  0  0  0  0
  -29.5108  -15.5160   22.5946 N   0  0  0  0  0  0
  -28.8472  -24.1649   18.6033 O   0  0  0  0  0  0
  -31.4808  -12.5356   19.1510 H   0  0  0  0  0  0
  -30.3879  -11.3929   19.8631 H   0  0  0  0  0  0
  -29.7795  -11.8022   17.4654 H   0  0  0  0  0  0
  -29.6552  -13.5169   17.7660 H   0  0  0  0  0  0
  -27.8577  -11.3116   18.8258 H   0  0  0  0  0  0
  -27.3811  -12.6267   17.7845 H   0  0  0  0  0  0
  -27.6972  -14.2593   19.5746 H   0  0  0  0  0  0
  -28.7136  -11.9421   21.2776 H   0  0  0  0  0  0
  -28.3806  -13.5047   21.8946 H   0  0  0  0  0  0
  -25.2760   -9.5685   22.4746 H   0  0  0  0  0  0
  -24.0000   -7.4636   22.7473 H   0  0  0  0  0  0
  -21.0834   -8.8765   19.8953 H   0  0  0  0  0  0
  -22.3687  -10.9664   19.6156 H   0  0  0  0  0  0
  -21.2006   -7.6147   23.9716 H   0  0  0  0  0  0
  -21.1482   -6.0523   25.9078 H   0  0  0  0  0  0
  -22.0600   -2.7608   23.2849 H   0  0  0  0  0  0
  -22.4119  -11.9880   22.4789 H   0  0  0  0  0  0
  -21.1125  -13.1252   22.2624 H   0  0  0  0  0  0
  -24.6683  -15.8468   20.5336 H   0  0  0  0  0  0
  -26.2938  -15.6303   20.1260 H   0  0  0  0  0  0
  -26.7159  -32.5468   23.1105 H   0  0  0  0  0  0
  -25.0060  -33.9731   25.0425 H   0  0  0  0  0  0
  -22.7096  -31.3009   21.3991 H   0  0  0  0  0  0
  -23.3751  -35.9630   23.3303 H   0  0  0  0  0  0
  -24.3579  -36.8918   22.2054 H   0  0  0  0  0  0
  -23.7241  -37.6500   23.6662 H   0  0  0  0  0  0
  -26.0785  -31.5623   20.5978 H   0  0  0  0  0  0
  -26.8369  -30.8529   21.9935 H   0  0  0  0  0  0
  -28.1220  -29.0232   21.1662 H   0  0  0  0  0  0
  -26.0265  -25.9165   19.0330 H   0  0  0  0  0  0
  -23.9779  -27.2829   19.0338 H   0  0  0  0  0  0
  -23.7478  -30.5835   19.4013 H   0  0  0  0  0  0
  -22.7527  -29.2358   19.8627 H   0  0  0  0  0  0
  -25.1292  -36.1943   25.0824 H   0  0  0  0  0  0
  -20.9969  -28.3258   24.1416 H   0  0  0  0  0  0
  -20.5669  -26.2292   23.3613 H   0  0  0  0  0  0
  -21.6641  -26.7441   22.1215 H   0  0  0  0  0  0
  -19.6914  -25.6296   21.1242 H   0  0  0  0  0  0
  -19.6693  -27.3196   20.6744 H   0  0  0  0  0  0
  -17.4202  -26.6681   21.4016 H   0  0  0  0  0  0
  -18.0322  -26.0066   22.9009 H   0  0  0  0  0  0
  -19.7934  -30.7265   24.2273 H   0  0  0  0  0  0
  -17.5015  -31.6267   24.5164 H   0  0  0  0  0  0
  -15.5351  -30.2991   23.7650 H   0  0  0  0  0  0
  -15.8668  -28.0825   22.7064 H   0  0  0  0  0  0
  -24.5909  -30.7060   25.7781 H   0  0  0  0  0  0
  -24.8914  -32.2882   26.4872 H   0  0  0  0  0  0
  -25.8065  -30.8903   27.0220 H   0  0  0  0  0  0
  -26.2888  -29.6769   24.1186 H   0  0  0  0  0  0
  -27.4052  -29.7271   25.4636 H   0  0  0  0  0  0
  -27.8744  -30.4312   23.9340 H   0  0  0  0  0  0
  -27.2663  -33.3618   26.2063 H   0  0  0  0  0  0
  -28.3856  -32.6884   25.0306 H   0  0  0  0  0  0
  -28.0723  -31.8442   26.5392 H   0  0  0  0  0  0
  -28.2600  -38.0100   24.7515 H   0  0  0  0  0  0
  -28.1078  -36.2632   24.6282 H   0  0  0  0  0  0
  -27.2302  -37.1445   25.8866 H   0  0  0  0  0  0
  -20.9351  -29.8757   21.6900 H   0  0  0  0  0  0
  -26.0177  -38.2857   24.1414 H   0  0  0  0  0  0
  -28.7735  -19.1181   18.3223 H   0  0  0  0  0  0
  -29.1542  -16.7930   18.9953 H   0  0  0  0  0  0
  -30.2390  -20.4954   22.1056 H   0  0  0  0  0  0
  -29.0191  -21.5491   18.6449 H   0  0  0  0  0  0
  -29.0903  -22.5848   21.5118 H   0  0  0  0  0  0
  -31.4250  -19.0506   23.5045 H   0  0  0  0  0  0
  -31.6338  -17.3433   23.1722 H   0  0  0  0  0  0
  -30.1398  -17.9247   23.9266 H   0  0  0  0  0  0
  -28.7805  -25.1617   21.6338 H   0  0  0  0  0  0
  -27.1782  -24.9896   20.9773 H   0  0  0  0  0  0
  -29.1471  -16.3651   23.0089 H   0  0  0  0  0  0
  1 25  1  0  0  0
  1 30  2  0  0  0
  1 79  1  0  0  0
  2  3  1  0  0  0
  2 25  1  0  0  0
  2 85  1  0  0  0
  2 86  1  0  0  0
  3  4  1  0  0  0
  3 87  1  0  0  0
  3 88  1  0  0  0
  4  5  1  0  0  0
  4 89  1  0  0  0
  4 90  1  0  0  0
  5  6  1  0  0  0
  5 26  1  0  0  0
  5 91  1  0  0  0
  6 25  1  0  0  0
  6 92  1  0  0  0
  6 93  1  0  0  0
  7  8  2  0  0  0
  7 26  1  0  0  0
  7 29  1  0  0  0
  8  9  1  0  0  0
  8 22  1  0  0  0
  9 10  1  0  0  0
  9 27  2  0  0  0
 10 11  2  0  0  0
 10 15  1  0  0  0
 11 12  1  0  0  0
 11 94  1  0  0  0
 12 13  2  0  0  0
 12 95  1  0  0  0
 13 14  1  0  0  0
 13 31  1  0  0  0
 14 15  2  0  0  0
 14 96  1  0  0  0
 15 97  1  0  0  0
 16 17  2  0  0  0
 16 21  1  0  0  0
 16 31  1  0  0  0
 17 18  1  0  0  0
 17 98  1  0  0  0
 18 19  2  0  0  0
 18 99  1  0  0  0
 19 20  1  0  0  0
 19 24  1  0  0  0
 20 21  2  0  0  0
 20100  1  0  0  0
 21 23  1  0  0  0
 22 28  1  0  0  0
 22 32  2  0  0  0
 26 27  1  0  0  0
 28101  1  0  0  0
 28102  1  0  0  0
 29103  1  0  0  0
 29104  1  0  0  0
 33 34  1  0  0  0
 33 66  1  0  0  0
 33 70  2  0  0  0
 34 36  1  0  0  0
 34 59  1  0  0  0
 34105  1  0  0  0
 35 44  2  0  0  0
 35 45  1  0  0  0
 35 68  1  0  0  0
 36 56  1  0  0  0
 36106  1  0  0  0
 37 39  1  0  0  0
 37 47  1  0  0  0
 37 66  1  0  0  0
 37107  1  0  0  0
 38 43  2  0  0  0
 38 46  1  0  0  0
 38 47  1  0  0  0
 39 64  1  0  0  0
 39 67  2  0  0  0
 40 52  1  0  0  0
 40 53  2  0  0  0
 40 58  1  0  0  0
 41108  1  0  0  0
 41109  1  0  0  0
 41110  1  0  0  0
 41 48  1  0  0  0
 42 43  1  0  0  0
 42 66  1  0  0  0
 42111  1  0  0  0
 42112  1  0  0  0
 43 44  1  0  0  0
 44113  1  0  0  0
 45 46  2  0  0  0
 45114  1  0  0  0
 46115  1  0  0  0
 47116  1  0  0  0
 47117  1  0  0  0
 48 56  1  0  0  0
 48 65  1  0  0  0
 48118  1  0  0  0
 49 50  1  0  0  0
 49 53  1  0  0  0
 49 64  1  0  0  0
 49119  1  0  0  0
 50 51  1  0  0  0
 50120  1  0  0  0
 50121  1  0  0  0
 51 52  1  0  0  0
 51122  1  0  0  0
 51123  1  0  0  0
 52124  1  0  0  0
 52125  1  0  0  0
 53 54  1  0  0  0
 54 55  2  0  0  0
 54126  1  0  0  0
 55 57  1  0  0  0
 55127  1  0  0  0
 56 69  2  0  0  0
 57 58  2  0  0  0
 57128  1  0  0  0
 58129  1  0  0  0
 59 60  1  0  0  0
 59 61  1  0  0  0
 59 62  1  0  0  0
 60130  1  0  0  0
 60131  1  0  0  0
 60132  1  0  0  0
 61133  1  0  0  0
 61134  1  0  0  0
 61135  1  0  0  0
 62136  1  0  0  0
 62137  1  0  0  0
 62138  1  0  0  0
 63 65  1  0  0  0
 63139  1  0  0  0
 63140  1  0  0  0
 63141  1  0  0  0
 64142  1  0  0  0
 65143  1  0  0  0
 68 82  1  0  0  0
 71 72  2  0  0  0
 71 74  1  0  0  0
 71144  1  0  0  0
 72 75  1  0  0  0
 72145  1  0  0  0
 73 74  2  0  0  0
 73 76  1  0  0  0
 73146  1  0  0  0
 74 77  1  0  0  0
 75 76  2  0  0  0
 75 79  1  0  0  0
 76 81  1  0  0  0
 77 78  2  0  0  0
 77147  1  0  0  0
 78 80  1  0  0  0
 78148  1  0  0  0
 79 83  2  0  0  0
 80 82  1  0  0  0
 80 84  2  0  0  0
 81149  1  0  0  0
 81150  1  0  0  0
 81151  1  0  0  0
 82152  1  0  0  0
 82153  1  0  0  0
 83154  1  0  0  0
M  ISO  4   1 100  68 101  79 100  82 101
M  END
> <chiral flag>
0

> <version>
0

> <s_m_source_file>
/data/baiqing/PycharmProjects/Reinvent-master-3.2/result/LINK_invent/BTK/process_docking_weight1_custom_product_contain_oxygen_bond_distance_aromatic_linkinvent_7_9_3/rearranged_h_0125.sdf

> <i_m_source_file_index>
20

> <r_mmod_Potential_Energy-OPLS-2005>
223.358291625977

> <r_mmod_Stretch_Energy-OPLS-2005>
85.6337661743164

> <r_mmod_Bend_Energy-OPLS-2005>
133.207382202148

> <r_mmod_Torsional_Energy-OPLS-2005>
225.257476806641

> <r_mmod_Improper_Torsional_Energy-OPLS-2005>
2.92753458023071

> <r_mmod_Van_der_Waal_Energy-OPLS-2005>
149.246932983398

> <r_mmod_Electrostatic_Energy-OPLS-2005>
-193.981109619141

> <r_mmod_Solvation_Energy-OPLS-2005>
-215.275680541992

> <b_mmod_Minimization_Converged-OPLS-2005>
0

> <r_mmod_RMS_Derivative-OPLS-2005>
0.15082922577858

$$$$
20
                    3D
 Structure written by MMmdl.
155163  0  0  1  0            999 V2000
  -30.6646  -14.5670   20.5861 C   0  0  0  0  0  0
  -30.4377  -12.3720   19.4311 C   0  0  0  0  0  0
  -29.5028  -12.5269   18.2106 C   0  0  0  0  0  0
  -28.0238  -12.3667   18.6171 C   0  0  0  0  0  0
  -27.6624  -13.2048   19.8719 C   0  0  2  0  0  0
  -28.7031  -12.9880   20.9887 C   0  0  0  0  0  0
  -25.2615  -13.8137   20.5658 C   0  0  0  0  0  0
  -24.1857  -13.0433   20.9136 C   0  0  0  0  0  0
  -24.6404  -11.6897   20.8707 C   0  0  0  0  0  0
  -23.9063  -10.4296   21.0394 C   0  0  0  0  0  0
  -24.3621   -9.4213   21.9173 C   0  0  0  0  0  0
  -23.6289   -8.2254   22.0761 C   0  0  0  0  0  0
  -22.4268   -8.0294   21.3549 C   0  0  0  0  0  0
  -21.9901   -9.0265   20.4647 C   0  0  0  0  0  0
  -22.7231  -10.2141   20.3048 C   0  0  0  0  0  0
  -21.6862   -6.0735   22.5279 C   0  0  0  0  0  0
  -21.4014   -6.5638   23.8210 C   0  0  0  0  0  0
  -21.3662   -5.6791   24.9176 C   0  0  0  0  0  0
  -21.6044   -4.3054   24.7225 C   0  0  0  0  0  0
  -21.8821   -3.8143   23.4349 C   0  0  0  0  0  0
  -21.9195   -4.6961   22.3402 C   0  0  0  0  0  0
  -22.7887  -13.5263   21.1807 C   0  0  0  0  0  0
  -22.1666   -4.2144   21.0981 F   0  0  0  0  0  0
  -21.5629   -3.4542   25.7741 F   0  0  0  0  0  0
  -30.0253  -13.3596   20.4493 N   0  0  0  0  0  0
  -26.3042  -12.9297   20.3332 N   0  0  0  0  0  0
  -25.9333  -11.6462   20.5728 N   0  0  0  0  0  0
  -22.0528  -12.8274   22.0369 N   0  0  0  0  0  0
  -25.4358  -15.1860   20.4106 N   0  0  0  0  0  0
  -31.7816  -14.7449   20.0900 O   0  0  0  0  0  0
  -21.6643   -6.8886   21.4243 O   0  0  0  0  0  0
  -22.3589  -14.5576   20.6662 O   0  0  0  0  0  0
  -24.6215  -31.8617   23.2069 C   0  0  0  0  0  0
  -25.9079  -32.4786   23.8383 C   0  0  1  0  0  0
  -27.2325  -27.3626   20.1149 C   0  0  0  0  0  0
  -25.5924  -33.8594   24.2309 N   0  0  0  0  0  0
  -23.4144  -30.4855   21.5450 C   0  0  2  0  0  0
  -24.8630  -28.9452   20.1155 C   0  0  0  0  0  0
  -22.7440  -29.4625   22.4929 C   0  0  0  0  0  0
  -18.0279  -28.1397   22.8461 C   0  0  0  0  0  0
  -24.1491  -36.7304   23.2637 C   0  0  0  0  0  0
  -25.9511  -30.8074   21.3720 C   0  0  0  0  0  0
  -26.0285  -29.4366   20.7182 C   0  0  0  0  0  0
  -27.2166  -28.6550   20.7101 C   0  0  0  0  0  0
  -26.0463  -26.9135   19.4902 C   0  0  0  0  0  0
  -24.8718  -27.6877   19.4932 C   0  0  0  0  0  0
  -23.6299  -29.8212   20.1597 C   0  0  0  0  0  0
  -25.4111  -36.3090   24.0334 C   0  0  1  0  0  0
  -20.5873  -28.3690   23.1282 C   0  0  2  0  0  0
  -20.6777  -26.9418   22.5406 C   0  0  0  0  0  0
  -19.5760  -26.6390   21.5200 C   0  0  0  0  0  0
  -18.1933  -26.7938   22.1605 C   0  0  0  0  0  0
  -19.1530  -28.8857   23.2867 C   0  0  0  0  0  0
  -18.9459  -30.1462   23.8877 C   0  0  0  0  0  0
  -17.6462  -30.6593   24.0563 C   0  0  0  0  0  0
  -25.9042  -34.9456   23.5114 C   0  0  0  0  0  0
  -16.5350  -29.9093   23.6334 C   0  0  0  0  0  0
  -16.7265  -28.6523   23.0324 C   0  0  0  0  0  0
  -26.4502  -31.6582   25.0722 C   0  0  0  0  0  0
  -25.3784  -31.3693   26.1480 C   0  0  0  0  0  0
  -27.0342  -30.3012   24.6144 C   0  0  0  0  0  0
  -27.6060  -32.4314   25.7494 C   0  0  0  0  0  0
  -27.5575  -37.1811   24.8463 C   0  0  0  0  0  0
  -21.4154  -29.3050   22.3676 N   0  0  0  0  0  0
  -26.4289  -37.3775   23.9406 N   0  0  0  0  0  0
  -24.6803  -31.0673   22.0987 N   0  0  0  0  0  0
  -23.4175  -28.8159   23.2996 O   0  0  0  0  0  0
  -28.3716  -26.5604   20.1306 O   0  0  0  0  0  0
  -26.5583  -34.8908   22.4661 O   0  0  0  0  0  0
  -23.5385  -32.1395   23.7418 O   0  0  0  0  0  0
  -29.9720  -19.4026   20.4108 C   0  0  0  0  0  0
  -31.1848  -20.0263   18.4081 C   0  0  0  0  0  0
  -30.9935  -17.6733   19.0266 C   0  0  0  0  0  0
  -30.4455  -20.4342   19.5382 C   0  0  0  0  0  0
  -30.2635  -18.0092   20.1859 C   0  0  0  0  0  0
  -31.4566  -18.6702   18.1480 C   0  0  0  0  0  0
  -30.2588  -21.9271   19.6422 C   0  0  0  0  0  0
  -29.8093  -16.9643   21.1709 C   0  0  0  0  0  0
  -29.3148  -22.7300   20.2103 C   0  0  0  0  0  0
  -29.9385  -15.6070   21.3509 C   0  0  0  0  0  0
  -29.4130  -24.2381   20.1134 C   0  0  0  0  0  0
  -32.2576  -18.2787   16.9221 C   0  0  0  0  0  0
  -28.1674  -25.1308   20.3985 C   0  0  0  0  0  0
  -30.4692  -24.8003   19.8001 O   0  0  0  0  0  0
  -31.4774  -12.4947   19.1236 H   0  0  0  0  0  0
  -30.3702  -11.3607   19.8353 H   0  0  0  0  0  0
  -29.7598  -11.7964   17.4420 H   0  0  0  0  0  0
  -29.6520  -13.5094   17.7583 H   0  0  0  0  0  0
  -27.8465  -11.3082   18.8138 H   0  0  0  0  0  0
  -27.3753  -12.6343   17.7823 H   0  0  0  0  0  0
  -27.7087  -14.2548   19.5835 H   0  0  0  0  0  0
  -28.7130  -11.9404   21.2928 H   0  0  0  0  0  0
  -28.4160  -13.5251   21.8890 H   0  0  0  0  0  0
  -25.2786   -9.5689   22.4735 H   0  0  0  0  0  0
  -24.0001   -7.4653   22.7495 H   0  0  0  0  0  0
  -21.0828   -8.8774   19.8965 H   0  0  0  0  0  0
  -22.3687  -10.9673   19.6149 H   0  0  0  0  0  0
  -21.2007   -7.6149   23.9709 H   0  0  0  0  0  0
  -21.1480   -6.0526   25.9074 H   0  0  0  0  0  0
  -22.0598   -2.7608   23.2850 H   0  0  0  0  0  0
  -22.4159  -11.9947   22.4759 H   0  0  0  0  0  0
  -21.1146  -13.1300   22.2581 H   0  0  0  0  0  0
  -24.6744  -15.8453   20.5313 H   0  0  0  0  0  0
  -26.3028  -15.6257   20.1259 H   0  0  0  0  0  0
  -26.7143  -32.5486   23.1139 H   0  0  0  0  0  0
  -25.0130  -33.9766   25.0491 H   0  0  0  0  0  0
  -22.7074  -31.3051   21.4019 H   0  0  0  0  0  0
  -23.3740  -35.9651   23.3305 H   0  0  0  0  0  0
  -24.3584  -36.8910   22.2050 H   0  0  0  0  0  0
  -23.7273  -37.6519   23.6653 H   0  0  0  0  0  0
  -26.0772  -31.5715   20.6040 H   0  0  0  0  0  0
  -26.8342  -30.8587   21.9969 H   0  0  0  0  0  0
  -28.1146  -29.0238   21.1864 H   0  0  0  0  0  0
  -26.0084  -25.9637   18.9799 H   0  0  0  0  0  0
  -23.9817  -27.3101   19.0082 H   0  0  0  0  0  0
  -23.7508  -30.5988   19.4043 H   0  0  0  0  0  0
  -22.7530  -29.2482   19.8516 H   0  0  0  0  0  0
  -25.1299  -36.1939   25.0829 H   0  0  0  0  0  0
  -20.9973  -28.3280   24.1397 H   0  0  0  0  0  0
  -20.5681  -26.2299   23.3601 H   0  0  0  0  0  0
  -21.6651  -26.7455   22.1201 H   0  0  0  0  0  0
  -19.6931  -25.6297   21.1236 H   0  0  0  0  0  0
  -19.6721  -27.3193   20.6724 H   0  0  0  0  0  0
  -17.4206  -26.6651   21.4011 H   0  0  0  0  0  0
  -18.0345  -26.0099   22.9021 H   0  0  0  0  0  0
  -19.7939  -30.7280   24.2231 H   0  0  0  0  0  0
  -17.5022  -31.6269   24.5179 H   0  0  0  0  0  0
  -15.5354  -30.2991   23.7693 H   0  0  0  0  0  0
  -15.8655  -28.0865   22.7019 H   0  0  0  0  0  0
  -24.5955  -30.7032   25.7835 H   0  0  0  0  0  0
  -24.8991  -32.2848   26.4954 H   0  0  0  0  0  0
  -25.8172  -30.8857   27.0218 H   0  0  0  0  0  0
  -26.2894  -29.6747   24.1217 H   0  0  0  0  0  0
  -27.4100  -29.7281   25.4631 H   0  0  0  0  0  0
  -27.8741  -30.4294   23.9312 H   0  0  0  0  0  0
  -27.2657  -33.3596   26.2096 H   0  0  0  0  0  0
  -28.3865  -32.6902   25.0328 H   0  0  0  0  0  0
  -28.0732  -31.8427   26.5396 H   0  0  0  0  0  0
  -28.2595  -38.0102   24.7485 H   0  0  0  0  0  0
  -28.1071  -36.2633   24.6320 H   0  0  0  0  0  0
  -27.2290  -37.1494   25.8864 H   0  0  0  0  0  0
  -20.9316  -29.8790   21.6911 H   0  0  0  0  0  0
  -26.0167  -38.2844   24.1412 H   0  0  0  0  0  0
  -29.4016  -19.6874   21.2831 H   0  0  0  0  0  0
  -31.5514  -20.7737   17.7171 H   0  0  0  0  0  0
  -31.2075  -16.6455   18.7865 H   0  0  0  0  0  0
  -31.0641  -22.4609   19.1537 H   0  0  0  0  0  0
  -29.2079  -17.4090   21.9506 H   0  0  0  0  0  0
  -28.4660  -22.3090   20.7294 H   0  0  0  0  0  0
  -29.4373  -15.2601   22.2401 H   0  0  0  0  0  0
  -32.7020  -19.1497   16.4389 H   0  0  0  0  0  0
  -31.6224  -17.7728   16.1946 H   0  0  0  0  0  0
  -33.0669  -17.6018   17.1973 H   0  0  0  0  0  0
  -27.8993  -25.0133   21.4489 H   0  0  0  0  0  0
  -27.3569  -24.7125   19.8064 H   0  0  0  0  0  0
  1 25  1  0  0  0
  1 30  2  0  0  0
  1 80  1  0  0  0
  2  3  1  0  0  0
  2 25  1  0  0  0
  2 85  1  0  0  0
  2 86  1  0  0  0
  3  4  1  0  0  0
  3 87  1  0  0  0
  3 88  1  0  0  0
  4  5  1  0  0  0
  4 89  1  0  0  0
  4 90  1  0  0  0
  5  6  1  0  0  0
  5 26  1  0  0  0
  5 91  1  0  0  0
  6 25  1  0  0  0
  6 92  1  0  0  0
  6 93  1  0  0  0
  7  8  2  0  0  0
  7 26  1  0  0  0
  7 29  1  0  0  0
  8  9  1  0  0  0
  8 22  1  0  0  0
  9 10  1  0  0  0
  9 27  2  0  0  0
 10 11  2  0  0  0
 10 15  1  0  0  0
 11 12  1  0  0  0
 11 94  1  0  0  0
 12 13  2  0  0  0
 12 95  1  0  0  0
 13 14  1  0  0  0
 13 31  1  0  0  0
 14 15  2  0  0  0
 14 96  1  0  0  0
 15 97  1  0  0  0
 16 17  2  0  0  0
 16 21  1  0  0  0
 16 31  1  0  0  0
 17 18  1  0  0  0
 17 98  1  0  0  0
 18 19  2  0  0  0
 18 99  1  0  0  0
 19 20  1  0  0  0
 19 24  1  0  0  0
 20 21  2  0  0  0
 20100  1  0  0  0
 21 23  1  0  0  0
 22 28  1  0  0  0
 22 32  2  0  0  0
 26 27  1  0  0  0
 28101  1  0  0  0
 28102  1  0  0  0
 29103  1  0  0  0
 29104  1  0  0  0
 33 34  1  0  0  0
 33 66  1  0  0  0
 33 70  2  0  0  0
 34 36  1  0  0  0
 34 59  1  0  0  0
 34105  1  0  0  0
 35 44  2  0  0  0
 35 45  1  0  0  0
 35 68  1  0  0  0
 36 56  1  0  0  0
 36106  1  0  0  0
 37 39  1  0  0  0
 37 47  1  0  0  0
 37 66  1  0  0  0
 37107  1  0  0  0
 38 43  2  0  0  0
 38 46  1  0  0  0
 38 47  1  0  0  0
 39 64  1  0  0  0
 39 67  2  0  0  0
 40 52  1  0  0  0
 40 53  2  0  0  0
 40 58  1  0  0  0
 41108  1  0  0  0
 41109  1  0  0  0
 41110  1  0  0  0
 41 48  1  0  0  0
 42 43  1  0  0  0
 42 66  1  0  0  0
 42111  1  0  0  0
 42112  1  0  0  0
 43 44  1  0  0  0
 44113  1  0  0  0
 45 46  2  0  0  0
 45114  1  0  0  0
 46115  1  0  0  0
 47116  1  0  0  0
 47117  1  0  0  0
 48 56  1  0  0  0
 48 65  1  0  0  0
 48118  1  0  0  0
 49 50  1  0  0  0
 49 53  1  0  0  0
 49 64  1  0  0  0
 49119  1  0  0  0
 50 51  1  0  0  0
 50120  1  0  0  0
 50121  1  0  0  0
 51 52  1  0  0  0
 51122  1  0  0  0
 51123  1  0  0  0
 52124  1  0  0  0
 52125  1  0  0  0
 53 54  1  0  0  0
 54 55  2  0  0  0
 54126  1  0  0  0
 55 57  1  0  0  0
 55127  1  0  0  0
 56 69  2  0  0  0
 57 58  2  0  0  0
 57128  1  0  0  0
 58129  1  0  0  0
 59 60  1  0  0  0
 59 61  1  0  0  0
 59 62  1  0  0  0
 60130  1  0  0  0
 60131  1  0  0  0
 60132  1  0  0  0
 61133  1  0  0  0
 61134  1  0  0  0
 61135  1  0  0  0
 62136  1  0  0  0
 62137  1  0  0  0
 62138  1  0  0  0
 63 65  1  0  0  0
 63139  1  0  0  0
 63140  1  0  0  0
 63141  1  0  0  0
 64142  1  0  0  0
 65143  1  0  0  0
 68 83  1  0  0  0
 71 74  2  0  0  0
 71 75  1  0  0  0
 71144  1  0  0  0
 72 74  1  0  0  0
 72 76  2  0  0  0
 72145  1  0  0  0
 73 75  2  0  0  0
 73 76  1  0  0  0
 73146  1  0  0  0
 74 77  1  0  0  0
 75 78  1  0  0  0
 76 82  1  0  0  0
 77 79  2  0  0  0
 77147  1  0  0  0
 78 80  2  0  0  0
 78148  1  0  0  0
 79 81  1  0  0  0
 79149  1  0  0  0
 80150  1  0  0  0
 81 83  1  0  0  0
 81 84  2  0  0  0
 82151  1  0  0  0
 82152  1  0  0  0
 82153  1  0  0  0
 83154  1  0  0  0
 83155  1  0  0  0
M  ISO  4   1 100  68 101  80 100  83 101
M  END
> <chiral flag>
0

> <version>
0

> <s_m_source_file>
/data/baiqing/PycharmProjects/Reinvent-master-3.2/result/LINK_invent/BTK/process_docking_weight1_custom_product_contain_oxygen_bond_distance_aromatic_linkinvent_7_9_3/rearranged_h_0125.sdf

> <i_m_source_file_index>
21

> <r_mmod_Potential_Energy-OPLS-2005>
69.2755584716797

> <r_mmod_Stretch_Energy-OPLS-2005>
63.7347793579102

> <r_mmod_Bend_Energy-OPLS-2005>
157.100204467773

> <r_mmod_Torsional_Energy-OPLS-2005>
195.385620117188

> <r_mmod_Improper_Torsional_Energy-OPLS-2005>
1.95292520523071

> <r_mmod_Van_der_Waal_Energy-OPLS-2005>
154.194686889648

> <r_mmod_Electrostatic_Energy-OPLS-2005>
-311.874450683594

> <r_mmod_Solvation_Energy-OPLS-2005>
-218.05094909668

> <b_mmod_Minimization_Converged-OPLS-2005>
0

> <r_mmod_RMS_Derivative-OPLS-2005>
2.09699583053589

$$$$
21
                    3D
 Structure written by MMmdl.
155164  0  0  1  0            999 V2000
  -30.6698  -14.5239   20.5346 C   0  0  0  0  0  0
  -30.4273  -12.3255   19.4346 C   0  0  0  0  0  0
  -29.5014  -12.5025   18.2124 C   0  0  0  0  0  0
  -28.0217  -12.3581   18.6216 C   0  0  0  0  0  0
  -27.6592  -13.2074   19.8696 C   0  0  2  0  0  0
  -28.7009  -13.0114   20.9949 C   0  0  0  0  0  0
  -25.2582  -13.8157   20.5668 C   0  0  0  0  0  0
  -24.1837  -13.0437   20.9179 C   0  0  0  0  0  0
  -24.6389  -11.6903   20.8727 C   0  0  0  0  0  0
  -23.9055  -10.4292   21.0400 C   0  0  0  0  0  0
  -24.3608   -9.4210   21.9177 C   0  0  0  0  0  0
  -23.6286   -8.2246   22.0753 C   0  0  0  0  0  0
  -22.4267   -8.0281   21.3549 C   0  0  0  0  0  0
  -21.9897   -9.0255   20.4650 C   0  0  0  0  0  0
  -22.7225  -10.2133   20.3054 C   0  0  0  0  0  0
  -21.6853   -6.0730   22.5277 C   0  0  0  0  0  0
  -21.4017   -6.5633   23.8210 C   0  0  0  0  0  0
  -21.3659   -5.6789   24.9174 C   0  0  0  0  0  0
  -21.6042   -4.3053   24.7227 C   0  0  0  0  0  0
  -21.8818   -3.8142   23.4349 C   0  0  0  0  0  0
  -21.9195   -4.6958   22.3405 C   0  0  0  0  0  0
  -22.7861  -13.5241   21.1842 C   0  0  0  0  0  0
  -22.1662   -4.2141   21.0981 F   0  0  0  0  0  0
  -21.5629   -3.4537   25.7742 F   0  0  0  0  0  0
  -30.0284  -13.3245   20.4404 N   0  0  0  0  0  0
  -26.3010  -12.9322   20.3326 N   0  0  0  0  0  0
  -25.9312  -11.6486   20.5742 N   0  0  0  0  0  0
  -22.0497  -12.8246   22.0403 N   0  0  0  0  0  0
  -25.4302  -15.1872   20.4053 N   0  0  0  0  0  0
  -31.8178  -14.6836   20.1097 O   0  0  0  0  0  0
  -21.6638   -6.8873   21.4240 O   0  0  0  0  0  0
  -22.3553  -14.5549   20.6690 O   0  0  0  0  0  0
  -24.6172  -31.8660   23.2075 C   0  0  0  0  0  0
  -25.9051  -32.4809   23.8386 C   0  0  1  0  0  0
  -27.2310  -27.4072   20.1098 C   0  0  0  0  0  0
  -25.5893  -33.8607   24.2313 N   0  0  0  0  0  0
  -23.4076  -30.4890   21.5481 C   0  0  2  0  0  0
  -24.8554  -28.9529   20.1119 C   0  0  0  0  0  0
  -22.7431  -29.4652   22.4972 C   0  0  0  0  0  0
  -18.0280  -28.1385   22.8494 C   0  0  0  0  0  0
  -24.1486  -36.7311   23.2640 C   0  0  0  0  0  0
  -25.9391  -30.8244   21.3651 C   0  0  0  0  0  0
  -26.0176  -29.4583   20.7093 C   0  0  0  0  0  0
  -27.2123  -28.6955   20.6994 C   0  0  0  0  0  0
  -26.0548  -26.9263   19.4965 C   0  0  0  0  0  0
  -24.8708  -27.6879   19.4988 C   0  0  0  0  0  0
  -23.6175  -29.8214   20.1630 C   0  0  0  0  0  0
  -25.4103  -36.3102   24.0341 C   0  0  1  0  0  0
  -20.5874  -28.3675   23.1313 C   0  0  2  0  0  0
  -20.6769  -26.9404   22.5426 C   0  0  0  0  0  0
  -19.5746  -26.6388   21.5222 C   0  0  0  0  0  0
  -18.1924  -26.7931   22.1627 C   0  0  0  0  0  0
  -19.1531  -28.8846   23.2903 C   0  0  0  0  0  0
  -18.9454  -30.1452   23.8912 C   0  0  0  0  0  0
  -17.6455  -30.6585   24.0573 C   0  0  0  0  0  0
  -25.9035  -34.9469   23.5126 C   0  0  0  0  0  0
  -16.5348  -29.9088   23.6326 C   0  0  0  0  0  0
  -16.7270  -28.6509   23.0341 C   0  0  0  0  0  0
  -26.4466  -31.6597   25.0729 C   0  0  0  0  0  0
  -25.3721  -31.3724   26.1476 C   0  0  0  0  0  0
  -27.0302  -30.3034   24.6134 C   0  0  0  0  0  0
  -27.6048  -32.4319   25.7480 C   0  0  0  0  0  0
  -27.5580  -37.1805   24.8460 C   0  0  0  0  0  0
  -21.4157  -29.3035   22.3711 N   0  0  0  0  0  0
  -26.4288  -37.3786   23.9413 N   0  0  0  0  0  0
  -24.6728  -31.0744   22.0983 N   0  0  0  0  0  0
  -23.4192  -28.8202   23.3030 O   0  0  0  0  0  0
  -28.3641  -26.6126   20.1349 O   0  0  0  0  0  0
  -26.5604  -34.8924   22.4693 O   0  0  0  0  0  0
  -23.5356  -32.1421   23.7454 O   0  0  0  0  0  0
  -31.4420  -19.0162   20.4779 C   0  0  0  0  0  0
  -31.3324  -17.6100   20.6330 C   0  0  0  0  0  0
  -28.9079  -17.8030   20.8677 C   0  0  0  0  0  0
  -30.2721  -19.7981   20.5139 C   0  0  0  0  0  0
  -29.0399  -19.2043   20.7085 C   0  0  0  0  0  0
  -30.0678  -16.9772   20.8165 C   0  0  0  0  0  0
  -28.0143  -22.7458   20.3903 C   0  0  0  0  0  0
  -30.1243  -21.3036   20.3674 C   0  0  0  0  0  0
  -27.9653  -20.2694   20.7108 C   0  0  0  0  0  0
  -28.7480  -24.0782   20.0564 C   0  0  0  0  0  0
  -28.1994  -25.3369   20.8116 C   0  0  0  0  0  0
  -28.6721  -21.5553   20.4835 N   0  0  0  0  0  0
  -29.9021  -15.5526   20.9754 N   0  0  0  0  0  0
  -26.7879  -22.7847   20.5341 O   0  0  0  0  0  0
  -31.4723  -12.4248   19.1363 H   0  0  0  0  0  0
  -30.3306  -11.3197   19.8461 H   0  0  0  0  0  0
  -29.7496  -11.7710   17.4424 H   0  0  0  0  0  0
  -29.6657  -13.4840   17.7645 H   0  0  0  0  0  0
  -27.8374  -11.3028   18.8265 H   0  0  0  0  0  0
  -27.3730  -12.6220   17.7852 H   0  0  0  0  0  0
  -27.6959  -14.2511   19.5572 H   0  0  0  0  0  0
  -28.6855  -11.9800   21.3506 H   0  0  0  0  0  0
  -28.4585  -13.6228   21.8657 H   0  0  0  0  0  0
  -25.2755   -9.5687   22.4750 H   0  0  0  0  0  0
  -23.9997   -7.4637   22.7470 H   0  0  0  0  0  0
  -21.0828   -8.8769   19.8960 H   0  0  0  0  0  0
  -22.3677  -10.9671   19.6163 H   0  0  0  0  0  0
  -21.2008   -7.6141   23.9711 H   0  0  0  0  0  0
  -21.1481   -6.0520   25.9077 H   0  0  0  0  0  0
  -22.0598   -2.7604   23.2854 H   0  0  0  0  0  0
  -22.4105  -11.9911   22.4805 H   0  0  0  0  0  0
  -21.1116  -13.1282   22.2603 H   0  0  0  0  0  0
  -24.6583  -15.8382   20.5007 H   0  0  0  0  0  0
  -26.2687  -15.6197   20.0402 H   0  0  0  0  0  0
  -26.7129  -32.5512   23.1153 H   0  0  0  0  0  0
  -25.0031  -33.9760   25.0450 H   0  0  0  0  0  0
  -22.6977  -31.3065   21.4079 H   0  0  0  0  0  0
  -23.3741  -35.9652   23.3309 H   0  0  0  0  0  0
  -24.3583  -36.8916   22.2054 H   0  0  0  0  0  0
  -23.7247  -37.6521   23.6652 H   0  0  0  0  0  0
  -26.0580  -31.5913   20.5985 H   0  0  0  0  0  0
  -26.8239  -30.8748   21.9880 H   0  0  0  0  0  0
  -28.1081  -29.0786   21.1678 H   0  0  0  0  0  0
  -26.0507  -25.9518   19.0279 H   0  0  0  0  0  0
  -23.9787  -27.2930   19.0327 H   0  0  0  0  0  0
  -23.7266  -30.5965   19.4036 H   0  0  0  0  0  0
  -22.7409  -29.2425   19.8671 H   0  0  0  0  0  0
  -25.1278  -36.1967   25.0834 H   0  0  0  0  0  0
  -20.9971  -28.3246   24.1431 H   0  0  0  0  0  0
  -20.5669  -26.2280   23.3618 H   0  0  0  0  0  0
  -21.6639  -26.7443   22.1220 H   0  0  0  0  0  0
  -19.6904  -25.6302   21.1243 H   0  0  0  0  0  0
  -19.6686  -27.3207   20.6760 H   0  0  0  0  0  0
  -17.4198  -26.6691   21.4025 H   0  0  0  0  0  0
  -18.0312  -26.0072   22.9018 H   0  0  0  0  0  0
  -19.7930  -30.7269   24.2283 H   0  0  0  0  0  0
  -17.5007  -31.6262   24.5179 H   0  0  0  0  0  0
  -15.5348  -30.2990   23.7642 H   0  0  0  0  0  0
  -15.8673  -28.0837   22.7033 H   0  0  0  0  0  0
  -24.5883  -30.7081   25.7818 H   0  0  0  0  0  0
  -24.8922  -32.2887   26.4927 H   0  0  0  0  0  0
  -25.8058  -30.8891   27.0238 H   0  0  0  0  0  0
  -26.2863  -29.6795   24.1165 H   0  0  0  0  0  0
  -27.4031  -29.7276   25.4615 H   0  0  0  0  0  0
  -27.8714  -30.4346   23.9323 H   0  0  0  0  0  0
  -27.2674  -33.3605   26.2101 H   0  0  0  0  0  0
  -28.3825  -32.6902   25.0281 H   0  0  0  0  0  0
  -28.0755  -31.8419   26.5354 H   0  0  0  0  0  0
  -28.2604  -38.0095   24.7503 H   0  0  0  0  0  0
  -28.1068  -36.2629   24.6284 H   0  0  0  0  0  0
  -27.2308  -37.1465   25.8866 H   0  0  0  0  0  0
  -20.9321  -29.8743   21.6920 H   0  0  0  0  0  0
  -26.0178  -38.2868   24.1402 H   0  0  0  0  0  0
  -32.4095  -19.4775   20.3364 H   0  0  0  0  0  0
  -32.2439  -17.0316   20.6134 H   0  0  0  0  0  0
  -27.9276  -17.3715   21.0161 H   0  0  0  0  0  0
  -30.5053  -21.6348   19.4005 H   0  0  0  0  0  0
  -30.6716  -21.8178   21.1585 H   0  0  0  0  0  0
  -27.4387  -20.2780   21.6661 H   0  0  0  0  0  0
  -27.2425  -20.0786   19.9164 H   0  0  0  0  0  0
  -28.6223  -24.2327   18.9852 H   0  0  0  0  0  0
  -29.8204  -23.9885   20.2256 H   0  0  0  0  0  0
  -28.7332  -25.4171   21.7590 H   0  0  0  0  0  0
  -27.1603  -25.1849   21.1072 H   0  0  0  0  0  0
  -28.9870  -15.2585   21.2797 H   0  0  0  0  0  0
  1 25  1  0  0  0
  1 30  2  0  0  0
  1 83  1  0  0  0
  2  3  1  0  0  0
  2 25  1  0  0  0
  2 85  1  0  0  0
  2 86  1  0  0  0
  3  4  1  0  0  0
  3 87  1  0  0  0
  3 88  1  0  0  0
  4  5  1  0  0  0
  4 89  1  0  0  0
  4 90  1  0  0  0
  5  6  1  0  0  0
  5 26  1  0  0  0
  5 91  1  0  0  0
  6 25  1  0  0  0
  6 92  1  0  0  0
  6 93  1  0  0  0
  7  8  2  0  0  0
  7 26  1  0  0  0
  7 29  1  0  0  0
  8  9  1  0  0  0
  8 22  1  0  0  0
  9 10  1  0  0  0
  9 27  2  0  0  0
 10 11  2  0  0  0
 10 15  1  0  0  0
 11 12  1  0  0  0
 11 94  1  0  0  0
 12 13  2  0  0  0
 12 95  1  0  0  0
 13 14  1  0  0  0
 13 31  1  0  0  0
 14 15  2  0  0  0
 14 96  1  0  0  0
 15 97  1  0  0  0
 16 17  2  0  0  0
 16 21  1  0  0  0
 16 31  1  0  0  0
 17 18  1  0  0  0
 17 98  1  0  0  0
 18 19  2  0  0  0
 18 99  1  0  0  0
 19 20  1  0  0  0
 19 24  1  0  0  0
 20 21  2  0  0  0
 20100  1  0  0  0
 21 23  1  0  0  0
 22 28  1  0  0  0
 22 32  2  0  0  0
 26 27  1  0  0  0
 28101  1  0  0  0
 28102  1  0  0  0
 29103  1  0  0  0
 29104  1  0  0  0
 33 34  1  0  0  0
 33 66  1  0  0  0
 33 70  2  0  0  0
 34 36  1  0  0  0
 34 59  1  0  0  0
 34105  1  0  0  0
 35 44  2  0  0  0
 35 45  1  0  0  0
 35 68  1  0  0  0
 36 56  1  0  0  0
 36106  1  0  0  0
 37 39  1  0  0  0
 37 47  1  0  0  0
 37 66  1  0  0  0
 37107  1  0  0  0
 38 43  2  0  0  0
 38 46  1  0  0  0
 38 47  1  0  0  0
 39 64  1  0  0  0
 39 67  2  0  0  0
 40 52  1  0  0  0
 40 53  2  0  0  0
 40 58  1  0  0  0
 41108  1  0  0  0
 41109  1  0  0  0
 41110  1  0  0  0
 41 48  1  0  0  0
 42 43  1  0  0  0
 42 66  1  0  0  0
 42111  1  0  0  0
 42112  1  0  0  0
 43 44  1  0  0  0
 44113  1  0  0  0
 45 46  2  0  0  0
 45114  1  0  0  0
 46115  1  0  0  0
 47116  1  0  0  0
 47117  1  0  0  0
 48 56  1  0  0  0
 48 65  1  0  0  0
 48118  1  0  0  0
 49 50  1  0  0  0
 49 53  1  0  0  0
 49 64  1  0  0  0
 49119  1  0  0  0
 50 51  1  0  0  0
 50120  1  0  0  0
 50121  1  0  0  0
 51 52  1  0  0  0
 51122  1  0  0  0
 51123  1  0  0  0
 52124  1  0  0  0
 52125  1  0  0  0
 53 54  1  0  0  0
 54 55  2  0  0  0
 54126  1  0  0  0
 55 57  1  0  0  0
 55127  1  0  0  0
 56 69  2  0  0  0
 57 58  2  0  0  0
 57128  1  0  0  0
 58129  1  0  0  0
 59 60  1  0  0  0
 59 61  1  0  0  0
 59 62  1  0  0  0
 60130  1  0  0  0
 60131  1  0  0  0
 60132  1  0  0  0
 61133  1  0  0  0
 61134  1  0  0  0
 61135  1  0  0  0
 62136  1  0  0  0
 62137  1  0  0  0
 62138  1  0  0  0
 63 65  1  0  0  0
 63139  1  0  0  0
 63140  1  0  0  0
 63141  1  0  0  0
 64142  1  0  0  0
 65143  1  0  0  0
 68 81  1  0  0  0
 71 72  2  0  0  0
 71 74  1  0  0  0
 71144  1  0  0  0
 72 76  1  0  0  0
 72145  1  0  0  0
 73 75  1  0  0  0
 73 76  2  0  0  0
 73146  1  0  0  0
 74 75  2  0  0  0
 74 78  1  0  0  0
 75 79  1  0  0  0
 76 83  1  0  0  0
 77 80  1  0  0  0
 77 82  1  0  0  0
 77 84  2  0  0  0
 78 82  1  0  0  0
 78147  1  0  0  0
 78148  1  0  0  0
 79 82  1  0  0  0
 79149  1  0  0  0
 79150  1  0  0  0
 80 81  1  0  0  0
 80151  1  0  0  0
 80152  1  0  0  0
 81153  1  0  0  0
 81154  1  0  0  0
 83155  1  0  0  0
M  ISO  4   1 100  68 101  81 101  83 100
M  END
> <chiral flag>
0

> <version>
0

> <s_m_source_file>
/data/baiqing/PycharmProjects/Reinvent-master-3.2/result/LINK_invent/BTK/process_docking_weight1_custom_product_contain_oxygen_bond_distance_aromatic_linkinvent_7_9_3/rearranged_h_0125.sdf

> <i_m_source_file_index>
22

> <r_mmod_Potential_Energy-OPLS-2005>
-25.6879806518555

> <r_mmod_Stretch_Energy-OPLS-2005>
49.4205474853516

> <r_mmod_Bend_Energy-OPLS-2005>
148.472259521484

> <r_mmod_Torsional_Energy-OPLS-2005>
241.059951782227

> <r_mmod_Improper_Torsional_Energy-OPLS-2005>
4.45749616622925

> <r_mmod_Van_der_Waal_Energy-OPLS-2005>
149.147491455078

> <r_mmod_Electrostatic_Energy-OPLS-2005>
-402.364837646484

> <r_mmod_Solvation_Energy-OPLS-2005>
-235.971466064453

> <b_mmod_Minimization_Converged-OPLS-2005>
0

> <r_mmod_RMS_Derivative-OPLS-2005>
0.720223724842072

$$$$
22
                    3D
 Structure written by MMmdl.
149157  0  0  1  0            999 V2000
  -30.6294  -14.7275   20.4522 C   0  0  0  0  0  0
  -30.4269  -12.4400   19.4815 C   0  0  0  0  0  0
  -29.5095  -12.5031   18.2406 C   0  0  0  0  0  0
  -28.0352  -12.3321   18.6525 C   0  0  0  0  0  0
  -27.6428  -13.2331   19.8541 C   0  0  2  0  0  0
  -28.6863  -13.1702   20.9922 C   0  0  0  0  0  0
  -25.2509  -13.8204   20.5701 C   0  0  0  0  0  0
  -24.1801  -13.0443   20.9208 C   0  0  0  0  0  0
  -24.6396  -11.6922   20.8752 C   0  0  0  0  0  0
  -23.9075  -10.4296   21.0410 C   0  0  0  0  0  0
  -24.3624   -9.4208   21.9186 C   0  0  0  0  0  0
  -23.6297   -8.2243   22.0754 C   0  0  0  0  0  0
  -22.4279   -8.0283   21.3544 C   0  0  0  0  0  0
  -21.9916   -9.0258   20.4646 C   0  0  0  0  0  0
  -22.7247  -10.2137   20.3058 C   0  0  0  0  0  0
  -21.6854   -6.0738   22.5278 C   0  0  0  0  0  0
  -21.4015   -6.5641   23.8212 C   0  0  0  0  0  0
  -21.3659   -5.6794   24.9174 C   0  0  0  0  0  0
  -21.6044   -4.3056   24.7224 C   0  0  0  0  0  0
  -21.8820   -3.8148   23.4345 C   0  0  0  0  0  0
  -21.9193   -4.6966   22.3402 C   0  0  0  0  0  0
  -22.7822  -13.5221   21.1866 C   0  0  0  0  0  0
  -22.1662   -4.2151   21.0980 F   0  0  0  0  0  0
  -21.5628   -3.4539   25.7737 F   0  0  0  0  0  0
  -29.9916  -13.5078   20.4125 N   0  0  0  0  0  0
  -26.2942  -12.9414   20.3303 N   0  0  0  0  0  0
  -25.9329  -11.6554   20.5769 N   0  0  0  0  0  0
  -22.0474  -12.8208   22.0424 N   0  0  0  0  0  0
  -25.4188  -15.1929   20.4113 N   0  0  0  0  0  0
  -31.8120  -14.8079   20.1108 O   0  0  0  0  0  0
  -21.6641   -6.8881   21.4241 O   0  0  0  0  0  0
  -22.3503  -14.5525   20.6714 O   0  0  0  0  0  0
  -24.6314  -31.8559   23.2000 C   0  0  0  0  0  0
  -25.9141  -32.4758   23.8338 C   0  0  1  0  0  0
  -27.2138  -27.2587   20.1262 C   0  0  0  0  0  0
  -25.5935  -33.8559   24.2260 N   0  0  0  0  0  0
  -23.4275  -30.4803   21.5434 C   0  0  2  0  0  0
  -24.8740  -28.9324   20.1064 C   0  0  0  0  0  0
  -22.7502  -29.4603   22.4909 C   0  0  0  0  0  0
  -18.0293  -28.1386   22.8486 C   0  0  0  0  0  0
  -24.1489  -36.7280   23.2639 C   0  0  0  0  0  0
  -25.9746  -30.7666   21.3831 C   0  0  0  0  0  0
  -26.0453  -29.3904   20.7226 C   0  0  0  0  0  0
  -27.2159  -28.5644   20.7261 C   0  0  0  0  0  0
  -26.0248  -26.8845   19.4575 C   0  0  0  0  0  0
  -24.8696  -27.6878   19.4624 C   0  0  0  0  0  0
  -23.6451  -29.8191   20.1577 C   0  0  0  0  0  0
  -25.4117  -36.3070   24.0326 C   0  0  1  0  0  0
  -20.5898  -28.3698   23.1267 C   0  0  2  0  0  0
  -20.6781  -26.9415   22.5408 C   0  0  0  0  0  0
  -19.5754  -26.6383   21.5214 C   0  0  0  0  0  0
  -18.1934  -26.7928   22.1628 C   0  0  0  0  0  0
  -19.1547  -28.8859   23.2870 C   0  0  0  0  0  0
  -18.9467  -30.1459   23.8890 C   0  0  0  0  0  0
  -17.6467  -30.6588   24.0563 C   0  0  0  0  0  0
  -25.9058  -34.9441   23.5095 C   0  0  0  0  0  0
  -16.5357  -29.9085   23.6334 C   0  0  0  0  0  0
  -16.7279  -28.6503   23.0356 C   0  0  0  0  0  0
  -26.4505  -31.6586   25.0730 C   0  0  0  0  0  0
  -25.3721  -31.3738   26.1447 C   0  0  0  0  0  0
  -27.0358  -30.3001   24.6229 C   0  0  0  0  0  0
  -27.6055  -32.4332   25.7502 C   0  0  0  0  0  0
  -27.5578  -37.1795   24.8466 C   0  0  0  0  0  0
  -21.4209  -29.3044   22.3653 N   0  0  0  0  0  0
  -26.4292  -37.3769   23.9407 N   0  0  0  0  0  0
  -24.6967  -31.0522   22.0981 N   0  0  0  0  0  0
  -23.4203  -28.8139   23.3003 O   0  0  0  0  0  0
  -28.2972  -26.3485   20.2162 O   0  0  0  0  0  0
  -26.5633  -34.8915   22.4666 O   0  0  0  0  0  0
  -23.5464  -32.1387   23.7295 O   0  0  0  0  0  0
  -28.8648  -20.4415   21.7920 C   0  0  0  0  0  0
  -29.1654  -19.0332   21.8761 C   0  0  0  0  0  0
  -29.1366  -20.8843   20.5207 C   0  0  0  0  0  0
  -29.6387  -18.6087   20.6613 C   0  0  0  0  0  0
  -28.9414  -22.2426   19.8316 C   0  0  0  0  0  0
  -30.2527  -17.2685   20.1057 C   0  0  0  0  0  0
  -28.9419  -23.6744   20.5509 C   0  0  0  0  0  0
  -28.0798  -24.8872   19.9056 C   0  0  0  0  0  0
  -29.8813  -15.8811   20.6251 N   0  0  0  0  0  0
  -28.8247  -22.2486   18.6021 O   0  0  0  0  0  0
  -29.6038  -19.7450   19.8282 O   0  0  0  0  0  0
  -31.4706  -12.5474   19.1817 H   0  0  0  0  0  0
  -30.3567  -11.4642   19.9647 H   0  0  0  0  0  0
  -29.7890  -11.7302   17.5234 H   0  0  0  0  0  0
  -29.6414  -13.4581   17.7298 H   0  0  0  0  0  0
  -27.8890  -11.2837   18.9151 H   0  0  0  0  0  0
  -27.3788  -12.5261   17.8033 H   0  0  0  0  0  0
  -27.6376  -14.2543   19.4726 H   0  0  0  0  0  0
  -28.7140  -12.1767   21.4418 H   0  0  0  0  0  0
  -28.4255  -13.8627   21.7942 H   0  0  0  0  0  0
  -25.2768   -9.5683   22.4762 H   0  0  0  0  0  0
  -24.0005   -7.4635   22.7473 H   0  0  0  0  0  0
  -21.0847   -8.8779   19.8952 H   0  0  0  0  0  0
  -22.3707  -10.9677   19.6168 H   0  0  0  0  0  0
  -21.2009   -7.6148   23.9715 H   0  0  0  0  0  0
  -21.1481   -6.0523   25.9077 H   0  0  0  0  0  0
  -22.0599   -2.7610   23.2845 H   0  0  0  0  0  0
  -22.4095  -11.9868   22.4806 H   0  0  0  0  0  0
  -21.1092  -13.1227   22.2639 H   0  0  0  0  0  0
  -24.6486  -15.8441   20.5183 H   0  0  0  0  0  0
  -26.2636  -15.6344   20.0714 H   0  0  0  0  0  0
  -26.7203  -32.5406   23.1075 H   0  0  0  0  0  0
  -25.0071  -33.9694   25.0398 H   0  0  0  0  0  0
  -22.7239  -31.3030   21.3997 H   0  0  0  0  0  0
  -23.3754  -35.9610   23.3304 H   0  0  0  0  0  0
  -24.3575  -36.8906   22.2052 H   0  0  0  0  0  0
  -23.7243  -37.6480   23.6667 H   0  0  0  0  0  0
  -26.1176  -31.5285   20.6155 H   0  0  0  0  0  0
  -26.8508  -30.8115   22.0184 H   0  0  0  0  0  0
  -28.1073  -28.9046   21.2341 H   0  0  0  0  0  0
  -25.9492  -25.9453   18.9309 H   0  0  0  0  0  0
  -23.9770  -27.3373   18.9627 H   0  0  0  0  0  0
  -23.7687  -30.5980   19.4044 H   0  0  0  0  0  0
  -22.7631  -29.2535   19.8520 H   0  0  0  0  0  0
  -25.1300  -36.1915   25.0819 H   0  0  0  0  0  0
  -20.9991  -28.3279   24.1389 H   0  0  0  0  0  0
  -20.5683  -26.2308   23.3612 H   0  0  0  0  0  0
  -21.6646  -26.7440   22.1197 H   0  0  0  0  0  0
  -19.6915  -25.6292   21.1246 H   0  0  0  0  0  0
  -19.6691  -27.3193   20.6742 H   0  0  0  0  0  0
  -17.4202  -26.6677   21.4029 H   0  0  0  0  0  0
  -18.0330  -26.0071   22.9024 H   0  0  0  0  0  0
  -19.7943  -30.7275   24.2255 H   0  0  0  0  0  0
  -17.5023  -31.6269   24.5163 H   0  0  0  0  0  0
  -15.5357  -30.2985   23.7663 H   0  0  0  0  0  0
  -15.8679  -28.0819   22.7078 H   0  0  0  0  0  0
  -24.5902  -30.7082   25.7772 H   0  0  0  0  0  0
  -24.8904  -32.2907   26.4852 H   0  0  0  0  0  0
  -25.8030  -30.8927   27.0237 H   0  0  0  0  0  0
  -26.2951  -29.6737   24.1244 H   0  0  0  0  0  0
  -27.4022  -29.7273   25.4759 H   0  0  0  0  0  0
  -27.8835  -30.4268   23.9493 H   0  0  0  0  0  0
  -27.2663  -33.3643   26.2054 H   0  0  0  0  0  0
  -28.3874  -32.6878   25.0335 H   0  0  0  0  0  0
  -28.0712  -31.8476   26.5438 H   0  0  0  0  0  0
  -28.2596  -38.0092   24.7512 H   0  0  0  0  0  0
  -28.1074  -36.2621   24.6298 H   0  0  0  0  0  0
  -27.2291  -37.1453   25.8868 H   0  0  0  0  0  0
  -20.9392  -29.8769   21.6863 H   0  0  0  0  0  0
  -26.0170  -38.2843   24.1410 H   0  0  0  0  0  0
  -28.4736  -21.0635   22.5853 H   0  0  0  0  0  0
  -29.0702  -18.4037   22.7504 H   0  0  0  0  0  0
  -31.3362  -17.3633   20.1893 H   0  0  0  0  0  0
  -30.0669  -17.2426   19.0314 H   0  0  0  0  0  0
  -29.9857  -23.9838   20.5826 H   0  0  0  0  0  0
  -28.6446  -23.5329   21.5893 H   0  0  0  0  0  0
  -27.0574  -24.6286   20.1791 H   0  0  0  0  0  0
  -28.1264  -24.8031   18.8192 H   0  0  0  0  0  0
  -28.9206  -15.7538   20.9031 H   0  0  0  0  0  0
  1 25  1  0  0  0
  1 30  2  0  0  0
  1 79  1  0  0  0
  2  3  1  0  0  0
  2 25  1  0  0  0
  2 82  1  0  0  0
  2 83  1  0  0  0
  3  4  1  0  0  0
  3 84  1  0  0  0
  3 85  1  0  0  0
  4  5  1  0  0  0
  4 86  1  0  0  0
  4 87  1  0  0  0
  5  6  1  0  0  0
  5 26  1  0  0  0
  5 88  1  0  0  0
  6 25  1  0  0  0
  6 89  1  0  0  0
  6 90  1  0  0  0
  7  8  2  0  0  0
  7 26  1  0  0  0
  7 29  1  0  0  0
  8  9  1  0  0  0
  8 22  1  0  0  0
  9 10  1  0  0  0
  9 27  2  0  0  0
 10 11  2  0  0  0
 10 15  1  0  0  0
 11 12  1  0  0  0
 11 91  1  0  0  0
 12 13  2  0  0  0
 12 92  1  0  0  0
 13 14  1  0  0  0
 13 31  1  0  0  0
 14 15  2  0  0  0
 14 93  1  0  0  0
 15 94  1  0  0  0
 16 17  2  0  0  0
 16 21  1  0  0  0
 16 31  1  0  0  0
 17 18  1  0  0  0
 17 95  1  0  0  0
 18 19  2  0  0  0
 18 96  1  0  0  0
 19 20  1  0  0  0
 19 24  1  0  0  0
 20 21  2  0  0  0
 20 97  1  0  0  0
 21 23  1  0  0  0
 22 28  1  0  0  0
 22 32  2  0  0  0
 26 27  1  0  0  0
 28 98  1  0  0  0
 28 99  1  0  0  0
 29100  1  0  0  0
 29101  1  0  0  0
 33 34  1  0  0  0
 33 66  1  0  0  0
 33 70  2  0  0  0
 34 36  1  0  0  0
 34 59  1  0  0  0
 34102  1  0  0  0
 35 44  2  0  0  0
 35 45  1  0  0  0
 35 68  1  0  0  0
 36 56  1  0  0  0
 36103  1  0  0  0
 37 39  1  0  0  0
 37 47  1  0  0  0
 37 66  1  0  0  0
 37104  1  0  0  0
 38 43  2  0  0  0
 38 46  1  0  0  0
 38 47  1  0  0  0
 39 64  1  0  0  0
 39 67  2  0  0  0
 40 52  1  0  0  0
 40 53  2  0  0  0
 40 58  1  0  0  0
 41105  1  0  0  0
 41106  1  0  0  0
 41107  1  0  0  0
 41 48  1  0  0  0
 42 43  1  0  0  0
 42 66  1  0  0  0
 42108  1  0  0  0
 42109  1  0  0  0
 43 44  1  0  0  0
 44110  1  0  0  0
 45 46  2  0  0  0
 45111  1  0  0  0
 46112  1  0  0  0
 47113  1  0  0  0
 47114  1  0  0  0
 48 56  1  0  0  0
 48 65  1  0  0  0
 48115  1  0  0  0
 49 50  1  0  0  0
 49 53  1  0  0  0
 49 64  1  0  0  0
 49116  1  0  0  0
 50 51  1  0  0  0
 50117  1  0  0  0
 50118  1  0  0  0
 51 52  1  0  0  0
 51119  1  0  0  0
 51120  1  0  0  0
 52121  1  0  0  0
 52122  1  0  0  0
 53 54  1  0  0  0
 54 55  2  0  0  0
 54123  1  0  0  0
 55 57  1  0  0  0
 55124  1  0  0  0
 56 69  2  0  0  0
 57 58  2  0  0  0
 57125  1  0  0  0
 58126  1  0  0  0
 59 60  1  0  0  0
 59 61  1  0  0  0
 59 62  1  0  0  0
 60127  1  0  0  0
 60128  1  0  0  0
 60129  1  0  0  0
 61130  1  0  0  0
 61131  1  0  0  0
 61132  1  0  0  0
 62133  1  0  0  0
 62134  1  0  0  0
 62135  1  0  0  0
 63 65  1  0  0  0
 63136  1  0  0  0
 63137  1  0  0  0
 63138  1  0  0  0
 64139  1  0  0  0
 65140  1  0  0  0
 68 78  1  0  0  0
 71 72  1  0  0  0
 71 73  2  0  0  0
 71141  1  0  0  0
 72 74  2  0  0  0
 72142  1  0  0  0
 73 75  1  0  0  0
 73 81  1  0  0  0
 74 76  1  0  0  0
 74 81  1  0  0  0
 75 77  1  0  0  0
 75 80  2  0  0  0
 76 79  1  0  0  0
 76143  1  0  0  0
 76144  1  0  0  0
 77 78  1  0  0  0
 77145  1  0  0  0
 77146  1  0  0  0
 78147  1  0  0  0
 78148  1  0  0  0
 79149  1  0  0  0
M  ISO  4   1 100  68 101  78 101  79 100
M  END
> <chiral flag>
0

> <version>
0

> <s_m_source_file>
/data/baiqing/PycharmProjects/Reinvent-master-3.2/result/LINK_invent/BTK/process_docking_weight1_custom_product_contain_oxygen_bond_distance_aromatic_linkinvent_7_9_3/rearranged_h_0125.sdf

> <i_m_source_file_index>
23

> <r_mmod_Potential_Energy-OPLS-2005>
100.779655456543

> <r_mmod_Stretch_Energy-OPLS-2005>
116.542282104492

> <r_mmod_Bend_Energy-OPLS-2005>
161.304000854492

> <r_mmod_Torsional_Energy-OPLS-2005>
228.062805175781

> <r_mmod_Improper_Torsional_Energy-OPLS-2005>
7.08752155303955

> <r_mmod_Van_der_Waal_Energy-OPLS-2005>
122.678482055664

> <r_mmod_Electrostatic_Energy-OPLS-2005>
-392.262237548828

> <r_mmod_Solvation_Energy-OPLS-2005>
-227.450119018555

> <b_mmod_Minimization_Converged-OPLS-2005>
0

> <r_mmod_RMS_Derivative-OPLS-2005>
0.367905259132385

$$$$
23
                    3D
 Structure written by MMmdl.
150158  0  0  1  0            999 V2000
  -30.6248  -14.6240   20.5057 C   0  0  0  0  0  0
  -30.4355  -12.3844   19.4462 C   0  0  0  0  0  0
  -29.5063  -12.5139   18.2185 C   0  0  0  0  0  0
  -28.0249  -12.3644   18.6237 C   0  0  0  0  0  0
  -27.6536  -13.2179   19.8663 C   0  0  2  0  0  0
  -28.6991  -13.0537   20.9922 C   0  0  0  0  0  0
  -25.2553  -13.8179   20.5683 C   0  0  0  0  0  0
  -24.1825  -13.0438   20.9183 C   0  0  0  0  0  0
  -24.6394  -11.6912   20.8731 C   0  0  0  0  0  0
  -23.9056  -10.4298   21.0404 C   0  0  0  0  0  0
  -24.3617   -9.4214   21.9180 C   0  0  0  0  0  0
  -23.6289   -8.2249   22.0746 C   0  0  0  0  0  0
  -22.4272   -8.0285   21.3541 C   0  0  0  0  0  0
  -21.9900   -9.0259   20.4645 C   0  0  0  0  0  0
  -22.7222  -10.2144   20.3060 C   0  0  0  0  0  0
  -21.6861   -6.0734   22.5275 C   0  0  0  0  0  0
  -21.4024   -6.5644   23.8209 C   0  0  0  0  0  0
  -21.3655   -5.6791   24.9169 C   0  0  0  0  0  0
  -21.6044   -4.3054   24.7219 C   0  0  0  0  0  0
  -21.8819   -3.8141   23.4341 C   0  0  0  0  0  0
  -21.9196   -4.6961   22.3399 C   0  0  0  0  0  0
  -22.7844  -13.5233   21.1853 C   0  0  0  0  0  0
  -22.1660   -4.2147   21.0977 F   0  0  0  0  0  0
  -21.5622   -3.4537   25.7727 F   0  0  0  0  0  0
  -30.0158  -13.3988   20.4326 N   0  0  0  0  0  0
  -26.2986  -12.9360   20.3324 N   0  0  0  0  0  0
  -25.9323  -11.6510   20.5753 N   0  0  0  0  0  0
  -22.0493  -12.8236   22.0418 N   0  0  0  0  0  0
  -25.4248  -15.1902   20.4115 N   0  0  0  0  0  0
  -31.7829  -14.7881   20.1127 O   0  0  0  0  0  0
  -21.6644   -6.8875   21.4237 O   0  0  0  0  0  0
  -22.3528  -14.5540   20.6693 O   0  0  0  0  0  0
  -24.6253  -31.8617   23.2054 C   0  0  0  0  0  0
  -25.9103  -32.4786   23.8380 C   0  0  1  0  0  0
  -27.2125  -27.3195   20.1117 C   0  0  0  0  0  0
  -25.5925  -33.8589   24.2300 N   0  0  0  0  0  0
  -23.4184  -30.4876   21.5486 C   0  0  2  0  0  0
  -24.8624  -28.9491   20.1100 C   0  0  0  0  0  0
  -22.7470  -29.4626   22.4935 C   0  0  0  0  0  0
  -18.0292  -28.1375   22.8485 C   0  0  0  0  0  0
  -24.1483  -36.7296   23.2631 C   0  0  0  0  0  0
  -25.9614  -30.7915   21.3792 C   0  0  0  0  0  0
  -26.0333  -29.4211   20.7172 C   0  0  0  0  0  0
  -27.2126  -28.6176   20.7097 C   0  0  0  0  0  0
  -26.0168  -26.9052   19.4780 C   0  0  0  0  0  0
  -24.8562  -27.6971   19.4817 C   0  0  0  0  0  0
  -23.6330  -29.8310   20.1615 C   0  0  0  0  0  0
  -25.4100  -36.3082   24.0332 C   0  0  1  0  0  0
  -20.5890  -28.3679   23.1277 C   0  0  2  0  0  0
  -20.6775  -26.9400   22.5403 C   0  0  0  0  0  0
  -19.5752  -26.6371   21.5204 C   0  0  0  0  0  0
  -18.1940  -26.7912   22.1632 C   0  0  0  0  0  0
  -19.1543  -28.8842   23.2879 C   0  0  0  0  0  0
  -18.9465  -30.1442   23.8901 C   0  0  0  0  0  0
  -17.6465  -30.6576   24.0560 C   0  0  0  0  0  0
  -25.9048  -34.9454   23.5111 C   0  0  0  0  0  0
  -16.5357  -29.9077   23.6322 C   0  0  0  0  0  0
  -16.7280  -28.6493   23.0348 C   0  0  0  0  0  0
  -26.4484  -31.6596   25.0749 C   0  0  0  0  0  0
  -25.3723  -31.3766   26.1490 C   0  0  0  0  0  0
  -27.0319  -30.3012   24.6211 C   0  0  0  0  0  0
  -27.6057  -32.4325   25.7504 C   0  0  0  0  0  0
  -27.5597  -37.1768   24.8438 C   0  0  0  0  0  0
  -21.4186  -29.3036   22.3674 N   0  0  0  0  0  0
  -26.4268  -37.3790   23.9445 N   0  0  0  0  0  0
  -24.6872  -31.0624   22.1012 N   0  0  0  0  0  0
  -23.4197  -28.8154   23.3003 O   0  0  0  0  0  0
  -28.3192  -26.4577   20.1575 O   0  0  0  0  0  0
  -26.5612  -34.8917   22.4677 O   0  0  0  0  0  0
  -23.5415  -32.1428   23.7371 O   0  0  0  0  0  0
  -28.8122  -19.3407   21.0473 C   0  0  0  0  0  0
  -30.9590  -19.2343   19.9844 C   0  0  0  0  0  0
  -28.8259  -17.9210   21.1885 C   0  0  0  0  0  0
  -30.9744  -17.8140   20.1178 C   0  0  0  0  0  0
  -29.8861  -20.0458   20.4472 C   0  0  0  0  0  0
  -29.9036  -17.1132   20.7306 C   0  0  0  0  0  0
  -29.9400  -21.5577   20.2740 C   0  0  0  0  0  0
  -28.9945  -22.5278   20.4891 C   0  0  0  0  0  0
  -29.2331  -24.0184   20.2852 C   0  0  0  0  0  0
  -28.0194  -25.0045   20.1193 C   0  0  0  0  0  0
  -29.8201  -15.6619   20.8963 N   0  0  0  0  0  0
  -30.3764  -24.4855   20.2260 O   0  0  0  0  0  0
  -31.4766  -12.5100   19.1445 H   0  0  0  0  0  0
  -30.3686  -11.3850   19.8793 H   0  0  0  0  0  0
  -29.7643  -11.7635   17.4693 H   0  0  0  0  0  0
  -29.6604  -13.4842   17.7439 H   0  0  0  0  0  0
  -27.8402  -11.3100   18.8270 H   0  0  0  0  0  0
  -27.3810  -12.6285   17.7837 H   0  0  0  0  0  0
  -27.6750  -14.2580   19.5422 H   0  0  0  0  0  0
  -28.7076  -12.0256   21.3575 H   0  0  0  0  0  0
  -28.4484  -13.6720   21.8552 H   0  0  0  0  0  0
  -25.2773   -9.5686   22.4739 H   0  0  0  0  0  0
  -23.9999   -7.4647   22.7474 H   0  0  0  0  0  0
  -21.0821   -8.8781   19.8965 H   0  0  0  0  0  0
  -22.3677  -10.9683   19.6169 H   0  0  0  0  0  0
  -21.2030   -7.6153   23.9711 H   0  0  0  0  0  0
  -21.1471   -6.0523   25.9070 H   0  0  0  0  0  0
  -22.0603   -2.7600   23.2848 H   0  0  0  0  0  0
  -22.4122  -11.9913   22.4825 H   0  0  0  0  0  0
  -21.1115  -13.1272   22.2633 H   0  0  0  0  0  0
  -24.6548  -15.8417   20.5169 H   0  0  0  0  0  0
  -26.2663  -15.6300   20.0590 H   0  0  0  0  0  0
  -26.7174  -32.5453   23.1136 H   0  0  0  0  0  0
  -25.0070  -33.9744   25.0439 H   0  0  0  0  0  0
  -22.7112  -31.3078   21.4099 H   0  0  0  0  0  0
  -23.3758  -35.9611   23.3224 H   0  0  0  0  0  0
  -24.3606  -36.8986   22.2063 H   0  0  0  0  0  0
  -23.7201  -37.6465   23.6690 H   0  0  0  0  0  0
  -26.0976  -31.5578   20.6146 H   0  0  0  0  0  0
  -26.8398  -30.8354   22.0119 H   0  0  0  0  0  0
  -28.1095  -28.9710   21.1995 H   0  0  0  0  0  0
  -25.9408  -25.9572   18.9685 H   0  0  0  0  0  0
  -23.9601  -27.3350   18.9967 H   0  0  0  0  0  0
  -23.7542  -30.6133   19.4114 H   0  0  0  0  0  0
  -22.7521  -29.2652   19.8532 H   0  0  0  0  0  0
  -25.1259  -36.1928   25.0818 H   0  0  0  0  0  0
  -20.9986  -28.3252   24.1394 H   0  0  0  0  0  0
  -20.5664  -26.2289   23.3603 H   0  0  0  0  0  0
  -21.6644  -26.7419   22.1203 H   0  0  0  0  0  0
  -19.6908  -25.6276   21.1238 H   0  0  0  0  0  0
  -19.6682  -27.3178   20.6728 H   0  0  0  0  0  0
  -17.4193  -26.6632   21.4059 H   0  0  0  0  0  0
  -18.0369  -26.0066   22.9047 H   0  0  0  0  0  0
  -19.7941  -30.7252   24.2280 H   0  0  0  0  0  0
  -17.5020  -31.6255   24.5162 H   0  0  0  0  0  0
  -15.5357  -30.2981   23.7633 H   0  0  0  0  0  0
  -15.8687  -28.0806   22.7065 H   0  0  0  0  0  0
  -24.5843  -30.7177   25.7824 H   0  0  0  0  0  0
  -24.8988  -32.2958   26.4952 H   0  0  0  0  0  0
  -25.8036  -30.8899   27.0247 H   0  0  0  0  0  0
  -26.2900  -29.6774   24.1214 H   0  0  0  0  0  0
  -27.3986  -29.7259   25.4722 H   0  0  0  0  0  0
  -27.8784  -30.4291   23.9462 H   0  0  0  0  0  0
  -27.2680  -33.3629   26.2083 H   0  0  0  0  0  0
  -28.3861  -32.6881   25.0321 H   0  0  0  0  0  0
  -28.0731  -31.8454   26.5421 H   0  0  0  0  0  0
  -28.2503  -38.0173   24.7638 H   0  0  0  0  0  0
  -28.1201  -36.2717   24.6043 H   0  0  0  0  0  0
  -27.2354  -37.1147   25.8841 H   0  0  0  0  0  0
  -20.9345  -29.8794   21.6927 H   0  0  0  0  0  0
  -26.0138  -38.2837   24.1551 H   0  0  0  0  0  0
  -27.9585  -19.8896   21.4184 H   0  0  0  0  0  0
  -31.8060  -19.7071   19.5070 H   0  0  0  0  0  0
  -27.9741  -17.4517   21.6606 H   0  0  0  0  0  0
  -31.8288  -17.2760   19.7341 H   0  0  0  0  0  0
  -30.9012  -21.9145   19.9279 H   0  0  0  0  0  0
  -28.0103  -22.2418   20.8288 H   0  0  0  0  0  0
  -27.2730  -24.7659   20.8795 H   0  0  0  0  0  0
  -27.5773  -24.7511   19.1556 H   0  0  0  0  0  0
  -28.9371  -15.3372   21.2593 H   0  0  0  0  0  0
  1 25  1  0  0  0
  1 30  2  0  0  0
  1 81  1  0  0  0
  2  3  1  0  0  0
  2 25  1  0  0  0
  2 83  1  0  0  0
  2 84  1  0  0  0
  3  4  1  0  0  0
  3 85  1  0  0  0
  3 86  1  0  0  0
  4  5  1  0  0  0
  4 87  1  0  0  0
  4 88  1  0  0  0
  5  6  1  0  0  0
  5 26  1  0  0  0
  5 89  1  0  0  0
  6 25  1  0  0  0
  6 90  1  0  0  0
  6 91  1  0  0  0
  7  8  2  0  0  0
  7 26  1  0  0  0
  7 29  1  0  0  0
  8  9  1  0  0  0
  8 22  1  0  0  0
  9 10  1  0  0  0
  9 27  2  0  0  0
 10 11  2  0  0  0
 10 15  1  0  0  0
 11 12  1  0  0  0
 11 92  1  0  0  0
 12 13  2  0  0  0
 12 93  1  0  0  0
 13 14  1  0  0  0
 13 31  1  0  0  0
 14 15  2  0  0  0
 14 94  1  0  0  0
 15 95  1  0  0  0
 16 17  2  0  0  0
 16 21  1  0  0  0
 16 31  1  0  0  0
 17 18  1  0  0  0
 17 96  1  0  0  0
 18 19  2  0  0  0
 18 97  1  0  0  0
 19 20  1  0  0  0
 19 24  1  0  0  0
 20 21  2  0  0  0
 20 98  1  0  0  0
 21 23  1  0  0  0
 22 28  1  0  0  0
 22 32  2  0  0  0
 26 27  1  0  0  0
 28 99  1  0  0  0
 28100  1  0  0  0
 29101  1  0  0  0
 29102  1  0  0  0
 33 34  1  0  0  0
 33 66  1  0  0  0
 33 70  2  0  0  0
 34 36  1  0  0  0
 34 59  1  0  0  0
 34103  1  0  0  0
 35 44  2  0  0  0
 35 45  1  0  0  0
 35 68  1  0  0  0
 36 56  1  0  0  0
 36104  1  0  0  0
 37 39  1  0  0  0
 37 47  1  0  0  0
 37 66  1  0  0  0
 37105  1  0  0  0
 38 43  2  0  0  0
 38 46  1  0  0  0
 38 47  1  0  0  0
 39 64  1  0  0  0
 39 67  2  0  0  0
 40 52  1  0  0  0
 40 53  2  0  0  0
 40 58  1  0  0  0
 41106  1  0  0  0
 41107  1  0  0  0
 41108  1  0  0  0
 41 48  1  0  0  0
 42 43  1  0  0  0
 42 66  1  0  0  0
 42109  1  0  0  0
 42110  1  0  0  0
 43 44  1  0  0  0
 44111  1  0  0  0
 45 46  2  0  0  0
 45112  1  0  0  0
 46113  1  0  0  0
 47114  1  0  0  0
 47115  1  0  0  0
 48 56  1  0  0  0
 48 65  1  0  0  0
 48116  1  0  0  0
 49 50  1  0  0  0
 49 53  1  0  0  0
 49 64  1  0  0  0
 49117  1  0  0  0
 50 51  1  0  0  0
 50118  1  0  0  0
 50119  1  0  0  0
 51 52  1  0  0  0
 51120  1  0  0  0
 51121  1  0  0  0
 52122  1  0  0  0
 52123  1  0  0  0
 53 54  1  0  0  0
 54 55  2  0  0  0
 54124  1  0  0  0
 55 57  1  0  0  0
 55125  1  0  0  0
 56 69  2  0  0  0
 57 58  2  0  0  0
 57126  1  0  0  0
 58127  1  0  0  0
 59 60  1  0  0  0
 59 61  1  0  0  0
 59 62  1  0  0  0
 60128  1  0  0  0
 60129  1  0  0  0
 60130  1  0  0  0
 61131  1  0  0  0
 61132  1  0  0  0
 61133  1  0  0  0
 62134  1  0  0  0
 62135  1  0  0  0
 62136  1  0  0  0
 63 65  1  0  0  0
 63137  1  0  0  0
 63138  1  0  0  0
 63139  1  0  0  0
 64140  1  0  0  0
 65141  1  0  0  0
 68 80  1  0  0  0
 71 73  2  0  0  0
 71 75  1  0  0  0
 71142  1  0  0  0
 72 74  1  0  0  0
 72 75  2  0  0  0
 72143  1  0  0  0
 73 76  1  0  0  0
 73144  1  0  0  0
 74 76  2  0  0  0
 74145  1  0  0  0
 75 77  1  0  0  0
 76 81  1  0  0  0
 77 78  2  0  0  0
 77146  1  0  0  0
 78 79  1  0  0  0
 78147  1  0  0  0
 79 80  1  0  0  0
 79 82  2  0  0  0
 80148  1  0  0  0
 80149  1  0  0  0
 81150  1  0  0  0
M  ISO  4   1 100  68 101  80 101  81 100
M  END
> <chiral flag>
0

> <version>
0

> <s_m_source_file>
/data/baiqing/PycharmProjects/Reinvent-master-3.2/result/LINK_invent/BTK/process_docking_weight1_custom_product_contain_oxygen_bond_distance_aromatic_linkinvent_7_9_3/rearranged_h_0125.sdf

> <i_m_source_file_index>
24

> <r_mmod_Potential_Energy-OPLS-2005>
23.8420696258545

> <r_mmod_Stretch_Energy-OPLS-2005>
74.4892730712891

> <r_mmod_Bend_Energy-OPLS-2005>
126.707992553711

> <r_mmod_Torsional_Energy-OPLS-2005>
212.977691650391

> <r_mmod_Improper_Torsional_Energy-OPLS-2005>
3.77723622322083

> <r_mmod_Van_der_Waal_Energy-OPLS-2005>
147.550506591797

> <r_mmod_Electrostatic_Energy-OPLS-2005>
-355.719909667969

> <r_mmod_Solvation_Energy-OPLS-2005>
-232.577606201172

> <b_mmod_Minimization_Converged-OPLS-2005>
0

> <r_mmod_RMS_Derivative-OPLS-2005>
1.78848600387573

$$$$
24
                    3D
 Structure written by MMmdl.
162170  0  0  1  0            999 V2000
  -29.3301  -16.2876   20.9957 C   0  0  0  0  0  0
  -30.1814  -13.7083   19.8864 C   0  0  0  0  0  0
  -29.5604  -12.9900   18.6010 C   0  0  0  0  0  0
  -28.1815  -12.3904   18.8864 C   0  0  0  0  0  0
  -27.4981  -13.3355   19.8804 C   0  0  2  0  0  0
  -28.3009  -13.7297   21.1374 C   0  0  0  0  0  0
  -25.1690  -13.8248   20.5603 C   0  0  0  0  0  0
  -24.1238  -13.0364   20.9228 C   0  0  0  0  0  0
  -24.6038  -11.6890   20.8743 C   0  0  0  0  0  0
  -23.8940  -10.4251   21.0442 C   0  0  0  0  0  0
  -24.3589   -9.4197   21.9192 C   0  0  0  0  0  0
  -23.6296   -8.2222   22.0755 C   0  0  0  0  0  0
  -22.4267   -8.0263   21.3568 C   0  0  0  0  0  0
  -21.9876   -9.0205   20.4664 C   0  0  0  0  0  0
  -22.7168  -10.2084   20.3053 C   0  0  0  0  0  0
  -21.6845   -6.0772   22.5307 C   0  0  0  0  0  0
  -21.4005   -6.5678   23.8235 C   0  0  0  0  0  0
  -21.3640   -5.6825   24.9183 C   0  0  0  0  0  0
  -21.6016   -4.3080   24.7233 C   0  0  0  0  0  0
  -21.8825   -3.8186   23.4351 C   0  0  0  0  0  0
  -21.9193   -4.7013   22.3414 C   0  0  0  0  0  0
  -22.7347  -13.5129   21.1983 C   0  0  0  0  0  0
  -22.1675   -4.2206   21.0989 F   0  0  0  0  0  0
  -21.5597   -3.4543   25.7730 F   0  0  0  0  0  0
  -29.2498  -14.7545   20.7038 N   0  0  0  0  0  0
  -26.1918  -12.9483   20.2894 N   0  0  0  0  0  0
  -25.8891  -11.6594   20.5539 N   0  0  0  0  0  0
  -22.0100  -12.8089   22.0562 N   0  0  0  0  0  0
  -25.3393  -15.2030   20.4216 N   0  0  0  0  0  0
  -30.5608  -16.3156   20.6181 O   0  0  0  0  0  0
  -21.6641   -6.8869   21.4249 O   0  0  0  0  0  0
  -22.3067  -14.5454   20.6865 O   0  0  0  0  0  0
  -24.8246  -31.8155   23.2580 C   0  0  0  0  0  0
  -26.0269  -32.5091   23.9032 C   0  0  1  0  0  0
  -26.1179  -27.3694   20.1070 C   0  0  0  0  0  0
  -25.6332  -33.8764   24.2566 N   0  0  0  0  0  0
  -24.1265  -29.8081   21.9121 C   0  0  2  0  0  0
  -25.2095  -29.6997   19.6842 C   0  0  0  0  0  0
  -24.0552  -28.1200   22.4437 C   0  0  0  0  0  0
  -18.1930  -27.7538   22.7836 C   0  0  0  0  0  0
  -24.1495  -36.7295   23.2586 C   0  0  0  0  0  0
  -26.3422  -30.7439   21.6265 C   0  0  0  0  0  0
  -26.2742  -29.6571   20.5814 C   0  0  0  0  0  0
  -26.8430  -28.4062   20.7729 C   0  0  0  0  0  0
  -26.0353  -27.5816   18.7704 C   0  0  0  0  0  0
  -25.2213  -28.7349   18.6145 C   0  0  0  0  0  0
  -24.0263  -30.3897   20.3706 C   0  0  0  0  0  0
  -25.4117  -36.3114   24.0296 C   0  0  1  0  0  0
  -20.9209  -26.8486   22.5938 C   0  0  2  0  0  0
  -20.4038  -25.8942   21.6678 C   0  0  0  0  0  0
  -19.0536  -26.1858   21.0797 C   0  0  0  0  0  0
  -17.9684  -26.4682   22.0841 C   0  0  0  0  0  0
  -19.5651  -28.0339   23.1479 C   0  0  0  0  0  0
  -19.4719  -29.3216   23.8924 C   0  0  0  0  0  0
  -18.3015  -30.1748   24.0700 C   0  0  0  0  0  0
  -25.9129  -34.9518   23.5129 C   0  0  0  0  0  0
  -17.0270  -29.7805   23.6279 C   0  0  0  0  0  0
  -17.0036  -28.5323   23.0163 C   0  0  0  0  0  0
  -26.5169  -31.6928   25.1585 C   0  0  0  0  0  0
  -25.4033  -31.3940   26.1871 C   0  0  0  0  0  0
  -27.1521  -30.3324   24.7784 C   0  0  0  0  0  0
  -27.6377  -32.4826   25.8573 C   0  0  0  0  0  0
  -27.5548  -37.1845   24.8474 C   0  0  0  0  0  0
  -22.8546  -26.9141   22.1418 N   0  0  0  0  0  0
  -26.4283  -37.3807   23.9395 N   0  0  0  0  0  0
  -25.1055  -30.7713   22.4184 N   0  0  0  0  0  0
  -24.7894  -28.0586   23.3900 O   0  0  0  0  0  0
  -24.6765  -27.1717   20.2592 O   0  0  0  0  0  0
  -26.5608  -34.8933   22.4642 O   0  0  0  0  0  0
  -23.6847  -32.1394   23.6449 O   0  0  0  0  0  0
  -25.6073  -22.4300   23.1880 C   0  0  0  0  0  0
  -25.0764  -21.1868   21.2606 C   0  0  0  0  0  0
  -23.8171  -23.4263   21.9675 C   0  0  0  0  0  0
  -26.1217  -20.9777   22.2406 C   0  0  0  0  0  0
  -24.4507  -23.8359   23.1946 C   0  0  0  0  0  0
  -24.0770  -22.2504   21.1385 C   0  0  0  0  0  0
  -24.1704  -25.4915   25.3892 C   0  0  0  0  0  0
  -27.2484  -19.1989   21.6915 C   0  0  0  0  0  0
  -28.3061  -17.8178   21.7529 C   0  0  0  0  0  0
  -23.6406  -25.5995   24.1534 C   0  0  0  0  0  0
  -20.7105  -28.8495   20.7749 C   0  0  0  0  0  0
  -21.4124  -30.4725   22.1573 C   0  0  0  0  0  0
  -22.4465  -27.5641   24.2256 C   0  0  0  0  0  0
  -23.0096  -28.1009   20.1725 C   0  0  0  0  0  0
  -21.8206  -28.9208   21.9533 C   0  0  0  0  0  0
  -23.2494  -22.1213   20.0657 F   0  0  0  0  0  0
  -31.0780  -14.2224   19.5427 H   0  0  0  0  0  0
  -30.5849  -12.9514   20.5660 H   0  0  0  0  0  0
  -30.2377  -12.2351   18.1985 H   0  0  0  0  0  0
  -29.4517  -13.7404   17.8205 H   0  0  0  0  0  0
  -28.2879  -11.3948   19.3214 H   0  0  0  0  0  0
  -27.5995  -12.2761   17.9702 H   0  0  0  0  0  0
  -27.3544  -14.2395   19.2856 H   0  0  0  0  0  0
  -28.7375  -12.8676   21.6508 H   0  0  0  0  0  0
  -27.6538  -14.2085   21.8715 H   0  0  0  0  0  0
  -25.2728   -9.5735   22.4774 H   0  0  0  0  0  0
  -24.0053   -7.4614   22.7450 H   0  0  0  0  0  0
  -21.0825   -8.8730   19.8952 H   0  0  0  0  0  0
  -22.3644  -10.9645   19.6187 H   0  0  0  0  0  0
  -21.2006   -7.6184   23.9764 H   0  0  0  0  0  0
  -21.1437   -6.0538   25.9094 H   0  0  0  0  0  0
  -22.0613   -2.7649   23.2828 H   0  0  0  0  0  0
  -22.3845  -11.9754   22.4853 H   0  0  0  0  0  0
  -21.0737  -13.1089   22.2908 H   0  0  0  0  0  0
  -24.5878  -15.8645   20.5843 H   0  0  0  0  0  0
  -26.1835  -15.6413   20.0795 H   0  0  0  0  0  0
  -26.8693  -32.5832   23.2170 H   0  0  0  0  0  0
  -25.0252  -33.9795   25.0572 H   0  0  0  0  0  0
  -23.5098  -30.0999   22.7117 H   0  0  0  0  0  0
  -23.3736  -35.9623   23.3213 H   0  0  0  0  0  0
  -24.3596  -36.8959   22.1991 H   0  0  0  0  0  0
  -23.7245  -37.6504   23.6619 H   0  0  0  0  0  0
  -26.4863  -31.6987   21.1206 H   0  0  0  0  0  0
  -27.2319  -30.5764   22.2200 H   0  0  0  0  0  0
  -27.4333  -28.2059   21.6542 H   0  0  0  0  0  0
  -25.7966  -26.7900   18.0797 H   0  0  0  0  0  0
  -24.5160  -28.7575   17.7903 H   0  0  0  0  0  0
  -24.2397  -31.4607   20.3300 H   0  0  0  0  0  0
  -23.0664  -30.4338   19.8672 H   0  0  0  0  0  0
  -25.1279  -36.1944   25.0781 H   0  0  0  0  0  0
  -20.8526  -26.1593   23.4414 H   0  0  0  0  0  0
  -20.3433  -24.8964   22.1189 H   0  0  0  0  0  0
  -21.1047  -25.7342   20.8501 H   0  0  0  0  0  0
  -18.7579  -25.2741   20.5561 H   0  0  0  0  0  0
  -19.0123  -26.9245   20.2861 H   0  0  0  0  0  0
  -17.0207  -26.4999   21.5434 H   0  0  0  0  0  0
  -17.8786  -25.6690   22.8229 H   0  0  0  0  0  0
  -20.3810  -29.6597   24.3680 H   0  0  0  0  0  0
  -18.4069  -31.1033   24.6144 H   0  0  0  0  0  0
  -16.1373  -30.3826   23.7886 H   0  0  0  0  0  0
  -16.0390  -28.1599   22.6999 H   0  0  0  0  0  0
  -24.6650  -30.6863   25.8060 H   0  0  0  0  0  0
  -24.8864  -32.3027   26.4938 H   0  0  0  0  0  0
  -25.8222  -30.9472   27.0896 H   0  0  0  0  0  0
  -26.4646  -29.6535   24.2840 H   0  0  0  0  0  0
  -27.4727  -29.8009   25.6757 H   0  0  0  0  0  0
  -28.0464  -30.4487   24.1637 H   0  0  0  0  0  0
  -27.2834  -33.4278   26.2649 H   0  0  0  0  0  0
  -28.4597  -32.7128   25.1792 H   0  0  0  0  0  0
  -28.0537  -31.9312   26.7008 H   0  0  0  0  0  0
  -28.2586  -38.0119   24.7520 H   0  0  0  0  0  0
  -28.1043  -36.2667   24.6342 H   0  0  0  0  0  0
  -27.2250  -37.1514   25.8871 H   0  0  0  0  0  0
  -23.2471  -26.0182   22.3945 H   0  0  0  0  0  0
  -26.0132  -38.2867   24.1419 H   0  0  0  0  0  0
  -26.2108  -22.4896   24.0900 H   0  0  0  0  0  0
  -24.9975  -20.4300   20.4863 H   0  0  0  0  0  0
  -23.0034  -24.0431   21.6056 H   0  0  0  0  0  0
  -24.8025  -24.6640   25.6736 H   0  0  0  0  0  0
  -23.9959  -26.2363   26.1536 H   0  0  0  0  0  0
  -26.9453  -19.1200   20.6428 H   0  0  0  0  0  0
  -28.7018  -17.8332   22.7760 H   0  0  0  0  0  0
  -19.6744  -29.0868   20.9930 H   0  0  0  0  0  0
  -20.6909  -27.9518   20.1802 H   0  0  0  0  0  0
  -20.9323  -29.5801   19.9979 H   0  0  0  0  0  0
  -20.3633  -30.7456   22.0086 H   0  0  0  0  0  0
  -21.9309  -31.1647   21.4991 H   0  0  0  0  0  0
  -21.6188  -30.8123   23.1669 H   0  0  0  0  0  0
  -22.9763  -28.2406   24.9048 H   0  0  0  0  0  0
  -21.5987  -27.4125   24.8917 H   0  0  0  0  0  0
  -22.4899  -27.2082   19.8057 H   0  0  0  0  0  0
  -22.8098  -28.5872   19.2189 H   0  0  0  0  0  0
  1 25  1  0  0  0
  1 30  2  0  0  0
  1 79  1  0  0  0
  2  3  1  0  0  0
  2 25  1  0  0  0
  2 87  1  0  0  0
  2 88  1  0  0  0
  3  4  1  0  0  0
  3 89  1  0  0  0
  3 90  1  0  0  0
  4  5  1  0  0  0
  4 91  1  0  0  0
  4 92  1  0  0  0
  5  6  1  0  0  0
  5 26  1  0  0  0
  5 93  1  0  0  0
  6 25  1  0  0  0
  6 94  1  0  0  0
  6 95  1  0  0  0
  7  8  2  0  0  0
  7 26  1  0  0  0
  7 29  1  0  0  0
  8  9  1  0  0  0
  8 22  1  0  0  0
  9 10  1  0  0  0
  9 27  2  0  0  0
 10 11  2  0  0  0
 10 15  1  0  0  0
 11 12  1  0  0  0
 11 96  1  0  0  0
 12 13  2  0  0  0
 12 97  1  0  0  0
 13 14  1  0  0  0
 13 31  1  0  0  0
 14 15  2  0  0  0
 14 98  1  0  0  0
 15 99  1  0  0  0
 16 17  2  0  0  0
 16 21  1  0  0  0
 16 31  1  0  0  0
 17 18  1  0  0  0
 17100  1  0  0  0
 18 19  2  0  0  0
 18101  1  0  0  0
 19 20  1  0  0  0
 19 24  1  0  0  0
 20 21  2  0  0  0
 20102  1  0  0  0
 21 23  1  0  0  0
 22 28  1  0  0  0
 22 32  2  0  0  0
 26 27  1  0  0  0
 28103  1  0  0  0
 28104  1  0  0  0
 29105  1  0  0  0
 29106  1  0  0  0
 33 34  1  0  0  0
 33 66  1  0  0  0
 33 70  2  0  0  0
 34 36  1  0  0  0
 34 59  1  0  0  0
 34107  1  0  0  0
 35 44  2  0  0  0
 35 45  1  0  0  0
 35 68  1  0  0  0
 36 56  1  0  0  0
 36108  1  0  0  0
 37 39  1  0  0  0
 37 47  1  0  0  0
 37 66  1  0  0  0
 37109  1  0  0  0
 38 43  2  0  0  0
 38 46  1  0  0  0
 38 47  1  0  0  0
 39 64  1  0  0  0
 39 67  2  0  0  0
 40 52  1  0  0  0
 40 53  2  0  0  0
 40 58  1  0  0  0
 41110  1  0  0  0
 41111  1  0  0  0
 41112  1  0  0  0
 41 48  1  0  0  0
 42 43  1  0  0  0
 42 66  1  0  0  0
 42113  1  0  0  0
 42114  1  0  0  0
 43 44  1  0  0  0
 44115  1  0  0  0
 45 46  2  0  0  0
 45116  1  0  0  0
 46117  1  0  0  0
 47118  1  0  0  0
 47119  1  0  0  0
 48 56  1  0  0  0
 48 65  1  0  0  0
 48120  1  0  0  0
 49 50  1  0  0  0
 49 53  1  0  0  0
 49 64  1  0  0  0
 49121  1  0  0  0
 50 51  1  0  0  0
 50122  1  0  0  0
 50123  1  0  0  0
 51 52  1  0  0  0
 51124  1  0  0  0
 51125  1  0  0  0
 52126  1  0  0  0
 52127  1  0  0  0
 53 54  1  0  0  0
 54 55  2  0  0  0
 54128  1  0  0  0
 55 57  1  0  0  0
 55129  1  0  0  0
 56 69  2  0  0  0
 57 58  2  0  0  0
 57130  1  0  0  0
 58131  1  0  0  0
 59 60  1  0  0  0
 59 61  1  0  0  0
 59 62  1  0  0  0
 60132  1  0  0  0
 60133  1  0  0  0
 60134  1  0  0  0
 61135  1  0  0  0
 61136  1  0  0  0
 61137  1  0  0  0
 62138  1  0  0  0
 62139  1  0  0  0
 62140  1  0  0  0
 63 65  1  0  0  0
 63141  1  0  0  0
 63142  1  0  0  0
 63143  1  0  0  0
 64144  1  0  0  0
 65145  1  0  0  0
 68 84  1  0  0  0
 71 74  2  0  0  0
 71 75  1  0  0  0
 71146  1  0  0  0
 72 74  1  0  0  0
 72 76  2  0  0  0
 72147  1  0  0  0
 73 75  2  0  0  0
 73 76  1  0  0  0
 73148  1  0  0  0
 74 78  1  0  0  0
 75 80  1  0  0  0
 76 86  1  0  0  0
 77 80  2  0  0  0
 77149  1  0  0  0
 77150  1  0  0  0
 78 79  2  0  0  0
 78151  1  0  0  0
 79152  1  0  0  0
 80 83  1  0  0  0
 81153  1  0  0  0
 81154  1  0  0  0
 81155  1  0  0  0
 81 85  1  0  0  0
 82 85  1  0  0  0
 82156  1  0  0  0
 82157  1  0  0  0
 82158  1  0  0  0
 83 85  1  0  0  0
 83159  1  0  0  0
 83160  1  0  0  0
 84 85  1  0  0  0
 84161  1  0  0  0
 84162  1  0  0  0
M  ISO  4   1 100  68 101  79 100  84 101
M  END
> <chiral flag>
0

> <version>
0

> <s_m_source_file>
/data/baiqing/PycharmProjects/Reinvent-master-3.2/result/LINK_invent/BTK/process_docking_weight1_custom_product_contain_oxygen_bond_distance_aromatic_linkinvent_7_9_3/rearranged_h_0125.sdf

> <i_m_source_file_index>
25

> <r_mmod_Potential_Energy-OPLS-2005>
18139.02734375

> <r_mmod_Stretch_Energy-OPLS-2005>
7621.5810546875

> <r_mmod_Bend_Energy-OPLS-2005>
2080.2236328125

> <r_mmod_Torsional_Energy-OPLS-2005>
587.750122070312

> <r_mmod_Improper_Torsional_Energy-OPLS-2005>
71.3026428222656

> <r_mmod_Van_der_Waal_Energy-OPLS-2005>
2080.40405273438

> <r_mmod_Electrostatic_Energy-OPLS-2005>
-326.393096923828

> <r_mmod_Solvation_Energy-OPLS-2005>
-169.50456237793

> <b_mmod_Minimization_Converged-OPLS-2005>
0

> <r_mmod_RMS_Derivative-OPLS-2005>
13.3333024978638

$$$$
25
                    3D
 Structure written by MMmdl.
152160  0  0  1  0            999 V2000
  -30.7248  -14.4306   20.4993 C   0  0  0  0  0  0
  -30.4051  -12.2563   19.4392 C   0  0  0  0  0  0
  -29.4951  -12.4797   18.2133 C   0  0  0  0  0  0
  -28.0122  -12.3596   18.6159 C   0  0  0  0  0  0
  -27.6571  -13.2107   19.8651 C   0  0  2  0  0  0
  -28.6953  -13.0179   20.9928 C   0  0  0  0  0  0
  -25.2580  -13.8180   20.5684 C   0  0  0  0  0  0
  -24.1833  -13.0449   20.9172 C   0  0  0  0  0  0
  -24.6389  -11.6916   20.8724 C   0  0  0  0  0  0
  -23.9059  -10.4299   21.0397 C   0  0  0  0  0  0
  -24.3613   -9.4217   21.9177 C   0  0  0  0  0  0
  -23.6293   -8.2250   22.0751 C   0  0  0  0  0  0
  -22.4274   -8.0284   21.3544 C   0  0  0  0  0  0
  -21.9905   -9.0256   20.4645 C   0  0  0  0  0  0
  -22.7230  -10.2136   20.3051 C   0  0  0  0  0  0
  -21.6856   -6.0737   22.5280 C   0  0  0  0  0  0
  -21.4015   -6.5641   23.8212 C   0  0  0  0  0  0
  -21.3659   -5.6794   24.9175 C   0  0  0  0  0  0
  -21.6043   -4.3057   24.7225 C   0  0  0  0  0  0
  -21.8819   -3.8148   23.4347 C   0  0  0  0  0  0
  -21.9194   -4.6965   22.3403 C   0  0  0  0  0  0
  -22.7856  -13.5242   21.1842 C   0  0  0  0  0  0
  -22.1662   -4.2150   21.0981 F   0  0  0  0  0  0
  -21.5629   -3.4540   25.7737 F   0  0  0  0  0  0
  -30.0352  -13.2634   20.4434 N   0  0  0  0  0  0
  -26.3004  -12.9354   20.3322 N   0  0  0  0  0  0
  -25.9313  -11.6509   20.5742 N   0  0  0  0  0  0
  -22.0502  -12.8233   22.0401 N   0  0  0  0  0  0
  -25.4323  -15.1898   20.4132 N   0  0  0  0  0  0
  -31.9068  -14.5196   20.1586 O   0  0  0  0  0  0
  -21.6641   -6.8879   21.4242 O   0  0  0  0  0  0
  -22.3535  -14.5546   20.6693 O   0  0  0  0  0  0
  -24.6113  -31.8710   23.2126 C   0  0  0  0  0  0
  -25.9021  -32.4837   23.8411 C   0  0  1  0  0  0
  -27.2309  -27.4656   20.0936 C   0  0  0  0  0  0
  -25.5892  -33.8635   24.2345 N   0  0  0  0  0  0
  -23.3966  -30.4952   21.5533 C   0  0  2  0  0  0
  -24.8409  -28.9640   20.1178 C   0  0  0  0  0  0
  -22.7388  -29.4674   22.5013 C   0  0  0  0  0  0
  -18.0267  -28.1373   22.8496 C   0  0  0  0  0  0
  -24.1487  -36.7324   23.2637 C   0  0  0  0  0  0
  -25.9219  -30.8479   21.3585 C   0  0  0  0  0  0
  -26.0001  -29.4848   20.7062 C   0  0  0  0  0  0
  -27.2005  -28.7446   20.6859 C   0  0  0  0  0  0
  -26.0542  -26.9485   19.5072 C   0  0  0  0  0  0
  -24.8611  -27.6939   19.5159 C   0  0  0  0  0  0
  -23.6020  -29.8273   20.1677 C   0  0  0  0  0  0
  -25.4105  -36.3122   24.0341 C   0  0  1  0  0  0
  -20.5854  -28.3654   23.1333 C   0  0  2  0  0  0
  -20.6760  -26.9396   22.5422 C   0  0  0  0  0  0
  -19.5740  -26.6387   21.5215 C   0  0  0  0  0  0
  -18.1917  -26.7922   22.1624 C   0  0  0  0  0  0
  -19.1515  -28.8830   23.2913 C   0  0  0  0  0  0
  -18.9445  -30.1439   23.8920 C   0  0  0  0  0  0
  -17.6449  -30.6583   24.0567 C   0  0  0  0  0  0
  -25.9030  -34.9485   23.5139 C   0  0  0  0  0  0
  -16.5340  -29.9087   23.6323 C   0  0  0  0  0  0
  -16.7257  -28.6502   23.0347 C   0  0  0  0  0  0
  -26.4462  -31.6603   25.0723 C   0  0  0  0  0  0
  -25.3743  -31.3700   26.1483 C   0  0  0  0  0  0
  -27.0281  -30.3051   24.6067 C   0  0  0  0  0  0
  -27.6054  -32.4308   25.7474 C   0  0  0  0  0  0
  -27.5585  -37.1811   24.8462 C   0  0  0  0  0  0
  -21.4121  -29.3030   22.3747 N   0  0  0  0  0  0
  -26.4295  -37.3802   23.9411 N   0  0  0  0  0  0
  -24.6617  -31.0843   22.1008 N   0  0  0  0  0  0
  -23.4178  -28.8216   23.3041 O   0  0  0  0  0  0
  -28.4095  -26.7609   20.0860 O   0  0  0  0  0  0
  -26.5590  -34.8930   22.4698 O   0  0  0  0  0  0
  -23.5316  -32.1445   23.7544 O   0  0  0  0  0  0
  -28.6509  -19.9806   20.4128 C   0  0  0  0  0  0
  -29.0270  -19.7565   18.0217 C   0  0  0  0  0  0
  -28.9928  -18.6223   20.5965 C   0  0  0  0  0  0
  -29.3814  -18.4106   18.2057 C   0  0  0  0  0  0
  -28.6916  -20.5650   19.1242 C   0  0  0  0  0  0
  -29.4099  -17.8442   19.4956 C   0  0  0  0  0  0
  -28.5063  -22.0034   18.8785 C   0  0  0  0  0  0
  -29.9536  -16.4882   19.6211 C   0  0  0  0  0  0
  -28.5021  -22.9789   19.8071 C   0  0  0  0  0  0
  -29.9290  -15.6354   20.6679 C   0  0  0  0  0  0
  -28.3718  -24.3952   19.4266 C   0  0  0  0  0  0
  -28.3246  -25.4169   20.5695 C   0  0  0  0  0  0
  -28.3158  -24.7763   18.2509 O   0  0  0  0  0  0
  -31.4553  -12.3109   19.1470 H   0  0  0  0  0  0
  -30.2619  -11.2539   19.8457 H   0  0  0  0  0  0
  -29.7292  -11.7536   17.4338 H   0  0  0  0  0  0
  -29.6838  -13.4644   17.7825 H   0  0  0  0  0  0
  -27.8106  -11.3066   18.8152 H   0  0  0  0  0  0
  -27.3709  -12.6367   17.7785 H   0  0  0  0  0  0
  -27.6940  -14.2539   19.5520 H   0  0  0  0  0  0
  -28.6468  -12.0018   21.3865 H   0  0  0  0  0  0
  -28.4794  -13.6748   21.8363 H   0  0  0  0  0  0
  -25.2759   -9.5697   22.4749 H   0  0  0  0  0  0
  -24.0008   -7.4646   22.7472 H   0  0  0  0  0  0
  -21.0834   -8.8774   19.8953 H   0  0  0  0  0  0
  -22.3687  -10.9675   19.6161 H   0  0  0  0  0  0
  -21.2006   -7.6149   23.9714 H   0  0  0  0  0  0
  -21.1481   -6.0525   25.9078 H   0  0  0  0  0  0
  -22.0596   -2.7609   23.2850 H   0  0  0  0  0  0
  -22.4124  -11.9896   22.4787 H   0  0  0  0  0  0
  -21.1122  -13.1260   22.2617 H   0  0  0  0  0  0
  -24.6727  -15.8511   20.5314 H   0  0  0  0  0  0
  -26.2979  -15.6279   20.1228 H   0  0  0  0  0  0
  -26.7096  -32.5563   23.1183 H   0  0  0  0  0  0
  -25.0051  -33.9806   25.0495 H   0  0  0  0  0  0
  -22.6835  -31.3107   21.4164 H   0  0  0  0  0  0
  -23.3748  -35.9658   23.3302 H   0  0  0  0  0  0
  -24.3585  -36.8934   22.2051 H   0  0  0  0  0  0
  -23.7238  -37.6530   23.6646 H   0  0  0  0  0  0
  -26.0273  -31.6154   20.5905 H   0  0  0  0  0  0
  -26.8126  -30.9026   21.9727 H   0  0  0  0  0  0
  -28.0993  -29.1462   21.1332 H   0  0  0  0  0  0
  -26.0511  -25.9798   19.0297 H   0  0  0  0  0  0
  -23.9691  -27.2875   19.0590 H   0  0  0  0  0  0
  -23.7073  -30.6019   19.4072 H   0  0  0  0  0  0
  -22.7267  -29.2450   19.8740 H   0  0  0  0  0  0
  -25.1278  -36.1994   25.0834 H   0  0  0  0  0  0
  -20.9945  -28.3216   24.1454 H   0  0  0  0  0  0
  -20.5667  -26.2260   23.3602 H   0  0  0  0  0  0
  -21.6632  -26.7448   22.1212 H   0  0  0  0  0  0
  -19.6903  -25.6303   21.1229 H   0  0  0  0  0  0
  -19.6681  -27.3211   20.6756 H   0  0  0  0  0  0
  -17.4189  -26.6676   21.4023 H   0  0  0  0  0  0
  -18.0315  -26.0057   22.9012 H   0  0  0  0  0  0
  -19.7922  -30.7248   24.2299 H   0  0  0  0  0  0
  -17.5005  -31.6265   24.5164 H   0  0  0  0  0  0
  -15.5342  -30.2997   23.7634 H   0  0  0  0  0  0
  -15.8657  -28.0830   22.7048 H   0  0  0  0  0  0
  -24.5904  -30.7060   25.7822 H   0  0  0  0  0  0
  -24.8948  -32.2854   26.4961 H   0  0  0  0  0  0
  -25.8107  -30.8846   27.0221 H   0  0  0  0  0  0
  -26.2807  -29.6821   24.1138 H   0  0  0  0  0  0
  -27.4083  -29.7276   25.4503 H   0  0  0  0  0  0
  -27.8629  -30.4380   23.9181 H   0  0  0  0  0  0
  -27.2692  -33.3599   26.2089 H   0  0  0  0  0  0
  -28.3842  -32.6879   25.0281 H   0  0  0  0  0  0
  -28.0746  -31.8405   26.5357 H   0  0  0  0  0  0
  -28.2602  -38.0110   24.7520 H   0  0  0  0  0  0
  -28.1082  -36.2644   24.6271 H   0  0  0  0  0  0
  -27.2306  -37.1445   25.8866 H   0  0  0  0  0  0
  -20.9273  -29.8755   21.6979 H   0  0  0  0  0  0
  -26.0189  -38.2882   24.1416 H   0  0  0  0  0  0
  -28.3908  -20.5713   21.2790 H   0  0  0  0  0  0
  -29.0674  -20.1777   17.0266 H   0  0  0  0  0  0
  -28.9980  -18.2076   21.5946 H   0  0  0  0  0  0
  -29.6844  -17.8293   17.3458 H   0  0  0  0  0  0
  -28.3753  -22.2802   17.8405 H   0  0  0  0  0  0
  -30.4936  -16.1674   18.7378 H   0  0  0  0  0  0
  -28.6153  -22.7577   20.8576 H   0  0  0  0  0  0
  -29.3967  -15.8433   21.5836 H   0  0  0  0  0  0
  -29.1726  -25.2360   21.2301 H   0  0  0  0  0  0
  -27.4238  -25.2604   21.1647 H   0  0  0  0  0  0
  1 25  1  0  0  0
  1 30  2  0  0  0
  1 80  1  0  0  0
  2  3  1  0  0  0
  2 25  1  0  0  0
  2 84  1  0  0  0
  2 85  1  0  0  0
  3  4  1  0  0  0
  3 86  1  0  0  0
  3 87  1  0  0  0
  4  5  1  0  0  0
  4 88  1  0  0  0
  4 89  1  0  0  0
  5  6  1  0  0  0
  5 26  1  0  0  0
  5 90  1  0  0  0
  6 25  1  0  0  0
  6 91  1  0  0  0
  6 92  1  0  0  0
  7  8  2  0  0  0
  7 26  1  0  0  0
  7 29  1  0  0  0
  8  9  1  0  0  0
  8 22  1  0  0  0
  9 10  1  0  0  0
  9 27  2  0  0  0
 10 11  2  0  0  0
 10 15  1  0  0  0
 11 12  1  0  0  0
 11 93  1  0  0  0
 12 13  2  0  0  0
 12 94  1  0  0  0
 13 14  1  0  0  0
 13 31  1  0  0  0
 14 15  2  0  0  0
 14 95  1  0  0  0
 15 96  1  0  0  0
 16 17  2  0  0  0
 16 21  1  0  0  0
 16 31  1  0  0  0
 17 18  1  0  0  0
 17 97  1  0  0  0
 18 19  2  0  0  0
 18 98  1  0  0  0
 19 20  1  0  0  0
 19 24  1  0  0  0
 20 21  2  0  0  0
 20 99  1  0  0  0
 21 23  1  0  0  0
 22 28  1  0  0  0
 22 32  2  0  0  0
 26 27  1  0  0  0
 28100  1  0  0  0
 28101  1  0  0  0
 29102  1  0  0  0
 29103  1  0  0  0
 33 34  1  0  0  0
 33 66  1  0  0  0
 33 70  2  0  0  0
 34 36  1  0  0  0
 34 59  1  0  0  0
 34104  1  0  0  0
 35 44  2  0  0  0
 35 45  1  0  0  0
 35 68  1  0  0  0
 36 56  1  0  0  0
 36105  1  0  0  0
 37 39  1  0  0  0
 37 47  1  0  0  0
 37 66  1  0  0  0
 37106  1  0  0  0
 38 43  2  0  0  0
 38 46  1  0  0  0
 38 47  1  0  0  0
 39 64  1  0  0  0
 39 67  2  0  0  0
 40 52  1  0  0  0
 40 53  2  0  0  0
 40 58  1  0  0  0
 41107  1  0  0  0
 41108  1  0  0  0
 41109  1  0  0  0
 41 48  1  0  0  0
 42 43  1  0  0  0
 42 66  1  0  0  0
 42110  1  0  0  0
 42111  1  0  0  0
 43 44  1  0  0  0
 44112  1  0  0  0
 45 46  2  0  0  0
 45113  1  0  0  0
 46114  1  0  0  0
 47115  1  0  0  0
 47116  1  0  0  0
 48 56  1  0  0  0
 48 65  1  0  0  0
 48117  1  0  0  0
 49 50  1  0  0  0
 49 53  1  0  0  0
 49 64  1  0  0  0
 49118  1  0  0  0
 50 51  1  0  0  0
 50119  1  0  0  0
 50120  1  0  0  0
 51 52  1  0  0  0
 51121  1  0  0  0
 51122  1  0  0  0
 52123  1  0  0  0
 52124  1  0  0  0
 53 54  1  0  0  0
 54 55  2  0  0  0
 54125  1  0  0  0
 55 57  1  0  0  0
 55126  1  0  0  0
 56 69  2  0  0  0
 57 58  2  0  0  0
 57127  1  0  0  0
 58128  1  0  0  0
 59 60  1  0  0  0
 59 61  1  0  0  0
 59 62  1  0  0  0
 60129  1  0  0  0
 60130  1  0  0  0
 60131  1  0  0  0
 61132  1  0  0  0
 61133  1  0  0  0
 61134  1  0  0  0
 62135  1  0  0  0
 62136  1  0  0  0
 62137  1  0  0  0
 63 65  1  0  0  0
 63138  1  0  0  0
 63139  1  0  0  0
 63140  1  0  0  0
 64141  1  0  0  0
 65142  1  0  0  0
 68 82  1  0  0  0
 71 73  2  0  0  0
 71 75  1  0  0  0
 71143  1  0  0  0
 72 74  1  0  0  0
 72 75  2  0  0  0
 72144  1  0  0  0
 73 76  1  0  0  0
 73145  1  0  0  0
 74 76  2  0  0  0
 74146  1  0  0  0
 75 77  1  0  0  0
 76 78  1  0  0  0
 77 79  2  0  0  0
 77147  1  0  0  0
 78 80  2  0  0  0
 78148  1  0  0  0
 79 81  1  0  0  0
 79149  1  0  0  0
 80150  1  0  0  0
 81 82  1  0  0  0
 81 83  2  0  0  0
 82151  1  0  0  0
 82152  1  0  0  0
M  ISO  4   1 100  68 101  80 100  82 101
M  END
> <chiral flag>
0

> <version>
0

> <s_m_source_file>
/data/baiqing/PycharmProjects/Reinvent-master-3.2/result/LINK_invent/BTK/process_docking_weight1_custom_product_contain_oxygen_bond_distance_aromatic_linkinvent_7_9_3/rearranged_h_0125.sdf

> <i_m_source_file_index>
26

> <r_mmod_Potential_Energy-OPLS-2005>
-3.71305370330811

> <r_mmod_Stretch_Energy-OPLS-2005>
31.0262031555176

> <r_mmod_Bend_Energy-OPLS-2005>
95.3743515014648

> <r_mmod_Torsional_Energy-OPLS-2005>
223.386169433594

> <r_mmod_Improper_Torsional_Energy-OPLS-2005>
8.48616027832031

> <r_mmod_Van_der_Waal_Energy-OPLS-2005>
158.798187255859

> <r_mmod_Electrostatic_Energy-OPLS-2005>
-324.685516357422

> <r_mmod_Solvation_Energy-OPLS-2005>
-212.663970947266

> <b_mmod_Minimization_Converged-OPLS-2005>
0

> <r_mmod_RMS_Derivative-OPLS-2005>
0.274206280708313

$$$$
26
                    3D
 Structure written by MMmdl.
156164  0  0  1  0            999 V2000
  -30.5892  -14.7814   20.4459 C   0  0  0  0  0  0
  -30.4382  -12.4751   19.4767 C   0  0  0  0  0  0
  -29.5114  -12.5045   18.2410 C   0  0  0  0  0  0
  -28.0385  -12.3195   18.6595 C   0  0  0  0  0  0
  -27.6356  -13.2324   19.8475 C   0  0  2  0  0  0
  -28.6834  -13.1853   20.9805 C   0  0  0  0  0  0
  -25.2491  -13.8190   20.5770 C   0  0  0  0  0  0
  -24.1780  -13.0415   20.9239 C   0  0  0  0  0  0
  -24.6371  -11.6907   20.8753 C   0  0  0  0  0  0
  -23.9044  -10.4283   21.0414 C   0  0  0  0  0  0
  -24.3596   -9.4192   21.9185 C   0  0  0  0  0  0
  -23.6271   -8.2229   22.0753 C   0  0  0  0  0  0
  -22.4256   -8.0265   21.3552 C   0  0  0  0  0  0
  -21.9887   -9.0232   20.4655 C   0  0  0  0  0  0
  -22.7210  -10.2116   20.3059 C   0  0  0  0  0  0
  -21.6849   -6.0729   22.5282 C   0  0  0  0  0  0
  -21.4004   -6.5636   23.8218 C   0  0  0  0  0  0
  -21.3657   -5.6802   24.9185 C   0  0  0  0  0  0
  -21.6041   -4.3059   24.7239 C   0  0  0  0  0  0
  -21.8811   -3.8150   23.4357 C   0  0  0  0  0  0
  -21.9177   -4.6960   22.3405 C   0  0  0  0  0  0
  -22.7816  -13.5203   21.1920 C   0  0  0  0  0  0
  -22.1655   -4.2131   21.0989 F   0  0  0  0  0  0
  -21.5632   -3.4534   25.7759 F   0  0  0  0  0  0
  -29.9823  -13.5441   20.3929 N   0  0  0  0  0  0
  -26.2894  -12.9385   20.3302 N   0  0  0  0  0  0
  -25.9295  -11.6518   20.5732 N   0  0  0  0  0  0
  -22.0476  -12.8167   22.0481 N   0  0  0  0  0  0
  -25.4176  -15.1914   20.4242 N   0  0  0  0  0  0
  -31.7885  -14.8936   20.1800 O   0  0  0  0  0  0
  -21.6623   -6.8857   21.4249 O   0  0  0  0  0  0
  -22.3481  -14.5492   20.6774 O   0  0  0  0  0  0
  -24.6371  -31.8556   23.1964 C   0  0  0  0  0  0
  -25.9164  -32.4729   23.8360 C   0  0  1  0  0  0
  -27.2335  -27.2575   20.1325 C   0  0  0  0  0  0
  -25.5941  -33.8527   24.2323 N   0  0  0  0  0  0
  -23.4396  -30.4800   21.5367 C   0  0  2  0  0  0
  -24.8902  -28.9211   20.1085 C   0  0  0  0  0  0
  -22.7525  -29.4649   22.4844 C   0  0  0  0  0  0
  -18.0270  -28.1414   22.8482 C   0  0  0  0  0  0
  -24.1497  -36.7262   23.2635 C   0  0  0  0  0  0
  -25.9862  -30.7650   21.3788 C   0  0  0  0  0  0
  -26.0598  -29.3851   20.7241 C   0  0  0  0  0  0
  -27.2386  -28.5693   20.7193 C   0  0  0  0  0  0
  -26.0465  -26.8671   19.4773 C   0  0  0  0  0  0
  -24.8888  -27.6734   19.4688 C   0  0  0  0  0  0
  -23.6634  -29.8130   20.1527 C   0  0  0  0  0  0
  -25.4112  -36.3089   24.0369 C   0  0  1  0  0  0
  -20.5885  -28.3788   23.1174 C   0  0  2  0  0  0
  -20.6747  -26.9479   22.5368 C   0  0  0  0  0  0
  -19.5692  -26.6404   21.5213 C   0  0  0  0  0  0
  -18.1887  -26.7950   22.1632 C   0  0  0  0  0  0
  -19.1530  -28.8911   23.2825 C   0  0  0  0  0  0
  -18.9428  -30.1494   23.8858 C   0  0  0  0  0  0
  -17.6426  -30.6581   24.0581 C   0  0  0  0  0  0
  -25.9053  -34.9426   23.5174 C   0  0  0  0  0  0
  -16.5319  -29.9100   23.6325 C   0  0  0  0  0  0
  -16.7256  -28.6514   23.0351 C   0  0  0  0  0  0
  -26.4496  -31.6526   25.0742 C   0  0  0  0  0  0
  -25.3735  -31.3647   26.1482 C   0  0  0  0  0  0
  -27.0301  -30.2949   24.6186 C   0  0  0  0  0  0
  -27.6082  -32.4252   25.7479 C   0  0  0  0  0  0
  -27.5608  -37.1822   24.8470 C   0  0  0  0  0  0
  -21.4225  -29.3127   22.3536 N   0  0  0  0  0  0
  -26.4305  -37.3790   23.9424 N   0  0  0  0  0  0
  -24.7065  -31.0529   22.0932 N   0  0  0  0  0  0
  -23.4172  -28.8194   23.2978 O   0  0  0  0  0  0
  -28.3059  -26.3348   20.1638 O   0  0  0  0  0  0
  -26.5625  -34.8877   22.4731 O   0  0  0  0  0  0
  -23.5515  -32.1349   23.7266 O   0  0  0  0  0  0
  -27.9382  -20.1112   22.7969 C   0  0  0  0  0  0
  -27.4533  -19.2269   23.7674 C   0  0  0  0  0  0
  -28.5979  -17.4434   22.6447 C   0  0  0  0  0  0
  -28.7328  -19.7425   21.6679 C   0  0  0  0  0  0
  -27.7942  -17.8844   23.6971 C   0  0  0  0  0  0
  -29.0758  -18.2854   21.5980 C   0  0  0  0  0  0
  -29.0609  -20.9983   20.7845 C   0  0  0  0  0  0
  -28.5538  -22.3029   20.9457 C   0  0  0  0  0  0
  -28.8104  -23.6489   20.2318 C   0  0  0  0  0  0
  -27.3601  -16.9352   24.7928 C   0  0  0  0  0  0
  -29.9584  -17.4265   20.5859 C   0  0  0  0  0  0
  -27.9888  -24.9590   20.6991 C   0  0  0  0  0  0
  -29.7608  -15.8892   20.5843 N   0  0  0  0  0  0
  -29.6230  -23.7460   19.3059 O   0  0  0  0  0  0
  -31.4776  -12.6140   19.1767 H   0  0  0  0  0  0
  -30.3921  -11.5069   19.9754 H   0  0  0  0  0  0
  -29.8004  -11.7291   17.5312 H   0  0  0  0  0  0
  -29.6259  -13.4550   17.7175 H   0  0  0  0  0  0
  -27.9155  -11.2744   18.9455 H   0  0  0  0  0  0
  -27.3744  -12.4809   17.8090 H   0  0  0  0  0  0
  -27.6174  -14.2457   19.4468 H   0  0  0  0  0  0
  -28.7276  -12.1940   21.4310 H   0  0  0  0  0  0
  -28.4124  -13.8748   21.7816 H   0  0  0  0  0  0
  -25.2735   -9.5660   22.4757 H   0  0  0  0  0  0
  -23.9983   -7.4606   22.7446 H   0  0  0  0  0  0
  -21.0832   -8.8742   19.8932 H   0  0  0  0  0  0
  -22.3673  -10.9661   19.6163 H   0  0  0  0  0  0
  -21.2006   -7.6138   23.9716 H   0  0  0  0  0  0
  -21.1500   -6.0532   25.9084 H   0  0  0  0  0  0
  -22.0591   -2.7593   23.2873 H   0  0  0  0  0  0
  -22.4089  -11.9796   22.4811 H   0  0  0  0  0  0
  -21.1090  -13.1183   22.2717 H   0  0  0  0  0  0
  -24.6572  -15.8462   20.5717 H   0  0  0  0  0  0
  -26.2646  -15.6441   20.1077 H   0  0  0  0  0  0
  -26.7286  -32.5413   23.1144 H   0  0  0  0  0  0
  -25.0251  -33.9644   25.0594 H   0  0  0  0  0  0
  -22.7464  -31.3092   21.3800 H   0  0  0  0  0  0
  -23.3785  -35.9585   23.3277 H   0  0  0  0  0  0
  -24.3607  -36.8868   22.2056 H   0  0  0  0  0  0
  -23.7201  -37.6444   23.6610 H   0  0  0  0  0  0
  -26.1287  -31.5158   20.6017 H   0  0  0  0  0  0
  -26.8639  -30.8200   22.0115 H   0  0  0  0  0  0
  -28.1337  -28.9289   21.2089 H   0  0  0  0  0  0
  -26.0103  -25.9138   18.9720 H   0  0  0  0  0  0
  -24.0006  -27.3208   18.9627 H   0  0  0  0  0  0
  -23.8004  -30.5934   19.4032 H   0  0  0  0  0  0
  -22.7839  -29.2520   19.8346 H   0  0  0  0  0  0
  -25.1265  -36.2010   25.0863 H   0  0  0  0  0  0
  -20.9975  -28.3408   24.1295 H   0  0  0  0  0  0
  -20.5637  -26.2428   23.3615 H   0  0  0  0  0  0
  -21.6609  -26.7468   22.1152 H   0  0  0  0  0  0
  -19.6830  -25.6316   21.1249 H   0  0  0  0  0  0
  -19.6587  -27.3201   20.6722 H   0  0  0  0  0  0
  -17.4144  -26.6769   21.4037 H   0  0  0  0  0  0
  -18.0260  -26.0065   22.8993 H   0  0  0  0  0  0
  -19.7898  -30.7298   24.2245 H   0  0  0  0  0  0
  -17.4962  -31.6236   24.5204 H   0  0  0  0  0  0
  -15.5324  -30.2991   23.7606 H   0  0  0  0  0  0
  -15.8665  -28.0812   22.7075 H   0  0  0  0  0  0
  -24.5930  -30.6970   25.7815 H   0  0  0  0  0  0
  -24.8871  -32.2772   26.4930 H   0  0  0  0  0  0
  -25.8077  -30.8823   27.0261 H   0  0  0  0  0  0
  -26.2841  -29.6744   24.1205 H   0  0  0  0  0  0
  -27.3991  -29.7189   25.4689 H   0  0  0  0  0  0
  -27.8740  -30.4227   23.9412 H   0  0  0  0  0  0
  -27.2763  -33.3610   26.1978 H   0  0  0  0  0  0
  -28.3889  -32.6688   25.0255 H   0  0  0  0  0  0
  -28.0750  -31.8406   26.5427 H   0  0  0  0  0  0
  -28.2616  -38.0126   24.7508 H   0  0  0  0  0  0
  -28.1095  -36.2646   24.6291 H   0  0  0  0  0  0
  -27.2303  -37.1472   25.8869 H   0  0  0  0  0  0
  -20.9489  -29.8853   21.6686 H   0  0  0  0  0  0
  -26.0221  -38.2894   24.1376 H   0  0  0  0  0  0
  -27.6628  -21.1218   23.0274 H   0  0  0  0  0  0
  -26.8505  -19.5987   24.5858 H   0  0  0  0  0  0
  -28.8678  -16.4019   22.6990 H   0  0  0  0  0  0
  -29.7698  -20.8339   19.9852 H   0  0  0  0  0  0
  -27.8314  -22.4879   21.7140 H   0  0  0  0  0  0
  -26.4639  -17.3022   25.2942 H   0  0  0  0  0  0
  -28.1593  -16.8651   25.5301 H   0  0  0  0  0  0
  -27.1543  -15.9375   24.4065 H   0  0  0  0  0  0
  -31.0033  -17.6372   20.8142 H   0  0  0  0  0  0
  -29.7934  -17.8063   19.5758 H   0  0  0  0  0  0
  -28.1081  -25.0283   21.7816 H   0  0  0  0  0  0
  -26.9348  -24.7361   20.5395 H   0  0  0  0  0  0
  -28.7929  -15.6257   20.6647 H   0  0  0  0  0  0
  1 25  1  0  0  0
  1 30  2  0  0  0
  1 83  1  0  0  0
  2  3  1  0  0  0
  2 25  1  0  0  0
  2 85  1  0  0  0
  2 86  1  0  0  0
  3  4  1  0  0  0
  3 87  1  0  0  0
  3 88  1  0  0  0
  4  5  1  0  0  0
  4 89  1  0  0  0
  4 90  1  0  0  0
  5  6  1  0  0  0
  5 26  1  0  0  0
  5 91  1  0  0  0
  6 25  1  0  0  0
  6 92  1  0  0  0
  6 93  1  0  0  0
  7  8  2  0  0  0
  7 26  1  0  0  0
  7 29  1  0  0  0
  8  9  1  0  0  0
  8 22  1  0  0  0
  9 10  1  0  0  0
  9 27  2  0  0  0
 10 11  2  0  0  0
 10 15  1  0  0  0
 11 12  1  0  0  0
 11 94  1  0  0  0
 12 13  2  0  0  0
 12 95  1  0  0  0
 13 14  1  0  0  0
 13 31  1  0  0  0
 14 15  2  0  0  0
 14 96  1  0  0  0
 15 97  1  0  0  0
 16 17  2  0  0  0
 16 21  1  0  0  0
 16 31  1  0  0  0
 17 18  1  0  0  0
 17 98  1  0  0  0
 18 19  2  0  0  0
 18 99  1  0  0  0
 19 20  1  0  0  0
 19 24  1  0  0  0
 20 21  2  0  0  0
 20100  1  0  0  0
 21 23  1  0  0  0
 22 28  1  0  0  0
 22 32  2  0  0  0
 26 27  1  0  0  0
 28101  1  0  0  0
 28102  1  0  0  0
 29103  1  0  0  0
 29104  1  0  0  0
 33 34  1  0  0  0
 33 66  1  0  0  0
 33 70  2  0  0  0
 34 36  1  0  0  0
 34 59  1  0  0  0
 34105  1  0  0  0
 35 44  2  0  0  0
 35 45  1  0  0  0
 35 68  1  0  0  0
 36 56  1  0  0  0
 36106  1  0  0  0
 37 39  1  0  0  0
 37 47  1  0  0  0
 37 66  1  0  0  0
 37107  1  0  0  0
 38 43  2  0  0  0
 38 46  1  0  0  0
 38 47  1  0  0  0
 39 64  1  0  0  0
 39 67  2  0  0  0
 40 52  1  0  0  0
 40 53  2  0  0  0
 40 58  1  0  0  0
 41108  1  0  0  0
 41109  1  0  0  0
 41110  1  0  0  0
 41 48  1  0  0  0
 42 43  1  0  0  0
 42 66  1  0  0  0
 42111  1  0  0  0
 42112  1  0  0  0
 43 44  1  0  0  0
 44113  1  0  0  0
 45 46  2  0  0  0
 45114  1  0  0  0
 46115  1  0  0  0
 47116  1  0  0  0
 47117  1  0  0  0
 48 56  1  0  0  0
 48 65  1  0  0  0
 48118  1  0  0  0
 49 50  1  0  0  0
 49 53  1  0  0  0
 49 64  1  0  0  0
 49119  1  0  0  0
 50 51  1  0  0  0
 50120  1  0  0  0
 50121  1  0  0  0
 51 52  1  0  0  0
 51122  1  0  0  0
 51123  1  0  0  0
 52124  1  0  0  0
 52125  1  0  0  0
 53 54  1  0  0  0
 54 55  2  0  0  0
 54126  1  0  0  0
 55 57  1  0  0  0
 55127  1  0  0  0
 56 69  2  0  0  0
 57 58  2  0  0  0
 57128  1  0  0  0
 58129  1  0  0  0
 59 60  1  0  0  0
 59 61  1  0  0  0
 59 62  1  0  0  0
 60130  1  0  0  0
 60131  1  0  0  0
 60132  1  0  0  0
 61133  1  0  0  0
 61134  1  0  0  0
 61135  1  0  0  0
 62136  1  0  0  0
 62137  1  0  0  0
 62138  1  0  0  0
 63 65  1  0  0  0
 63139  1  0  0  0
 63140  1  0  0  0
 63141  1  0  0  0
 64142  1  0  0  0
 65143  1  0  0  0
 68 82  1  0  0  0
 71 72  2  0  0  0
 71 74  1  0  0  0
 71144  1  0  0  0
 72 75  1  0  0  0
 72145  1  0  0  0
 73 75  2  0  0  0
 73 76  1  0  0  0
 73146  1  0  0  0
 74 76  2  0  0  0
 74 77  1  0  0  0
 75 80  1  0  0  0
 76 81  1  0  0  0
 77 78  2  0  0  0
 77147  1  0  0  0
 78 79  1  0  0  0
 78148  1  0  0  0
 79 82  1  0  0  0
 79 84  2  0  0  0
 80149  1  0  0  0
 80150  1  0  0  0
 80151  1  0  0  0
 81 83  1  0  0  0
 81152  1  0  0  0
 81153  1  0  0  0
 82154  1  0  0  0
 82155  1  0  0  0
 83156  1  0  0  0
M  ISO  4   1 100  68 101  82 101  83 100
M  END
> <chiral flag>
0

> <version>
0

> <s_m_source_file>
/data/baiqing/PycharmProjects/Reinvent-master-3.2/result/LINK_invent/BTK/process_docking_weight1_custom_product_contain_oxygen_bond_distance_aromatic_linkinvent_7_9_3/rearranged_h_0125.sdf

> <i_m_source_file_index>
27

> <r_mmod_Potential_Energy-OPLS-2005>
228.812957763672

> <r_mmod_Stretch_Energy-OPLS-2005>
157.738235473633

> <r_mmod_Bend_Energy-OPLS-2005>
217.223968505859

> <r_mmod_Torsional_Energy-OPLS-2005>
218.535980224609

> <r_mmod_Improper_Torsional_Energy-OPLS-2005>
4.87259340286255

> <r_mmod_Van_der_Waal_Energy-OPLS-2005>
153.211380004883

> <r_mmod_Electrostatic_Energy-OPLS-2005>
-389.587860107422

> <r_mmod_Solvation_Energy-OPLS-2005>
-233.173309326172

> <b_mmod_Minimization_Converged-OPLS-2005>
0

> <r_mmod_RMS_Derivative-OPLS-2005>
4.813805103302

$$$$
27
                    3D
 Structure written by MMmdl.
155163  0  0  1  0            999 V2000
  -30.6872  -14.4938   20.4885 C   0  0  0  0  0  0
  -30.4218  -12.2999   19.4325 C   0  0  0  0  0  0
  -29.4966  -12.5177   18.2131 C   0  0  0  0  0  0
  -28.0133  -12.3717   18.6131 C   0  0  0  0  0  0
  -27.6545  -13.1953   19.8774 C   0  0  2  0  0  0
  -28.7067  -12.9964   20.9944 C   0  0  0  0  0  0
  -25.2542  -13.8081   20.5857 C   0  0  0  0  0  0
  -24.1784  -13.0356   20.9228 C   0  0  0  0  0  0
  -24.6358  -11.6837   20.8732 C   0  0  0  0  0  0
  -23.9036  -10.4233   21.0374 C   0  0  0  0  0  0
  -24.3593   -9.4168   21.9150 C   0  0  0  0  0  0
  -23.6289   -8.2209   22.0728 C   0  0  0  0  0  0
  -22.4263   -8.0244   21.3524 C   0  0  0  0  0  0
  -21.9884   -9.0214   20.4628 C   0  0  0  0  0  0
  -22.7216  -10.2098   20.3036 C   0  0  0  0  0  0
  -21.6835   -6.0722   22.5287 C   0  0  0  0  0  0
  -21.3998   -6.5632   23.8220 C   0  0  0  0  0  0
  -21.3656   -5.6786   24.9185 C   0  0  0  0  0  0
  -21.6047   -4.3053   24.7223 C   0  0  0  0  0  0
  -21.8823   -3.8138   23.4341 C   0  0  0  0  0  0
  -21.9179   -4.6954   22.3409 C   0  0  0  0  0  0
  -22.7812  -13.5168   21.1865 C   0  0  0  0  0  0
  -22.1646   -4.2142   21.0979 F   0  0  0  0  0  0
  -21.5638   -3.4536   25.7735 F   0  0  0  0  0  0
  -30.0382  -13.2948   20.4445 N   0  0  0  0  0  0
  -26.2982  -12.9257   20.3426 N   0  0  0  0  0  0
  -25.9274  -11.6414   20.5739 N   0  0  0  0  0  0
  -22.0430  -12.8208   22.0450 N   0  0  0  0  0  0
  -25.4165  -15.1832   20.4619 N   0  0  0  0  0  0
  -31.8782  -14.6018   20.1865 O   0  0  0  0  0  0
  -21.6616   -6.8860   21.4247 O   0  0  0  0  0  0
  -22.3513  -14.5462   20.6683 O   0  0  0  0  0  0
  -24.6159  -31.8662   23.2091 C   0  0  0  0  0  0
  -25.9035  -32.4824   23.8401 C   0  0  1  0  0  0
  -27.2264  -27.4222   20.0990 C   0  0  0  0  0  0
  -25.5863  -33.8625   24.2309 N   0  0  0  0  0  0
  -23.4071  -30.4897   21.5497 C   0  0  2  0  0  0
  -24.8535  -28.9574   20.1099 C   0  0  0  0  0  0
  -22.7435  -29.4650   22.4981 C   0  0  0  0  0  0
  -18.0274  -28.1390   22.8486 C   0  0  0  0  0  0
  -24.1466  -36.7319   23.2653 C   0  0  0  0  0  0
  -25.9384  -30.8288   21.3633 C   0  0  0  0  0  0
  -26.0164  -29.4638   20.7076 C   0  0  0  0  0  0
  -27.2108  -28.7035   20.6975 C   0  0  0  0  0  0
  -26.0535  -26.9421   19.4755 C   0  0  0  0  0  0
  -24.8678  -27.6968   19.4898 C   0  0  0  0  0  0
  -23.6143  -29.8219   20.1639 C   0  0  0  0  0  0
  -25.4092  -36.3122   24.0342 C   0  0  1  0  0  0
  -20.5865  -28.3665   23.1324 C   0  0  2  0  0  0
  -20.6750  -26.9385   22.5454 C   0  0  0  0  0  0
  -19.5744  -26.6372   21.5232 C   0  0  0  0  0  0
  -18.1916  -26.7944   22.1616 C   0  0  0  0  0  0
  -19.1524  -28.8842   23.2904 C   0  0  0  0  0  0
  -18.9451  -30.1448   23.8915 C   0  0  0  0  0  0
  -17.6455  -30.6581   24.0582 C   0  0  0  0  0  0
  -25.9028  -34.9483   23.5134 C   0  0  0  0  0  0
  -16.5344  -29.9092   23.6327 C   0  0  0  0  0  0
  -16.7267  -28.6519   23.0326 C   0  0  0  0  0  0
  -26.4435  -31.6626   25.0748 C   0  0  0  0  0  0
  -25.3689  -31.3768   26.1496 C   0  0  0  0  0  0
  -27.0254  -30.3067   24.6144 C   0  0  0  0  0  0
  -27.6020  -32.4366   25.7486 C   0  0  0  0  0  0
  -27.5586  -37.1794   24.8446 C   0  0  0  0  0  0
  -21.4158  -29.3017   22.3711 N   0  0  0  0  0  0
  -26.4274  -37.3808   23.9429 N   0  0  0  0  0  0
  -24.6723  -31.0750   22.0991 N   0  0  0  0  0  0
  -23.4204  -28.8206   23.3033 O   0  0  0  0  0  0
  -28.3443  -26.6178   20.1523 O   0  0  0  0  0  0
  -26.5615  -34.8936   22.4709 O   0  0  0  0  0  0
  -23.5337  -32.1414   23.7461 O   0  0  0  0  0  0
  -27.5948  -20.2248   19.3707 C   0  0  0  0  0  0
  -27.2759  -18.9578   18.8575 C   0  0  0  0  0  0
  -29.6342  -19.3120   20.3272 C   0  0  0  0  0  0
  -28.8017  -20.4341   20.0724 C   0  0  0  0  0  0
  -29.3103  -18.0190   19.8395 C   0  0  0  0  0  0
  -28.1498  -17.8707   19.0306 C   0  0  0  0  0  0
  -29.2254  -21.7967   20.4937 C   0  0  0  0  0  0
  -30.2097  -16.8698   20.0935 C   0  0  0  0  0  0
  -28.6015  -22.9610   20.1929 C   0  0  0  0  0  0
  -29.8056  -15.6622   20.5561 C   0  0  0  0  0  0
  -29.1120  -24.2839   20.6263 C   0  0  0  0  0  0
  -27.8398  -16.6069   18.2394 C   0  0  0  0  0  0
  -28.0818  -25.4008   20.8861 C   0  0  0  0  0  0
  -30.3128  -24.5092   20.8071 O   0  0  0  0  0  0
  -31.4691  -12.3849   19.1377 H   0  0  0  0  0  0
  -30.3035  -11.2913   19.8314 H   0  0  0  0  0  0
  -29.7458  -11.8208   17.4127 H   0  0  0  0  0  0
  -29.6622  -13.5163   17.8062 H   0  0  0  0  0  0
  -27.8197  -11.3153   18.7936 H   0  0  0  0  0  0
  -27.3671  -12.6630   17.7829 H   0  0  0  0  0  0
  -27.6789  -14.2331   19.5724 H   0  0  0  0  0  0
  -28.6860  -11.9658   21.3507 H   0  0  0  0  0  0
  -28.4874  -13.6140   21.8675 H   0  0  0  0  0  0
  -25.2730   -9.5670   22.4730 H   0  0  0  0  0  0
  -23.9993   -7.4594   22.7452 H   0  0  0  0  0  0
  -21.0791   -8.8744   19.8957 H   0  0  0  0  0  0
  -22.3645  -10.9638   19.6164 H   0  0  0  0  0  0
  -21.1993   -7.6140   23.9731 H   0  0  0  0  0  0
  -21.1472   -6.0506   25.9094 H   0  0  0  0  0  0
  -22.0600   -2.7603   23.2839 H   0  0  0  0  0  0
  -22.4021  -11.9914   22.4935 H   0  0  0  0  0  0
  -21.1052  -13.1258   22.2595 H   0  0  0  0  0  0
  -24.6485  -15.8274   20.6180 H   0  0  0  0  0  0
  -26.2858  -15.6493   20.2421 H   0  0  0  0  0  0
  -26.7126  -32.5527   23.1184 H   0  0  0  0  0  0
  -24.9947  -33.9783   25.0408 H   0  0  0  0  0  0
  -22.6978  -31.3072   21.4089 H   0  0  0  0  0  0
  -23.3739  -35.9638   23.3301 H   0  0  0  0  0  0
  -24.3565  -36.8952   22.2070 H   0  0  0  0  0  0
  -23.7186  -37.6507   23.6675 H   0  0  0  0  0  0
  -26.0539  -31.5912   20.5907 H   0  0  0  0  0  0
  -26.8265  -30.8812   21.9818 H   0  0  0  0  0  0
  -28.1070  -29.0811   21.1705 H   0  0  0  0  0  0
  -26.0502  -25.9759   18.9898 H   0  0  0  0  0  0
  -23.9745  -27.3031   19.0234 H   0  0  0  0  0  0
  -23.7234  -30.5952   19.4022 H   0  0  0  0  0  0
  -22.7381  -29.2387   19.8710 H   0  0  0  0  0  0
  -25.1266  -36.1991   25.0835 H   0  0  0  0  0  0
  -20.9973  -28.3240   24.1441 H   0  0  0  0  0  0
  -20.5605  -26.2284   23.3658 H   0  0  0  0  0  0
  -21.6626  -26.7392   22.1276 H   0  0  0  0  0  0
  -19.6892  -25.6279   21.1264 H   0  0  0  0  0  0
  -19.6710  -27.3178   20.6762 H   0  0  0  0  0  0
  -17.4204  -26.6723   21.3997 H   0  0  0  0  0  0
  -18.0277  -26.0085   22.8999 H   0  0  0  0  0  0
  -19.7923  -30.7254   24.2302 H   0  0  0  0  0  0
  -17.5006  -31.6254   24.5200 H   0  0  0  0  0  0
  -15.5346  -30.2997   23.7636 H   0  0  0  0  0  0
  -15.8676  -28.0855   22.7001 H   0  0  0  0  0  0
  -24.5831  -30.7148   25.7843 H   0  0  0  0  0  0
  -24.8895  -32.2925   26.4966 H   0  0  0  0  0  0
  -25.8007  -30.8924   27.0252 H   0  0  0  0  0  0
  -26.2792  -29.6867   24.1156 H   0  0  0  0  0  0
  -27.3954  -29.7296   25.4623 H   0  0  0  0  0  0
  -27.8662  -30.4393   23.9338 H   0  0  0  0  0  0
  -27.2617  -33.3622   26.2150 H   0  0  0  0  0  0
  -28.3744  -32.7016   25.0255 H   0  0  0  0  0  0
  -28.0784  -31.8458   26.5314 H   0  0  0  0  0  0
  -28.2588  -38.0112   24.7542 H   0  0  0  0  0  0
  -28.1090  -36.2648   24.6178 H   0  0  0  0  0  0
  -27.2337  -37.1348   25.8858 H   0  0  0  0  0  0
  -20.9330  -29.8741   21.6925 H   0  0  0  0  0  0
  -26.0170  -38.2882   24.1465 H   0  0  0  0  0  0
  -26.9102  -21.0359   19.1773 H   0  0  0  0  0  0
  -26.3720  -18.8296   18.2782 H   0  0  0  0  0  0
  -30.5512  -19.4536   20.8839 H   0  0  0  0  0  0
  -30.1223  -21.8389   21.0975 H   0  0  0  0  0  0
  -31.2381  -17.0136   19.7922 H   0  0  0  0  0  0
  -27.6938  -22.9746   19.6099 H   0  0  0  0  0  0
  -28.7916  -15.5745   20.9095 H   0  0  0  0  0  0
  -27.6084  -16.8646   17.2058 H   0  0  0  0  0  0
  -26.9643  -16.0997   18.6322 H   0  0  0  0  0  0
  -28.6716  -15.9062   18.1963 H   0  0  0  0  0  0
  -28.0938  -25.6356   21.9510 H   0  0  0  0  0  0
  -27.0900  -25.0002   20.6792 H   0  0  0  0  0  0
  1 25  1  0  0  0
  1 30  2  0  0  0
  1 80  1  0  0  0
  2  3  1  0  0  0
  2 25  1  0  0  0
  2 85  1  0  0  0
  2 86  1  0  0  0
  3  4  1  0  0  0
  3 87  1  0  0  0
  3 88  1  0  0  0
  4  5  1  0  0  0
  4 89  1  0  0  0
  4 90  1  0  0  0
  5  6  1  0  0  0
  5 26  1  0  0  0
  5 91  1  0  0  0
  6 25  1  0  0  0
  6 92  1  0  0  0
  6 93  1  0  0  0
  7  8  2  0  0  0
  7 26  1  0  0  0
  7 29  1  0  0  0
  8  9  1  0  0  0
  8 22  1  0  0  0
  9 10  1  0  0  0
  9 27  2  0  0  0
 10 11  2  0  0  0
 10 15  1  0  0  0
 11 12  1  0  0  0
 11 94  1  0  0  0
 12 13  2  0  0  0
 12 95  1  0  0  0
 13 14  1  0  0  0
 13 31  1  0  0  0
 14 15  2  0  0  0
 14 96  1  0  0  0
 15 97  1  0  0  0
 16 17  2  0  0  0
 16 21  1  0  0  0
 16 31  1  0  0  0
 17 18  1  0  0  0
 17 98  1  0  0  0
 18 19  2  0  0  0
 18 99  1  0  0  0
 19 20  1  0  0  0
 19 24  1  0  0  0
 20 21  2  0  0  0
 20100  1  0  0  0
 21 23  1  0  0  0
 22 28  1  0  0  0
 22 32  2  0  0  0
 26 27  1  0  0  0
 28101  1  0  0  0
 28102  1  0  0  0
 29103  1  0  0  0
 29104  1  0  0  0
 33 34  1  0  0  0
 33 66  1  0  0  0
 33 70  2  0  0  0
 34 36  1  0  0  0
 34 59  1  0  0  0
 34105  1  0  0  0
 35 44  2  0  0  0
 35 45  1  0  0  0
 35 68  1  0  0  0
 36 56  1  0  0  0
 36106  1  0  0  0
 37 39  1  0  0  0
 37 47  1  0  0  0
 37 66  1  0  0  0
 37107  1  0  0  0
 38 43  2  0  0  0
 38 46  1  0  0  0
 38 47  1  0  0  0
 39 64  1  0  0  0
 39 67  2  0  0  0
 40 52  1  0  0  0
 40 53  2  0  0  0
 40 58  1  0  0  0
 41108  1  0  0  0
 41109  1  0  0  0
 41110  1  0  0  0
 41 48  1  0  0  0
 42 43  1  0  0  0
 42 66  1  0  0  0
 42111  1  0  0  0
 42112  1  0  0  0
 43 44  1  0  0  0
 44113  1  0  0  0
 45 46  2  0  0  0
 45114  1  0  0  0
 46115  1  0  0  0
 47116  1  0  0  0
 47117  1  0  0  0
 48 56  1  0  0  0
 48 65  1  0  0  0
 48118  1  0  0  0
 49 50  1  0  0  0
 49 53  1  0  0  0
 49 64  1  0  0  0
 49119  1  0  0  0
 50 51  1  0  0  0
 50120  1  0  0  0
 50121  1  0  0  0
 51 52  1  0  0  0
 51122  1  0  0  0
 51123  1  0  0  0
 52124  1  0  0  0
 52125  1  0  0  0
 53 54  1  0  0  0
 54 55  2  0  0  0
 54126  1  0  0  0
 55 57  1  0  0  0
 55127  1  0  0  0
 56 69  2  0  0  0
 57 58  2  0  0  0
 57128  1  0  0  0
 58129  1  0  0  0
 59 60  1  0  0  0
 59 61  1  0  0  0
 59 62  1  0  0  0
 60130  1  0  0  0
 60131  1  0  0  0
 60132  1  0  0  0
 61133  1  0  0  0
 61134  1  0  0  0
 61135  1  0  0  0
 62136  1  0  0  0
 62137  1  0  0  0
 62138  1  0  0  0
 63 65  1  0  0  0
 63139  1  0  0  0
 63140  1  0  0  0
 63141  1  0  0  0
 64142  1  0  0  0
 65143  1  0  0  0
 68 83  1  0  0  0
 71 72  2  0  0  0
 71 74  1  0  0  0
 71144  1  0  0  0
 72 76  1  0  0  0
 72145  1  0  0  0
 73 74  2  0  0  0
 73 75  1  0  0  0
 73146  1  0  0  0
 74 77  1  0  0  0
 75 76  2  0  0  0
 75 78  1  0  0  0
 76 82  1  0  0  0
 77 79  2  0  0  0
 77147  1  0  0  0
 78 80  2  0  0  0
 78148  1  0  0  0
 79 81  1  0  0  0
 79149  1  0  0  0
 80150  1  0  0  0
 81 83  1  0  0  0
 81 84  2  0  0  0
 82151  1  0  0  0
 82152  1  0  0  0
 82153  1  0  0  0
 83154  1  0  0  0
 83155  1  0  0  0
M  ISO  4   1 100  68 101  80 100  83 101
M  END
> <chiral flag>
0

> <version>
0

> <s_m_source_file>
/data/baiqing/PycharmProjects/Reinvent-master-3.2/result/LINK_invent/BTK/process_docking_weight1_custom_product_contain_oxygen_bond_distance_aromatic_linkinvent_7_9_3/rearranged_h_0125.sdf

> <i_m_source_file_index>
28

> <r_mmod_Potential_Energy-OPLS-2005>
31.031099319458

> <r_mmod_Stretch_Energy-OPLS-2005>
39.1952590942383

> <r_mmod_Bend_Energy-OPLS-2005>
90.5258331298828

> <r_mmod_Torsional_Energy-OPLS-2005>
250.367858886719

> <r_mmod_Improper_Torsional_Energy-OPLS-2005>
11.1408357620239

> <r_mmod_Van_der_Waal_Energy-OPLS-2005>
159.467651367188

> <r_mmod_Electrostatic_Energy-OPLS-2005>
-330.033905029297

> <r_mmod_Solvation_Energy-OPLS-2005>
-211.935211181641

> <b_mmod_Minimization_Converged-OPLS-2005>
0

> <r_mmod_RMS_Derivative-OPLS-2005>
3.19223308563232

$$$$
28
                    3D
 Structure written by MMmdl.
150158  0  0  1  0            999 V2000
  -30.6161  -14.7902   20.4091 C   0  0  0  0  0  0
  -30.4607  -12.4926   19.4406 C   0  0  0  0  0  0
  -29.5033  -12.4586   18.2247 C   0  0  0  0  0  0
  -28.0591  -12.2028   18.6882 C   0  0  0  0  0  0
  -27.6338  -13.1773   19.8103 C   0  0  2  0  0  0
  -28.6897  -13.2113   20.9372 C   0  0  0  0  0  0
  -25.2721  -13.8084   20.5742 C   0  0  0  0  0  0
  -24.1869  -13.0475   20.9108 C   0  0  0  0  0  0
  -24.6339  -11.6908   20.8656 C   0  0  0  0  0  0
  -23.9001  -10.4330   21.0370 C   0  0  0  0  0  0
  -24.3601   -9.4284   21.9167 C   0  0  0  0  0  0
  -23.6300   -8.2299   22.0756 C   0  0  0  0  0  0
  -22.4283   -8.0306   21.3565 C   0  0  0  0  0  0
  -21.9883   -9.0268   20.4663 C   0  0  0  0  0  0
  -22.7173  -10.2167   20.3048 C   0  0  0  0  0  0
  -21.6884   -6.0740   22.5263 C   0  0  0  0  0  0
  -21.3994   -6.5649   23.8186 C   0  0  0  0  0  0
  -21.3620   -5.6794   24.9142 C   0  0  0  0  0  0
  -21.6051   -4.3064   24.7216 C   0  0  0  0  0  0
  -21.8835   -3.8154   23.4340 C   0  0  0  0  0  0
  -21.9222   -4.6958   22.3382 C   0  0  0  0  0  0
  -22.7955  -13.5409   21.1762 C   0  0  0  0  0  0
  -22.1696   -4.2127   21.0977 F   0  0  0  0  0  0
  -21.5613   -3.4557   25.7736 F   0  0  0  0  0  0
  -29.9864  -13.5628   20.3448 N   0  0  0  0  0  0
  -26.2966  -12.9098   20.3172 N   0  0  0  0  0  0
  -25.9229  -11.6339   20.5661 N   0  0  0  0  0  0
  -22.0573  -12.8342   22.0249 N   0  0  0  0  0  0
  -25.4959  -15.1737   20.4436 N   0  0  0  0  0  0
  -31.8417  -14.8583   20.2783 O   0  0  0  0  0  0
  -21.6699   -6.8875   21.4226 O   0  0  0  0  0  0
  -22.3691  -14.5765   20.6632 O   0  0  0  0  0  0
  -24.6291  -31.8542   23.1982 C   0  0  0  0  0  0
  -25.9121  -32.4754   23.8294 C   0  0  1  0  0  0
  -27.2291  -27.2889   20.1485 C   0  0  0  0  0  0
  -25.5953  -33.8565   24.2198 N   0  0  0  0  0  0
  -23.4265  -30.4749   21.5412 C   0  0  2  0  0  0
  -24.8753  -28.9213   20.1107 C   0  0  0  0  0  0
  -22.7483  -29.4602   22.4920 C   0  0  0  0  0  0
  -18.0264  -28.1407   22.8495 C   0  0  0  0  0  0
  -24.1467  -36.7266   23.2619 C   0  0  0  0  0  0
  -25.9686  -30.7772   21.3748 C   0  0  0  0  0  0
  -26.0402  -29.4009   20.7218 C   0  0  0  0  0  0
  -27.2229  -28.5975   20.7265 C   0  0  0  0  0  0
  -26.0447  -26.8596   19.5170 C   0  0  0  0  0  0
  -24.8802  -27.6573   19.4912 C   0  0  0  0  0  0
  -23.6394  -29.7997   20.1573 C   0  0  0  0  0  0
  -25.4096  -36.3061   24.0318 C   0  0  1  0  0  0
  -20.5891  -28.3677   23.1289 C   0  0  2  0  0  0
  -20.6782  -26.9403   22.5405 C   0  0  0  0  0  0
  -19.5739  -26.6394   21.5231 C   0  0  0  0  0  0
  -18.1908  -26.7953   22.1619 C   0  0  0  0  0  0
  -19.1538  -28.8859   23.2888 C   0  0  0  0  0  0
  -18.9477  -30.1497   23.8863 C   0  0  0  0  0  0
  -17.6484  -30.6617   24.0585 C   0  0  0  0  0  0
  -25.9056  -34.9460   23.5045 C   0  0  0  0  0  0
  -16.5355  -29.9116   23.6396 C   0  0  0  0  0  0
  -16.7265  -28.6544   23.0375 C   0  0  0  0  0  0
  -26.4445  -31.6626   25.0731 C   0  0  0  0  0  0
  -25.3663  -31.3975   26.1499 C   0  0  0  0  0  0
  -27.0178  -30.2972   24.6307 C   0  0  0  0  0  0
  -27.6072  -32.4330   25.7437 C   0  0  0  0  0  0
  -27.5583  -37.1708   24.8407 C   0  0  0  0  0  0
  -21.4202  -29.3005   22.3654 N   0  0  0  0  0  0
  -26.4215  -37.3817   23.9488 N   0  0  0  0  0  0
  -24.6939  -31.0531   22.0935 N   0  0  0  0  0  0
  -23.4179  -28.8164   23.3044 O   0  0  0  0  0  0
  -28.3503  -26.4410   20.1198 O   0  0  0  0  0  0
  -26.5618  -34.8955   22.4612 O   0  0  0  0  0  0
  -23.5454  -32.1342   23.7294 O   0  0  0  0  0  0
  -30.4265  -18.7275   22.8985 C   0  0  0  0  0  0
  -29.9921  -19.9519   22.3413 C   0  0  0  0  0  0
  -30.4098  -17.5237   22.1599 C   0  0  0  0  0  0
  -29.4986  -18.7708   20.2920 C   0  0  0  0  0  0
  -29.5496  -20.0377   21.0024 C   0  0  0  0  0  0
  -29.9153  -17.4824   20.8379 C   0  0  0  0  0  0
  -29.1945  -21.4109   20.3850 C   0  0  0  0  0  0
  -28.9726  -22.6526   20.9621 C   0  0  0  0  0  0
  -28.7923  -23.9792   20.2564 C   0  0  0  0  0  0
  -28.3482  -25.1846   20.7725 C   0  0  0  0  0  0
  -29.7501  -16.1157   20.0970 C   0  0  0  0  0  0
  -28.9517  -16.1011   19.1140 N   0  0  0  0  0  0
  -31.4774  -12.6754   19.0899 H   0  0  0  0  0  0
  -30.4882  -11.5328   19.9582 H   0  0  0  0  0  0
  -29.8110  -11.6788   17.5261 H   0  0  0  0  0  0
  -29.5489  -13.4003   17.6783 H   0  0  0  0  0  0
  -28.0277  -11.1849   19.0825 H   0  0  0  0  0  0
  -27.3580  -12.2230   17.8540 H   0  0  0  0  0  0
  -27.5689  -14.1369   19.3144 H   0  0  0  0  0  0
  -28.7593  -12.2387   21.4272 H   0  0  0  0  0  0
  -28.4088  -13.9352   21.7018 H   0  0  0  0  0  0
  -25.2727   -9.5784   22.4756 H   0  0  0  0  0  0
  -24.0023   -7.4711   22.7486 H   0  0  0  0  0  0
  -21.0810   -8.8782   19.8985 H   0  0  0  0  0  0
  -22.3596  -10.9718   19.6177 H   0  0  0  0  0  0
  -21.1944   -7.6155   23.9670 H   0  0  0  0  0  0
  -21.1407   -6.0528   25.9042 H   0  0  0  0  0  0
  -22.0645   -2.7616   23.2846 H   0  0  0  0  0  0
  -22.4233  -11.9874   22.4315 H   0  0  0  0  0  0
  -21.1212  -13.1359   22.2516 H   0  0  0  0  0  0
  -24.8067  -15.9052   20.5710 H   0  0  0  0  0  0
  -26.4372  -15.5285   20.3078 H   0  0  0  0  0  0
  -26.7201  -32.5370   23.1040 H   0  0  0  0  0  0
  -25.0172  -33.9689   25.0389 H   0  0  0  0  0  0
  -22.7302  -31.3037   21.3930 H   0  0  0  0  0  0
  -23.3803  -35.9507   23.3097 H   0  0  0  0  0  0
  -24.3621  -36.9059   22.2077 H   0  0  0  0  0  0
  -23.7049  -37.6346   23.6754 H   0  0  0  0  0  0
  -26.1129  -31.5384   20.6074 H   0  0  0  0  0  0
  -26.8482  -30.8179   22.0070 H   0  0  0  0  0  0
  -28.1248  -28.9698   21.1896 H   0  0  0  0  0  0
  -26.0216  -25.8922   19.0358 H   0  0  0  0  0  0
  -23.9921  -27.2950   18.9928 H   0  0  0  0  0  0
  -23.7430  -30.5733   19.3954 H   0  0  0  0  0  0
  -22.7640  -29.2192   19.8592 H   0  0  0  0  0  0
  -25.1223  -36.1878   25.0788 H   0  0  0  0  0  0
  -20.9994  -28.3220   24.1409 H   0  0  0  0  0  0
  -20.5753  -26.2243   23.3574 H   0  0  0  0  0  0
  -21.6626  -26.7465   22.1131 H   0  0  0  0  0  0
  -19.6908  -25.6313   21.1224 H   0  0  0  0  0  0
  -19.6707  -27.3252   20.6809 H   0  0  0  0  0  0
  -17.4199  -26.6748   21.4009 H   0  0  0  0  0  0
  -18.0269  -26.0095   22.8987 H   0  0  0  0  0  0
  -19.7978  -30.7348   24.2142 H   0  0  0  0  0  0
  -17.5055  -31.6320   24.5163 H   0  0  0  0  0  0
  -15.5363  -30.3025   23.7799 H   0  0  0  0  0  0
  -15.8635  -28.0912   22.7083 H   0  0  0  0  0  0
  -24.5945  -30.7099   25.8011 H   0  0  0  0  0  0
  -24.8715  -32.3205   26.4568 H   0  0  0  0  0  0
  -25.8002  -30.9552   27.0472 H   0  0  0  0  0  0
  -26.2726  -29.6822   24.1259 H   0  0  0  0  0  0
  -27.3624  -29.7210   25.4885 H   0  0  0  0  0  0
  -27.8730  -30.4095   23.9653 H   0  0  0  0  0  0
  -27.2791  -33.3768   26.1819 H   0  0  0  0  0  0
  -28.3979  -32.6620   25.0279 H   0  0  0  0  0  0
  -28.0599  -31.8535   26.5485 H   0  0  0  0  0  0
  -28.2407  -38.0202   24.7792 H   0  0  0  0  0  0
  -28.1253  -36.2762   24.5755 H   0  0  0  0  0  0
  -27.2373  -37.0779   25.8803 H   0  0  0  0  0  0
  -20.9406  -29.8602   21.6745 H   0  0  0  0  0  0
  -26.0059  -38.2813   24.1782 H   0  0  0  0  0  0
  -30.7767  -18.6984   23.9233 H   0  0  0  0  0  0
  -30.0387  -20.8372   22.9592 H   0  0  0  0  0  0
  -30.7437  -16.6180   22.6469 H   0  0  0  0  0  0
  -29.1185  -18.7993   19.2797 H   0  0  0  0  0  0
  -29.1542  -21.3913   19.3047 H   0  0  0  0  0  0
  -28.9796  -22.6971   22.0427 H   0  0  0  0  0  0
  -29.1081  -24.0071   19.2242 H   0  0  0  0  0  0
  -27.9929  -25.2834   21.7894 H   0  0  0  0  0  0
  -28.5013  -16.9948   18.9626 H   0  0  0  0  0  0
  1 25  1  0  0  0
  1 30  2  0  0  0
  1 81  1  0  0  0
  2  3  1  0  0  0
  2 25  1  0  0  0
  2 83  1  0  0  0
  2 84  1  0  0  0
  3  4  1  0  0  0
  3 85  1  0  0  0
  3 86  1  0  0  0
  4  5  1  0  0  0
  4 87  1  0  0  0
  4 88  1  0  0  0
  5  6  1  0  0  0
  5 26  1  0  0  0
  5 89  1  0  0  0
  6 25  1  0  0  0
  6 90  1  0  0  0
  6 91  1  0  0  0
  7  8  2  0  0  0
  7 26  1  0  0  0
  7 29  1  0  0  0
  8  9  1  0  0  0
  8 22  1  0  0  0
  9 10  1  0  0  0
  9 27  2  0  0  0
 10 11  2  0  0  0
 10 15  1  0  0  0
 11 12  1  0  0  0
 11 92  1  0  0  0
 12 13  2  0  0  0
 12 93  1  0  0  0
 13 14  1  0  0  0
 13 31  1  0  0  0
 14 15  2  0  0  0
 14 94  1  0  0  0
 15 95  1  0  0  0
 16 17  2  0  0  0
 16 21  1  0  0  0
 16 31  1  0  0  0
 17 18  1  0  0  0
 17 96  1  0  0  0
 18 19  2  0  0  0
 18 97  1  0  0  0
 19 20  1  0  0  0
 19 24  1  0  0  0
 20 21  2  0  0  0
 20 98  1  0  0  0
 21 23  1  0  0  0
 22 28  1  0  0  0
 22 32  2  0  0  0
 26 27  1  0  0  0
 28 99  1  0  0  0
 28100  1  0  0  0
 29101  1  0  0  0
 29102  1  0  0  0
 33 34  1  0  0  0
 33 66  1  0  0  0
 33 70  2  0  0  0
 34 36  1  0  0  0
 34 59  1  0  0  0
 34103  1  0  0  0
 35 44  2  0  0  0
 35 45  1  0  0  0
 35 68  1  0  0  0
 36 56  1  0  0  0
 36104  1  0  0  0
 37 39  1  0  0  0
 37 47  1  0  0  0
 37 66  1  0  0  0
 37105  1  0  0  0
 38 43  2  0  0  0
 38 46  1  0  0  0
 38 47  1  0  0  0
 39 64  1  0  0  0
 39 67  2  0  0  0
 40 52  1  0  0  0
 40 53  2  0  0  0
 40 58  1  0  0  0
 41106  1  0  0  0
 41107  1  0  0  0
 41108  1  0  0  0
 41 48  1  0  0  0
 42 43  1  0  0  0
 42 66  1  0  0  0
 42109  1  0  0  0
 42110  1  0  0  0
 43 44  1  0  0  0
 44111  1  0  0  0
 45 46  2  0  0  0
 45112  1  0  0  0
 46113  1  0  0  0
 47114  1  0  0  0
 47115  1  0  0  0
 48 56  1  0  0  0
 48 65  1  0  0  0
 48116  1  0  0  0
 49 50  1  0  0  0
 49 53  1  0  0  0
 49 64  1  0  0  0
 49117  1  0  0  0
 50 51  1  0  0  0
 50118  1  0  0  0
 50119  1  0  0  0
 51 52  1  0  0  0
 51120  1  0  0  0
 51121  1  0  0  0
 52122  1  0  0  0
 52123  1  0  0  0
 53 54  1  0  0  0
 54 55  2  0  0  0
 54124  1  0  0  0
 55 57  1  0  0  0
 55125  1  0  0  0
 56 69  2  0  0  0
 57 58  2  0  0  0
 57126  1  0  0  0
 58127  1  0  0  0
 59 60  1  0  0  0
 59 61  1  0  0  0
 59 62  1  0  0  0
 60128  1  0  0  0
 60129  1  0  0  0
 60130  1  0  0  0
 61131  1  0  0  0
 61132  1  0  0  0
 61133  1  0  0  0
 62134  1  0  0  0
 62135  1  0  0  0
 62136  1  0  0  0
 63 65  1  0  0  0
 63137  1  0  0  0
 63138  1  0  0  0
 63139  1  0  0  0
 64140  1  0  0  0
 65141  1  0  0  0
 68 80  1  0  0  0
 71 72  2  0  0  0
 71 73  1  0  0  0
 71142  1  0  0  0
 72 75  1  0  0  0
 72143  1  0  0  0
 73 76  2  0  0  0
 73144  1  0  0  0
 74 75  2  0  0  0
 74 76  1  0  0  0
 74145  1  0  0  0
 75 77  1  0  0  0
 76 81  1  0  0  0
 77 78  2  0  0  0
 77146  1  0  0  0
 78 79  1  0  0  0
 78147  1  0  0  0
 79 80  2  0  0  0
 79148  1  0  0  0
 80149  1  0  0  0
 81 82  2  0  0  0
 82150  1  0  0  0
M  ISO  4   1 100  68 101  80 101  81 100
M  END
> <chiral flag>
0

> <version>
0

> <s_m_source_file>
/data/baiqing/PycharmProjects/Reinvent-master-3.2/result/LINK_invent/BTK/process_docking_weight1_custom_product_contain_oxygen_bond_distance_aromatic_linkinvent_7_9_3/rearranged_h_0125.sdf

> <i_m_source_file_index>
29

> <r_mmod_Potential_Energy-OPLS-2005>
350.320983886719

> <r_mmod_Stretch_Energy-OPLS-2005>
117.37865447998

> <r_mmod_Bend_Energy-OPLS-2005>
143.772964477539

> <r_mmod_Torsional_Energy-OPLS-2005>
239.124298095703

> <r_mmod_Improper_Torsional_Energy-OPLS-2005>
16.7905673980713

> <r_mmod_Van_der_Waal_Energy-OPLS-2005>
136.152160644531

> <r_mmod_Electrostatic_Energy-OPLS-2005>
-213.303909301758

> <r_mmod_Solvation_Energy-OPLS-2005>
-190.499206542969

> <b_mmod_Minimization_Converged-OPLS-2005>
0

> <r_mmod_RMS_Derivative-OPLS-2005>
5.8880877494812

$$$$
29
                    3D
 Structure written by MMmdl.
157165  0  0  1  0            999 V2000
  -30.5808  -14.7872   20.4476 C   0  0  0  0  0  0
  -30.4467  -12.4704   19.4543 C   0  0  0  0  0  0
  -29.5042  -12.4993   18.2278 C   0  0  0  0  0  0
  -28.0301  -12.3112   18.6557 C   0  0  0  0  0  0
  -27.6415  -13.2244   19.8508 C   0  0  2  0  0  0
  -28.7013  -13.1730   20.9752 C   0  0  0  0  0  0
  -25.2549  -13.8224   20.5674 C   0  0  0  0  0  0
  -24.1841  -13.0476   20.9172 C   0  0  0  0  0  0
  -24.6430  -11.6945   20.8766 C   0  0  0  0  0  0
  -23.9084  -10.4338   21.0438 C   0  0  0  0  0  0
  -24.3636   -9.4260   21.9215 C   0  0  0  0  0  0
  -23.6319   -8.2290   22.0803 C   0  0  0  0  0  0
  -22.4275   -8.0340   21.3599 C   0  0  0  0  0  0
  -21.9901   -9.0310   20.4673 C   0  0  0  0  0  0
  -22.7246  -10.2203   20.3091 C   0  0  0  0  0  0
  -21.6871   -6.0778   22.5266 C   0  0  0  0  0  0
  -21.4034   -6.5661   23.8213 C   0  0  0  0  0  0
  -21.3654   -5.6803   24.9147 C   0  0  0  0  0  0
  -21.6030   -4.3064   24.7192 C   0  0  0  0  0  0
  -21.8823   -3.8175   23.4299 C   0  0  0  0  0  0
  -21.9213   -4.7001   22.3369 C   0  0  0  0  0  0
  -22.7863  -13.5309   21.1780 C   0  0  0  0  0  0
  -22.1664   -4.2188   21.0947 F   0  0  0  0  0  0
  -21.5604   -3.4536   25.7697 F   0  0  0  0  0  0
  -29.9943  -13.5378   20.3791 N   0  0  0  0  0  0
  -26.2978  -12.9397   20.3376 N   0  0  0  0  0  0
  -25.9390  -11.6559   20.5893 N   0  0  0  0  0  0
  -22.0457  -12.8330   22.0305 N   0  0  0  0  0  0
  -25.4150  -15.1973   20.4030 N   0  0  0  0  0  0
  -31.7866  -14.9223   20.2319 O   0  0  0  0  0  0
  -21.6666   -6.8917   21.4244 O   0  0  0  0  0  0
  -22.3574  -14.5613   20.6600 O   0  0  0  0  0  0
  -24.6353  -31.8555   23.1963 C   0  0  0  0  0  0
  -25.9163  -32.4749   23.8317 C   0  0  1  0  0  0
  -27.2199  -27.2266   20.1292 C   0  0  0  0  0  0
  -25.5947  -33.8554   24.2237 N   0  0  0  0  0  0
  -23.4315  -30.4815   21.5400 C   0  0  2  0  0  0
  -24.8756  -28.9180   20.1036 C   0  0  0  0  0  0
  -22.7523  -29.4635   22.4896 C   0  0  0  0  0  0
  -18.0310  -28.1455   22.8503 C   0  0  0  0  0  0
  -24.1456  -36.7272   23.2635 C   0  0  0  0  0  0
  -25.9795  -30.7464   21.3842 C   0  0  0  0  0  0
  -26.0435  -29.3653   20.7299 C   0  0  0  0  0  0
  -27.2121  -28.5320   20.7333 C   0  0  0  0  0  0
  -26.0313  -26.8613   19.4515 C   0  0  0  0  0  0
  -24.8778  -27.6753   19.4480 C   0  0  0  0  0  0
  -23.6451  -29.8103   20.1579 C   0  0  0  0  0  0
  -25.4091  -36.3074   24.0329 C   0  0  1  0  0  0
  -20.5910  -28.3770   23.1271 C   0  0  2  0  0  0
  -20.6815  -26.9466   22.5458 C   0  0  0  0  0  0
  -19.5800  -26.6400   21.5260 C   0  0  0  0  0  0
  -18.1965  -26.7983   22.1623 C   0  0  0  0  0  0
  -19.1561  -28.8910   23.2879 C   0  0  0  0  0  0
  -18.9515  -30.1488   23.8927 C   0  0  0  0  0  0
  -17.6526  -30.6637   24.0598 C   0  0  0  0  0  0
  -25.9066  -34.9449   23.5107 C   0  0  0  0  0  0
  -16.5407  -29.9156   23.6351 C   0  0  0  0  0  0
  -16.7293  -28.6561   23.0377 C   0  0  0  0  0  0
  -26.4504  -31.6618   25.0760 C   0  0  0  0  0  0
  -25.3702  -31.3790   26.1479 C   0  0  0  0  0  0
  -27.0371  -30.3029   24.6292 C   0  0  0  0  0  0
  -27.6070  -32.4366   25.7528 C   0  0  0  0  0  0
  -27.5548  -37.1785   24.8472 C   0  0  0  0  0  0
  -21.4244  -29.3105   22.3692 N   0  0  0  0  0  0
  -26.4268  -37.3772   23.9434 N   0  0  0  0  0  0
  -24.7018  -31.0503   22.0946 N   0  0  0  0  0  0
  -23.4210  -28.8167   23.2993 O   0  0  0  0  0  0
  -28.3289  -26.3348   20.2239 O   0  0  0  0  0  0
  -26.5635  -34.8950   22.4659 O   0  0  0  0  0  0
  -23.5504  -32.1395   23.7234 O   0  0  0  0  0  0
  -28.7162  -18.9180   22.4001 C   0  0  0  0  0  0
  -28.9718  -20.0144   21.5572 C   0  0  0  0  0  0
  -29.0698  -17.6033   22.0338 C   0  0  0  0  0  0
  -29.6164  -19.8440   20.3187 C   0  0  0  0  0  0
  -29.9670  -18.4580   19.9391 C   0  0  0  0  0  0
  -29.6952  -17.3047   20.8032 C   0  0  0  0  0  0
  -29.8546  -21.1241   19.4836 C   0  0  0  0  0  0
  -29.6385  -22.5089   19.5261 C   0  0  0  0  0  0
  -32.0717  -18.4446   18.4895 C   0  0  0  0  0  0
  -30.5640  -18.1764   18.5603 C   0  0  0  0  0  0
  -29.0229  -23.6355   20.4690 C   0  0  0  0  0  0
  -28.3060  -24.9030   19.7273 C   0  0  0  0  0  0
  -29.6902  -15.8539   20.4568 N   0  0  0  0  0  0
  -31.4879  -12.5920   19.1434 H   0  0  0  0  0  0
  -30.3950  -11.4997   19.9454 H   0  0  0  0  0  0
  -29.7748  -11.7241   17.5063 H   0  0  0  0  0  0
  -29.6093  -13.4545   17.7086 H   0  0  0  0  0  0
  -27.8856  -11.2646   18.9323 H   0  0  0  0  0  0
  -27.3584  -12.4816   17.8114 H   0  0  0  0  0  0
  -27.6287  -14.2344   19.4500 H   0  0  0  0  0  0
  -28.7477  -12.1834   21.4293 H   0  0  0  0  0  0
  -28.4520  -13.8609   21.7843 H   0  0  0  0  0  0
  -25.2799   -9.5722   22.4766 H   0  0  0  0  0  0
  -24.0013   -7.4695   22.7552 H   0  0  0  0  0  0
  -21.0823   -8.8857   19.8996 H   0  0  0  0  0  0
  -22.3722  -10.9745   19.6183 H   0  0  0  0  0  0
  -21.2036   -7.6176   23.9710 H   0  0  0  0  0  0
  -21.1449   -6.0532   25.9060 H   0  0  0  0  0  0
  -22.0598   -2.7642   23.2780 H   0  0  0  0  0  0
  -22.4057  -12.0033   22.4764 H   0  0  0  0  0  0
  -21.1154  -13.1519   22.2615 H   0  0  0  0  0  0
  -24.6344  -15.8351   20.5023 H   0  0  0  0  0  0
  -26.2521  -15.6583   20.0743 H   0  0  0  0  0  0
  -26.7233  -32.5405   23.1056 H   0  0  0  0  0  0
  -25.0140  -33.9669   25.0415 H   0  0  0  0  0  0
  -22.7269  -31.3062   21.3991 H   0  0  0  0  0  0
  -23.3745  -35.9576   23.3315 H   0  0  0  0  0  0
  -24.3527  -36.8883   22.2045 H   0  0  0  0  0  0
  -23.7206  -37.6471   23.6656 H   0  0  0  0  0  0
  -26.1304  -31.4972   20.6073 H   0  0  0  0  0  0
  -26.8566  -30.7954   22.0201 H   0  0  0  0  0  0
  -28.1027  -28.8607   21.2490 H   0  0  0  0  0  0
  -25.9508  -25.9298   18.9121 H   0  0  0  0  0  0
  -23.9850  -27.3400   18.9343 H   0  0  0  0  0  0
  -23.7566  -30.5894   19.4023 H   0  0  0  0  0  0
  -22.7578  -29.2489   19.8597 H   0  0  0  0  0  0
  -25.1237  -36.1894   25.0814 H   0  0  0  0  0  0
  -21.0012  -28.3339   24.1388 H   0  0  0  0  0  0
  -20.5805  -26.2377   23.3696 H   0  0  0  0  0  0
  -21.6673  -26.7532   22.1198 H   0  0  0  0  0  0
  -19.6939  -25.6329   21.1254 H   0  0  0  0  0  0
  -19.6773  -27.3223   20.6806 H   0  0  0  0  0  0
  -17.4213  -26.6761   21.4028 H   0  0  0  0  0  0
  -18.0348  -26.0159   22.9055 H   0  0  0  0  0  0
  -19.7996  -30.7267   24.2295 H   0  0  0  0  0  0
  -17.5103  -31.6320   24.5185 H   0  0  0  0  0  0
  -15.5430  -30.3058   23.7669 H   0  0  0  0  0  0
  -15.8688  -28.0862   22.7109 H   0  0  0  0  0  0
  -24.5865  -30.7137   25.7820 H   0  0  0  0  0  0
  -24.8901  -32.2964   26.4877 H   0  0  0  0  0  0
  -25.7984  -30.8990   27.0286 H   0  0  0  0  0  0
  -26.2978  -29.6802   24.1250 H   0  0  0  0  0  0
  -27.3959  -29.7260   25.4828 H   0  0  0  0  0  0
  -27.8887  -30.4299   23.9624 H   0  0  0  0  0  0
  -27.2676  -33.3664   26.2081 H   0  0  0  0  0  0
  -28.3878  -32.6930   25.0366 H   0  0  0  0  0  0
  -28.0759  -31.8541   26.5453 H   0  0  0  0  0  0
  -28.2578  -38.0065   24.7487 H   0  0  0  0  0  0
  -28.1020  -36.2596   24.6302 H   0  0  0  0  0  0
  -27.2286  -37.1456   25.8884 H   0  0  0  0  0  0
  -20.9445  -29.8938   21.7001 H   0  0  0  0  0  0
  -26.0144  -38.2844   24.1437 H   0  0  0  0  0  0
  -28.2023  -19.0902   23.3352 H   0  0  0  0  0  0
  -28.6460  -20.9985   21.8658 H   0  0  0  0  0  0
  -28.7862  -16.8025   22.7022 H   0  0  0  0  0  0
  -30.3700  -20.8771   18.5642 H   0  0  0  0  0  0
  -30.0513  -22.9895   18.6520 H   0  0  0  0  0  0
  -32.3264  -19.4423   18.8440 H   0  0  0  0  0  0
  -32.4308  -18.3522   17.4648 H   0  0  0  0  0  0
  -32.6235  -17.7113   19.0781 H   0  0  0  0  0  0
  -30.0407  -18.7537   17.7996 H   0  0  0  0  0  0
  -30.3984  -17.1349   18.2833 H   0  0  0  0  0  0
  -29.8558  -24.0349   21.0511 H   0  0  0  0  0  0
  -28.3534  -23.1944   21.2092 H   0  0  0  0  0  0
  -27.2909  -24.5542   19.5648 H   0  0  0  0  0  0
  -28.7471  -24.9640   18.7337 H   0  0  0  0  0  0
  -28.7587  -15.4790   20.5262 H   0  0  0  0  0  0
  1 25  1  0  0  0
  1 30  2  0  0  0
  1 83  1  0  0  0
  2  3  1  0  0  0
  2 25  1  0  0  0
  2 84  1  0  0  0
  2 85  1  0  0  0
  3  4  1  0  0  0
  3 86  1  0  0  0
  3 87  1  0  0  0
  4  5  1  0  0  0
  4 88  1  0  0  0
  4 89  1  0  0  0
  5  6  1  0  0  0
  5 26  1  0  0  0
  5 90  1  0  0  0
  6 25  1  0  0  0
  6 91  1  0  0  0
  6 92  1  0  0  0
  7  8  2  0  0  0
  7 26  1  0  0  0
  7 29  1  0  0  0
  8  9  1  0  0  0
  8 22  1  0  0  0
  9 10  1  0  0  0
  9 27  2  0  0  0
 10 11  2  0  0  0
 10 15  1  0  0  0
 11 12  1  0  0  0
 11 93  1  0  0  0
 12 13  2  0  0  0
 12 94  1  0  0  0
 13 14  1  0  0  0
 13 31  1  0  0  0
 14 15  2  0  0  0
 14 95  1  0  0  0
 15 96  1  0  0  0
 16 17  2  0  0  0
 16 21  1  0  0  0
 16 31  1  0  0  0
 17 18  1  0  0  0
 17 97  1  0  0  0
 18 19  2  0  0  0
 18 98  1  0  0  0
 19 20  1  0  0  0
 19 24  1  0  0  0
 20 21  2  0  0  0
 20 99  1  0  0  0
 21 23  1  0  0  0
 22 28  1  0  0  0
 22 32  2  0  0  0
 26 27  1  0  0  0
 28100  1  0  0  0
 28101  1  0  0  0
 29102  1  0  0  0
 29103  1  0  0  0
 33 34  1  0  0  0
 33 66  1  0  0  0
 33 70  2  0  0  0
 34 36  1  0  0  0
 34 59  1  0  0  0
 34104  1  0  0  0
 35 44  2  0  0  0
 35 45  1  0  0  0
 35 68  1  0  0  0
 36 56  1  0  0  0
 36105  1  0  0  0
 37 39  1  0  0  0
 37 47  1  0  0  0
 37 66  1  0  0  0
 37106  1  0  0  0
 38 43  2  0  0  0
 38 46  1  0  0  0
 38 47  1  0  0  0
 39 64  1  0  0  0
 39 67  2  0  0  0
 40 52  1  0  0  0
 40 53  2  0  0  0
 40 58  1  0  0  0
 41107  1  0  0  0
 41108  1  0  0  0
 41109  1  0  0  0
 41 48  1  0  0  0
 42 43  1  0  0  0
 42 66  1  0  0  0
 42110  1  0  0  0
 42111  1  0  0  0
 43 44  1  0  0  0
 44112  1  0  0  0
 45 46  2  0  0  0
 45113  1  0  0  0
 46114  1  0  0  0
 47115  1  0  0  0
 47116  1  0  0  0
 48 56  1  0  0  0
 48 65  1  0  0  0
 48117  1  0  0  0
 49 50  1  0  0  0
 49 53  1  0  0  0
 49 64  1  0  0  0
 49118  1  0  0  0
 50 51  1  0  0  0
 50119  1  0  0  0
 50120  1  0  0  0
 51 52  1  0  0  0
 51121  1  0  0  0
 51122  1  0  0  0
 52123  1  0  0  0
 52124  1  0  0  0
 53 54  1  0  0  0
 54 55  2  0  0  0
 54125  1  0  0  0
 55 57  1  0  0  0
 55126  1  0  0  0
 56 69  2  0  0  0
 57 58  2  0  0  0
 57127  1  0  0  0
 58128  1  0  0  0
 59 60  1  0  0  0
 59 61  1  0  0  0
 59 62  1  0  0  0
 60129  1  0  0  0
 60130  1  0  0  0
 60131  1  0  0  0
 61132  1  0  0  0
 61133  1  0  0  0
 61134  1  0  0  0
 62135  1  0  0  0
 62136  1  0  0  0
 62137  1  0  0  0
 63 65  1  0  0  0
 63138  1  0  0  0
 63139  1  0  0  0
 63140  1  0  0  0
 64141  1  0  0  0
 65142  1  0  0  0
 68 82  1  0  0  0
 71 72  2  0  0  0
 71 73  1  0  0  0
 71143  1  0  0  0
 72 74  1  0  0  0
 72144  1  0  0  0
 73 76  2  0  0  0
 73145  1  0  0  0
 74 75  2  0  0  0
 74 77  1  0  0  0
 75 76  1  0  0  0
 75 80  1  0  0  0
 76 83  1  0  0  0
 77 78  2  0  0  0
 77146  1  0  0  0
 78 81  1  0  0  0
 78147  1  0  0  0
 79 80  1  0  0  0
 79148  1  0  0  0
 79149  1  0  0  0
 79150  1  0  0  0
 80151  1  0  0  0
 80152  1  0  0  0
 81 82  1  0  0  0
 81153  1  0  0  0
 81154  1  0  0  0
 82155  1  0  0  0
 82156  1  0  0  0
 83157  1  0  0  0
M  ISO  4   1 100  68 101  82 101  83 100
M  END
> <chiral flag>
0

> <version>
0

> <s_m_source_file>
/data/baiqing/PycharmProjects/Reinvent-master-3.2/result/LINK_invent/BTK/process_docking_weight1_custom_product_contain_oxygen_bond_distance_aromatic_linkinvent_7_9_3/rearranged_h_0125.sdf

> <i_m_source_file_index>
30

> <r_mmod_Potential_Energy-OPLS-2005>
321.162872314453

> <r_mmod_Stretch_Energy-OPLS-2005>
143.283538818359

> <r_mmod_Bend_Energy-OPLS-2005>
242.528381347656

> <r_mmod_Torsional_Energy-OPLS-2005>
250.022476196289

> <r_mmod_Improper_Torsional_Energy-OPLS-2005>
11.5440378189087

> <r_mmod_Van_der_Waal_Energy-OPLS-2005>
130.315063476562

> <r_mmod_Electrostatic_Energy-OPLS-2005>
-360.745178222656

> <r_mmod_Solvation_Energy-OPLS-2005>
-204.325592041016

> <b_mmod_Minimization_Converged-OPLS-2005>
0

> <r_mmod_RMS_Derivative-OPLS-2005>
7.90280771255493

$$$$
30
                    3D
 Structure written by MMmdl.
157165  0  0  1  0            999 V2000
  -30.6653  -14.6014   20.6222 C   0  0  0  0  0  0
  -30.4341  -12.4027   19.4608 C   0  0  0  0  0  0
  -29.5078  -12.5352   18.2309 C   0  0  0  0  0  0
  -28.0308  -12.3558   18.6326 C   0  0  0  0  0  0
  -27.6534  -13.2123   19.8683 C   0  0  2  0  0  0
  -28.6841  -13.0190   20.9983 C   0  0  0  0  0  0
  -25.2515  -13.8138   20.5603 C   0  0  0  0  0  0
  -24.1797  -13.0416   20.9158 C   0  0  0  0  0  0
  -24.6374  -11.6892   20.8726 C   0  0  0  0  0  0
  -23.9044  -10.4282   21.0404 C   0  0  0  0  0  0
  -24.3598   -9.4203   21.9186 C   0  0  0  0  0  0
  -23.6274   -8.2241   22.0758 C   0  0  0  0  0  0
  -22.4258   -8.0272   21.3549 C   0  0  0  0  0  0
  -21.9890   -9.0240   20.4654 C   0  0  0  0  0  0
  -22.7216  -10.2120   20.3057 C   0  0  0  0  0  0
  -21.6846   -6.0730   22.5270 C   0  0  0  0  0  0
  -21.4014   -6.5633   23.8205 C   0  0  0  0  0  0
  -21.3656   -5.6784   24.9166 C   0  0  0  0  0  0
  -21.6037   -4.3047   24.7216 C   0  0  0  0  0  0
  -21.8820   -3.8138   23.4337 C   0  0  0  0  0  0
  -21.9194   -4.6957   22.3393 C   0  0  0  0  0  0
  -22.7825  -13.5220   21.1847 C   0  0  0  0  0  0
  -22.1664   -4.2144   21.0975 F   0  0  0  0  0  0
  -21.5622   -3.4528   25.7732 F   0  0  0  0  0  0
  -30.0130  -13.3942   20.4786 N   0  0  0  0  0  0
  -26.2956  -12.9327   20.3280 N   0  0  0  0  0  0
  -25.9294  -11.6480   20.5716 N   0  0  0  0  0  0
  -22.0468  -12.8223   22.0420 N   0  0  0  0  0  0
  -25.4163  -15.1836   20.3906 N   0  0  0  0  0  0
  -31.7320  -14.8154   20.0331 O   0  0  0  0  0  0
  -21.6629   -6.8866   21.4233 O   0  0  0  0  0  0
  -22.3517  -14.5533   20.6700 O   0  0  0  0  0  0
  -24.6254  -31.8622   23.2060 C   0  0  0  0  0  0
  -25.9112  -32.4787   23.8372 C   0  0  1  0  0  0
  -27.2221  -27.3387   20.1234 C   0  0  0  0  0  0
  -25.5943  -33.8586   24.2298 N   0  0  0  0  0  0
  -23.4162  -30.4874   21.5493 C   0  0  2  0  0  0
  -24.8626  -28.9472   20.1134 C   0  0  0  0  0  0
  -22.7445  -29.4646   22.4969 C   0  0  0  0  0  0
  -18.0271  -28.1382   22.8493 C   0  0  0  0  0  0
  -24.1493  -36.7289   23.2643 C   0  0  0  0  0  0
  -25.9562  -30.8003   21.3720 C   0  0  0  0  0  0
  -26.0316  -29.4301   20.7143 C   0  0  0  0  0  0
  -27.2167  -28.6386   20.7083 C   0  0  0  0  0  0
  -26.0328  -26.9093   19.4885 C   0  0  0  0  0  0
  -24.8649  -27.6907   19.4910 C   0  0  0  0  0  0
  -23.6281  -29.8227   20.1635 C   0  0  0  0  0  0
  -25.4114  -36.3083   24.0341 C   0  0  1  0  0  0
  -20.5867  -28.3685   23.1292 C   0  0  2  0  0  0
  -20.6779  -26.9418   22.5411 C   0  0  0  0  0  0
  -19.5761  -26.6387   21.5214 C   0  0  0  0  0  0
  -18.1929  -26.7924   22.1618 C   0  0  0  0  0  0
  -19.1520  -28.8844   23.2892 C   0  0  0  0  0  0
  -18.9465  -30.1451   23.8906 C   0  0  0  0  0  0
  -17.6473  -30.6598   24.0555 C   0  0  0  0  0  0
  -25.9050  -34.9454   23.5108 C   0  0  0  0  0  0
  -16.5356  -29.9092   23.6348 C   0  0  0  0  0  0
  -16.7261  -28.6508   23.0373 C   0  0  0  0  0  0
  -26.4506  -31.6581   25.0730 C   0  0  0  0  0  0
  -25.3737  -31.3691   26.1456 C   0  0  0  0  0  0
  -27.0362  -30.3014   24.6166 C   0  0  0  0  0  0
  -27.6093  -32.4289   25.7475 C   0  0  0  0  0  0
  -27.5567  -37.1799   24.8469 C   0  0  0  0  0  0
  -21.4165  -29.3046   22.3689 N   0  0  0  0  0  0
  -26.4281  -37.3782   23.9406 N   0  0  0  0  0  0
  -24.6847  -31.0645   22.1003 N   0  0  0  0  0  0
  -23.4159  -28.8187   23.3049 O   0  0  0  0  0  0
  -28.3328  -26.4877   20.1775 O   0  0  0  0  0  0
  -26.5601  -34.8916   22.4665 O   0  0  0  0  0  0
  -23.5422  -32.1402   23.7416 O   0  0  0  0  0  0
  -31.0008  -19.2961   20.3965 C   0  0  0  0  0  0
  -31.0321  -17.8906   20.6213 C   0  0  0  0  0  0
  -28.7489  -19.3908   21.1959 C   0  0  0  0  0  0
  -29.8706  -20.0975   20.6991 C   0  0  0  0  0  0
  -29.9335  -17.1751   21.1655 C   0  0  0  0  0  0
  -28.7657  -17.9790   21.4308 C   0  0  0  0  0  0
  -29.9335  -21.6026   20.4926 C   0  0  0  0  0  0
  -28.9805  -22.5771   20.6330 C   0  0  0  0  0  0
  -30.0743  -15.6941   21.5907 C   0  0  0  0  0  0
  -29.2335  -24.0580   20.4017 C   0  0  0  0  0  0
  -27.2268  -17.7183   23.4616 C   0  0  0  0  0  0
  -27.4706  -17.3818   21.9833 C   0  0  0  0  0  0
  -28.0272  -25.0615   20.4257 C   0  0  0  0  0  0
  -29.7534  -15.3868   22.7801 N   0  0  0  0  0  0
  -30.3669  -24.5018   20.1896 O   0  0  0  0  0  0
  -31.4756  -12.5300   19.1603 H   0  0  0  0  0  0
  -30.3736  -11.3943   19.8732 H   0  0  0  0  0  0
  -29.7788  -11.7986   17.4730 H   0  0  0  0  0  0
  -29.6477  -13.5132   17.7687 H   0  0  0  0  0  0
  -27.8764  -11.2995   18.8581 H   0  0  0  0  0  0
  -27.3754  -12.5861   17.7919 H   0  0  0  0  0  0
  -27.6890  -14.2566   19.5561 H   0  0  0  0  0  0
  -28.6967  -11.9767   21.3208 H   0  0  0  0  0  0
  -28.3652  -13.5732   21.8765 H   0  0  0  0  0  0
  -25.2740   -9.5668   22.4767 H   0  0  0  0  0  0
  -23.9965   -7.4631   22.7481 H   0  0  0  0  0  0
  -21.0819   -8.8758   19.8964 H   0  0  0  0  0  0
  -22.3669  -10.9658   19.6162 H   0  0  0  0  0  0
  -21.2006   -7.6139   23.9704 H   0  0  0  0  0  0
  -21.1476   -6.0518   25.9071 H   0  0  0  0  0  0
  -22.0600   -2.7601   23.2835 H   0  0  0  0  0  0
  -22.4080  -11.9882   22.4813 H   0  0  0  0  0  0
  -21.1092  -13.1268   22.2634 H   0  0  0  0  0  0
  -24.6436  -15.8321   20.4927 H   0  0  0  0  0  0
  -26.2616  -15.6227   20.0518 H   0  0  0  0  0  0
  -26.7172  -32.5461   23.1109 H   0  0  0  0  0  0
  -25.0117  -33.9742   25.0461 H   0  0  0  0  0  0
  -22.7115  -31.3097   21.4071 H   0  0  0  0  0  0
  -23.3756  -35.9623   23.3338 H   0  0  0  0  0  0
  -24.3579  -36.8874   22.2046 H   0  0  0  0  0  0
  -23.7247  -37.6510   23.6636 H   0  0  0  0  0  0
  -26.0814  -31.5654   20.6048 H   0  0  0  0  0  0
  -26.8374  -30.8483   22.0000 H   0  0  0  0  0  0
  -28.1105  -29.0046   21.1930 H   0  0  0  0  0  0
  -25.9747  -25.9596   18.9818 H   0  0  0  0  0  0
  -23.9698  -27.3160   19.0140 H   0  0  0  0  0  0
  -23.7392  -30.6004   19.4068 H   0  0  0  0  0  0
  -22.7498  -29.2497   19.8647 H   0  0  0  0  0  0
  -25.1289  -36.1945   25.0835 H   0  0  0  0  0  0
  -20.9960  -28.3259   24.1411 H   0  0  0  0  0  0
  -20.5716  -26.2301   23.3612 H   0  0  0  0  0  0
  -21.6650  -26.7481   22.1180 H   0  0  0  0  0  0
  -19.6948  -25.6305   21.1243 H   0  0  0  0  0  0
  -19.6701  -27.3208   20.6756 H   0  0  0  0  0  0
  -17.4210  -26.6695   21.4002 H   0  0  0  0  0  0
  -18.0319  -26.0040   22.8989 H   0  0  0  0  0  0
  -19.7943  -30.7260   24.2287 H   0  0  0  0  0  0
  -17.5026  -31.6280   24.5150 H   0  0  0  0  0  0
  -15.5361  -30.3001   23.7681 H   0  0  0  0  0  0
  -15.8655  -28.0826   22.7113 H   0  0  0  0  0  0
  -24.5960  -30.6978   25.7784 H   0  0  0  0  0  0
  -24.8863  -32.2843   26.4832 H   0  0  0  0  0  0
  -25.8065  -30.8917   27.0258 H   0  0  0  0  0  0
  -26.2937  -29.6731   24.1238 H   0  0  0  0  0  0
  -27.4136  -29.7295   25.4653 H   0  0  0  0  0  0
  -27.8761  -30.4321   23.9340 H   0  0  0  0  0  0
  -27.2760  -33.3638   26.1994 H   0  0  0  0  0  0
  -28.3928  -32.6756   25.0291 H   0  0  0  0  0  0
  -28.0725  -31.8423   26.5426 H   0  0  0  0  0  0
  -28.2609  -38.0074   24.7501 H   0  0  0  0  0  0
  -28.1039  -36.2607   24.6317 H   0  0  0  0  0  0
  -27.2280  -37.1468   25.8872 H   0  0  0  0  0  0
  -20.9359  -29.8746   21.6875 H   0  0  0  0  0  0
  -26.0179  -38.2869   24.1390 H   0  0  0  0  0  0
  -31.8907  -19.7693   20.0066 H   0  0  0  0  0  0
  -31.9541  -17.3656   20.4141 H   0  0  0  0  0  0
  -27.8509  -19.9451   21.4323 H   0  0  0  0  0  0
  -30.9128  -21.9496   20.1933 H   0  0  0  0  0  0
  -27.9784  -22.3042   20.9288 H   0  0  0  0  0  0
  -26.2790  -17.2963   23.7973 H   0  0  0  0  0  0
  -27.1784  -18.7945   23.6300 H   0  0  0  0  0  0
  -28.0099  -17.3152   24.1020 H   0  0  0  0  0  0
  -27.4383  -16.3024   21.8450 H   0  0  0  0  0  0
  -26.6372  -17.7672   21.3936 H   0  0  0  0  0  0
  -27.5412  -24.9765   21.3989 H   0  0  0  0  0  0
  -27.3276  -24.6753   19.6898 H   0  0  0  0  0  0
  -29.4110  -16.2007   23.2754 H   0  0  0  0  0  0
  1 25  1  0  0  0
  1 30  2  0  0  0
  1 79  1  0  0  0
  2  3  1  0  0  0
  2 25  1  0  0  0
  2 86  1  0  0  0
  2 87  1  0  0  0
  3  4  1  0  0  0
  3 88  1  0  0  0
  3 89  1  0  0  0
  4  5  1  0  0  0
  4 90  1  0  0  0
  4 91  1  0  0  0
  5  6  1  0  0  0
  5 26  1  0  0  0
  5 92  1  0  0  0
  6 25  1  0  0  0
  6 93  1  0  0  0
  6 94  1  0  0  0
  7  8  2  0  0  0
  7 26  1  0  0  0
  7 29  1  0  0  0
  8  9  1  0  0  0
  8 22  1  0  0  0
  9 10  1  0  0  0
  9 27  2  0  0  0
 10 11  2  0  0  0
 10 15  1  0  0  0
 11 12  1  0  0  0
 11 95  1  0  0  0
 12 13  2  0  0  0
 12 96  1  0  0  0
 13 14  1  0  0  0
 13 31  1  0  0  0
 14 15  2  0  0  0
 14 97  1  0  0  0
 15 98  1  0  0  0
 16 17  2  0  0  0
 16 21  1  0  0  0
 16 31  1  0  0  0
 17 18  1  0  0  0
 17 99  1  0  0  0
 18 19  2  0  0  0
 18100  1  0  0  0
 19 20  1  0  0  0
 19 24  1  0  0  0
 20 21  2  0  0  0
 20101  1  0  0  0
 21 23  1  0  0  0
 22 28  1  0  0  0
 22 32  2  0  0  0
 26 27  1  0  0  0
 28102  1  0  0  0
 28103  1  0  0  0
 29104  1  0  0  0
 29105  1  0  0  0
 33 34  1  0  0  0
 33 66  1  0  0  0
 33 70  2  0  0  0
 34 36  1  0  0  0
 34 59  1  0  0  0
 34106  1  0  0  0
 35 44  2  0  0  0
 35 45  1  0  0  0
 35 68  1  0  0  0
 36 56  1  0  0  0
 36107  1  0  0  0
 37 39  1  0  0  0
 37 47  1  0  0  0
 37 66  1  0  0  0
 37108  1  0  0  0
 38 43  2  0  0  0
 38 46  1  0  0  0
 38 47  1  0  0  0
 39 64  1  0  0  0
 39 67  2  0  0  0
 40 52  1  0  0  0
 40 53  2  0  0  0
 40 58  1  0  0  0
 41109  1  0  0  0
 41110  1  0  0  0
 41111  1  0  0  0
 41 48  1  0  0  0
 42 43  1  0  0  0
 42 66  1  0  0  0
 42112  1  0  0  0
 42113  1  0  0  0
 43 44  1  0  0  0
 44114  1  0  0  0
 45 46  2  0  0  0
 45115  1  0  0  0
 46116  1  0  0  0
 47117  1  0  0  0
 47118  1  0  0  0
 48 56  1  0  0  0
 48 65  1  0  0  0
 48119  1  0  0  0
 49 50  1  0  0  0
 49 53  1  0  0  0
 49 64  1  0  0  0
 49120  1  0  0  0
 50 51  1  0  0  0
 50121  1  0  0  0
 50122  1  0  0  0
 51 52  1  0  0  0
 51123  1  0  0  0
 51124  1  0  0  0
 52125  1  0  0  0
 52126  1  0  0  0
 53 54  1  0  0  0
 54 55  2  0  0  0
 54127  1  0  0  0
 55 57  1  0  0  0
 55128  1  0  0  0
 56 69  2  0  0  0
 57 58  2  0  0  0
 57129  1  0  0  0
 58130  1  0  0  0
 59 60  1  0  0  0
 59 61  1  0  0  0
 59 62  1  0  0  0
 60131  1  0  0  0
 60132  1  0  0  0
 60133  1  0  0  0
 61134  1  0  0  0
 61135  1  0  0  0
 61136  1  0  0  0
 62137  1  0  0  0
 62138  1  0  0  0
 62139  1  0  0  0
 63 65  1  0  0  0
 63140  1  0  0  0
 63141  1  0  0  0
 63142  1  0  0  0
 64143  1  0  0  0
 65144  1  0  0  0
 68 83  1  0  0  0
 71 72  2  0  0  0
 71 74  1  0  0  0
 71145  1  0  0  0
 72 75  1  0  0  0
 72146  1  0  0  0
 73 74  2  0  0  0
 73 76  1  0  0  0
 73147  1  0  0  0
 74 77  1  0  0  0
 75 76  2  0  0  0
 75 79  1  0  0  0
 76 82  1  0  0  0
 77 78  2  0  0  0
 77148  1  0  0  0
 78 80  1  0  0  0
 78149  1  0  0  0
 79 84  2  0  0  0
 80 83  1  0  0  0
 80 85  2  0  0  0
 81 82  1  0  0  0
 81150  1  0  0  0
 81151  1  0  0  0
 81152  1  0  0  0
 82153  1  0  0  0
 82154  1  0  0  0
 83155  1  0  0  0
 83156  1  0  0  0
 84157  1  0  0  0
M  ISO  4   1 100  68 101  79 100  83 101
M  END
> <chiral flag>
0

> <version>
0

> <s_m_source_file>
/data/baiqing/PycharmProjects/Reinvent-master-3.2/result/LINK_invent/BTK/process_docking_weight1_custom_product_contain_oxygen_bond_distance_aromatic_linkinvent_7_9_3/rearranged_h_0125.sdf

> <i_m_source_file_index>
31

> <r_mmod_Potential_Energy-OPLS-2005>
212.843368530273

> <r_mmod_Stretch_Energy-OPLS-2005>
85.6689834594727

> <r_mmod_Bend_Energy-OPLS-2005>
133.361953735352

> <r_mmod_Torsional_Energy-OPLS-2005>
214.959671020508

> <r_mmod_Improper_Torsional_Energy-OPLS-2005>
3.06734275817871

> <r_mmod_Van_der_Waal_Energy-OPLS-2005>
151.041275024414

> <r_mmod_Electrostatic_Energy-OPLS-2005>
-201.911239624023

> <r_mmod_Solvation_Energy-OPLS-2005>
-212.750457763672

> <b_mmod_Minimization_Converged-OPLS-2005>
0

> <r_mmod_RMS_Derivative-OPLS-2005>
2.34164953231812

$$$$
31
                    3D
 Structure written by MMmdl.
160169  0  0  1  0            999 V2000
  -30.6228  -14.5406   20.5239 C   0  0  0  0  0  0
  -30.4327  -12.3216   19.4551 C   0  0  0  0  0  0
  -29.5077  -12.5017   18.2301 C   0  0  0  0  0  0
  -28.0306  -12.3425   18.6342 C   0  0  0  0  0  0
  -27.6606  -13.1974   19.8753 C   0  0  2  0  0  0
  -28.6950  -12.9914   21.0078 C   0  0  0  0  0  0
  -25.2605  -13.8122   20.5645 C   0  0  0  0  0  0
  -24.1839  -13.0419   20.9170 C   0  0  0  0  0  0
  -24.6378  -11.6897   20.8722 C   0  0  0  0  0  0
  -23.9036  -10.4298   21.0396 C   0  0  0  0  0  0
  -24.3601   -9.4215   21.9162 C   0  0  0  0  0  0
  -23.6289   -8.2249   22.0772 C   0  0  0  0  0  0
  -22.4246   -8.0278   21.3583 C   0  0  0  0  0  0
  -21.9888   -9.0241   20.4667 C   0  0  0  0  0  0
  -22.7207  -10.2130   20.3056 C   0  0  0  0  0  0
  -21.6871   -6.0728   22.5279 C   0  0  0  0  0  0
  -21.4008   -6.5625   23.8208 C   0  0  0  0  0  0
  -21.3674   -5.6779   24.9165 C   0  0  0  0  0  0
  -21.6067   -4.3050   24.7222 C   0  0  0  0  0  0
  -21.8809   -3.8139   23.4339 C   0  0  0  0  0  0
  -21.9197   -4.6958   22.3398 C   0  0  0  0  0  0
  -22.7882  -13.5232   21.1818 C   0  0  0  0  0  0
  -22.1671   -4.2127   21.0986 F   0  0  0  0  0  0
  -21.5643   -3.4537   25.7741 F   0  0  0  0  0  0
  -30.0286  -13.3118   20.4720 N   0  0  0  0  0  0
  -26.3014  -12.9261   20.3328 N   0  0  0  0  0  0
  -25.9292  -11.6437   20.5755 N   0  0  0  0  0  0
  -22.0513  -12.8252   22.0399 N   0  0  0  0  0  0
  -25.4325  -15.1834   20.4054 N   0  0  0  0  0  0
  -31.7266  -14.7623   20.0220 O   0  0  0  0  0  0
  -21.6643   -6.8851   21.4238 O   0  0  0  0  0  0
  -22.3575  -14.5519   20.6648 O   0  0  0  0  0  0
  -24.6240  -31.8615   23.2046 C   0  0  0  0  0  0
  -25.9099  -32.4791   23.8369 C   0  0  1  0  0  0
  -27.2301  -27.3548   20.1165 C   0  0  0  0  0  0
  -25.5941  -33.8599   24.2296 N   0  0  0  0  0  0
  -23.4178  -30.4840   21.5465 C   0  0  2  0  0  0
  -24.8714  -28.9510   20.1020 C   0  0  0  0  0  0
  -22.7478  -29.4614   22.4939 C   0  0  0  0  0  0
  -18.0286  -28.1398   22.8475 C   0  0  0  0  0  0
  -24.1495  -36.7302   23.2631 C   0  0  0  0  0  0
  -25.9587  -30.7997   21.3792 C   0  0  0  0  0  0
  -26.0368  -29.4339   20.7161 C   0  0  0  0  0  0
  -27.2220  -28.6453   20.7176 C   0  0  0  0  0  0
  -26.0500  -26.9152   19.4799 C   0  0  0  0  0  0
  -24.8790  -27.6961   19.4712 C   0  0  0  0  0  0
  -23.6349  -29.8250   20.1589 C   0  0  0  0  0  0
  -25.4122  -36.3092   24.0324 C   0  0  1  0  0  0
  -20.5888  -28.3719   23.1290 C   0  0  2  0  0  0
  -20.6789  -26.9447   22.5424 C   0  0  0  0  0  0
  -19.5769  -26.6399   21.5229 C   0  0  0  0  0  0
  -18.1935  -26.7945   22.1612 C   0  0  0  0  0  0
  -19.1529  -28.8869   23.2877 C   0  0  0  0  0  0
  -18.9458  -30.1469   23.8903 C   0  0  0  0  0  0
  -17.6454  -30.6601   24.0577 C   0  0  0  0  0  0
  -25.9066  -34.9468   23.5109 C   0  0  0  0  0  0
  -16.5349  -29.9090   23.6345 C   0  0  0  0  0  0
  -16.7270  -28.6510   23.0352 C   0  0  0  0  0  0
  -26.4501  -31.6587   25.0727 C   0  0  0  0  0  0
  -25.3737  -31.3740   26.1452 C   0  0  0  0  0  0
  -27.0329  -30.2993   24.6200 C   0  0  0  0  0  0
  -27.6063  -32.4322   25.7494 C   0  0  0  0  0  0
  -27.5600  -37.1794   24.8448 C   0  0  0  0  0  0
  -21.4197  -29.3043   22.3670 N   0  0  0  0  0  0
  -26.4295  -37.3798   23.9423 N   0  0  0  0  0  0
  -24.6846  -31.0642   22.0999 N   0  0  0  0  0  0
  -23.4185  -28.8178   23.3033 O   0  0  0  0  0  0
  -28.2869  -26.4506   20.2109 O   0  0  0  0  0  0
  -26.5615  -34.8919   22.4668 O   0  0  0  0  0  0
  -23.5412  -32.1422   23.7397 O   0  0  0  0  0  0
  -31.3550  -18.2162   20.2847 C   0  0  0  0  0  0
  -31.1576  -20.6675   20.2993 C   0  0  0  0  0  0
  -29.1719  -19.2780   20.4091 C   0  0  0  0  0  0
  -31.9517  -19.4925   20.2704 C   0  0  0  0  0  0
  -29.9585  -18.0869   20.3462 C   0  0  0  0  0  0
  -29.7466  -20.5913   20.3901 C   0  0  0  0  0  0
  -28.3967  -24.0602   21.0856 C   0  0  0  0  0  0
  -28.0090  -25.3761   21.0636 C   0  0  0  0  0  0
  -27.8304  -23.1103   22.1183 C   0  0  0  0  0  0
  -29.3006  -23.1795   20.2018 C   0  0  0  0  0  0
  -27.8407  -21.7305   21.4529 C   0  0  0  0  0  0
  -33.4634  -19.5766   20.2240 C   0  0  0  0  0  0
  -29.3139  -16.6888   20.2229 C   0  0  0  0  0  0
  -28.9266  -21.7616   20.4812 N   0  0  0  0  0  0
  -29.8365  -15.5348   21.0007 N   0  0  0  0  0  0
  -31.4774  -12.4277   19.1600 H   0  0  0  0  0  0
  -30.3424  -11.3115   19.8607 H   0  0  0  0  0  0
  -29.7572  -11.7803   17.4525 H   0  0  0  0  0  0
  -29.6675  -13.4892   17.7954 H   0  0  0  0  0  0
  -27.8590  -11.2866   18.8512 H   0  0  0  0  0  0
  -27.3798  -12.5879   17.7954 H   0  0  0  0  0  0
  -27.6963  -14.2384   19.5566 H   0  0  0  0  0  0
  -28.6785  -11.9568   21.3516 H   0  0  0  0  0  0
  -28.4397  -13.5885   21.8834 H   0  0  0  0  0  0
  -25.2745   -9.5673   22.4728 H   0  0  0  0  0  0
  -24.0010   -7.4614   22.7469 H   0  0  0  0  0  0
  -21.0834   -8.8738   19.8947 H   0  0  0  0  0  0
  -22.3656  -10.9664   19.6169 H   0  0  0  0  0  0
  -21.1987   -7.6122   23.9688 H   0  0  0  0  0  0
  -21.1526   -6.0522   25.9067 H   0  0  0  0  0  0
  -22.0578   -2.7598   23.2843 H   0  0  0  0  0  0
  -22.4153  -11.9932   22.4783 H   0  0  0  0  0  0
  -21.1123  -13.1300   22.2587 H   0  0  0  0  0  0
  -24.6607  -15.8337   20.4993 H   0  0  0  0  0  0
  -26.2723  -15.6209   20.0491 H   0  0  0  0  0  0
  -26.7163  -32.5476   23.1119 H   0  0  0  0  0  0
  -25.0120  -33.9767   25.0454 H   0  0  0  0  0  0
  -22.7106  -31.3056   21.4069 H   0  0  0  0  0  0
  -23.3792  -35.9600   23.3237 H   0  0  0  0  0  0
  -24.3601  -36.8985   22.2058 H   0  0  0  0  0  0
  -23.7193  -37.6463   23.6691 H   0  0  0  0  0  0
  -26.0950  -31.5698   20.6189 H   0  0  0  0  0  0
  -26.8354  -30.8404   22.0129 H   0  0  0  0  0  0
  -28.1107  -29.0004   21.2184 H   0  0  0  0  0  0
  -26.0314  -25.9389   19.0160 H   0  0  0  0  0  0
  -23.9896  -27.3234   18.9843 H   0  0  0  0  0  0
  -23.7510  -30.6072   19.4078 H   0  0  0  0  0  0
  -22.7561  -29.2518   19.8568 H   0  0  0  0  0  0
  -25.1293  -36.1956   25.0815 H   0  0  0  0  0  0
  -20.9969  -28.3313   24.1411 H   0  0  0  0  0  0
  -20.5763  -26.2323   23.3616 H   0  0  0  0  0  0
  -21.6658  -26.7511   22.1189 H   0  0  0  0  0  0
  -19.6961  -25.6303   21.1260 H   0  0  0  0  0  0
  -19.6730  -27.3214   20.6757 H   0  0  0  0  0  0
  -17.4233  -26.6722   21.3976 H   0  0  0  0  0  0
  -18.0309  -26.0073   22.8987 H   0  0  0  0  0  0
  -19.7937  -30.7290   24.2277 H   0  0  0  0  0  0
  -17.5011  -31.6282   24.5187 H   0  0  0  0  0  0
  -15.5353  -30.3003   23.7665 H   0  0  0  0  0  0
  -15.8666  -28.0847   22.7053 H   0  0  0  0  0  0
  -24.5942  -30.7044   25.7799 H   0  0  0  0  0  0
  -24.8889  -32.2907   26.4827 H   0  0  0  0  0  0
  -25.8067  -30.8971   27.0259 H   0  0  0  0  0  0
  -26.2897  -29.6735   24.1244 H   0  0  0  0  0  0
  -27.4022  -29.7261   25.4723 H   0  0  0  0  0  0
  -27.8783  -30.4242   23.9427 H   0  0  0  0  0  0
  -27.2695  -33.3680   26.1987 H   0  0  0  0  0  0
  -28.3921  -32.6797   25.0332 H   0  0  0  0  0  0
  -28.0676  -31.8487   26.5479 H   0  0  0  0  0  0
  -28.2568  -38.0143   24.7587 H   0  0  0  0  0  0
  -28.1144  -36.2682   24.6158 H   0  0  0  0  0  0
  -27.2338  -37.1300   25.8851 H   0  0  0  0  0  0
  -20.9389  -29.8683   21.6817 H   0  0  0  0  0  0
  -26.0180  -38.2870   24.1470 H   0  0  0  0  0  0
  -31.9685  -17.3274   20.2210 H   0  0  0  0  0  0
  -31.6514  -21.6280   20.2786 H   0  0  0  0  0  0
  -28.0967  -19.1717   20.4486 H   0  0  0  0  0  0
  -27.3257  -25.6988   21.8395 H   0  0  0  0  0  0
  -26.8375  -23.3938   22.4675 H   0  0  0  0  0  0
  -28.4998  -23.1043   22.9790 H   0  0  0  0  0  0
  -30.3398  -23.3669   20.4670 H   0  0  0  0  0  0
  -29.1708  -23.4212   19.1461 H   0  0  0  0  0  0
  -26.9049  -21.5555   20.9192 H   0  0  0  0  0  0
  -27.9560  -20.9378   22.1973 H   0  0  0  0  0  0
  -33.9099  -18.5816   20.2729 H   0  0  0  0  0  0
  -33.8400  -20.1467   21.0713 H   0  0  0  0  0  0
  -33.8034  -20.0533   19.3057 H   0  0  0  0  0  0
  -29.2900  -16.4271   19.1627 H   0  0  0  0  0  0
  -28.2666  -16.7841   20.5081 H   0  0  0  0  0  0
  -29.1486  -15.1813   21.6491 H   0  0  0  0  0  0
  1 25  1  0  0  0
  1 30  2  0  0  0
  1 85  1  0  0  0
  2  3  1  0  0  0
  2 25  1  0  0  0
  2 86  1  0  0  0
  2 87  1  0  0  0
  3  4  1  0  0  0
  3 88  1  0  0  0
  3 89  1  0  0  0
  4  5  1  0  0  0
  4 90  1  0  0  0
  4 91  1  0  0  0
  5  6  1  0  0  0
  5 26  1  0  0  0
  5 92  1  0  0  0
  6 25  1  0  0  0
  6 93  1  0  0  0
  6 94  1  0  0  0
  7  8  2  0  0  0
  7 26  1  0  0  0
  7 29  1  0  0  0
  8  9  1  0  0  0
  8 22  1  0  0  0
  9 10  1  0  0  0
  9 27  2  0  0  0
 10 11  2  0  0  0
 10 15  1  0  0  0
 11 12  1  0  0  0
 11 95  1  0  0  0
 12 13  2  0  0  0
 12 96  1  0  0  0
 13 14  1  0  0  0
 13 31  1  0  0  0
 14 15  2  0  0  0
 14 97  1  0  0  0
 15 98  1  0  0  0
 16 17  2  0  0  0
 16 21  1  0  0  0
 16 31  1  0  0  0
 17 18  1  0  0  0
 17 99  1  0  0  0
 18 19  2  0  0  0
 18100  1  0  0  0
 19 20  1  0  0  0
 19 24  1  0  0  0
 20 21  2  0  0  0
 20101  1  0  0  0
 21 23  1  0  0  0
 22 28  1  0  0  0
 22 32  2  0  0  0
 26 27  1  0  0  0
 28102  1  0  0  0
 28103  1  0  0  0
 29104  1  0  0  0
 29105  1  0  0  0
 33 34  1  0  0  0
 33 66  1  0  0  0
 33 70  2  0  0  0
 34 36  1  0  0  0
 34 59  1  0  0  0
 34106  1  0  0  0
 35 44  2  0  0  0
 35 45  1  0  0  0
 35 68  1  0  0  0
 36 56  1  0  0  0
 36107  1  0  0  0
 37 39  1  0  0  0
 37 47  1  0  0  0
 37 66  1  0  0  0
 37108  1  0  0  0
 38 43  2  0  0  0
 38 46  1  0  0  0
 38 47  1  0  0  0
 39 64  1  0  0  0
 39 67  2  0  0  0
 40 52  1  0  0  0
 40 53  2  0  0  0
 40 58  1  0  0  0
 41109  1  0  0  0
 41110  1  0  0  0
 41111  1  0  0  0
 41 48  1  0  0  0
 42 43  1  0  0  0
 42 66  1  0  0  0
 42112  1  0  0  0
 42113  1  0  0  0
 43 44  1  0  0  0
 44114  1  0  0  0
 45 46  2  0  0  0
 45115  1  0  0  0
 46116  1  0  0  0
 47117  1  0  0  0
 47118  1  0  0  0
 48 56  1  0  0  0
 48 65  1  0  0  0
 48119  1  0  0  0
 49 50  1  0  0  0
 49 53  1  0  0  0
 49 64  1  0  0  0
 49120  1  0  0  0
 50 51  1  0  0  0
 50121  1  0  0  0
 50122  1  0  0  0
 51 52  1  0  0  0
 51123  1  0  0  0
 51124  1  0  0  0
 52125  1  0  0  0
 52126  1  0  0  0
 53 54  1  0  0  0
 54 55  2  0  0  0
 54127  1  0  0  0
 55 57  1  0  0  0
 55128  1  0  0  0
 56 69  2  0  0  0
 57 58  2  0  0  0
 57129  1  0  0  0
 58130  1  0  0  0
 59 60  1  0  0  0
 59 61  1  0  0  0
 59 62  1  0  0  0
 60131  1  0  0  0
 60132  1  0  0  0
 60133  1  0  0  0
 61134  1  0  0  0
 61135  1  0  0  0
 61136  1  0  0  0
 62137  1  0  0  0
 62138  1  0  0  0
 62139  1  0  0  0
 63 65  1  0  0  0
 63140  1  0  0  0
 63141  1  0  0  0
 63142  1  0  0  0
 64143  1  0  0  0
 65144  1  0  0  0
 68 78  1  0  0  0
 71 74  2  0  0  0
 71 75  1  0  0  0
 71145  1  0  0  0
 72 74  1  0  0  0
 72 76  2  0  0  0
 72146  1  0  0  0
 73 75  2  0  0  0
 73 76  1  0  0  0
 73147  1  0  0  0
 74 82  1  0  0  0
 75 83  1  0  0  0
 76 84  1  0  0  0
 77 78  2  0  0  0
 77 79  1  0  0  0
 77 80  1  0  0  0
 78148  1  0  0  0
 79 81  1  0  0  0
 79149  1  0  0  0
 79150  1  0  0  0
 80 84  1  0  0  0
 80151  1  0  0  0
 80152  1  0  0  0
 81 84  1  0  0  0
 81153  1  0  0  0
 81154  1  0  0  0
 82155  1  0  0  0
 82156  1  0  0  0
 82157  1  0  0  0
 83 85  1  0  0  0
 83158  1  0  0  0
 83159  1  0  0  0
 85160  1  0  0  0
M  ISO  4   1 100  68 101  78 101  85 100
M  END
> <chiral flag>
0

> <version>
0

> <s_m_source_file>
/data/baiqing/PycharmProjects/Reinvent-master-3.2/result/LINK_invent/BTK/process_docking_weight1_custom_product_contain_oxygen_bond_distance_aromatic_linkinvent_7_9_3/rearranged_h_0125.sdf

> <i_m_source_file_index>
32

> <r_mmod_Potential_Energy-OPLS-2005>
54.5386772155762

> <r_mmod_Stretch_Energy-OPLS-2005>
56.2737846374512

> <r_mmod_Bend_Energy-OPLS-2005>
181.549453735352

> <r_mmod_Torsional_Energy-OPLS-2005>
263.423889160156

> <r_mmod_Improper_Torsional_Energy-OPLS-2005>
10.6444683074951

> <r_mmod_Van_der_Waal_Energy-OPLS-2005>
141.556091308594

> <r_mmod_Electrostatic_Energy-OPLS-2005>
-403.760192871094

> <r_mmod_Solvation_Energy-OPLS-2005>
-232.529754638672

> <b_mmod_Minimization_Converged-OPLS-2005>
0

> <r_mmod_RMS_Derivative-OPLS-2005>
4.11667537689209

$$$$
32
                    3D
 Structure written by MMmdl.
159167  0  0  1  0            999 V2000
  -30.5910  -14.6437   20.5099 C   0  0  0  0  0  0
  -30.4475  -12.3993   19.4429 C   0  0  0  0  0  0
  -29.5102  -12.5216   18.2193 C   0  0  0  0  0  0
  -28.0307  -12.3565   18.6267 C   0  0  0  0  0  0
  -27.6553  -13.2105   19.8667 C   0  0  2  0  0  0
  -28.7011  -13.0378   20.9919 C   0  0  0  0  0  0
  -25.2549  -13.8128   20.5642 C   0  0  0  0  0  0
  -24.1834  -13.0414   20.9212 C   0  0  0  0  0  0
  -24.6406  -11.6887   20.8757 C   0  0  0  0  0  0
  -23.9071  -10.4283   21.0418 C   0  0  0  0  0  0
  -24.3621   -9.4196   21.9194 C   0  0  0  0  0  0
  -23.6293   -8.2229   22.0756 C   0  0  0  0  0  0
  -22.4273   -8.0276   21.3549 C   0  0  0  0  0  0
  -21.9914   -9.0249   20.4652 C   0  0  0  0  0  0
  -22.7245  -10.2128   20.3060 C   0  0  0  0  0  0
  -21.6850   -6.0736   22.5287 C   0  0  0  0  0  0
  -21.4010   -6.5642   23.8222 C   0  0  0  0  0  0
  -21.3658   -5.6794   24.9183 C   0  0  0  0  0  0
  -21.6041   -4.3055   24.7235 C   0  0  0  0  0  0
  -21.8818   -3.8152   23.4354 C   0  0  0  0  0  0
  -21.9194   -4.6966   22.3409 C   0  0  0  0  0  0
  -22.7859  -13.5218   21.1857 C   0  0  0  0  0  0
  -22.1665   -4.2152   21.0990 F   0  0  0  0  0  0
  -21.5624   -3.4540   25.7745 F   0  0  0  0  0  0
  -30.0174  -13.4006   20.4366 N   0  0  0  0  0  0
  -26.2994  -12.9310   20.3305 N   0  0  0  0  0  0
  -25.9329  -11.6475   20.5758 N   0  0  0  0  0  0
  -22.0492  -12.8214   22.0410 N   0  0  0  0  0  0
  -25.4206  -15.1832   20.3937 N   0  0  0  0  0  0
  -31.7460  -14.8515   20.1235 O   0  0  0  0  0  0
  -21.6638   -6.8876   21.4243 O   0  0  0  0  0  0
  -22.3551  -14.5534   20.6709 O   0  0  0  0  0  0
  -24.6220  -31.8609   23.2005 C   0  0  0  0  0  0
  -25.9069  -32.4783   23.8332 C   0  0  1  0  0  0
  -27.2325  -27.3331   20.1310 C   0  0  0  0  0  0
  -25.5912  -33.8582   24.2281 N   0  0  0  0  0  0
  -23.4163  -30.4816   21.5405 C   0  0  2  0  0  0
  -24.8650  -28.9244   20.1204 C   0  0  0  0  0  0
  -22.7436  -29.4647   22.4917 C   0  0  0  0  0  0
  -18.0294  -28.1440   22.8493 C   0  0  0  0  0  0
  -24.1487  -36.7286   23.2639 C   0  0  0  0  0  0
  -25.9517  -30.7988   21.3641 C   0  0  0  0  0  0
  -26.0299  -29.4213   20.7164 C   0  0  0  0  0  0
  -27.2192  -28.6397   20.7060 C   0  0  0  0  0  0
  -26.0463  -26.8690   19.5305 C   0  0  0  0  0  0
  -24.8718  -27.6533   19.5205 C   0  0  0  0  0  0
  -23.6340  -29.8093   20.1582 C   0  0  0  0  0  0
  -25.4116  -36.3087   24.0335 C   0  0  1  0  0  0
  -20.5892  -28.3733   23.1309 C   0  0  2  0  0  0
  -20.6793  -26.9457   22.5425 C   0  0  0  0  0  0
  -19.5761  -26.6436   21.5233 C   0  0  0  0  0  0
  -18.1942  -26.7974   22.1642 C   0  0  0  0  0  0
  -19.1544  -28.8896   23.2904 C   0  0  0  0  0  0
  -18.9463  -30.1504   23.8915 C   0  0  0  0  0  0
  -17.6468  -30.6623   24.0606 C   0  0  0  0  0  0
  -25.9050  -34.9451   23.5105 C   0  0  0  0  0  0
  -16.5360  -29.9139   23.6350 C   0  0  0  0  0  0
  -16.7286  -28.6570   23.0341 C   0  0  0  0  0  0
  -26.4480  -31.6581   25.0688 C   0  0  0  0  0  0
  -25.3728  -31.3738   26.1428 C   0  0  0  0  0  0
  -27.0314  -30.3005   24.6124 C   0  0  0  0  0  0
  -27.6038  -32.4312   25.7458 C   0  0  0  0  0  0
  -27.5584  -37.1806   24.8465 C   0  0  0  0  0  0
  -21.4153  -29.3077   22.3669 N   0  0  0  0  0  0
  -26.4288  -37.3783   23.9421 N   0  0  0  0  0  0
  -24.6820  -31.0642   22.0929 N   0  0  0  0  0  0
  -23.4163  -28.8201   23.3009 O   0  0  0  0  0  0
  -28.3838  -26.5426   20.1068 O   0  0  0  0  0  0
  -26.5614  -34.8910   22.4676 O   0  0  0  0  0  0
  -23.5385  -32.1398   23.7351 O   0  0  0  0  0  0
  -28.1453  -19.0372   20.3878 C   0  0  0  0  0  0
  -28.3752  -17.6366   20.4314 C   0  0  0  0  0  0
  -30.7087  -18.0137   20.8445 C   0  0  0  0  0  0
  -29.1730  -19.9858   20.6210 C   0  0  0  0  0  0
  -30.4803  -19.4339   20.8294 C   0  0  0  0  0  0
  -29.6526  -17.0788   20.6809 C   0  0  0  0  0  0
  -31.9787  -20.4225   22.6169 C   0  0  0  0  0  0
  -28.7661  -21.5039   20.8158 C   0  0  0  0  0  0
  -31.6698  -20.3364   21.1182 C   0  0  0  0  0  0
  -29.1455  -22.6150   19.7538 C   0  0  0  0  0  0
  -28.2773  -23.9535   19.5914 C   0  0  0  0  0  0
  -28.3528  -25.1575   20.6176 C   0  0  0  0  0  0
  -29.7279  -15.6349   20.8907 N   0  0  0  0  0  0
  -31.4865  -12.5452   19.1404 H   0  0  0  0  0  0
  -30.3978  -11.3967   19.8701 H   0  0  0  0  0  0
  -29.7759  -11.7810   17.4639 H   0  0  0  0  0  0
  -29.6492  -13.4963   17.7502 H   0  0  0  0  0  0
  -27.8587  -11.3016   18.8383 H   0  0  0  0  0  0
  -27.3798  -12.6075   17.7883 H   0  0  0  0  0  0
  -27.6782  -14.2502   19.5404 H   0  0  0  0  0  0
  -28.7153  -12.0057   21.3460 H   0  0  0  0  0  0
  -28.4421  -13.6406   21.8639 H   0  0  0  0  0  0
  -25.2767   -9.5667   22.4771 H   0  0  0  0  0  0
  -24.0009   -7.4616   22.7469 H   0  0  0  0  0  0
  -21.0848   -8.8775   19.8950 H   0  0  0  0  0  0
  -22.3716  -10.9670   19.6170 H   0  0  0  0  0  0
  -21.2000   -7.6148   23.9724 H   0  0  0  0  0  0
  -21.1479   -6.0526   25.9089 H   0  0  0  0  0  0
  -22.0596   -2.7609   23.2860 H   0  0  0  0  0  0
  -22.4101  -11.9866   22.4789 H   0  0  0  0  0  0
  -21.1107  -13.1242   22.2601 H   0  0  0  0  0  0
  -24.6336  -15.8204   20.4578 H   0  0  0  0  0  0
  -26.2250  -15.5945   19.9406 H   0  0  0  0  0  0
  -26.7132  -32.5475   23.1078 H   0  0  0  0  0  0
  -25.0065  -33.9734   25.0430 H   0  0  0  0  0  0
  -22.7107  -31.3022   21.3941 H   0  0  0  0  0  0
  -23.3745  -35.9623   23.3296 H   0  0  0  0  0  0
  -24.3575  -36.8911   22.2051 H   0  0  0  0  0  0
  -23.7219  -37.6485   23.6650 H   0  0  0  0  0  0
  -26.0731  -31.5579   20.5904 H   0  0  0  0  0  0
  -26.8340  -30.8569   21.9894 H   0  0  0  0  0  0
  -28.1181  -29.0238   21.1662 H   0  0  0  0  0  0
  -26.0284  -25.8939   19.0628 H   0  0  0  0  0  0
  -23.9754  -27.2670   19.0556 H   0  0  0  0  0  0
  -23.7626  -30.5827   19.3994 H   0  0  0  0  0  0
  -22.7518  -29.2436   19.8517 H   0  0  0  0  0  0
  -25.1292  -36.1934   25.0827 H   0  0  0  0  0  0
  -21.0019  -28.3316   24.1420 H   0  0  0  0  0  0
  -20.5753  -26.2330   23.3619 H   0  0  0  0  0  0
  -21.6664  -26.7538   22.1190 H   0  0  0  0  0  0
  -19.6919  -25.6350   21.1269 H   0  0  0  0  0  0
  -19.6704  -27.3249   20.6761 H   0  0  0  0  0  0
  -17.4222  -26.6756   21.4021 H   0  0  0  0  0  0
  -18.0320  -26.0125   22.9051 H   0  0  0  0  0  0
  -19.7938  -30.7346   24.2250 H   0  0  0  0  0  0
  -17.5026  -31.6287   24.5245 H   0  0  0  0  0  0
  -15.5374  -30.3067   23.7648 H   0  0  0  0  0  0
  -15.8689  -28.0926   22.7009 H   0  0  0  0  0  0
  -24.5903  -30.7073   25.7781 H   0  0  0  0  0  0
  -24.8921  -32.2918   26.4819 H   0  0  0  0  0  0
  -25.8086  -30.8952   27.0208 H   0  0  0  0  0  0
  -26.2879  -29.6760   24.1159 H   0  0  0  0  0  0
  -27.4016  -29.7256   25.4624 H   0  0  0  0  0  0
  -27.8745  -30.4278   23.9330 H   0  0  0  0  0  0
  -27.2646  -33.3614   26.2025 H   0  0  0  0  0  0
  -28.3862  -32.6877   25.0302 H   0  0  0  0  0  0
  -28.0680  -31.8435   26.5383 H   0  0  0  0  0  0
  -28.2607  -38.0100   24.7536 H   0  0  0  0  0  0
  -28.1084  -36.2640   24.6272 H   0  0  0  0  0  0
  -27.2317  -37.1441   25.8872 H   0  0  0  0  0  0
  -20.9302  -29.8760   21.6867 H   0  0  0  0  0  0
  -26.0164  -38.2861   24.1434 H   0  0  0  0  0  0
  -27.1308  -19.3796   20.2390 H   0  0  0  0  0  0
  -27.5276  -16.9814   20.3079 H   0  0  0  0  0  0
  -31.7018  -17.6439   21.0605 H   0  0  0  0  0  0
  -32.8195  -21.0889   22.8078 H   0  0  0  0  0  0
  -32.2365  -19.4433   23.0210 H   0  0  0  0  0  0
  -31.1211  -20.8001   23.1742 H   0  0  0  0  0  0
  -29.1322  -21.8207   21.7925 H   0  0  0  0  0  0
  -27.6805  -21.5271   20.9178 H   0  0  0  0  0  0
  -31.5024  -21.3339   20.7191 H   0  0  0  0  0  0
  -32.5416  -19.9511   20.5873 H   0  0  0  0  0  0
  -29.0885  -22.1160   18.7855 H   0  0  0  0  0  0
  -30.1941  -22.8884   19.8578 H   0  0  0  0  0  0
  -27.2299  -23.6834   19.4533 H   0  0  0  0  0  0
  -28.5709  -24.3754   18.6300 H   0  0  0  0  0  0
  -29.2693  -25.0391   21.1961 H   0  0  0  0  0  0
  -27.5500  -25.0529   21.3491 H   0  0  0  0  0  0
  -28.8498  -15.2333   21.1780 H   0  0  0  0  0  0
  1 25  1  0  0  0
  1 30  2  0  0  0
  1 83  1  0  0  0
  2  3  1  0  0  0
  2 25  1  0  0  0
  2 84  1  0  0  0
  2 85  1  0  0  0
  3  4  1  0  0  0
  3 86  1  0  0  0
  3 87  1  0  0  0
  4  5  1  0  0  0
  4 88  1  0  0  0
  4 89  1  0  0  0
  5  6  1  0  0  0
  5 26  1  0  0  0
  5 90  1  0  0  0
  6 25  1  0  0  0
  6 91  1  0  0  0
  6 92  1  0  0  0
  7  8  2  0  0  0
  7 26  1  0  0  0
  7 29  1  0  0  0
  8  9  1  0  0  0
  8 22  1  0  0  0
  9 10  1  0  0  0
  9 27  2  0  0  0
 10 11  2  0  0  0
 10 15  1  0  0  0
 11 12  1  0  0  0
 11 93  1  0  0  0
 12 13  2  0  0  0
 12 94  1  0  0  0
 13 14  1  0  0  0
 13 31  1  0  0  0
 14 15  2  0  0  0
 14 95  1  0  0  0
 15 96  1  0  0  0
 16 17  2  0  0  0
 16 21  1  0  0  0
 16 31  1  0  0  0
 17 18  1  0  0  0
 17 97  1  0  0  0
 18 19  2  0  0  0
 18 98  1  0  0  0
 19 20  1  0  0  0
 19 24  1  0  0  0
 20 21  2  0  0  0
 20 99  1  0  0  0
 21 23  1  0  0  0
 22 28  1  0  0  0
 22 32  2  0  0  0
 26 27  1  0  0  0
 28100  1  0  0  0
 28101  1  0  0  0
 29102  1  0  0  0
 29103  1  0  0  0
 33 34  1  0  0  0
 33 66  1  0  0  0
 33 70  2  0  0  0
 34 36  1  0  0  0
 34 59  1  0  0  0
 34104  1  0  0  0
 35 44  2  0  0  0
 35 45  1  0  0  0
 35 68  1  0  0  0
 36 56  1  0  0  0
 36105  1  0  0  0
 37 39  1  0  0  0
 37 47  1  0  0  0
 37 66  1  0  0  0
 37106  1  0  0  0
 38 43  2  0  0  0
 38 46  1  0  0  0
 38 47  1  0  0  0
 39 64  1  0  0  0
 39 67  2  0  0  0
 40 52  1  0  0  0
 40 53  2  0  0  0
 40 58  1  0  0  0
 41107  1  0  0  0
 41108  1  0  0  0
 41109  1  0  0  0
 41 48  1  0  0  0
 42 43  1  0  0  0
 42 66  1  0  0  0
 42110  1  0  0  0
 42111  1  0  0  0
 43 44  1  0  0  0
 44112  1  0  0  0
 45 46  2  0  0  0
 45113  1  0  0  0
 46114  1  0  0  0
 47115  1  0  0  0
 47116  1  0  0  0
 48 56  1  0  0  0
 48 65  1  0  0  0
 48117  1  0  0  0
 49 50  1  0  0  0
 49 53  1  0  0  0
 49 64  1  0  0  0
 49118  1  0  0  0
 50 51  1  0  0  0
 50119  1  0  0  0
 50120  1  0  0  0
 51 52  1  0  0  0
 51121  1  0  0  0
 51122  1  0  0  0
 52123  1  0  0  0
 52124  1  0  0  0
 53 54  1  0  0  0
 54 55  2  0  0  0
 54125  1  0  0  0
 55 57  1  0  0  0
 55126  1  0  0  0
 56 69  2  0  0  0
 57 58  2  0  0  0
 57127  1  0  0  0
 58128  1  0  0  0
 59 60  1  0  0  0
 59 61  1  0  0  0
 59 62  1  0  0  0
 60129  1  0  0  0
 60130  1  0  0  0
 60131  1  0  0  0
 61132  1  0  0  0
 61133  1  0  0  0
 61134  1  0  0  0
 62135  1  0  0  0
 62136  1  0  0  0
 62137  1  0  0  0
 63 65  1  0  0  0
 63138  1  0  0  0
 63139  1  0  0  0
 63140  1  0  0  0
 64141  1  0  0  0
 65142  1  0  0  0
 68 82  1  0  0  0
 71 72  2  0  0  0
 71 74  1  0  0  0
 71143  1  0  0  0
 72 76  1  0  0  0
 72144  1  0  0  0
 73 75  1  0  0  0
 73 76  2  0  0  0
 73145  1  0  0  0
 74 75  2  0  0  0
 74 78  1  0  0  0
 75 79  1  0  0  0
 76 83  1  0  0  0
 77 79  1  0  0  0
 77146  1  0  0  0
 77147  1  0  0  0
 77148  1  0  0  0
 78 80  1  0  0  0
 78149  1  0  0  0
 78150  1  0  0  0
 79151  1  0  0  0
 79152  1  0  0  0
 80 81  1  0  0  0
 80153  1  0  0  0
 80154  1  0  0  0
 81 82  1  0  0  0
 81155  1  0  0  0
 81156  1  0  0  0
 82157  1  0  0  0
 82158  1  0  0  0
 83159  1  0  0  0
M  ISO  4   1 100  68 101  82 101  83 100
M  END
> <chiral flag>
0

> <version>
0

> <s_m_source_file>
/data/baiqing/PycharmProjects/Reinvent-master-3.2/result/LINK_invent/BTK/process_docking_weight1_custom_product_contain_oxygen_bond_distance_aromatic_linkinvent_7_9_3/rearranged_h_0125.sdf

> <i_m_source_file_index>
33

> <r_mmod_Potential_Energy-OPLS-2005>
97.5966186523438

> <r_mmod_Stretch_Energy-OPLS-2005>
77.2054672241211

> <r_mmod_Bend_Energy-OPLS-2005>
158.476959228516

> <r_mmod_Torsional_Energy-OPLS-2005>
254.419708251953

> <r_mmod_Improper_Torsional_Energy-OPLS-2005>
6.87663459777832

> <r_mmod_Van_der_Waal_Energy-OPLS-2005>
131.21223449707

> <r_mmod_Electrostatic_Energy-OPLS-2005>
-374.678131103516

> <r_mmod_Solvation_Energy-OPLS-2005>
-199.651504516602

> <b_mmod_Minimization_Converged-OPLS-2005>
0

> <r_mmod_RMS_Derivative-OPLS-2005>
2.24909949302673

$$$$
33
                    3D
 Structure written by MMmdl.
155163  0  0  1  0            999 V2000
  -30.6198  -14.5985   20.5867 C   0  0  0  0  0  0
  -30.4478  -12.3869   19.4362 C   0  0  0  0  0  0
  -29.5057  -12.5256   18.2199 C   0  0  0  0  0  0
  -28.0289  -12.3556   18.6319 C   0  0  0  0  0  0
  -27.6612  -13.2037   19.8777 C   0  0  2  0  0  0
  -28.7077  -13.0046   20.9981 C   0  0  0  0  0  0
  -25.2587  -13.8124   20.5669 C   0  0  0  0  0  0
  -24.1831  -13.0411   20.9152 C   0  0  0  0  0  0
  -24.6387  -11.6880   20.8723 C   0  0  0  0  0  0
  -23.9047  -10.4278   21.0401 C   0  0  0  0  0  0
  -24.3598   -9.4198   21.9185 C   0  0  0  0  0  0
  -23.6279   -8.2234   22.0762 C   0  0  0  0  0  0
  -22.4268   -8.0267   21.3546 C   0  0  0  0  0  0
  -21.9890   -9.0235   20.4650 C   0  0  0  0  0  0
  -22.7211  -10.2120   20.3061 C   0  0  0  0  0  0
  -21.6845   -6.0724   22.5274 C   0  0  0  0  0  0
  -21.4009   -6.5636   23.8204 C   0  0  0  0  0  0
  -21.3665   -5.6791   24.9166 C   0  0  0  0  0  0
  -21.6055   -4.3055   24.7223 C   0  0  0  0  0  0
  -21.8815   -3.8143   23.4342 C   0  0  0  0  0  0
  -21.9188   -4.6953   22.3396 C   0  0  0  0  0  0
  -22.7859  -13.5230   21.1824 C   0  0  0  0  0  0
  -22.1656   -4.2142   21.0976 F   0  0  0  0  0  0
  -21.5635   -3.4546   25.7736 F   0  0  0  0  0  0
  -30.0226  -13.3716   20.4486 N   0  0  0  0  0  0
  -26.3028  -12.9287   20.3383 N   0  0  0  0  0  0
  -25.9322  -11.6453   20.5777 N   0  0  0  0  0  0
  -22.0508  -12.8232   22.0387 N   0  0  0  0  0  0
  -25.4297  -15.1839   20.4065 N   0  0  0  0  0  0
  -31.7375  -14.8152   20.1045 O   0  0  0  0  0  0
  -21.6636   -6.8866   21.4237 O   0  0  0  0  0  0
  -22.3550  -14.5539   20.6676 O   0  0  0  0  0  0
  -24.6242  -31.8621   23.2032 C   0  0  0  0  0  0
  -25.9101  -32.4779   23.8355 C   0  0  1  0  0  0
  -27.2289  -27.3510   20.1051 C   0  0  0  0  0  0
  -25.5926  -33.8583   24.2274 N   0  0  0  0  0  0
  -23.4163  -30.4863   21.5464 C   0  0  2  0  0  0
  -24.8616  -28.9461   20.1098 C   0  0  0  0  0  0
  -22.7479  -29.4611   22.4936 C   0  0  0  0  0  0
  -18.0297  -28.1374   22.8484 C   0  0  0  0  0  0
  -24.1494  -36.7303   23.2627 C   0  0  0  0  0  0
  -25.9556  -30.8017   21.3711 C   0  0  0  0  0  0
  -26.0292  -29.4318   20.7122 C   0  0  0  0  0  0
  -27.2144  -28.6457   20.7007 C   0  0  0  0  0  0
  -26.0356  -26.9072   19.4875 C   0  0  0  0  0  0
  -24.8655  -27.6875   19.4897 C   0  0  0  0  0  0
  -23.6288  -29.8241   20.1597 C   0  0  0  0  0  0
  -25.4113  -36.3090   24.0331 C   0  0  1  0  0  0
  -20.5902  -28.3672   23.1297 C   0  0  2  0  0  0
  -20.6790  -26.9401   22.5410 C   0  0  0  0  0  0
  -19.5758  -26.6375   21.5218 C   0  0  0  0  0  0
  -18.1938  -26.7914   22.1628 C   0  0  0  0  0  0
  -19.1549  -28.8835   23.2888 C   0  0  0  0  0  0
  -18.9471  -30.1447   23.8891 C   0  0  0  0  0  0
  -17.6471  -30.6580   24.0562 C   0  0  0  0  0  0
  -25.9058  -34.9455   23.5102 C   0  0  0  0  0  0
  -16.5364  -29.9077   23.6329 C   0  0  0  0  0  0
  -16.7282  -28.6501   23.0329 C   0  0  0  0  0  0
  -26.4456  -31.6582   25.0724 C   0  0  0  0  0  0
  -25.3666  -31.3786   26.1441 C   0  0  0  0  0  0
  -27.0233  -30.2979   24.6170 C   0  0  0  0  0  0
  -27.6045  -32.4276   25.7499 C   0  0  0  0  0  0
  -27.5578  -37.1808   24.8466 C   0  0  0  0  0  0
  -21.4195  -29.3034   22.3697 N   0  0  0  0  0  0
  -26.4292  -37.3780   23.9408 N   0  0  0  0  0  0
  -24.6842  -31.0653   22.0972 N   0  0  0  0  0  0
  -23.4221  -28.8115   23.2976 O   0  0  0  0  0  0
  -28.3674  -26.5408   20.1432 O   0  0  0  0  0  0
  -26.5624  -34.8911   22.4673 O   0  0  0  0  0  0
  -23.5413  -32.1394   23.7381 O   0  0  0  0  0  0
  -30.6928  -19.5161   21.8725 C   0  0  0  0  0  0
  -30.7187  -18.0990   21.9491 C   0  0  0  0  0  0
  -29.3799  -19.3988   19.8649 C   0  0  0  0  0  0
  -30.0019  -20.2111   20.8488 C   0  0  0  0  0  0
  -30.0547  -17.2838   20.9999 C   0  0  0  0  0  0
  -29.4030  -17.9684   19.9292 C   0  0  0  0  0  0
  -29.9681  -21.7244   20.8966 C   0  0  0  0  0  0
  -29.3098  -22.6516   20.1412 C   0  0  0  0  0  0
  -28.6584  -17.1888   18.8598 C   0  0  0  0  0  0
  -29.8379  -15.7610   21.3170 C   0  0  0  0  0  0
  -29.4470  -24.1981   20.3080 C   0  0  0  0  0  0
  -28.1865  -25.0893   20.0071 C   0  0  0  0  0  0
  -31.4839  -12.5357   19.1293 H   0  0  0  0  0  0
  -30.4014  -11.3772   19.8475 H   0  0  0  0  0  0
  -29.7663  -11.7932   17.4556 H   0  0  0  0  0  0
  -29.6442  -13.5074   17.7648 H   0  0  0  0  0  0
  -27.8616  -11.2984   18.8415 H   0  0  0  0  0  0
  -27.3725  -12.6069   17.7979 H   0  0  0  0  0  0
  -27.6954  -14.2467   19.5658 H   0  0  0  0  0  0
  -28.7184  -11.9635   21.3235 H   0  0  0  0  0  0
  -28.4517  -13.5752   21.8908 H   0  0  0  0  0  0
  -25.2742   -9.5675   22.4759 H   0  0  0  0  0  0
  -23.9984   -7.4631   22.7492 H   0  0  0  0  0  0
  -21.0816   -8.8739   19.8965 H   0  0  0  0  0  0
  -22.3651  -10.9653   19.6177 H   0  0  0  0  0  0
  -21.1998   -7.6144   23.9694 H   0  0  0  0  0  0
  -21.1502   -6.0533   25.9068 H   0  0  0  0  0  0
  -22.0595   -2.7608   23.2841 H   0  0  0  0  0  0
  -22.4116  -11.9862   22.4729 H   0  0  0  0  0  0
  -21.1157  -13.1293   22.2669 H   0  0  0  0  0  0
  -24.6590  -15.8361   20.5037 H   0  0  0  0  0  0
  -26.2854  -15.6242   20.0969 H   0  0  0  0  0  0
  -26.7186  -32.5448   23.1125 H   0  0  0  0  0  0
  -25.0099  -33.9742   25.0428 H   0  0  0  0  0  0
  -22.7089  -31.3068   21.4073 H   0  0  0  0  0  0
  -23.3751  -35.9638   23.3274 H   0  0  0  0  0  0
  -24.3609  -36.8928   22.2045 H   0  0  0  0  0  0
  -23.7236  -37.6502   23.6655 H   0  0  0  0  0  0
  -26.0857  -31.5656   20.6030 H   0  0  0  0  0  0
  -26.8373  -30.8480   21.9983 H   0  0  0  0  0  0
  -28.1105  -29.0148   21.1794 H   0  0  0  0  0  0
  -25.9773  -25.9477   18.9963 H   0  0  0  0  0  0
  -23.9713  -27.3105   19.0114 H   0  0  0  0  0  0
  -23.7467  -30.6028   19.4051 H   0  0  0  0  0  0
  -22.7487  -29.2549   19.8559 H   0  0  0  0  0  0
  -25.1280  -36.1956   25.0825 H   0  0  0  0  0  0
  -21.0006  -28.3232   24.1409 H   0  0  0  0  0  0
  -20.5718  -26.2277   23.3604 H   0  0  0  0  0  0
  -21.6654  -26.7440   22.1181 H   0  0  0  0  0  0
  -19.6939  -25.6290   21.1237 H   0  0  0  0  0  0
  -19.6688  -27.3196   20.6759 H   0  0  0  0  0  0
  -17.4214  -26.6674   21.4026 H   0  0  0  0  0  0
  -18.0327  -26.0043   22.9009 H   0  0  0  0  0  0
  -19.7946  -30.7274   24.2240 H   0  0  0  0  0  0
  -17.5022  -31.6255   24.5169 H   0  0  0  0  0  0
  -15.5364  -30.2981   23.7646 H   0  0  0  0  0  0
  -15.8680  -28.0841   22.7008 H   0  0  0  0  0  0
  -24.5937  -30.6995   25.7823 H   0  0  0  0  0  0
  -24.8722  -32.2963   26.4648 H   0  0  0  0  0  0
  -25.7957  -30.9177   27.0344 H   0  0  0  0  0  0
  -26.2785  -29.6812   24.1127 H   0  0  0  0  0  0
  -27.3830  -29.7159   25.4666 H   0  0  0  0  0  0
  -27.8711  -30.4205   23.9422 H   0  0  0  0  0  0
  -27.2743  -33.3702   26.1874 H   0  0  0  0  0  0
  -28.3975  -32.6594   25.0375 H   0  0  0  0  0  0
  -28.0539  -31.8484   26.5570 H   0  0  0  0  0  0
  -28.2583  -38.0107   24.7500 H   0  0  0  0  0  0
  -28.1079  -36.2641   24.6297 H   0  0  0  0  0  0
  -27.2318  -37.1469   25.8873 H   0  0  0  0  0  0
  -20.9379  -29.8751   21.6898 H   0  0  0  0  0  0
  -26.0174  -38.2860   24.1394 H   0  0  0  0  0  0
  -31.1900  -20.0790   22.6501 H   0  0  0  0  0  0
  -31.2058  -17.6401   22.7986 H   0  0  0  0  0  0
  -28.8490  -19.8809   19.0554 H   0  0  0  0  0  0
  -30.5979  -22.1415   21.6705 H   0  0  0  0  0  0
  -28.6638  -22.3159   19.3427 H   0  0  0  0  0  0
  -28.5407  -17.7820   17.9522 H   0  0  0  0  0  0
  -27.6644  -16.9142   19.2110 H   0  0  0  0  0  0
  -29.1939  -16.2808   18.5835 H   0  0  0  0  0  0
  -28.7690  -15.6127   21.1804 H   0  0  0  0  0  0
  -30.0059  -15.6139   22.3841 H   0  0  0  0  0  0
  -30.2449  -24.5195   19.6381 H   0  0  0  0  0  0
  -29.7996  -24.4083   21.3184 H   0  0  0  0  0  0
  -27.3774  -24.7714   20.6686 H   0  0  0  0  0  0
  -27.8704  -24.8716   18.9866 H   0  0  0  0  0  0
  1 25  1  0  0  0
  1 30  2  0  0  0
  1 80  1  0  0  0
  2  3  1  0  0  0
  2 25  1  0  0  0
  2 83  1  0  0  0
  2 84  1  0  0  0
  3  4  1  0  0  0
  3 85  1  0  0  0
  3 86  1  0  0  0
  4  5  1  0  0  0
  4 87  1  0  0  0
  4 88  1  0  0  0
  5  6  1  0  0  0
  5 26  1  0  0  0
  5 89  1  0  0  0
  6 25  1  0  0  0
  6 90  1  0  0  0
  6 91  1  0  0  0
  7  8  2  0  0  0
  7 26  1  0  0  0
  7 29  1  0  0  0
  8  9  1  0  0  0
  8 22  1  0  0  0
  9 10  1  0  0  0
  9 27  2  0  0  0
 10 11  2  0  0  0
 10 15  1  0  0  0
 11 12  1  0  0  0
 11 92  1  0  0  0
 12 13  2  0  0  0
 12 93  1  0  0  0
 13 14  1  0  0  0
 13 31  1  0  0  0
 14 15  2  0  0  0
 14 94  1  0  0  0
 15 95  1  0  0  0
 16 17  2  0  0  0
 16 21  1  0  0  0
 16 31  1  0  0  0
 17 18  1  0  0  0
 17 96  1  0  0  0
 18 19  2  0  0  0
 18 97  1  0  0  0
 19 20  1  0  0  0
 19 24  1  0  0  0
 20 21  2  0  0  0
 20 98  1  0  0  0
 21 23  1  0  0  0
 22 28  1  0  0  0
 22 32  2  0  0  0
 26 27  1  0  0  0
 28 99  1  0  0  0
 28100  1  0  0  0
 29101  1  0  0  0
 29102  1  0  0  0
 33 34  1  0  0  0
 33 66  1  0  0  0
 33 70  2  0  0  0
 34 36  1  0  0  0
 34 59  1  0  0  0
 34103  1  0  0  0
 35 44  2  0  0  0
 35 45  1  0  0  0
 35 68  1  0  0  0
 36 56  1  0  0  0
 36104  1  0  0  0
 37 39  1  0  0  0
 37 47  1  0  0  0
 37 66  1  0  0  0
 37105  1  0  0  0
 38 43  2  0  0  0
 38 46  1  0  0  0
 38 47  1  0  0  0
 39 64  1  0  0  0
 39 67  2  0  0  0
 40 52  1  0  0  0
 40 53  2  0  0  0
 40 58  1  0  0  0
 41106  1  0  0  0
 41107  1  0  0  0
 41108  1  0  0  0
 41 48  1  0  0  0
 42 43  1  0  0  0
 42 66  1  0  0  0
 42109  1  0  0  0
 42110  1  0  0  0
 43 44  1  0  0  0
 44111  1  0  0  0
 45 46  2  0  0  0
 45112  1  0  0  0
 46113  1  0  0  0
 47114  1  0  0  0
 47115  1  0  0  0
 48 56  1  0  0  0
 48 65  1  0  0  0
 48116  1  0  0  0
 49 50  1  0  0  0
 49 53  1  0  0  0
 49 64  1  0  0  0
 49117  1  0  0  0
 50 51  1  0  0  0
 50118  1  0  0  0
 50119  1  0  0  0
 51 52  1  0  0  0
 51120  1  0  0  0
 51121  1  0  0  0
 52122  1  0  0  0
 52123  1  0  0  0
 53 54  1  0  0  0
 54 55  2  0  0  0
 54124  1  0  0  0
 55 57  1  0  0  0
 55125  1  0  0  0
 56 69  2  0  0  0
 57 58  2  0  0  0
 57126  1  0  0  0
 58127  1  0  0  0
 59 60  1  0  0  0
 59 61  1  0  0  0
 59 62  1  0  0  0
 60128  1  0  0  0
 60129  1  0  0  0
 60130  1  0  0  0
 61131  1  0  0  0
 61132  1  0  0  0
 61133  1  0  0  0
 62134  1  0  0  0
 62135  1  0  0  0
 62136  1  0  0  0
 63 65  1  0  0  0
 63137  1  0  0  0
 63138  1  0  0  0
 63139  1  0  0  0
 64140  1  0  0  0
 65141  1  0  0  0
 68 82  1  0  0  0
 71 72  2  0  0  0
 71 74  1  0  0  0
 71142  1  0  0  0
 72 75  1  0  0  0
 72143  1  0  0  0
 73 74  2  0  0  0
 73 76  1  0  0  0
 73144  1  0  0  0
 74 77  1  0  0  0
 75 76  2  0  0  0
 75 80  1  0  0  0
 76 79  1  0  0  0
 77 78  2  0  0  0
 77145  1  0  0  0
 78 81  1  0  0  0
 78146  1  0  0  0
 79147  1  0  0  0
 79148  1  0  0  0
 79149  1  0  0  0
 80150  1  0  0  0
 80151  1  0  0  0
 81 82  1  0  0  0
 81152  1  0  0  0
 81153  1  0  0  0
 82154  1  0  0  0
 82155  1  0  0  0
M  ISO  4   1 100  68 101  80 100  82 101
M  END
> <chiral flag>
0

> <version>
0

> <s_m_source_file>
/data/baiqing/PycharmProjects/Reinvent-master-3.2/result/LINK_invent/BTK/process_docking_weight1_custom_product_contain_oxygen_bond_distance_aromatic_linkinvent_7_9_3/rearranged_h_0125.sdf

> <i_m_source_file_index>
34

> <r_mmod_Potential_Energy-OPLS-2005>
62.8070106506348

> <r_mmod_Stretch_Energy-OPLS-2005>
66.5988311767578

> <r_mmod_Bend_Energy-OPLS-2005>
127.457023620605

> <r_mmod_Torsional_Energy-OPLS-2005>
173.73371887207

> <r_mmod_Improper_Torsional_Energy-OPLS-2005>
3.93023324012756

> <r_mmod_Van_der_Waal_Energy-OPLS-2005>
140.81428527832

> <r_mmod_Electrostatic_Energy-OPLS-2005>
-285.618499755859

> <r_mmod_Solvation_Energy-OPLS-2005>
-198.981201171875

> <b_mmod_Minimization_Converged-OPLS-2005>
0

> <r_mmod_RMS_Derivative-OPLS-2005>
1.80244612693787

$$$$
34
                    3D
 Structure written by MMmdl.
167176  0  0  1  0            999 V2000
  -30.7517  -14.4686   20.5667 C   0  0  0  0  0  0
  -30.4059  -12.3053   19.4355 C   0  0  0  0  0  0
  -29.4919  -12.5082   18.2121 C   0  0  0  0  0  0
  -28.0145  -12.3684   18.6222 C   0  0  0  0  0  0
  -27.6586  -13.2187   19.8718 C   0  0  2  0  0  0
  -28.7017  -13.0385   20.9999 C   0  0  0  0  0  0
  -25.2564  -13.8190   20.5685 C   0  0  0  0  0  0
  -24.1829  -13.0448   20.9179 C   0  0  0  0  0  0
  -24.6397  -11.6921   20.8728 C   0  0  0  0  0  0
  -23.9065  -10.4299   21.0392 C   0  0  0  0  0  0
  -24.3613   -9.4213   21.9171 C   0  0  0  0  0  0
  -23.6292   -8.2250   22.0750 C   0  0  0  0  0  0
  -22.4273   -8.0285   21.3544 C   0  0  0  0  0  0
  -21.9908   -9.0258   20.4646 C   0  0  0  0  0  0
  -22.7238  -10.2138   20.3046 C   0  0  0  0  0  0
  -21.6855   -6.0731   22.5276 C   0  0  0  0  0  0
  -21.4015   -6.5632   23.8211 C   0  0  0  0  0  0
  -21.3658   -5.6790   24.9176 C   0  0  0  0  0  0
  -21.6048   -4.3052   24.7225 C   0  0  0  0  0  0
  -21.8820   -3.8142   23.4347 C   0  0  0  0  0  0
  -21.9194   -4.6961   22.3402 C   0  0  0  0  0  0
  -22.7850  -13.5237   21.1845 C   0  0  0  0  0  0
  -22.1665   -4.2143   21.0981 F   0  0  0  0  0  0
  -21.5626   -3.4537   25.7738 F   0  0  0  0  0  0
  -30.0341  -13.3166   20.4409 N   0  0  0  0  0  0
  -26.3015  -12.9382   20.3366 N   0  0  0  0  0  0
  -25.9331  -11.6529   20.5763 N   0  0  0  0  0  0
  -22.0486  -12.8228   22.0395 N   0  0  0  0  0  0
  -25.4278  -15.1909   20.4088 N   0  0  0  0  0  0
  -31.8655  -14.5862   20.0517 O   0  0  0  0  0  0
  -21.6642   -6.8878   21.4241 O   0  0  0  0  0  0
  -22.3531  -14.5541   20.6691 O   0  0  0  0  0  0
  -24.6166  -31.8679   23.2109 C   0  0  0  0  0  0
  -25.9058  -32.4818   23.8406 C   0  0  1  0  0  0
  -27.2245  -27.4266   20.1015 C   0  0  0  0  0  0
  -25.5920  -33.8615   24.2344 N   0  0  0  0  0  0
  -23.4047  -30.4936   21.5510 C   0  0  2  0  0  0
  -24.8514  -28.9643   20.1092 C   0  0  0  0  0  0
  -22.7425  -29.4662   22.4980 C   0  0  0  0  0  0
  -18.0276  -28.1378   22.8480 C   0  0  0  0  0  0
  -24.1492  -36.7311   23.2638 C   0  0  0  0  0  0
  -25.9357  -30.8325   21.3655 C   0  0  0  0  0  0
  -26.0131  -29.4688   20.7087 C   0  0  0  0  0  0
  -27.2072  -28.7077   20.7004 C   0  0  0  0  0  0
  -26.0532  -26.9518   19.4729 C   0  0  0  0  0  0
  -24.8670  -27.7059   19.4846 C   0  0  0  0  0  0
  -23.6131  -29.8306   20.1637 C   0  0  0  0  0  0
  -25.4108  -36.3109   24.0349 C   0  0  1  0  0  0
  -20.5869  -28.3665   23.1313 C   0  0  2  0  0  0
  -20.6757  -26.9399   22.5423 C   0  0  0  0  0  0
  -19.5748  -26.6383   21.5205 C   0  0  0  0  0  0
  -18.1920  -26.7928   22.1604 C   0  0  0  0  0  0
  -19.1524  -28.8838   23.2891 C   0  0  0  0  0  0
  -18.9450  -30.1441   23.8900 C   0  0  0  0  0  0
  -17.6452  -30.6579   24.0564 C   0  0  0  0  0  0
  -25.9035  -34.9472   23.5142 C   0  0  0  0  0  0
  -16.5342  -29.9081   23.6328 C   0  0  0  0  0  0
  -16.7263  -28.6504   23.0338 C   0  0  0  0  0  0
  -26.4473  -31.6584   25.0730 C   0  0  0  0  0  0
  -25.3737  -31.3693   26.1482 C   0  0  0  0  0  0
  -27.0283  -30.3021   24.6096 C   0  0  0  0  0  0
  -27.6073  -32.4278   25.7476 C   0  0  0  0  0  0
  -27.5589  -37.1806   24.8462 C   0  0  0  0  0  0
  -21.4152  -29.3031   22.3720 N   0  0  0  0  0  0
  -26.4296  -37.3794   23.9414 N   0  0  0  0  0  0
  -24.6707  -31.0785   22.1007 N   0  0  0  0  0  0
  -23.4195  -28.8204   23.3023 O   0  0  0  0  0  0
  -28.3447  -26.6211   20.1490 O   0  0  0  0  0  0
  -26.5580  -34.8929   22.4693 O   0  0  0  0  0  0
  -23.5357  -32.1428   23.7505 O   0  0  0  0  0  0
  -31.6567  -19.5178   21.4270 C   0  0  0  0  0  0
  -29.7796  -17.9811   21.2134 C   0  0  0  0  0  0
  -32.0408  -17.1148   21.4533 C   0  0  0  0  0  0
  -30.2652  -19.3175   21.2825 C   0  0  0  0  0  0
  -32.5456  -18.4296   21.5155 C   0  0  0  0  0  0
  -30.6580  -16.8649   21.2709 C   0  0  0  0  0  0
  -29.3321  -20.4761   21.2246 C   0  0  0  0  0  0
  -29.6529  -21.7898   21.3271 C   0  0  0  0  0  0
  -34.7007  -19.3598   19.1790 C   0  0  0  0  0  0
  -35.9939  -19.1446   19.9263 C   0  0  0  0  0  0
  -34.7511  -18.3844   20.3334 C   0  0  0  0  0  0
  -34.6847  -17.9320   22.8151 C   0  0  0  0  0  0
  -28.6494  -22.9409   21.3385 C   0  0  0  0  0  0
  -29.0900  -24.2361   20.5994 C   0  0  0  0  0  0
  -28.1167  -25.4046   20.8925 C   0  0  0  0  0  0
  -34.0438  -18.6905   21.6429 C   0  0  2  0  0  0
  -30.1424  -15.5224   21.1599 N   0  0  0  0  0  0
  -31.4544  -12.3613   19.1386 H   0  0  0  0  0  0
  -30.2739  -11.3040   19.8486 H   0  0  0  0  0  0
  -29.7361  -11.7851   17.4328 H   0  0  0  0  0  0
  -29.6652  -13.4956   17.7791 H   0  0  0  0  0  0
  -27.8263  -11.3130   18.8240 H   0  0  0  0  0  0
  -27.3652  -12.6364   17.7881 H   0  0  0  0  0  0
  -27.6927  -14.2620   19.5571 H   0  0  0  0  0  0
  -28.6731  -12.0183   21.3858 H   0  0  0  0  0  0
  -28.4670  -13.6817   21.8490 H   0  0  0  0  0  0
  -25.2760   -9.5693   22.4739 H   0  0  0  0  0  0
  -24.0008   -7.4639   22.7467 H   0  0  0  0  0  0
  -21.0838   -8.8773   19.8950 H   0  0  0  0  0  0
  -22.3693  -10.9667   19.6148 H   0  0  0  0  0  0
  -21.2008   -7.6141   23.9713 H   0  0  0  0  0  0
  -21.1480   -6.0517   25.9079 H   0  0  0  0  0  0
  -22.0597   -2.7603   23.2847 H   0  0  0  0  0  0
  -22.4099  -11.9889   22.4788 H   0  0  0  0  0  0
  -21.1106  -13.1257   22.2598 H   0  0  0  0  0  0
  -24.6609  -15.8469   20.5090 H   0  0  0  0  0  0
  -26.2826  -15.6272   20.0864 H   0  0  0  0  0  0
  -26.7133  -32.5531   23.1173 H   0  0  0  0  0  0
  -25.0108  -33.9776   25.0515 H   0  0  0  0  0  0
  -22.6936  -31.3109   21.4149 H   0  0  0  0  0  0
  -23.3755  -35.9643   23.3301 H   0  0  0  0  0  0
  -24.3593  -36.8911   22.2053 H   0  0  0  0  0  0
  -23.7243  -37.6522   23.6636 H   0  0  0  0  0  0
  -26.0508  -31.5997   20.5984 H   0  0  0  0  0  0
  -26.8236  -30.8835   21.9843 H   0  0  0  0  0  0
  -28.1012  -29.0847   21.1771 H   0  0  0  0  0  0
  -26.0502  -25.9857   18.9868 H   0  0  0  0  0  0
  -23.9765  -27.3154   19.0116 H   0  0  0  0  0  0
  -23.7207  -30.6083   19.4064 H   0  0  0  0  0  0
  -22.7366  -29.2513   19.8673 H   0  0  0  0  0  0
  -25.1277  -36.1982   25.0842 H   0  0  0  0  0  0
  -20.9957  -28.3229   24.1434 H   0  0  0  0  0  0
  -20.5638  -26.2273   23.3607 H   0  0  0  0  0  0
  -21.6633  -26.7424   22.1238 H   0  0  0  0  0  0
  -19.6908  -25.6294   21.1233 H   0  0  0  0  0  0
  -19.6708  -27.3193   20.6737 H   0  0  0  0  0  0
  -17.4205  -26.6691   21.3987 H   0  0  0  0  0  0
  -18.0305  -26.0059   22.8989 H   0  0  0  0  0  0
  -19.7929  -30.7248   24.2269 H   0  0  0  0  0  0
  -17.5014  -31.6260   24.5167 H   0  0  0  0  0  0
  -15.5339  -30.2976   23.7656 H   0  0  0  0  0  0
  -15.8668  -28.0827   22.7030 H   0  0  0  0  0  0
  -24.5972  -30.6945   25.7853 H   0  0  0  0  0  0
  -24.8841  -32.2832   26.4859 H   0  0  0  0  0  0
  -25.8111  -30.8961   27.0284 H   0  0  0  0  0  0
  -26.2814  -29.6802   24.1148 H   0  0  0  0  0  0
  -27.4043  -29.7238   25.4544 H   0  0  0  0  0  0
  -27.8661  -30.4327   23.9243 H   0  0  0  0  0  0
  -27.2733  -33.3587   26.2070 H   0  0  0  0  0  0
  -28.3871  -32.6808   25.0278 H   0  0  0  0  0  0
  -28.0754  -31.8379   26.5367 H   0  0  0  0  0  0
  -28.2611  -38.0100   24.7505 H   0  0  0  0  0  0
  -28.1074  -36.2630   24.6273 H   0  0  0  0  0  0
  -27.2318  -37.1459   25.8870 H   0  0  0  0  0  0
  -20.9310  -29.8754   21.6943 H   0  0  0  0  0  0
  -26.0189  -38.2877   24.1404 H   0  0  0  0  0  0
  -32.0680  -20.5144   21.4711 H   0  0  0  0  0  0
  -28.7179  -17.8137   21.0977 H   0  0  0  0  0  0
  -32.7398  -16.2957   21.5304 H   0  0  0  0  0  0
  -28.2880  -20.2225   21.1036 H   0  0  0  0  0  0
  -30.6810  -22.0943   21.4502 H   0  0  0  0  0  0
  -34.6214  -18.9442   18.1761 H   0  0  0  0  0  0
  -34.1827  -20.3048   19.3332 H   0  0  0  0  0  0
  -36.3362  -19.9494   20.5748 H   0  0  0  0  0  0
  -36.7816  -18.5885   19.4213 H   0  0  0  0  0  0
  -34.7231  -17.3318   20.0553 H   0  0  0  0  0  0
  -34.2000  -18.1864   23.7579 H   0  0  0  0  0  0
  -35.7406  -18.1888   22.9095 H   0  0  0  0  0  0
  -34.6257  -16.8513   22.6881 H   0  0  0  0  0  0
  -28.4701  -23.1844   22.3867 H   0  0  0  0  0  0
  -27.6942  -22.5932   20.9417 H   0  0  0  0  0  0
  -29.1294  -24.0471   19.5264 H   0  0  0  0  0  0
  -30.0979  -24.5217   20.9035 H   0  0  0  0  0  0
  -28.1734  -25.6547   21.9531 H   0  0  0  0  0  0
  -27.1073  -25.0201   20.7410 H   0  0  0  0  0  0
  -34.1801  -19.7540   21.8472 H   0  0  0  0  0  0
  -29.1831  -15.3738   21.4345 H   0  0  0  0  0  0
  1 25  1  0  0  0
  1 30  2  0  0  0
  1 87  1  0  0  0
  2  3  1  0  0  0
  2 25  1  0  0  0
  2 88  1  0  0  0
  2 89  1  0  0  0
  3  4  1  0  0  0
  3 90  1  0  0  0
  3 91  1  0  0  0
  4  5  1  0  0  0
  4 92  1  0  0  0
  4 93  1  0  0  0
  5  6  1  0  0  0
  5 26  1  0  0  0
  5 94  1  0  0  0
  6 25  1  0  0  0
  6 95  1  0  0  0
  6 96  1  0  0  0
  7  8  2  0  0  0
  7 26  1  0  0  0
  7 29  1  0  0  0
  8  9  1  0  0  0
  8 22  1  0  0  0
  9 10  1  0  0  0
  9 27  2  0  0  0
 10 11  2  0  0  0
 10 15  1  0  0  0
 11 12  1  0  0  0
 11 97  1  0  0  0
 12 13  2  0  0  0
 12 98  1  0  0  0
 13 14  1  0  0  0
 13 31  1  0  0  0
 14 15  2  0  0  0
 14 99  1  0  0  0
 15100  1  0  0  0
 16 17  2  0  0  0
 16 21  1  0  0  0
 16 31  1  0  0  0
 17 18  1  0  0  0
 17101  1  0  0  0
 18 19  2  0  0  0
 18102  1  0  0  0
 19 20  1  0  0  0
 19 24  1  0  0  0
 20 21  2  0  0  0
 20103  1  0  0  0
 21 23  1  0  0  0
 22 28  1  0  0  0
 22 32  2  0  0  0
 26 27  1  0  0  0
 28104  1  0  0  0
 28105  1  0  0  0
 29106  1  0  0  0
 29107  1  0  0  0
 33 34  1  0  0  0
 33 66  1  0  0  0
 33 70  2  0  0  0
 34 36  1  0  0  0
 34 59  1  0  0  0
 34108  1  0  0  0
 35 44  2  0  0  0
 35 45  1  0  0  0
 35 68  1  0  0  0
 36 56  1  0  0  0
 36109  1  0  0  0
 37 39  1  0  0  0
 37 47  1  0  0  0
 37 66  1  0  0  0
 37110  1  0  0  0
 38 43  2  0  0  0
 38 46  1  0  0  0
 38 47  1  0  0  0
 39 64  1  0  0  0
 39 67  2  0  0  0
 40 52  1  0  0  0
 40 53  2  0  0  0
 40 58  1  0  0  0
 41111  1  0  0  0
 41112  1  0  0  0
 41113  1  0  0  0
 41 48  1  0  0  0
 42 43  1  0  0  0
 42 66  1  0  0  0
 42114  1  0  0  0
 42115  1  0  0  0
 43 44  1  0  0  0
 44116  1  0  0  0
 45 46  2  0  0  0
 45117  1  0  0  0
 46118  1  0  0  0
 47119  1  0  0  0
 47120  1  0  0  0
 48 56  1  0  0  0
 48 65  1  0  0  0
 48121  1  0  0  0
 49 50  1  0  0  0
 49 53  1  0  0  0
 49 64  1  0  0  0
 49122  1  0  0  0
 50 51  1  0  0  0
 50123  1  0  0  0
 50124  1  0  0  0
 51 52  1  0  0  0
 51125  1  0  0  0
 51126  1  0  0  0
 52127  1  0  0  0
 52128  1  0  0  0
 53 54  1  0  0  0
 54 55  2  0  0  0
 54129  1  0  0  0
 55 57  1  0  0  0
 55130  1  0  0  0
 56 69  2  0  0  0
 57 58  2  0  0  0
 57131  1  0  0  0
 58132  1  0  0  0
 59 60  1  0  0  0
 59 61  1  0  0  0
 59 62  1  0  0  0
 60133  1  0  0  0
 60134  1  0  0  0
 60135  1  0  0  0
 61136  1  0  0  0
 61137  1  0  0  0
 61138  1  0  0  0
 62139  1  0  0  0
 62140  1  0  0  0
 62141  1  0  0  0
 63 65  1  0  0  0
 63142  1  0  0  0
 63143  1  0  0  0
 63144  1  0  0  0
 64145  1  0  0  0
 65146  1  0  0  0
 68 85  1  0  0  0
 71 74  2  0  0  0
 71 75  1  0  0  0
 71147  1  0  0  0
 72 74  1  0  0  0
 72 76  2  0  0  0
 72148  1  0  0  0
 73 75  2  0  0  0
 73 76  1  0  0  0
 73149  1  0  0  0
 74 77  1  0  0  0
 75 86  1  0  0  0
 76 87  1  0  0  0
 77 78  2  0  0  0
 77150  1  0  0  0
 78 83  1  0  0  0
 78151  1  0  0  0
 79 80  1  0  0  0
 79152  1  0  0  0
 79153  1  0  0  0
 79 81  1  0  0  0
 80 81  1  0  0  0
 80154  1  0  0  0
 80155  1  0  0  0
 81 86  1  0  0  0
 81156  1  0  0  0
 82157  1  0  0  0
 82158  1  0  0  0
 82159  1  0  0  0
 82 86  1  0  0  0
 83 84  1  0  0  0
 83160  1  0  0  0
 83161  1  0  0  0
 84 85  1  0  0  0
 84162  1  0  0  0
 84163  1  0  0  0
 85164  1  0  0  0
 85165  1  0  0  0
 86166  1  0  0  0
 87167  1  0  0  0
M  ISO  4   1 100  68 101  85 101  87 100
M  END
> <chiral flag>
0

> <version>
0

> <s_m_source_file>
/data/baiqing/PycharmProjects/Reinvent-master-3.2/result/LINK_invent/BTK/process_docking_weight1_custom_product_contain_oxygen_bond_distance_aromatic_linkinvent_7_9_3/rearranged_h_0125.sdf

> <i_m_source_file_index>
35

> <r_mmod_Potential_Energy-OPLS-2005>
28.6002807617188

> <r_mmod_Stretch_Energy-OPLS-2005>
41.6587448120117

> <r_mmod_Bend_Energy-OPLS-2005>
95.6895980834961

> <r_mmod_Torsional_Energy-OPLS-2005>
271.166473388672

> <r_mmod_Improper_Torsional_Energy-OPLS-2005>
3.38173508644104

> <r_mmod_Van_der_Waal_Energy-OPLS-2005>
157.689758300781

> <r_mmod_Electrostatic_Energy-OPLS-2005>
-361.895660400391

> <r_mmod_Solvation_Energy-OPLS-2005>
-196.477020263672

> <b_mmod_Minimization_Converged-OPLS-2005>
0

> <r_mmod_RMS_Derivative-OPLS-2005>
1.16161620616913

$$$$
35
                    3D
 Structure written by MMmdl.
162171  0  0  1  0            999 V2000
  -30.5838  -14.7379   20.4803 C   0  0  0  0  0  0
  -30.4440  -12.4642   19.4444 C   0  0  0  0  0  0
  -29.5047  -12.5140   18.2192 C   0  0  0  0  0  0
  -28.0324  -12.3329   18.6429 C   0  0  0  0  0  0
  -27.6436  -13.2239   19.8511 C   0  0  2  0  0  0
  -28.6932  -13.1310   20.9782 C   0  0  0  0  0  0
  -25.2551  -13.8212   20.5693 C   0  0  0  0  0  0
  -24.1823  -13.0473   20.9228 C   0  0  0  0  0  0
  -24.6391  -11.6951   20.8766 C   0  0  0  0  0  0
  -23.9036  -10.4335   21.0430 C   0  0  0  0  0  0
  -24.3600   -9.4243   21.9185 C   0  0  0  0  0  0
  -23.6284   -8.2267   22.0737 C   0  0  0  0  0  0
  -22.4277   -8.0290   21.3508 C   0  0  0  0  0  0
  -21.9915   -9.0278   20.4634 C   0  0  0  0  0  0
  -22.7222  -10.2169   20.3066 C   0  0  0  0  0  0
  -21.6867   -6.0721   22.5257 C   0  0  0  0  0  0
  -21.4024   -6.5611   23.8192 C   0  0  0  0  0  0
  -21.3655   -5.6764   24.9146 C   0  0  0  0  0  0
  -21.6051   -4.3027   24.7214 C   0  0  0  0  0  0
  -21.8831   -3.8123   23.4334 C   0  0  0  0  0  0
  -21.9192   -4.6941   22.3388 C   0  0  0  0  0  0
  -22.7865  -13.5285   21.1925 C   0  0  0  0  0  0
  -22.1661   -4.2123   21.0965 F   0  0  0  0  0  0
  -21.5644   -3.4517   25.7732 F   0  0  0  0  0  0
  -29.9854  -13.5036   20.3873 N   0  0  0  0  0  0
  -26.2957  -12.9381   20.3289 N   0  0  0  0  0  0
  -25.9320  -11.6535   20.5760 N   0  0  0  0  0  0
  -22.0509  -12.8242   22.0449 N   0  0  0  0  0  0
  -25.4243  -15.1938   20.4114 N   0  0  0  0  0  0
  -31.7878  -14.8676   20.2352 O   0  0  0  0  0  0
  -21.6647   -6.8868   21.4209 O   0  0  0  0  0  0
  -22.3552  -14.5613   20.6827 O   0  0  0  0  0  0
  -24.6319  -31.8554   23.1976 C   0  0  0  0  0  0
  -25.9153  -32.4742   23.8314 C   0  0  1  0  0  0
  -27.2078  -27.2679   20.1145 C   0  0  0  0  0  0
  -25.5956  -33.8542   24.2247 N   0  0  0  0  0  0
  -23.4275  -30.4791   21.5423 C   0  0  2  0  0  0
  -24.8732  -28.9303   20.1055 C   0  0  0  0  0  0
  -22.7519  -29.4585   22.4891 C   0  0  0  0  0  0
  -18.0318  -28.1352   22.8485 C   0  0  0  0  0  0
  -24.1497  -36.7252   23.2634 C   0  0  0  0  0  0
  -25.9747  -30.7691   21.3781 C   0  0  0  0  0  0
  -26.0483  -29.3946   20.7126 C   0  0  0  0  0  0
  -27.2250  -28.5786   20.7011 C   0  0  0  0  0  0
  -26.0123  -26.8671   19.4871 C   0  0  0  0  0  0
  -24.8588  -27.6738   19.4818 C   0  0  0  0  0  0
  -23.6452  -29.8191   20.1562 C   0  0  0  0  0  0
  -25.4120  -36.3048   24.0316 C   0  0  1  0  0  0
  -20.5917  -28.3692   23.1304 C   0  0  2  0  0  0
  -20.6802  -26.9403   22.5466 C   0  0  0  0  0  0
  -19.5816  -26.6422   21.5216 C   0  0  0  0  0  0
  -18.1991  -26.7888   22.1647 C   0  0  0  0  0  0
  -19.1555  -28.8837   23.2887 C   0  0  0  0  0  0
  -18.9458  -30.1452   23.8872 C   0  0  0  0  0  0
  -17.6446  -30.6579   24.0488 C   0  0  0  0  0  0
  -25.9069  -34.9427   23.5081 C   0  0  0  0  0  0
  -16.5355  -29.9038   23.6257 C   0  0  0  0  0  0
  -16.7303  -28.6439   23.0321 C   0  0  0  0  0  0
  -26.4531  -31.6562   25.0693 C   0  0  0  0  0  0
  -25.3743  -31.3730   26.1399 C   0  0  0  0  0  0
  -27.0382  -30.2966   24.6214 C   0  0  0  0  0  0
  -27.6089  -32.4298   25.7482 C   0  0  0  0  0  0
  -27.5576  -37.1780   24.8472 C   0  0  0  0  0  0
  -21.4225  -29.3033   22.3664 N   0  0  0  0  0  0
  -26.4287  -37.3748   23.9408 N   0  0  0  0  0  0
  -24.6968  -31.0519   22.0954 N   0  0  0  0  0  0
  -23.4213  -28.8124   23.2998 O   0  0  0  0  0  0
  -28.2754  -26.3463   20.1183 O   0  0  0  0  0  0
  -26.5634  -34.8916   22.4656 O   0  0  0  0  0  0
  -23.5478  -32.1393   23.7282 O   0  0  0  0  0  0
  -29.5686  -19.7616   22.3582 C   0  0  0  0  0  0
  -29.9144  -18.6070   23.0875 C   0  0  0  0  0  0
  -29.5474  -18.4300   20.3467 C   0  0  0  0  0  0
  -29.4321  -19.7624   20.9523 C   0  0  0  0  0  0
  -30.0767  -17.3487   22.4740 C   0  0  0  0  0  0
  -29.8617  -17.2050   21.0795 C   0  0  0  0  0  0
  -28.9259  -21.0671   18.8854 C   0  0  0  0  0  0
  -29.1398  -21.1264   20.2170 C   0  0  0  0  0  0
  -29.0653  -22.5492   20.7990 C   0  0  0  0  0  0
  -28.3956  -23.6017   20.1730 C   0  0  0  0  0  0
  -28.5814  -22.2733   18.0278 C   0  0  0  0  0  0
  -27.7700  -23.3254   18.8157 C   0  0  0  0  0  0
  -30.4056  -16.1565   23.3613 C   0  0  0  0  0  0
  -29.8117  -22.9001   22.0745 C   0  0  0  0  0  0
  -28.0332  -25.0336   20.8057 C   0  0  0  0  0  0
  -29.7366  -15.8339   20.5255 N   0  0  0  0  0  0
  -31.4769  -12.6260   19.1337 H   0  0  0  0  0  0
  -30.4172  -11.4812   19.9168 H   0  0  0  0  0  0
  -29.7904  -11.7483   17.4960 H   0  0  0  0  0  0
  -29.6169  -13.4728   17.7091 H   0  0  0  0  0  0
  -27.8904  -11.2825   18.9001 H   0  0  0  0  0  0
  -27.3739  -12.5344   17.7974 H   0  0  0  0  0  0
  -27.6437  -14.2482   19.4791 H   0  0  0  0  0  0
  -28.7376  -12.1208   21.3909 H   0  0  0  0  0  0
  -28.4391  -13.7899   21.8098 H   0  0  0  0  0  0
  -25.2765   -9.5736   22.4713 H   0  0  0  0  0  0
  -24.0002   -7.4677   22.7485 H   0  0  0  0  0  0
  -21.0820   -8.8801   19.8971 H   0  0  0  0  0  0
  -22.3681  -10.9690   19.6169 H   0  0  0  0  0  0
  -21.2017   -7.6117   23.9688 H   0  0  0  0  0  0
  -21.1458   -6.0488   25.9045 H   0  0  0  0  0  0
  -22.0619   -2.7585   23.2840 H   0  0  0  0  0  0
  -22.4132  -11.9875   22.4756 H   0  0  0  0  0  0
  -21.1129  -13.1277   22.2656 H   0  0  0  0  0  0
  -24.6642  -15.8460   20.5652 H   0  0  0  0  0  0
  -26.2528  -15.6478   20.0504 H   0  0  0  0  0  0
  -26.7187  -32.5391   23.1030 H   0  0  0  0  0  0
  -25.0128  -33.9668   25.0407 H   0  0  0  0  0  0
  -22.7226  -31.3007   21.3997 H   0  0  0  0  0  0
  -23.3761  -35.9585   23.3319 H   0  0  0  0  0  0
  -24.3583  -36.8852   22.2046 H   0  0  0  0  0  0
  -23.7259  -37.6456   23.6656 H   0  0  0  0  0  0
  -26.1247  -31.5360   20.6184 H   0  0  0  0  0  0
  -26.8481  -30.8070   22.0182 H   0  0  0  0  0  0
  -28.1283  -28.9294   21.1792 H   0  0  0  0  0  0
  -25.9590  -25.8969   19.0127 H   0  0  0  0  0  0
  -23.9594  -27.3157   18.9994 H   0  0  0  0  0  0
  -23.7686  -30.6043   19.4078 H   0  0  0  0  0  0
  -22.7627  -29.2553   19.8464 H   0  0  0  0  0  0
  -25.1309  -36.1880   25.0799 H   0  0  0  0  0  0
  -21.0029  -28.3284   24.1424 H   0  0  0  0  0  0
  -20.5598  -26.2336   23.3689 H   0  0  0  0  0  0
  -21.6679  -26.7368   22.1346 H   0  0  0  0  0  0
  -19.7022  -25.6368   21.1202 H   0  0  0  0  0  0
  -19.6783  -27.3306   20.6809 H   0  0  0  0  0  0
  -17.4244  -26.6548   21.4086 H   0  0  0  0  0  0
  -18.0490  -26.0031   22.9071 H   0  0  0  0  0  0
  -19.7947  -30.7262   24.2219 H   0  0  0  0  0  0
  -17.4992  -31.6278   24.5025 H   0  0  0  0  0  0
  -15.5337  -30.2921   23.7536 H   0  0  0  0  0  0
  -15.8721  -28.0725   22.7032 H   0  0  0  0  0  0
  -24.5934  -30.7064   25.7724 H   0  0  0  0  0  0
  -24.8914  -32.2905   26.4770 H   0  0  0  0  0  0
  -25.8041  -30.8944   27.0207 H   0  0  0  0  0  0
  -26.2977  -29.6685   24.1236 H   0  0  0  0  0  0
  -27.4051  -29.7262   25.4764 H   0  0  0  0  0  0
  -27.8878  -30.4218   23.9490 H   0  0  0  0  0  0
  -27.2704  -33.3605   26.2056 H   0  0  0  0  0  0
  -28.3925  -32.6828   25.0323 H   0  0  0  0  0  0
  -28.0733  -31.8403   26.5403 H   0  0  0  0  0  0
  -28.2598  -38.0068   24.7486 H   0  0  0  0  0  0
  -28.1074  -36.2598   24.6351 H   0  0  0  0  0  0
  -27.2297  -37.1480   25.8876 H   0  0  0  0  0  0
  -20.9395  -29.8767   21.6892 H   0  0  0  0  0  0
  -26.0168  -38.2827   24.1396 H   0  0  0  0  0  0
  -29.3943  -20.6437   22.9435 H   0  0  0  0  0  0
  -30.0233  -18.6981   24.1604 H   0  0  0  0  0  0
  -29.3724  -18.3157   19.2890 H   0  0  0  0  0  0
  -28.9963  -20.1375   18.3426 H   0  0  0  0  0  0
  -28.0301  -21.9463   17.1452 H   0  0  0  0  0  0
  -29.5202  -22.7044   17.6736 H   0  0  0  0  0  0
  -27.6842  -24.2460   18.2357 H   0  0  0  0  0  0
  -26.7559  -22.9562   18.9812 H   0  0  0  0  0  0
  -30.5599  -16.4563   24.3978 H   0  0  0  0  0  0
  -31.3287  -15.6799   23.0298 H   0  0  0  0  0  0
  -29.5974  -15.4237   23.3424 H   0  0  0  0  0  0
  -29.1372  -22.9154   22.9324 H   0  0  0  0  0  0
  -30.2861  -23.8783   21.9919 H   0  0  0  0  0  0
  -30.6374  -22.2163   22.2567 H   0  0  0  0  0  0
  -28.5067  -25.1361   21.7794 H   0  0  0  0  0  0
  -26.9744  -24.9589   21.0505 H   0  0  0  0  0  0
  -28.7782  -15.5602   20.3754 H   0  0  0  0  0  0
  1 25  1  0  0  0
  1 30  2  0  0  0
  1 86  1  0  0  0
  2  3  1  0  0  0
  2 25  1  0  0  0
  2 87  1  0  0  0
  2 88  1  0  0  0
  3  4  1  0  0  0
  3 89  1  0  0  0
  3 90  1  0  0  0
  4  5  1  0  0  0
  4 91  1  0  0  0
  4 92  1  0  0  0
  5  6  1  0  0  0
  5 26  1  0  0  0
  5 93  1  0  0  0
  6 25  1  0  0  0
  6 94  1  0  0  0
  6 95  1  0  0  0
  7  8  2  0  0  0
  7 26  1  0  0  0
  7 29  1  0  0  0
  8  9  1  0  0  0
  8 22  1  0  0  0
  9 10  1  0  0  0
  9 27  2  0  0  0
 10 11  2  0  0  0
 10 15  1  0  0  0
 11 12  1  0  0  0
 11 96  1  0  0  0
 12 13  2  0  0  0
 12 97  1  0  0  0
 13 14  1  0  0  0
 13 31  1  0  0  0
 14 15  2  0  0  0
 14 98  1  0  0  0
 15 99  1  0  0  0
 16 17  2  0  0  0
 16 21  1  0  0  0
 16 31  1  0  0  0
 17 18  1  0  0  0
 17100  1  0  0  0
 18 19  2  0  0  0
 18101  1  0  0  0
 19 20  1  0  0  0
 19 24  1  0  0  0
 20 21  2  0  0  0
 20102  1  0  0  0
 21 23  1  0  0  0
 22 28  1  0  0  0
 22 32  2  0  0  0
 26 27  1  0  0  0
 28103  1  0  0  0
 28104  1  0  0  0
 29105  1  0  0  0
 29106  1  0  0  0
 33 34  1  0  0  0
 33 66  1  0  0  0
 33 70  2  0  0  0
 34 36  1  0  0  0
 34 59  1  0  0  0
 34107  1  0  0  0
 35 44  2  0  0  0
 35 45  1  0  0  0
 35 68  1  0  0  0
 36 56  1  0  0  0
 36108  1  0  0  0
 37 39  1  0  0  0
 37 47  1  0  0  0
 37 66  1  0  0  0
 37109  1  0  0  0
 38 43  2  0  0  0
 38 46  1  0  0  0
 38 47  1  0  0  0
 39 64  1  0  0  0
 39 67  2  0  0  0
 40 52  1  0  0  0
 40 53  2  0  0  0
 40 58  1  0  0  0
 41110  1  0  0  0
 41111  1  0  0  0
 41112  1  0  0  0
 41 48  1  0  0  0
 42 43  1  0  0  0
 42 66  1  0  0  0
 42113  1  0  0  0
 42114  1  0  0  0
 43 44  1  0  0  0
 44115  1  0  0  0
 45 46  2  0  0  0
 45116  1  0  0  0
 46117  1  0  0  0
 47118  1  0  0  0
 47119  1  0  0  0
 48 56  1  0  0  0
 48 65  1  0  0  0
 48120  1  0  0  0
 49 50  1  0  0  0
 49 53  1  0  0  0
 49 64  1  0  0  0
 49121  1  0  0  0
 50 51  1  0  0  0
 50122  1  0  0  0
 50123  1  0  0  0
 51 52  1  0  0  0
 51124  1  0  0  0
 51125  1  0  0  0
 52126  1  0  0  0
 52127  1  0  0  0
 53 54  1  0  0  0
 54 55  2  0  0  0
 54128  1  0  0  0
 55 57  1  0  0  0
 55129  1  0  0  0
 56 69  2  0  0  0
 57 58  2  0  0  0
 57130  1  0  0  0
 58131  1  0  0  0
 59 60  1  0  0  0
 59 61  1  0  0  0
 59 62  1  0  0  0
 60132  1  0  0  0
 60133  1  0  0  0
 60134  1  0  0  0
 61135  1  0  0  0
 61136  1  0  0  0
 61137  1  0  0  0
 62138  1  0  0  0
 62139  1  0  0  0
 62140  1  0  0  0
 63 65  1  0  0  0
 63141  1  0  0  0
 63142  1  0  0  0
 63143  1  0  0  0
 64144  1  0  0  0
 65145  1  0  0  0
 68 85  1  0  0  0
 71 72  2  0  0  0
 71 74  1  0  0  0
 71146  1  0  0  0
 72 75  1  0  0  0
 72147  1  0  0  0
 73 74  2  0  0  0
 73 76  1  0  0  0
 73148  1  0  0  0
 74 78  1  0  0  0
 75 76  2  0  0  0
 75 83  1  0  0  0
 76 86  1  0  0  0
 77 78  2  0  0  0
 77 81  1  0  0  0
 77149  1  0  0  0
 78 79  1  0  0  0
 79 80  2  0  0  0
 79 84  1  0  0  0
 80 82  1  0  0  0
 80 85  1  0  0  0
 81 82  1  0  0  0
 81150  1  0  0  0
 81151  1  0  0  0
 82152  1  0  0  0
 82153  1  0  0  0
 83154  1  0  0  0
 83155  1  0  0  0
 83156  1  0  0  0
 84157  1  0  0  0
 84158  1  0  0  0
 84159  1  0  0  0
 85160  1  0  0  0
 85161  1  0  0  0
 86162  1  0  0  0
M  ISO  4   1 100  68 101  85 101  86 100
M  END
> <chiral flag>
0

> <version>
0

> <s_m_source_file>
/data/baiqing/PycharmProjects/Reinvent-master-3.2/result/LINK_invent/BTK/process_docking_weight1_custom_product_contain_oxygen_bond_distance_aromatic_linkinvent_7_9_3/rearranged_h_0125.sdf

> <i_m_source_file_index>
36

> <r_mmod_Potential_Energy-OPLS-2005>
286.5751953125

> <r_mmod_Stretch_Energy-OPLS-2005>
138.10791015625

> <r_mmod_Bend_Energy-OPLS-2005>
172.952072143555

> <r_mmod_Torsional_Energy-OPLS-2005>
285.567718505859

> <r_mmod_Improper_Torsional_Energy-OPLS-2005>
10.6363592147827

> <r_mmod_Van_der_Waal_Energy-OPLS-2005>
161.009796142578

> <r_mmod_Electrostatic_Energy-OPLS-2005>
-367.736145019531

> <r_mmod_Solvation_Energy-OPLS-2005>
-200.499328613281

> <b_mmod_Minimization_Converged-OPLS-2005>
0

> <r_mmod_RMS_Derivative-OPLS-2005>
4.03465843200684

$$$$
36
                    3D
 Structure written by MMmdl.
162171  0  0  1  0            999 V2000
  -30.5358  -14.9204   20.4200 C   0  0  0  0  0  0
  -30.4492  -12.5659   19.4958 C   0  0  0  0  0  0
  -29.5260  -12.5412   18.2540 C   0  0  0  0  0  0
  -28.0534  -12.3463   18.6641 C   0  0  0  0  0  0
  -27.6424  -13.2513   19.8546 C   0  0  2  0  0  0
  -28.6873  -13.2370   20.9927 C   0  0  0  0  0  0
  -25.2509  -13.8233   20.5725 C   0  0  0  0  0  0
  -24.1812  -13.0454   20.9229 C   0  0  0  0  0  0
  -24.6443  -11.6935   20.8778 C   0  0  0  0  0  0
  -23.9120  -10.4306   21.0424 C   0  0  0  0  0  0
  -24.3663   -9.4212   21.9202 C   0  0  0  0  0  0
  -23.6326   -8.2250   22.0767 C   0  0  0  0  0  0
  -22.4306   -8.0300   21.3551 C   0  0  0  0  0  0
  -21.9954   -9.0282   20.4650 C   0  0  0  0  0  0
  -22.7296  -10.2154   20.3066 C   0  0  0  0  0  0
  -21.6845   -6.0757   22.5284 C   0  0  0  0  0  0
  -21.4015   -6.5656   23.8221 C   0  0  0  0  0  0
  -21.3657   -5.6805   24.9180 C   0  0  0  0  0  0
  -21.6036   -4.3068   24.7224 C   0  0  0  0  0  0
  -21.8816   -3.8162   23.4345 C   0  0  0  0  0  0
  -21.9200   -4.6984   22.3404 C   0  0  0  0  0  0
  -22.7840  -13.5226   21.1876 C   0  0  0  0  0  0
  -22.1672   -4.2174   21.0981 F   0  0  0  0  0  0
  -21.5630   -3.4552   25.7730 F   0  0  0  0  0  0
  -29.9711  -13.6465   20.4056 N   0  0  0  0  0  0
  -26.2961  -12.9478   20.3318 N   0  0  0  0  0  0
  -25.9380  -11.6601   20.5774 N   0  0  0  0  0  0
  -22.0485  -12.8196   22.0412 N   0  0  0  0  0  0
  -25.4172  -15.1961   20.4130 N   0  0  0  0  0  0
  -31.7117  -15.0266   20.0576 O   0  0  0  0  0  0
  -21.6645   -6.8906   21.4249 O   0  0  0  0  0  0
  -22.3509  -14.5523   20.6710 O   0  0  0  0  0  0
  -24.6424  -31.8458   23.1897 C   0  0  0  0  0  0
  -25.9204  -32.4700   23.8277 C   0  0  1  0  0  0
  -27.2172  -27.1424   20.1390 C   0  0  0  0  0  0
  -25.5973  -33.8499   24.2218 N   0  0  0  0  0  0
  -23.4445  -30.4637   21.5388 C   0  0  2  0  0  0
  -24.8915  -28.8951   20.1104 C   0  0  0  0  0  0
  -22.7570  -29.4525   22.4894 C   0  0  0  0  0  0
  -18.0304  -28.1385   22.8485 C   0  0  0  0  0  0
  -24.1496  -36.7243   23.2635 C   0  0  0  0  0  0
  -25.9992  -30.7211   21.3868 C   0  0  0  0  0  0
  -26.0689  -29.3315   20.7306 C   0  0  0  0  0  0
  -27.2284  -28.4682   20.7334 C   0  0  0  0  0  0
  -26.0106  -26.8104   19.4805 C   0  0  0  0  0  0
  -24.8740  -27.6462   19.4738 C   0  0  0  0  0  0
  -23.6694  -29.7977   20.1564 C   0  0  0  0  0  0
  -25.4126  -36.3027   24.0315 C   0  0  1  0  0  0
  -20.5923  -28.3704   23.1258 C   0  0  2  0  0  0
  -20.6796  -26.9417   22.5425 C   0  0  0  0  0  0
  -19.5767  -26.6376   21.5234 C   0  0  0  0  0  0
  -18.1943  -26.7929   22.1633 C   0  0  0  0  0  0
  -19.1563  -28.8864   23.2848 C   0  0  0  0  0  0
  -18.9476  -30.1469   23.8858 C   0  0  0  0  0  0
  -17.6473  -30.6588   24.0559 C   0  0  0  0  0  0
  -25.9074  -34.9403   23.5073 C   0  0  0  0  0  0
  -16.5363  -29.9083   23.6333 C   0  0  0  0  0  0
  -16.7289  -28.6501   23.0350 C   0  0  0  0  0  0
  -26.4546  -31.6537   25.0694 C   0  0  0  0  0  0
  -25.3742  -31.3689   26.1396 C   0  0  0  0  0  0
  -27.0418  -30.2949   24.6226 C   0  0  0  0  0  0
  -27.6095  -32.4280   25.7485 C   0  0  0  0  0  0
  -27.5581  -37.1788   24.8465 C   0  0  0  0  0  0
  -21.4263  -29.3018   22.3633 N   0  0  0  0  0  0
  -26.4286  -37.3752   23.9418 N   0  0  0  0  0  0
  -24.7155  -31.0309   22.0935 N   0  0  0  0  0  0
  -23.4222  -28.8064   23.3032 O   0  0  0  0  0  0
  -28.2871  -26.1757   20.2153 O   0  0  0  0  0  0
  -26.5646  -34.8899   22.4642 O   0  0  0  0  0  0
  -23.5554  -32.1345   23.7135 O   0  0  0  0  0  0
  -29.5809  -19.6012   18.9822 C   0  0  0  0  0  0
  -29.7792  -18.1820   19.2116 C   0  0  0  0  0  0
  -29.3296  -19.9942   21.2801 C   0  0  0  0  0  0
  -29.3469  -20.6102   19.9851 C   0  0  0  0  0  0
  -29.4948  -18.5576   21.5262 C   0  0  0  0  0  0
  -29.7440  -17.5619   20.4985 C   0  0  0  0  0  0
  -28.9864  -23.6439   20.2789 C   0  0  0  0  0  0
  -27.8390  -18.9376   24.7937 C   0  0  0  0  0  0
  -28.1689  -24.7425   19.9139 C   0  0  0  0  0  0
  -28.0324  -18.3922   23.5827 C   0  0  0  0  0  0
  -30.2556  -23.8728   21.0519 C   0  0  0  0  0  0
  -31.3362  -23.2867   20.1271 C   0  0  0  0  0  0
  -30.5947  -22.5692   18.9790 C   0  0  0  0  0  0
  -29.1993  -22.2049   19.5242 C   0  0  1  0  0  0
  -29.3932  -18.1114   22.9774 C   0  0  0  0  0  0
  -29.7315  -16.0438   20.7364 N   0  0  0  0  0  0
  -31.4835  -12.7209   19.1852 H   0  0  0  0  0  0
  -30.4357  -11.6010   20.0042 H   0  0  0  0  0  0
  -29.8303  -11.7511   17.5666 H   0  0  0  0  0  0
  -29.6278  -13.4778   17.7035 H   0  0  0  0  0  0
  -27.9179  -11.2974   18.9311 H   0  0  0  0  0  0
  -27.4004  -12.5339   17.8108 H   0  0  0  0  0  0
  -27.6191  -14.2664   19.4556 H   0  0  0  0  0  0
  -28.7616  -12.2470   21.4455 H   0  0  0  0  0  0
  -28.3915  -13.9176   21.7934 H   0  0  0  0  0  0
  -25.2813   -9.5673   22.4773 H   0  0  0  0  0  0
  -24.0033   -7.4628   22.7482 H   0  0  0  0  0  0
  -21.0895   -8.8808   19.8946 H   0  0  0  0  0  0
  -22.3774  -10.9702   19.6175 H   0  0  0  0  0  0
  -21.2002   -7.6163   23.9724 H   0  0  0  0  0  0
  -21.1484   -6.0541   25.9081 H   0  0  0  0  0  0
  -22.0596   -2.7631   23.2833 H   0  0  0  0  0  0
  -22.4128  -11.9862   22.4795 H   0  0  0  0  0  0
  -21.1093  -13.1177   22.2606 H   0  0  0  0  0  0
  -24.6464  -15.8456   20.5162 H   0  0  0  0  0  0
  -26.2545  -15.6325   20.0459 H   0  0  0  0  0  0
  -26.7252  -32.5357   23.0992 H   0  0  0  0  0  0
  -25.0165  -33.9619   25.0396 H   0  0  0  0  0  0
  -22.7461  -31.2889   21.3864 H   0  0  0  0  0  0
  -23.3780  -35.9552   23.3262 H   0  0  0  0  0  0
  -24.3594  -36.8916   22.2059 H   0  0  0  0  0  0
  -23.7223  -37.6416   23.6692 H   0  0  0  0  0  0
  -26.1504  -31.4758   20.6135 H   0  0  0  0  0  0
  -26.8717  -30.7787   22.0259 H   0  0  0  0  0  0
  -28.1267  -28.7940   21.2389 H   0  0  0  0  0  0
  -25.8924  -25.8648   18.9793 H   0  0  0  0  0  0
  -23.9752  -27.3071   18.9769 H   0  0  0  0  0  0
  -23.8108  -30.5764   19.4064 H   0  0  0  0  0  0
  -22.7818  -29.2464   19.8417 H   0  0  0  0  0  0
  -25.1307  -36.1857   25.0805 H   0  0  0  0  0  0
  -21.0003  -28.3310   24.1385 H   0  0  0  0  0  0
  -20.5717  -26.2325   23.3643 H   0  0  0  0  0  0
  -21.6653  -26.7434   22.1205 H   0  0  0  0  0  0
  -19.6926  -25.6278   21.1287 H   0  0  0  0  0  0
  -19.6702  -27.3166   20.6742 H   0  0  0  0  0  0
  -17.4225  -26.6684   21.4030 H   0  0  0  0  0  0
  -18.0302  -26.0078   22.9023 H   0  0  0  0  0  0
  -19.7944  -30.7298   24.2217 H   0  0  0  0  0  0
  -17.5016  -31.6269   24.5160 H   0  0  0  0  0  0
  -15.5353  -30.2966   23.7657 H   0  0  0  0  0  0
  -15.8698  -28.0801   22.7065 H   0  0  0  0  0  0
  -24.5943  -30.7000   25.7725 H   0  0  0  0  0  0
  -24.8882  -32.2844   26.4774 H   0  0  0  0  0  0
  -25.8046  -30.8913   27.0207 H   0  0  0  0  0  0
  -26.3016  -29.6672   24.1247 H   0  0  0  0  0  0
  -27.4088  -29.7226   25.4757 H   0  0  0  0  0  0
  -27.8897  -30.4215   23.9491 H   0  0  0  0  0  0
  -27.2711  -33.3619   26.1982 H   0  0  0  0  0  0
  -28.3953  -32.6777   25.0338 H   0  0  0  0  0  0
  -28.0699  -31.8441   26.5471 H   0  0  0  0  0  0
  -28.2569  -38.0117   24.7551 H   0  0  0  0  0  0
  -28.1112  -36.2650   24.6244 H   0  0  0  0  0  0
  -27.2303  -37.1361   25.8869 H   0  0  0  0  0  0
  -20.9465  -29.8741   21.6829 H   0  0  0  0  0  0
  -26.0150  -38.2812   24.1460 H   0  0  0  0  0  0
  -29.6138  -19.9321   17.9535 H   0  0  0  0  0  0
  -29.9192  -17.5508   18.3452 H   0  0  0  0  0  0
  -29.1734  -20.6403   22.1327 H   0  0  0  0  0  0
  -26.8429  -19.1113   25.1749 H   0  0  0  0  0  0
  -28.6734  -19.2200   25.4191 H   0  0  0  0  0  0
  -27.4260  -24.5656   19.1537 H   0  0  0  0  0  0
  -27.1754  -18.1144   22.9843 H   0  0  0  0  0  0
  -30.2105  -23.3212   21.9924 H   0  0  0  0  0  0
  -30.4176  -24.9284   21.2795 H   0  0  0  0  0  0
  -31.9633  -22.5839   20.6748 H   0  0  0  0  0  0
  -31.9860  -24.0679   19.7304 H   0  0  0  0  0  0
  -31.1648  -21.7367   18.5653 H   0  0  0  0  0  0
  -30.4716  -23.2822   18.1617 H   0  0  0  0  0  0
  -28.4785  -22.1858   18.7052 H   0  0  0  0  0  0
  -30.1723  -18.6125   23.5539 H   0  0  0  0  0  0
  -29.5946  -17.0450   23.0765 H   0  0  0  0  0  0
  -28.8940  -15.7393   21.2092 H   0  0  0  0  0  0
  1 25  1  0  0  0
  1 30  2  0  0  0
  1 86  1  0  0  0
  2  3  1  0  0  0
  2 25  1  0  0  0
  2 87  1  0  0  0
  2 88  1  0  0  0
  3  4  1  0  0  0
  3 89  1  0  0  0
  3 90  1  0  0  0
  4  5  1  0  0  0
  4 91  1  0  0  0
  4 92  1  0  0  0
  5  6  1  0  0  0
  5 26  1  0  0  0
  5 93  1  0  0  0
  6 25  1  0  0  0
  6 94  1  0  0  0
  6 95  1  0  0  0
  7  8  2  0  0  0
  7 26  1  0  0  0
  7 29  1  0  0  0
  8  9  1  0  0  0
  8 22  1  0  0  0
  9 10  1  0  0  0
  9 27  2  0  0  0
 10 11  2  0  0  0
 10 15  1  0  0  0
 11 12  1  0  0  0
 11 96  1  0  0  0
 12 13  2  0  0  0
 12 97  1  0  0  0
 13 14  1  0  0  0
 13 31  1  0  0  0
 14 15  2  0  0  0
 14 98  1  0  0  0
 15 99  1  0  0  0
 16 17  2  0  0  0
 16 21  1  0  0  0
 16 31  1  0  0  0
 17 18  1  0  0  0
 17100  1  0  0  0
 18 19  2  0  0  0
 18101  1  0  0  0
 19 20  1  0  0  0
 19 24  1  0  0  0
 20 21  2  0  0  0
 20102  1  0  0  0
 21 23  1  0  0  0
 22 28  1  0  0  0
 22 32  2  0  0  0
 26 27  1  0  0  0
 28103  1  0  0  0
 28104  1  0  0  0
 29105  1  0  0  0
 29106  1  0  0  0
 33 34  1  0  0  0
 33 66  1  0  0  0
 33 70  2  0  0  0
 34 36  1  0  0  0
 34 59  1  0  0  0
 34107  1  0  0  0
 35 44  2  0  0  0
 35 45  1  0  0  0
 35 68  1  0  0  0
 36 56  1  0  0  0
 36108  1  0  0  0
 37 39  1  0  0  0
 37 47  1  0  0  0
 37 66  1  0  0  0
 37109  1  0  0  0
 38 43  2  0  0  0
 38 46  1  0  0  0
 38 47  1  0  0  0
 39 64  1  0  0  0
 39 67  2  0  0  0
 40 52  1  0  0  0
 40 53  2  0  0  0
 40 58  1  0  0  0
 41110  1  0  0  0
 41111  1  0  0  0
 41112  1  0  0  0
 41 48  1  0  0  0
 42 43  1  0  0  0
 42 66  1  0  0  0
 42113  1  0  0  0
 42114  1  0  0  0
 43 44  1  0  0  0
 44115  1  0  0  0
 45 46  2  0  0  0
 45116  1  0  0  0
 46117  1  0  0  0
 47118  1  0  0  0
 47119  1  0  0  0
 48 56  1  0  0  0
 48 65  1  0  0  0
 48120  1  0  0  0
 49 50  1  0  0  0
 49 53  1  0  0  0
 49 64  1  0  0  0
 49121  1  0  0  0
 50 51  1  0  0  0
 50122  1  0  0  0
 50123  1  0  0  0
 51 52  1  0  0  0
 51124  1  0  0  0
 51125  1  0  0  0
 52126  1  0  0  0
 52127  1  0  0  0
 53 54  1  0  0  0
 54 55  2  0  0  0
 54128  1  0  0  0
 55 57  1  0  0  0
 55129  1  0  0  0
 56 69  2  0  0  0
 57 58  2  0  0  0
 57130  1  0  0  0
 58131  1  0  0  0
 59 60  1  0  0  0
 59 61  1  0  0  0
 59 62  1  0  0  0
 60132  1  0  0  0
 60133  1  0  0  0
 60134  1  0  0  0
 61135  1  0  0  0
 61136  1  0  0  0
 61137  1  0  0  0
 62138  1  0  0  0
 62139  1  0  0  0
 62140  1  0  0  0
 63 65  1  0  0  0
 63141  1  0  0  0
 63142  1  0  0  0
 63143  1  0  0  0
 64144  1  0  0  0
 65145  1  0  0  0
 68 79  1  0  0  0
 71 72  2  0  0  0
 71 74  1  0  0  0
 71146  1  0  0  0
 72 76  1  0  0  0
 72147  1  0  0  0
 73 74  2  0  0  0
 73 75  1  0  0  0
 73148  1  0  0  0
 74 84  1  0  0  0
 75 76  2  0  0  0
 75 85  1  0  0  0
 76 86  1  0  0  0
 77 79  2  0  0  0
 77 81  1  0  0  0
 77 84  1  0  0  0
 78 80  2  0  0  0
 78149  1  0  0  0
 78150  1  0  0  0
 79151  1  0  0  0
 80 85  1  0  0  0
 80152  1  0  0  0
 81 82  1  0  0  0
 81153  1  0  0  0
 81154  1  0  0  0
 82 83  1  0  0  0
 82155  1  0  0  0
 82156  1  0  0  0
 83 84  1  0  0  0
 83157  1  0  0  0
 83158  1  0  0  0
 84159  1  0  0  0
 85160  1  0  0  0
 85161  1  0  0  0
 86162  1  0  0  0
M  ISO  4   1 100  68 101  79 101  86 100
M  END
> <chiral flag>
0

> <version>
0

> <s_m_source_file>
/data/baiqing/PycharmProjects/Reinvent-master-3.2/result/LINK_invent/BTK/process_docking_weight1_custom_product_contain_oxygen_bond_distance_aromatic_linkinvent_7_9_3/rearranged_h_0125.sdf

> <i_m_source_file_index>
37

> <r_mmod_Potential_Energy-OPLS-2005>
594.795654296875

> <r_mmod_Stretch_Energy-OPLS-2005>
219.825927734375

> <r_mmod_Bend_Energy-OPLS-2005>
319.104431152344

> <r_mmod_Torsional_Energy-OPLS-2005>
299.961303710938

> <r_mmod_Improper_Torsional_Energy-OPLS-2005>
6.14440155029297

> <r_mmod_Van_der_Waal_Energy-OPLS-2005>
131.92121887207

> <r_mmod_Electrostatic_Energy-OPLS-2005>
-359.599761962891

> <r_mmod_Solvation_Energy-OPLS-2005>
-198.237365722656

> <b_mmod_Minimization_Converged-OPLS-2005>
0

> <r_mmod_RMS_Derivative-OPLS-2005>
2.4346022605896

$$$$
37
                    3D
 Structure written by MMmdl.
158167  0  0  1  0            999 V2000
  -30.6434  -14.6042   20.4425 C   0  0  0  0  0  0
  -30.4243  -12.3551   19.4515 C   0  0  0  0  0  0
  -29.5039  -12.4956   18.2175 C   0  0  0  0  0  0
  -28.0233  -12.3304   18.6200 C   0  0  0  0  0  0
  -27.6428  -13.2008   19.8461 C   0  0  2  0  0  0
  -28.6896  -13.0747   20.9770 C   0  0  0  0  0  0
  -25.2514  -13.8096   20.5707 C   0  0  0  0  0  0
  -24.1778  -13.0375   20.9174 C   0  0  0  0  0  0
  -24.6346  -11.6858   20.8716 C   0  0  0  0  0  0
  -23.9017  -10.4262   21.0386 C   0  0  0  0  0  0
  -24.3587   -9.4201   21.9161 C   0  0  0  0  0  0
  -23.6285   -8.2230   22.0745 C   0  0  0  0  0  0
  -22.4265   -8.0261   21.3541 C   0  0  0  0  0  0
  -21.9884   -9.0221   20.4637 C   0  0  0  0  0  0
  -22.7199  -10.2101   20.3032 C   0  0  0  0  0  0
  -21.6845   -6.0744   22.5291 C   0  0  0  0  0  0
  -21.4011   -6.5642   23.8225 C   0  0  0  0  0  0
  -21.3647   -5.6782   24.9181 C   0  0  0  0  0  0
  -21.6043   -4.3047   24.7220 C   0  0  0  0  0  0
  -21.8821   -3.8151   23.4335 C   0  0  0  0  0  0
  -21.9195   -4.6977   22.3405 C   0  0  0  0  0  0
  -22.7812  -13.5185   21.1858 C   0  0  0  0  0  0
  -22.1663   -4.2166   21.0982 F   0  0  0  0  0  0
  -21.5624   -3.4530   25.7733 F   0  0  0  0  0  0
  -30.0130  -13.3876   20.4199 N   0  0  0  0  0  0
  -26.2913  -12.9260   20.3229 N   0  0  0  0  0  0
  -25.9258  -11.6430   20.5686 N   0  0  0  0  0  0
  -22.0441  -12.8211   22.0420 N   0  0  0  0  0  0
  -25.4161  -15.1828   20.4327 N   0  0  0  0  0  0
  -31.8444  -14.6942   20.1747 O   0  0  0  0  0  0
  -21.6620   -6.8877   21.4255 O   0  0  0  0  0  0
  -22.3520  -14.5503   20.6713 O   0  0  0  0  0  0
  -24.6219  -31.8629   23.2050 C   0  0  0  0  0  0
  -25.9084  -32.4795   23.8375 C   0  0  1  0  0  0
  -27.2352  -27.3693   20.1071 C   0  0  0  0  0  0
  -25.5906  -33.8590   24.2302 N   0  0  0  0  0  0
  -23.4147  -30.4834   21.5473 C   0  0  2  0  0  0
  -24.8654  -28.9363   20.1213 C   0  0  0  0  0  0
  -22.7450  -29.4635   22.4971 C   0  0  0  0  0  0
  -18.0272  -28.1378   22.8478 C   0  0  0  0  0  0
  -24.1480  -36.7305   23.2640 C   0  0  0  0  0  0
  -25.9519  -30.8042   21.3721 C   0  0  0  0  0  0
  -26.0300  -29.4307   20.7249 C   0  0  0  0  0  0
  -27.2223  -28.6548   20.7166 C   0  0  0  0  0  0
  -26.0555  -26.9080   19.4938 C   0  0  0  0  0  0
  -24.8746  -27.6747   19.5026 C   0  0  0  0  0  0
  -23.6291  -29.8098   20.1661 C   0  0  0  0  0  0
  -25.4103  -36.3094   24.0337 C   0  0  1  0  0  0
  -20.5864  -28.3678   23.1296 C   0  0  2  0  0  0
  -20.6756  -26.9404   22.5411 C   0  0  0  0  0  0
  -19.5740  -26.6384   21.5207 C   0  0  0  0  0  0
  -18.1919  -26.7922   22.1615 C   0  0  0  0  0  0
  -19.1517  -28.8845   23.2880 C   0  0  0  0  0  0
  -18.9450  -30.1447   23.8901 C   0  0  0  0  0  0
  -17.6448  -30.6580   24.0561 C   0  0  0  0  0  0
  -25.9048  -34.9462   23.5118 C   0  0  0  0  0  0
  -16.5341  -29.9080   23.6320 C   0  0  0  0  0  0
  -16.7258  -28.6494   23.0345 C   0  0  0  0  0  0
  -26.4474  -31.6589   25.0733 C   0  0  0  0  0  0
  -25.3712  -31.3706   26.1464 C   0  0  0  0  0  0
  -27.0319  -30.3015   24.6177 C   0  0  0  0  0  0
  -27.6057  -32.4302   25.7485 C   0  0  0  0  0  0
  -27.5578  -37.1796   24.8455 C   0  0  0  0  0  0
  -21.4171  -29.3036   22.3709 N   0  0  0  0  0  0
  -26.4281  -37.3788   23.9412 N   0  0  0  0  0  0
  -24.6814  -31.0663   22.0993 N   0  0  0  0  0  0
  -23.4186  -28.8195   23.3048 O   0  0  0  0  0  0
  -28.3501  -26.5484   20.0168 O   0  0  0  0  0  0
  -26.5623  -34.8919   22.4691 O   0  0  0  0  0  0
  -23.5392  -32.1412   23.7396 O   0  0  0  0  0  0
  -29.7055  -19.5780   20.4283 C   0  0  0  0  0  0
  -27.5843  -19.4403   18.7179 C   0  0  0  0  0  0
  -29.3788  -18.2900   19.9045 C   0  0  0  0  0  0
  -28.2770  -18.2499   19.0126 C   0  0  0  0  0  0
  -28.9633  -20.7405   20.0525 C   0  0  0  0  0  0
  -28.8512  -24.3720   21.0978 C   0  0  0  0  0  0
  -30.2030  -17.0575   20.1798 C   0  0  0  0  0  0
  -28.6626  -25.7279   21.0869 C   0  0  0  0  0  0
  -29.7602  -15.7967   20.4734 C   0  0  0  0  0  0
  -29.3289  -23.6248   22.3274 C   0  0  0  0  0  0
  -28.6810  -23.3155   19.9991 C   0  0  0  0  0  0
  -29.8344  -22.2539   21.8395 C   0  0  0  0  0  0
  -27.8428  -16.9823   18.2932 C   0  0  0  0  0  0
  -27.9209  -20.6488   19.2092 N   0  0  0  0  0  0
  -29.2638  -22.0537   20.5163 N   0  0  0  0  0  0
  -31.4703  -12.4492   19.1568 H   0  0  0  0  0  0
  -30.3265  -11.3614   19.8892 H   0  0  0  0  0  0
  -29.7721  -11.7615   17.4558 H   0  0  0  0  0  0
  -29.6517  -13.4746   17.7593 H   0  0  0  0  0  0
  -27.8517  -11.2766   18.8429 H   0  0  0  0  0  0
  -27.3733  -12.5665   17.7756 H   0  0  0  0  0  0
  -27.6439  -14.2222   19.4798 H   0  0  0  0  0  0
  -28.6880  -12.0626   21.3852 H   0  0  0  0  0  0
  -28.4449  -13.7328   21.8115 H   0  0  0  0  0  0
  -25.2732   -9.5719   22.4714 H   0  0  0  0  0  0
  -24.0025   -7.4630   22.7456 H   0  0  0  0  0  0
  -21.0809   -8.8719   19.8942 H   0  0  0  0  0  0
  -22.3644  -10.9629   19.6132 H   0  0  0  0  0  0
  -21.2003   -7.6152   23.9733 H   0  0  0  0  0  0
  -21.1458   -6.0507   25.9079 H   0  0  0  0  0  0
  -22.0615   -2.7623   23.2811 H   0  0  0  0  0  0
  -22.4027  -11.9880   22.4866 H   0  0  0  0  0  0
  -21.1063  -13.1266   22.2592 H   0  0  0  0  0  0
  -24.6445  -15.8285   20.5625 H   0  0  0  0  0  0
  -26.2797  -15.6461   20.1903 H   0  0  0  0  0  0
  -26.7164  -32.5481   23.1145 H   0  0  0  0  0  0
  -24.9996  -33.9728   25.0405 H   0  0  0  0  0  0
  -22.7069  -31.3025   21.4020 H   0  0  0  0  0  0
  -23.3740  -35.9640   23.3302 H   0  0  0  0  0  0
  -24.3574  -36.8926   22.2054 H   0  0  0  0  0  0
  -23.7230  -37.6510   23.6659 H   0  0  0  0  0  0
  -26.0745  -31.5636   20.5983 H   0  0  0  0  0  0
  -26.8356  -30.8590   21.9967 H   0  0  0  0  0  0
  -28.1263  -29.0357   21.1705 H   0  0  0  0  0  0
  -26.0553  -25.9439   19.0058 H   0  0  0  0  0  0
  -23.9826  -27.2898   19.0283 H   0  0  0  0  0  0
  -23.7400  -30.5802   19.4022 H   0  0  0  0  0  0
  -22.7523  -29.2300   19.8722 H   0  0  0  0  0  0
  -25.1274  -36.1953   25.0830 H   0  0  0  0  0  0
  -20.9947  -28.3252   24.1423 H   0  0  0  0  0  0
  -20.5650  -26.2292   23.3610 H   0  0  0  0  0  0
  -21.6631  -26.7436   22.1218 H   0  0  0  0  0  0
  -19.6904  -25.6298   21.1238 H   0  0  0  0  0  0
  -19.6684  -27.3196   20.6741 H   0  0  0  0  0  0
  -17.4190  -26.6656   21.4018 H   0  0  0  0  0  0
  -18.0329  -26.0063   22.9013 H   0  0  0  0  0  0
  -19.7927  -30.7248   24.2282 H   0  0  0  0  0  0
  -17.5007  -31.6261   24.5165 H   0  0  0  0  0  0
  -15.5340  -30.2984   23.7646 H   0  0  0  0  0  0
  -15.8661  -28.0824   22.7059 H   0  0  0  0  0  0
  -24.5878  -30.7081   25.7766 H   0  0  0  0  0  0
  -24.8913  -32.2866   26.4924 H   0  0  0  0  0  0
  -25.8028  -30.8838   27.0223 H   0  0  0  0  0  0
  -26.2895  -29.6758   24.1217 H   0  0  0  0  0  0
  -27.4031  -29.7269   25.4675 H   0  0  0  0  0  0
  -27.8753  -30.4287   23.9387 H   0  0  0  0  0  0
  -27.2701  -33.3589   26.2103 H   0  0  0  0  0  0
  -28.3845  -32.6883   25.0299 H   0  0  0  0  0  0
  -28.0770  -31.8409   26.5362 H   0  0  0  0  0  0
  -28.2584  -38.0106   24.7537 H   0  0  0  0  0  0
  -28.1085  -36.2642   24.6231 H   0  0  0  0  0  0
  -27.2310  -37.1393   25.8861 H   0  0  0  0  0  0
  -20.9364  -29.8737   21.6897 H   0  0  0  0  0  0
  -26.0169  -38.2862   24.1437 H   0  0  0  0  0  0
  -30.5548  -19.6705   21.0910 H   0  0  0  0  0  0
  -26.7452  -19.4331   18.0370 H   0  0  0  0  0  0
  -31.2647  -17.1972   20.0261 H   0  0  0  0  0  0
  -28.8373  -26.3188   21.9749 H   0  0  0  0  0  0
  -28.7089  -15.6841   20.6719 H   0  0  0  0  0  0
  -28.4802  -23.4863   22.9986 H   0  0  0  0  0  0
  -30.0999  -24.1739   22.8694 H   0  0  0  0  0  0
  -29.1815  -23.6257   19.0804 H   0  0  0  0  0  0
  -27.6187  -23.1885   19.7851 H   0  0  0  0  0  0
  -29.5507  -21.4581   22.5300 H   0  0  0  0  0  0
  -30.9220  -22.2473   21.7541 H   0  0  0  0  0  0
  -27.2217  -17.2055   17.4244 H   0  0  0  0  0  0
  -27.2502  -16.3714   18.9635 H   0  0  0  0  0  0
  -28.6939  -16.3976   17.9452 H   0  0  0  0  0  0
  1 25  1  0  0  0
  1 30  2  0  0  0
  1 79  1  0  0  0
  2  3  1  0  0  0
  2 25  1  0  0  0
  2 86  1  0  0  0
  2 87  1  0  0  0
  3  4  1  0  0  0
  3 88  1  0  0  0
  3 89  1  0  0  0
  4  5  1  0  0  0
  4 90  1  0  0  0
  4 91  1  0  0  0
  5  6  1  0  0  0
  5 26  1  0  0  0
  5 92  1  0  0  0
  6 25  1  0  0  0
  6 93  1  0  0  0
  6 94  1  0  0  0
  7  8  2  0  0  0
  7 26  1  0  0  0
  7 29  1  0  0  0
  8  9  1  0  0  0
  8 22  1  0  0  0
  9 10  1  0  0  0
  9 27  2  0  0  0
 10 11  2  0  0  0
 10 15  1  0  0  0
 11 12  1  0  0  0
 11 95  1  0  0  0
 12 13  2  0  0  0
 12 96  1  0  0  0
 13 14  1  0  0  0
 13 31  1  0  0  0
 14 15  2  0  0  0
 14 97  1  0  0  0
 15 98  1  0  0  0
 16 17  2  0  0  0
 16 21  1  0  0  0
 16 31  1  0  0  0
 17 18  1  0  0  0
 17 99  1  0  0  0
 18 19  2  0  0  0
 18100  1  0  0  0
 19 20  1  0  0  0
 19 24  1  0  0  0
 20 21  2  0  0  0
 20101  1  0  0  0
 21 23  1  0  0  0
 22 28  1  0  0  0
 22 32  2  0  0  0
 26 27  1  0  0  0
 28102  1  0  0  0
 28103  1  0  0  0
 29104  1  0  0  0
 29105  1  0  0  0
 33 34  1  0  0  0
 33 66  1  0  0  0
 33 70  2  0  0  0
 34 36  1  0  0  0
 34 59  1  0  0  0
 34106  1  0  0  0
 35 44  2  0  0  0
 35 45  1  0  0  0
 35 68  1  0  0  0
 36 56  1  0  0  0
 36107  1  0  0  0
 37 39  1  0  0  0
 37 47  1  0  0  0
 37 66  1  0  0  0
 37108  1  0  0  0
 38 43  2  0  0  0
 38 46  1  0  0  0
 38 47  1  0  0  0
 39 64  1  0  0  0
 39 67  2  0  0  0
 40 52  1  0  0  0
 40 53  2  0  0  0
 40 58  1  0  0  0
 41109  1  0  0  0
 41110  1  0  0  0
 41111  1  0  0  0
 41 48  1  0  0  0
 42 43  1  0  0  0
 42 66  1  0  0  0
 42112  1  0  0  0
 42113  1  0  0  0
 43 44  1  0  0  0
 44114  1  0  0  0
 45 46  2  0  0  0
 45115  1  0  0  0
 46116  1  0  0  0
 47117  1  0  0  0
 47118  1  0  0  0
 48 56  1  0  0  0
 48 65  1  0  0  0
 48119  1  0  0  0
 49 50  1  0  0  0
 49 53  1  0  0  0
 49 64  1  0  0  0
 49120  1  0  0  0
 50 51  1  0  0  0
 50121  1  0  0  0
 50122  1  0  0  0
 51 52  1  0  0  0
 51123  1  0  0  0
 51124  1  0  0  0
 52125  1  0  0  0
 52126  1  0  0  0
 53 54  1  0  0  0
 54 55  2  0  0  0
 54127  1  0  0  0
 55 57  1  0  0  0
 55128  1  0  0  0
 56 69  2  0  0  0
 57 58  2  0  0  0
 57129  1  0  0  0
 58130  1  0  0  0
 59 60  1  0  0  0
 59 61  1  0  0  0
 59 62  1  0  0  0
 60131  1  0  0  0
 60132  1  0  0  0
 60133  1  0  0  0
 61134  1  0  0  0
 61135  1  0  0  0
 61136  1  0  0  0
 62137  1  0  0  0
 62138  1  0  0  0
 62139  1  0  0  0
 63 65  1  0  0  0
 63140  1  0  0  0
 63141  1  0  0  0
 63142  1  0  0  0
 64143  1  0  0  0
 65144  1  0  0  0
 68 78  1  0  0  0
 71 73  2  0  0  0
 71 75  1  0  0  0
 71145  1  0  0  0
 72 74  2  0  0  0
 72 84  1  0  0  0
 72146  1  0  0  0
 73 74  1  0  0  0
 73 77  1  0  0  0
 74 83  1  0  0  0
 75 84  2  0  0  0
 75 85  1  0  0  0
 76 78  2  0  0  0
 76 80  1  0  0  0
 76 81  1  0  0  0
 77 79  2  0  0  0
 77147  1  0  0  0
 78148  1  0  0  0
 79149  1  0  0  0
 80 82  1  0  0  0
 80150  1  0  0  0
 80151  1  0  0  0
 81 85  1  0  0  0
 81152  1  0  0  0
 81153  1  0  0  0
 82 85  1  0  0  0
 82154  1  0  0  0
 82155  1  0  0  0
 83156  1  0  0  0
 83157  1  0  0  0
 83158  1  0  0  0
M  ISO  4   1 100  68 101  78 101  79 100
M  END
> <chiral flag>
0

> <version>
0

> <s_m_source_file>
/data/baiqing/PycharmProjects/Reinvent-master-3.2/result/LINK_invent/BTK/process_docking_weight1_custom_product_contain_oxygen_bond_distance_aromatic_linkinvent_7_9_3/rearranged_h_0125.sdf

> <i_m_source_file_index>
38

> <r_mmod_Potential_Energy-OPLS-2005>
-151.347061157227

> <r_mmod_Stretch_Energy-OPLS-2005>
53.2448310852051

> <r_mmod_Bend_Energy-OPLS-2005>
155.010635375977

> <r_mmod_Torsional_Energy-OPLS-2005>
244.416656494141

> <r_mmod_Improper_Torsional_Energy-OPLS-2005>
10.8705463409424

> <r_mmod_Van_der_Waal_Energy-OPLS-2005>
145.428695678711

> <r_mmod_Electrostatic_Energy-OPLS-2005>
-570.309753417969

> <r_mmod_Solvation_Energy-OPLS-2005>
-226.740631103516

> <b_mmod_Minimization_Converged-OPLS-2005>
0

> <r_mmod_RMS_Derivative-OPLS-2005>
2.36885762214661

$$$$
38
                    3D
 Structure written by MMmdl.
155163  0  0  1  0            999 V2000
  -30.7792  -14.5078   20.6070 C   0  0  0  0  0  0
  -30.4034  -12.3334   19.4620 C   0  0  0  0  0  0
  -29.5035  -12.5079   18.2215 C   0  0  0  0  0  0
  -28.0280  -12.3484   18.6329 C   0  0  0  0  0  0
  -27.6583  -13.2198   19.8660 C   0  0  2  0  0  0
  -28.6987  -13.0839   21.0086 C   0  0  0  0  0  0
  -25.2592  -13.8181   20.5657 C   0  0  0  0  0  0
  -24.1834  -13.0493   20.9143 C   0  0  0  0  0  0
  -24.6385  -11.6974   20.8769 C   0  0  0  0  0  0
  -23.9054  -10.4360   21.0445 C   0  0  0  0  0  0
  -24.3592   -9.4290   21.9243 C   0  0  0  0  0  0
  -23.6271   -8.2328   22.0820 C   0  0  0  0  0  0
  -22.4281   -8.0320   21.3571 C   0  0  0  0  0  0
  -21.9895   -9.0285   20.4651 C   0  0  0  0  0  0
  -22.7227  -10.2189   20.3076 C   0  0  0  0  0  0
  -21.6872   -6.0730   22.5284 C   0  0  0  0  0  0
  -21.4018   -6.5629   23.8209 C   0  0  0  0  0  0
  -21.3671   -5.6789   24.9169 C   0  0  0  0  0  0
  -21.6055   -4.3048   24.7230 C   0  0  0  0  0  0
  -21.8821   -3.8122   23.4341 C   0  0  0  0  0  0
  -21.9181   -4.6953   22.3390 C   0  0  0  0  0  0
  -22.7847  -13.5352   21.1668 C   0  0  0  0  0  0
  -22.1630   -4.2129   21.0978 F   0  0  0  0  0  0
  -21.5660   -3.4544   25.7757 F   0  0  0  0  0  0
  -30.0387  -13.3599   20.4658 N   0  0  0  0  0  0
  -26.3031  -12.9381   20.3301 N   0  0  0  0  0  0
  -25.9345  -11.6545   20.5819 N   0  0  0  0  0  0
  -22.0302  -12.8512   22.0196 N   0  0  0  0  0  0
  -25.4339  -15.1869   20.4069 N   0  0  0  0  0  0
  -31.8427  -14.6295   19.9926 O   0  0  0  0  0  0
  -21.6682   -6.8887   21.4266 O   0  0  0  0  0  0
  -22.3604  -14.5640   20.6408 O   0  0  0  0  0  0
  -24.6230  -31.8677   23.2026 C   0  0  0  0  0  0
  -25.9064  -32.4833   23.8371 C   0  0  1  0  0  0
  -27.2676  -27.3933   20.1419 C   0  0  0  0  0  0
  -25.5893  -33.8625   24.2339 N   0  0  0  0  0  0
  -23.4141  -30.4843   21.5490 C   0  0  2  0  0  0
  -24.8717  -28.9290   20.1285 C   0  0  0  0  0  0
  -22.7453  -29.4677   22.5063 C   0  0  0  0  0  0
  -18.0269  -28.1368   22.8506 C   0  0  0  0  0  0
  -24.1478  -36.7325   23.2617 C   0  0  0  0  0  0
  -25.9398  -30.8314   21.3436 C   0  0  0  0  0  0
  -26.0312  -29.4497   20.7190 C   0  0  0  0  0  0
  -27.2316  -28.6933   20.7155 C   0  0  0  0  0  0
  -26.0872  -26.8934   19.5483 C   0  0  0  0  0  0
  -24.8985  -27.6543   19.5373 C   0  0  0  0  0  0
  -23.6255  -29.7906   20.1721 C   0  0  0  0  0  0
  -25.4095  -36.3146   24.0339 C   0  0  1  0  0  0
  -20.5867  -28.3676   23.1325 C   0  0  2  0  0  0
  -20.6785  -26.9429   22.5392 C   0  0  0  0  0  0
  -19.5756  -26.6407   21.5211 C   0  0  0  0  0  0
  -18.1925  -26.7921   22.1618 C   0  0  0  0  0  0
  -19.1515  -28.8849   23.2921 C   0  0  0  0  0  0
  -18.9419  -30.1431   23.8963 C   0  0  0  0  0  0
  -17.6415  -30.6588   24.0527 C   0  0  0  0  0  0
  -25.9031  -34.9486   23.5148 C   0  0  0  0  0  0
  -16.5320  -29.9077   23.6289 C   0  0  0  0  0  0
  -16.7241  -28.6473   23.0381 C   0  0  0  0  0  0
  -26.4400  -31.6583   25.0715 C   0  0  0  0  0  0
  -25.3595  -31.3655   26.1391 C   0  0  0  0  0  0
  -27.0151  -30.3028   24.6026 C   0  0  0  0  0  0
  -27.6054  -32.4147   25.7493 C   0  0  0  0  0  0
  -27.5572  -37.1822   24.8453 C   0  0  0  0  0  0
  -21.4189  -29.3060   22.3787 N   0  0  0  0  0  0
  -26.4285  -37.3817   23.9399 N   0  0  0  0  0  0
  -24.6798  -31.0717   22.0938 N   0  0  0  0  0  0
  -23.4187  -28.8277   23.3165 O   0  0  0  0  0  0
  -28.4246  -26.6234   20.1271 O   0  0  0  0  0  0
  -26.5618  -34.8926   22.4714 O   0  0  0  0  0  0
  -23.5413  -32.1410   23.7418 O   0  0  0  0  0  0
  -30.7925  -18.2025   23.3435 C   0  0  0  0  0  0
  -30.9116  -19.4425   24.0029 C   0  0  0  0  0  0
  -30.1850  -19.3881   21.3198 C   0  0  0  0  0  0
  -30.5009  -18.1578   21.9670 C   0  0  0  0  0  0
  -30.7278  -20.6746   23.3252 C   0  0  0  0  0  0
  -30.2849  -20.6632   21.9631 C   0  0  0  0  0  0
  -30.6542  -16.8921   21.1840 C   0  0  0  0  0  0
  -29.9452  -21.8861   21.1351 C   0  0  0  0  0  0
  -31.1318  -21.9256   24.0353 C   0  0  0  0  0  0
  -30.3120  -15.6034   21.4822 C   0  0  0  0  0  0
  -29.5422  -23.1355   21.5168 C   0  0  0  0  0  0
  -29.3079  -24.2761   20.5626 C   0  0  0  0  0  0
  -28.4303  -25.4816   21.0307 C   0  0  0  0  0  0
  -31.2386  -22.0967   25.2878 N   0  0  0  0  0  0
  -29.8107  -24.2934   19.4334 O   0  0  0  0  0  0
  -31.4598  -12.3561   19.1853 H   0  0  0  0  0  0
  -30.2397  -11.3377   19.8741 H   0  0  0  0  0  0
  -29.7535  -11.7630   17.4670 H   0  0  0  0  0  0
  -29.6777  -13.4773   17.7603 H   0  0  0  0  0  0
  -27.8760  -11.2946   18.8644 H   0  0  0  0  0  0
  -27.3776  -12.5690   17.7847 H   0  0  0  0  0  0
  -27.6800  -14.2561   19.5324 H   0  0  0  0  0  0
  -28.6864  -12.0767   21.4285 H   0  0  0  0  0  0
  -28.4413  -13.7565   21.8276 H   0  0  0  0  0  0
  -25.2730   -9.5817   22.4864 H   0  0  0  0  0  0
  -23.9951   -7.4768   22.7632 H   0  0  0  0  0  0
  -21.0824   -8.8829   19.8947 H   0  0  0  0  0  0
  -22.3678  -10.9753   19.6190 H   0  0  0  0  0  0
  -21.2031   -7.6148   23.9704 H   0  0  0  0  0  0
  -21.1475   -6.0513   25.9070 H   0  0  0  0  0  0
  -22.0574   -2.7564   23.2870 H   0  0  0  0  0  0
  -22.3820  -12.0326   22.4934 H   0  0  0  0  0  0
  -21.0866  -13.1675   22.2066 H   0  0  0  0  0  0
  -24.6898  -15.8591   20.5536 H   0  0  0  0  0  0
  -26.3079  -15.6183   20.1279 H   0  0  0  0  0  0
  -26.7211  -32.5542   23.1230 H   0  0  0  0  0  0
  -24.9939  -33.9731   25.0419 H   0  0  0  0  0  0
  -22.7065  -31.3014   21.3969 H   0  0  0  0  0  0
  -23.3767  -35.9616   23.3258 H   0  0  0  0  0  0
  -24.3597  -36.8975   22.2037 H   0  0  0  0  0  0
  -23.7200  -37.6518   23.6620 H   0  0  0  0  0  0
  -26.0030  -31.5728   20.5462 H   0  0  0  0  0  0
  -26.8401  -30.9352   21.9349 H   0  0  0  0  0  0
  -28.1267  -29.0978   21.1680 H   0  0  0  0  0  0
  -26.0892  -25.9099   19.0954 H   0  0  0  0  0  0
  -24.0078  -27.2473   19.0820 H   0  0  0  0  0  0
  -23.7068  -30.5388   19.3838 H   0  0  0  0  0  0
  -22.7555  -29.1899   19.9048 H   0  0  0  0  0  0
  -25.1281  -36.2026   25.0831 H   0  0  0  0  0  0
  -20.9912  -28.3207   24.1450 H   0  0  0  0  0  0
  -20.5717  -26.2289   23.3594 H   0  0  0  0  0  0
  -21.6658  -26.7520   22.1162 H   0  0  0  0  0  0
  -19.6919  -25.6326   21.1233 H   0  0  0  0  0  0
  -19.6659  -27.3231   20.6759 H   0  0  0  0  0  0
  -17.4213  -26.6687   21.4005 H   0  0  0  0  0  0
  -18.0300  -26.0036   22.8984 H   0  0  0  0  0  0
  -19.7877  -30.7210   24.2421 H   0  0  0  0  0  0
  -17.4956  -31.6291   24.5086 H   0  0  0  0  0  0
  -15.5323  -30.3002   23.7554 H   0  0  0  0  0  0
  -15.8646  -28.0760   22.7148 H   0  0  0  0  0  0
  -24.5874  -30.6913   25.7659 H   0  0  0  0  0  0
  -24.8604  -32.2745   26.4731 H   0  0  0  0  0  0
  -25.7816  -30.8881   27.0224 H   0  0  0  0  0  0
  -26.2676  -29.6963   24.0899 H   0  0  0  0  0  0
  -27.3757  -29.7096   25.4435 H   0  0  0  0  0  0
  -27.8563  -30.4388   23.9230 H   0  0  0  0  0  0
  -27.2845  -33.3487   26.2065 H   0  0  0  0  0  0
  -28.3871  -32.6566   25.0300 H   0  0  0  0  0  0
  -28.0645  -31.8200   26.5400 H   0  0  0  0  0  0
  -28.2623  -38.0098   24.7526 H   0  0  0  0  0  0
  -28.1056  -36.2654   24.6252 H   0  0  0  0  0  0
  -27.2268  -37.1427   25.8848 H   0  0  0  0  0  0
  -20.9432  -29.8681   21.6877 H   0  0  0  0  0  0
  -26.0225  -38.2904   24.1383 H   0  0  0  0  0  0
  -31.0290  -17.2934   23.8802 H   0  0  0  0  0  0
  -31.2405  -19.4372   25.0349 H   0  0  0  0  0  0
  -29.9146  -19.3411   20.2776 H   0  0  0  0  0  0
  -31.2082  -17.0451   20.2651 H   0  0  0  0  0  0
  -30.0590  -21.7273   20.0706 H   0  0  0  0  0  0
  -31.3974  -22.7637   23.3871 H   0  0  0  0  0  0
  -29.7506  -15.3988   22.3768 H   0  0  0  0  0  0
  -29.3850  -23.3585   22.5607 H   0  0  0  0  0  0
  -28.8172  -25.8098   21.9959 H   0  0  0  0  0  0
  -27.4207  -25.1228   21.2060 H   0  0  0  0  0  0
  -30.9841  -21.2756   25.8277 H   0  0  0  0  0  0
  1 25  1  0  0  0
  1 30  2  0  0  0
  1 80  1  0  0  0
  2  3  1  0  0  0
  2 25  1  0  0  0
  2 86  1  0  0  0
  2 87  1  0  0  0
  3  4  1  0  0  0
  3 88  1  0  0  0
  3 89  1  0  0  0
  4  5  1  0  0  0
  4 90  1  0  0  0
  4 91  1  0  0  0
  5  6  1  0  0  0
  5 26  1  0  0  0
  5 92  1  0  0  0
  6 25  1  0  0  0
  6 93  1  0  0  0
  6 94  1  0  0  0
  7  8  2  0  0  0
  7 26  1  0  0  0
  7 29  1  0  0  0
  8  9  1  0  0  0
  8 22  1  0  0  0
  9 10  1  0  0  0
  9 27  2  0  0  0
 10 11  2  0  0  0
 10 15  1  0  0  0
 11 12  1  0  0  0
 11 95  1  0  0  0
 12 13  2  0  0  0
 12 96  1  0  0  0
 13 14  1  0  0  0
 13 31  1  0  0  0
 14 15  2  0  0  0
 14 97  1  0  0  0
 15 98  1  0  0  0
 16 17  2  0  0  0
 16 21  1  0  0  0
 16 31  1  0  0  0
 17 18  1  0  0  0
 17 99  1  0  0  0
 18 19  2  0  0  0
 18100  1  0  0  0
 19 20  1  0  0  0
 19 24  1  0  0  0
 20 21  2  0  0  0
 20101  1  0  0  0
 21 23  1  0  0  0
 22 28  1  0  0  0
 22 32  2  0  0  0
 26 27  1  0  0  0
 28102  1  0  0  0
 28103  1  0  0  0
 29104  1  0  0  0
 29105  1  0  0  0
 33 34  1  0  0  0
 33 66  1  0  0  0
 33 70  2  0  0  0
 34 36  1  0  0  0
 34 59  1  0  0  0
 34106  1  0  0  0
 35 44  2  0  0  0
 35 45  1  0  0  0
 35 68  1  0  0  0
 36 56  1  0  0  0
 36107  1  0  0  0
 37 39  1  0  0  0
 37 47  1  0  0  0
 37 66  1  0  0  0
 37108  1  0  0  0
 38 43  2  0  0  0
 38 46  1  0  0  0
 38 47  1  0  0  0
 39 64  1  0  0  0
 39 67  2  0  0  0
 40 52  1  0  0  0
 40 53  2  0  0  0
 40 58  1  0  0  0
 41109  1  0  0  0
 41110  1  0  0  0
 41111  1  0  0  0
 41 48  1  0  0  0
 42 43  1  0  0  0
 42 66  1  0  0  0
 42112  1  0  0  0
 42113  1  0  0  0
 43 44  1  0  0  0
 44114  1  0  0  0
 45 46  2  0  0  0
 45115  1  0  0  0
 46116  1  0  0  0
 47117  1  0  0  0
 47118  1  0  0  0
 48 56  1  0  0  0
 48 65  1  0  0  0
 48119  1  0  0  0
 49 50  1  0  0  0
 49 53  1  0  0  0
 49 64  1  0  0  0
 49120  1  0  0  0
 50 51  1  0  0  0
 50121  1  0  0  0
 50122  1  0  0  0
 51 52  1  0  0  0
 51123  1  0  0  0
 51124  1  0  0  0
 52125  1  0  0  0
 52126  1  0  0  0
 53 54  1  0  0  0
 54 55  2  0  0  0
 54127  1  0  0  0
 55 57  1  0  0  0
 55128  1  0  0  0
 56 69  2  0  0  0
 57 58  2  0  0  0
 57129  1  0  0  0
 58130  1  0  0  0
 59 60  1  0  0  0
 59 61  1  0  0  0
 59 62  1  0  0  0
 60131  1  0  0  0
 60132  1  0  0  0
 60133  1  0  0  0
 61134  1  0  0  0
 61135  1  0  0  0
 61136  1  0  0  0
 62137  1  0  0  0
 62138  1  0  0  0
 62139  1  0  0  0
 63 65  1  0  0  0
 63140  1  0  0  0
 63141  1  0  0  0
 63142  1  0  0  0
 64143  1  0  0  0
 65144  1  0  0  0
 68 83  1  0  0  0
 71 72  2  0  0  0
 71 74  1  0  0  0
 71145  1  0  0  0
 72 75  1  0  0  0
 72146  1  0  0  0
 73 74  2  0  0  0
 73 76  1  0  0  0
 73147  1  0  0  0
 74 77  1  0  0  0
 75 76  2  0  0  0
 75 79  1  0  0  0
 76 78  1  0  0  0
 77 80  2  0  0  0
 77148  1  0  0  0
 78 81  2  0  0  0
 78149  1  0  0  0
 79 84  2  0  0  0
 79150  1  0  0  0
 80151  1  0  0  0
 81 82  1  0  0  0
 81152  1  0  0  0
 82 83  1  0  0  0
 82 85  2  0  0  0
 83153  1  0  0  0
 83154  1  0  0  0
 84155  1  0  0  0
M  ISO  4   1 100  68 101  80 100  83 101
M  END
> <chiral flag>
0

> <version>
0

> <s_m_source_file>
/data/baiqing/PycharmProjects/Reinvent-master-3.2/result/LINK_invent/BTK/process_docking_weight1_custom_product_contain_oxygen_bond_distance_aromatic_linkinvent_7_9_3/rearranged_h_0125.sdf

> <i_m_source_file_index>
39

> <r_mmod_Potential_Energy-OPLS-2005>
72.6357879638672

> <r_mmod_Stretch_Energy-OPLS-2005>
61.5638580322266

> <r_mmod_Bend_Energy-OPLS-2005>
122.004486083984

> <r_mmod_Torsional_Energy-OPLS-2005>
238.947784423828

> <r_mmod_Improper_Torsional_Energy-OPLS-2005>
4.19153690338135

> <r_mmod_Van_der_Waal_Energy-OPLS-2005>
153.652603149414

> <r_mmod_Electrostatic_Energy-OPLS-2005>
-299.215057373047

> <r_mmod_Solvation_Energy-OPLS-2005>
-230.212936401367

> <b_mmod_Minimization_Converged-OPLS-2005>
0

> <r_mmod_RMS_Derivative-OPLS-2005>
7.47375774383545

$$$$
39
                    3D
 Structure written by MMmdl.
160168  0  0  1  0            999 V2000
  -29.2464  -14.4298   19.4365 C   0  0  0  0  0  0
  -30.6176  -12.4967   19.4914 C   0  0  0  0  0  0
  -29.5666  -11.9076   18.6016 C   0  0  0  0  0  0
  -28.3363  -11.7478   19.5472 C   0  0  0  0  0  0
  -27.9717  -12.7675   21.0288 C   0  0  2  0  0  0
  -29.2934  -13.0781   21.4929 C   0  0  0  0  0  0
  -25.7702  -14.6077   21.6168 C   0  0  0  0  0  0
  -24.4938  -14.1649   21.9671 C   0  0  0  0  0  0
  -24.8901  -13.2340   21.1375 C   0  0  0  0  0  0
  -23.8969  -11.0080   19.2044 C   0  0  0  0  0  0
  -24.3805   -9.5014   19.6930 C   0  0  0  0  0  0
  -23.8841   -8.4796   20.7147 C   0  0  0  0  0  0
  -22.5008   -8.3068   20.9390 C   0  0  0  0  0  0
  -21.8771   -9.2890   20.1136 C   0  0  0  0  0  0
  -22.5418  -10.3199   19.2608 C   0  0  0  0  0  0
  -21.8313   -6.2628   22.4516 C   0  0  0  0  0  0
  -21.5170   -6.6930   23.7685 C   0  0  0  0  0  0
  -21.4196   -5.7804   24.8547 C   0  0  0  0  0  0
  -21.6196   -4.4012   24.6569 C   0  0  0  0  0  0
  -21.8897   -3.9402   23.3592 C   0  0  0  0  0  0
  -21.9772   -4.8472   22.2763 C   0  0  0  0  0  0
  -23.0520  -14.6057   22.0987 C   0  0  0  0  0  0
  -22.1804   -4.3303   21.0411 F   0  0  0  0  0  0
  -21.5479   -3.5290   25.6976 F   0  0  0  0  0  0
  -29.8807  -13.5135   20.2378 N   0  0  0  0  0  0
  -26.6883  -13.4648   21.6189 N   0  0  0  0  0  0
  -25.8069  -12.8099   22.1490 N   0  0  0  0  0  0
  -22.3519  -13.7808   22.8977 N   0  0  0  0  0  0
  -26.1756  -15.8381   21.2089 N   0  0  0  0  0  0
  -30.1979  -15.2314   19.2062 O   0  0  0  0  0  0
  -21.7737   -7.1273   21.3254 O   0  0  0  0  0  0
  -22.4580  -15.3285   21.2992 O   0  0  0  0  0  0
  -24.7587  -31.6935   23.0957 C   0  0  0  0  0  0
  -25.9833  -32.3893   23.7695 C   0  0  1  0  0  0
  -26.4571  -25.6897   20.0618 C   0  0  0  0  0  0
  -25.6112  -33.7803   24.1473 N   0  0  0  0  0  0
  -23.5628  -30.3244   21.4821 C   0  0  2  0  0  0
  -24.8551  -28.5156   20.0390 C   0  0  0  0  0  0
  -22.7881  -29.3859   22.4480 C   0  0  0  0  0  0
  -18.0329  -28.1441   22.8428 C   0  0  0  0  0  0
  -24.1477  -36.6896   23.2676 C   0  0  0  0  0  0
  -26.1361  -30.0194   21.4987 C   0  0  0  0  0  0
  -26.0272  -28.5226   20.7858 C   0  0  0  0  0  0
  -26.8120  -27.1410   20.7681 C   0  0  0  0  0  0
  -25.4320  -26.1732   19.2183 C   0  0  0  0  0  0
  -24.6708  -27.3906   19.2276 C   0  0  0  0  0  0
  -23.7994  -29.6474   20.0995 C   0  0  0  0  0  0
  -25.4168  -36.2569   24.0216 C   0  0  1  0  0  0
  -20.5977  -28.3777   23.1058 C   0  0  2  0  0  0
  -20.6753  -26.9384   22.5420 C   0  0  0  0  0  0
  -19.5736  -26.6323   21.5232 C   0  0  0  0  0  0
  -18.1926  -26.7956   22.1624 C   0  0  0  0  0  0
  -19.1611  -28.8946   23.2708 C   0  0  0  0  0  0
  -18.9527  -30.1526   23.8758 C   0  0  0  0  0  0
  -17.6516  -30.6612   24.0528 C   0  0  0  0  0  0
  -25.9237  -34.8990   23.4741 C   0  0  0  0  0  0
  -16.5392  -29.9087   23.6369 C   0  0  0  0  0  0
  -16.7314  -28.6519   23.0371 C   0  0  0  0  0  0
  -26.4761  -31.6384   25.0696 C   0  0  0  0  0  0
  -25.3618  -31.3949   26.1171 C   0  0  0  0  0  0
  -27.0831  -30.2668   24.7206 C   0  0  0  0  0  0
  -27.6037  -32.4492   25.7526 C   0  0  0  0  0  0
  -27.5526  -37.1594   24.8469 C   0  0  0  0  0  0
  -21.4497  -29.2918   22.3297 N   0  0  0  0  0  0
  -26.4202  -37.3448   23.9447 N   0  0  0  0  0  0
  -24.8692  -30.7438   22.0700 N   0  0  0  0  0  0
  -23.4101  -28.7500   23.3021 O   0  0  0  0  0  0
  -26.7684  -23.9300   19.9848 O   0  0  0  0  0  0
  -26.5970  -34.8753   22.4427 O   0  0  0  0  0  0
  -23.6511  -32.0570   23.5458 O   0  0  0  0  0  0
  -24.1163  -11.2361   21.3563 C   0  0  0  0  0  0
  -25.8525  -11.5896   20.0674 C   0  0  0  0  0  0
  -22.8383  -12.4738   20.5768 C   0  0  0  0  0  0
  -23.4082  -13.7497   19.3683 C   0  0  0  0  0  0
  -24.9129  -14.6740   19.0757 C   0  0  0  0  0  0
  -26.1454  -13.3499   19.1360 C   0  0  0  0  0  0
  -20.5663  -12.8713   17.1879 C   0  0  0  0  0  0
  -21.8372  -13.1719   17.5008 C   0  0  0  0  0  0
  -21.3115  -12.3158   20.8184 C   0  0  0  0  0  0
  -22.2768  -14.2454   18.4782 C   0  0  0  0  0  0
  -25.0837  -17.0251   19.0093 C   0  0  0  0  0  0
  -25.9249  -19.3440   19.4895 C   0  0  0  0  0  0
  -26.0216  -21.8601   19.5558 C   0  0  0  0  0  0
  -27.7199  -14.2263   18.9166 N   0  0  0  0  0  0
  -31.4389  -12.9319   18.9203 H   0  0  0  0  0  0
  -31.0488  -11.7437   20.1521 H   0  0  0  0  0  0
  -29.8898  -10.9302   18.2403 H   0  0  0  0  0  0
  -29.3471  -12.4965   17.7086 H   0  0  0  0  0  0
  -28.5137  -10.7605   19.9766 H   0  0  0  0  0  0
  -27.6444  -11.5712   18.7290 H   0  0  0  0  0  0
  -27.8900  -13.8347   21.0932 H   0  0  0  0  0  0
  -29.7722  -12.1833   21.8851 H   0  0  0  0  0  0
  -29.3693  -13.8393   22.2766 H   0  0  0  0  0  0
  -25.4038   -9.2714   19.4411 H   0  0  0  0  0  0
  -24.5357   -7.6591   20.9773 H   0  0  0  0  0  0
  -20.8138   -9.1703   19.9659 H   0  0  0  0  0  0
  -21.8305  -10.7857   18.5989 H   0  0  0  0  0  0
  -21.3399   -7.7428   23.9491 H   0  0  0  0  0  0
  -21.1903   -6.1501   25.8482 H   0  0  0  0  0  0
  -22.0169   -2.8802   23.1830 H   0  0  0  0  0  0
  -22.8326  -13.0535   23.4069 H   0  0  0  0  0  0
  -21.3538  -13.8900   22.9848 H   0  0  0  0  0  0
  -25.5492  -16.6276   21.1456 H   0  0  0  0  0  0
  -27.1212  -16.0377   20.9186 H   0  0  0  0  0  0
  -26.7991  -32.4127   23.0451 H   0  0  0  0  0  0
  -25.0029  -33.8684   24.9472 H   0  0  0  0  0  0
  -22.9386  -31.2029   21.3021 H   0  0  0  0  0  0
  -23.3811  -35.9143   23.3148 H   0  0  0  0  0  0
  -24.3516  -36.8812   22.2133 H   0  0  0  0  0  0
  -23.7156  -37.5944   23.6958 H   0  0  0  0  0  0
  -26.5231  -30.6835   20.7245 H   0  0  0  0  0  0
  -26.9399  -29.9643   22.2186 H   0  0  0  0  0  0
  -27.6359  -27.1045   21.4661 H   0  0  0  0  0  0
  -25.0215  -25.4193   18.5605 H   0  0  0  0  0  0
  -23.8053  -27.4032   18.5792 H   0  0  0  0  0  0
  -24.1135  -30.4097   19.3857 H   0  0  0  0  0  0
  -22.8490  -29.2733   19.7120 H   0  0  0  0  0  0
  -25.1405  -36.1181   25.0691 H   0  0  0  0  0  0
  -21.0027  -28.3439   24.1197 H   0  0  0  0  0  0
  -20.5595  -26.2389   23.3715 H   0  0  0  0  0  0
  -21.6604  -26.7255   22.1243 H   0  0  0  0  0  0
  -19.6861  -25.6206   21.1322 H   0  0  0  0  0  0
  -19.6705  -27.3079   20.6725 H   0  0  0  0  0  0
  -17.4194  -26.6699   21.4026 H   0  0  0  0  0  0
  -18.0282  -26.0140   22.9057 H   0  0  0  0  0  0
  -19.8003  -30.7373   24.2070 H   0  0  0  0  0  0
  -17.5067  -31.6282   24.5151 H   0  0  0  0  0  0
  -15.5388  -30.2947   23.7786 H   0  0  0  0  0  0
  -15.8714  -28.0804   22.7160 H   0  0  0  0  0  0
  -24.5737  -30.7415   25.7411 H   0  0  0  0  0  0
  -24.8915  -32.3273   26.4304 H   0  0  0  0  0  0
  -25.7575  -30.9209   27.0161 H   0  0  0  0  0  0
  -26.3495  -29.5853   24.2890 H   0  0  0  0  0  0
  -27.4571  -29.7677   25.6161 H   0  0  0  0  0  0
  -27.9391  -30.3636   24.0519 H   0  0  0  0  0  0
  -27.2437  -33.3938   26.1623 H   0  0  0  0  0  0
  -28.4070  -32.6848   25.0529 H   0  0  0  0  0  0
  -28.0485  -31.9006   26.5840 H   0  0  0  0  0  0
  -28.2404  -38.0013   24.7597 H   0  0  0  0  0  0
  -28.1153  -36.2531   24.6185 H   0  0  0  0  0  0
  -27.2262  -37.1069   25.8868 H   0  0  0  0  0  0
  -20.9906  -29.8552   21.6279 H   0  0  0  0  0  0
  -25.9927  -38.2424   24.1550 H   0  0  0  0  0  0
  -23.9204  -10.4693   22.0896 H   0  0  0  0  0  0
  -26.5211  -10.7883   20.3194 H   0  0  0  0  0  0
  -20.3448  -12.0648   16.5039 H   0  0  0  0  0  0
  -19.7283  -13.4096   17.6132 H   0  0  0  0  0  0
  -22.6399  -12.6121   17.0377 H   0  0  0  0  0  0
  -20.7517  -11.9786   19.9509 H   0  0  0  0  0  0
  -20.8323  -13.2660   21.0519 H   0  0  0  0  0  0
  -21.1349  -11.6169   21.6396 H   0  0  0  0  0  0
  -22.6413  -15.0866   17.8873 H   0  0  0  0  0  0
  -21.4302  -14.5958   19.0660 H   0  0  0  0  0  0
  -24.0646  -17.1923   19.3714 H   0  0  0  0  0  0
  -24.9602  -17.1004   17.9307 H   0  0  0  0  0  0
  -26.8661  -19.2109   18.9584 H   0  0  0  0  0  0
  -26.1536  -19.1794   20.5411 H   0  0  0  0  0  0
  -26.0065  -22.0029   18.4714 H   0  0  0  0  0  0
  -24.9948  -22.0516   19.8674 H   0  0  0  0  0  0
  -27.5622  -14.9937   18.2792 H   0  0  0  0  0  0
  1 25  1  0  0  0
  1 30  2  0  0  0
  1 84  1  0  0  0
  2  3  1  0  0  0
  2 25  1  0  0  0
  2 85  1  0  0  0
  2 86  1  0  0  0
  3  4  1  0  0  0
  3 87  1  0  0  0
  3 88  1  0  0  0
  4  5  1  0  0  0
  4 89  1  0  0  0
  4 90  1  0  0  0
  5  6  1  0  0  0
  5 26  1  0  0  0
  5 91  1  0  0  0
  6 25  1  0  0  0
  6 92  1  0  0  0
  6 93  1  0  0  0
  7  8  2  0  0  0
  7 26  1  0  0  0
  7 29  1  0  0  0
  8  9  1  0  0  0
  8 22  1  0  0  0
  9 10  1  0  0  0
  9 27  2  0  0  0
 10 11  2  0  0  0
 10 15  1  0  0  0
 11 12  1  0  0  0
 11 94  1  0  0  0
 12 13  2  0  0  0
 12 95  1  0  0  0
 13 14  1  0  0  0
 13 31  1  0  0  0
 14 15  2  0  0  0
 14 96  1  0  0  0
 15 97  1  0  0  0
 16 17  2  0  0  0
 16 21  1  0  0  0
 16 31  1  0  0  0
 17 18  1  0  0  0
 17 98  1  0  0  0
 18 19  2  0  0  0
 18 99  1  0  0  0
 19 20  1  0  0  0
 19 24  1  0  0  0
 20 21  2  0  0  0
 20100  1  0  0  0
 21 23  1  0  0  0
 22 28  1  0  0  0
 22 32  2  0  0  0
 26 27  1  0  0  0
 28101  1  0  0  0
 28102  1  0  0  0
 29103  1  0  0  0
 29104  1  0  0  0
 33 34  1  0  0  0
 33 66  1  0  0  0
 33 70  2  0  0  0
 34 36  1  0  0  0
 34 59  1  0  0  0
 34105  1  0  0  0
 35 44  2  0  0  0
 35 45  1  0  0  0
 35 68  1  0  0  0
 36 56  1  0  0  0
 36106  1  0  0  0
 37 39  1  0  0  0
 37 47  1  0  0  0
 37 66  1  0  0  0
 37107  1  0  0  0
 38 43  2  0  0  0
 38 46  1  0  0  0
 38 47  1  0  0  0
 39 64  1  0  0  0
 39 67  2  0  0  0
 40 52  1  0  0  0
 40 53  2  0  0  0
 40 58  1  0  0  0
 41108  1  0  0  0
 41109  1  0  0  0
 41110  1  0  0  0
 41 48  1  0  0  0
 42 43  1  0  0  0
 42 66  1  0  0  0
 42111  1  0  0  0
 42112  1  0  0  0
 43 44  1  0  0  0
 44113  1  0  0  0
 45 46  2  0  0  0
 45114  1  0  0  0
 46115  1  0  0  0
 47116  1  0  0  0
 47117  1  0  0  0
 48 56  1  0  0  0
 48 65  1  0  0  0
 48118  1  0  0  0
 49 50  1  0  0  0
 49 53  1  0  0  0
 49 64  1  0  0  0
 49119  1  0  0  0
 50 51  1  0  0  0
 50120  1  0  0  0
 50121  1  0  0  0
 51 52  1  0  0  0
 51122  1  0  0  0
 51123  1  0  0  0
 52124  1  0  0  0
 52125  1  0  0  0
 53 54  1  0  0  0
 54 55  2  0  0  0
 54126  1  0  0  0
 55 57  1  0  0  0
 55127  1  0  0  0
 56 69  2  0  0  0
 57 58  2  0  0  0
 57128  1  0  0  0
 58129  1  0  0  0
 59 60  1  0  0  0
 59 61  1  0  0  0
 59 62  1  0  0  0
 60130  1  0  0  0
 60131  1  0  0  0
 60132  1  0  0  0
 61133  1  0  0  0
 61134  1  0  0  0
 61135  1  0  0  0
 62136  1  0  0  0
 62137  1  0  0  0
 62138  1  0  0  0
 63 65  1  0  0  0
 63139  1  0  0  0
 63140  1  0  0  0
 63141  1  0  0  0
 64142  1  0  0  0
 65143  1  0  0  0
 68 83  1  0  0  0
 71 72  2  0  0  0
 71 73  1  0  0  0
 71144  1  0  0  0
 72 76  1  0  0  0
 72145  1  0  0  0
 73 74  2  0  0  0
 73 79  1  0  0  0
 74 75  1  0  0  0
 74 80  1  0  0  0
 75 76  2  0  0  0
 75 81  1  0  0  0
 76 84  1  0  0  0
 77 78  2  0  0  0
 77146  1  0  0  0
 77147  1  0  0  0
 78 80  1  0  0  0
 78148  1  0  0  0
 79149  1  0  0  0
 79150  1  0  0  0
 79151  1  0  0  0
 80152  1  0  0  0
 80153  1  0  0  0
 81 82  1  0  0  0
 81154  1  0  0  0
 81155  1  0  0  0
 82 83  1  0  0  0
 82156  1  0  0  0
 82157  1  0  0  0
 83158  1  0  0  0
 83159  1  0  0  0
 84160  1  0  0  0
M  ISO  4   1 100  68 101  83 101  84 100
M  END
> <chiral flag>
0

> <version>
0

> <s_m_source_file>
/data/baiqing/PycharmProjects/Reinvent-master-3.2/result/LINK_invent/BTK/process_docking_weight1_custom_product_contain_oxygen_bond_distance_aromatic_linkinvent_7_9_3/rearranged_h_0125.sdf

> <i_m_source_file_index>
40

> <r_mmod_Potential_Energy-OPLS-2005>
25805.466796875

> <r_mmod_Stretch_Energy-OPLS-2005>
12938.6396484375

> <r_mmod_Bend_Energy-OPLS-2005>
2306.43017578125

> <r_mmod_Torsional_Energy-OPLS-2005>
833.537109375

> <r_mmod_Improper_Torsional_Energy-OPLS-2005>
104.778823852539

> <r_mmod_Van_der_Waal_Energy-OPLS-2005>
3714.35400390625

> <r_mmod_Electrostatic_Energy-OPLS-2005>
-388.048461914062

> <r_mmod_Solvation_Energy-OPLS-2005>
-196.104064941406

> <b_mmod_Minimization_Converged-OPLS-2005>
0

> <r_mmod_RMS_Derivative-OPLS-2005>
11.9886484146118

$$$$
40
                    3D
 Structure written by MMmdl.
161170  0  0  1  0            999 V2000
  -30.5290  -14.9873   20.4145 C   0  0  0  0  0  0
  -30.4419  -12.6158   19.4938 C   0  0  0  0  0  0
  -29.5213  -12.5314   18.2542 C   0  0  0  0  0  0
  -28.0563  -12.3105   18.6762 C   0  0  0  0  0  0
  -27.6265  -13.2498   19.8332 C   0  0  2  0  0  0
  -28.6709  -13.2981   20.9678 C   0  0  0  0  0  0
  -25.2452  -13.8215   20.5713 C   0  0  0  0  0  0
  -24.1775  -13.0435   20.9236 C   0  0  0  0  0  0
  -24.6396  -11.6922   20.8759 C   0  0  0  0  0  0
  -23.9081  -10.4291   21.0410 C   0  0  0  0  0  0
  -24.3629   -9.4205   21.9187 C   0  0  0  0  0  0
  -23.6299   -8.2242   22.0756 C   0  0  0  0  0  0
  -22.4281   -8.0282   21.3545 C   0  0  0  0  0  0
  -21.9920   -9.0257   20.4647 C   0  0  0  0  0  0
  -22.7253  -10.2134   20.3057 C   0  0  0  0  0  0
  -21.6854   -6.0737   22.5279 C   0  0  0  0  0  0
  -21.4015   -6.5641   23.8213 C   0  0  0  0  0  0
  -21.3659   -5.6793   24.9175 C   0  0  0  0  0  0
  -21.6044   -4.3056   24.7225 C   0  0  0  0  0  0
  -21.8819   -3.8148   23.4346 C   0  0  0  0  0  0
  -21.9193   -4.6965   22.3402 C   0  0  0  0  0  0
  -22.7794  -13.5204   21.1888 C   0  0  0  0  0  0
  -22.1662   -4.2150   21.0980 F   0  0  0  0  0  0
  -21.5628   -3.4539   25.7737 F   0  0  0  0  0  0
  -29.9381  -13.7223   20.3590 N   0  0  0  0  0  0
  -26.2875  -12.9449   20.3233 N   0  0  0  0  0  0
  -25.9327  -11.6578   20.5737 N   0  0  0  0  0  0
  -22.0446  -12.8189   22.0442 N   0  0  0  0  0  0
  -25.4095  -15.1946   20.4128 N   0  0  0  0  0  0
  -31.7436  -15.0347   20.1885 O   0  0  0  0  0  0
  -21.6642   -6.8881   21.4241 O   0  0  0  0  0  0
  -22.3476  -14.5507   20.6731 O   0  0  0  0  0  0
  -24.6474  -31.8412   23.1860 C   0  0  0  0  0  0
  -25.9230  -32.4680   23.8260 C   0  0  1  0  0  0
  -27.2130  -27.0992   20.1549 C   0  0  0  0  0  0
  -25.5964  -33.8487   24.2174 N   0  0  0  0  0  0
  -23.4522  -30.4608   21.5328 C   0  0  2  0  0  0
  -24.9008  -28.8826   20.1123 C   0  0  0  0  0  0
  -22.7585  -29.4536   22.4848 C   0  0  0  0  0  0
  -18.0308  -28.1400   22.8477 C   0  0  0  0  0  0
  -24.1491  -36.7246   23.2642 C   0  0  0  0  0  0
  -26.0118  -30.7034   21.3905 C   0  0  0  0  0  0
  -26.0815  -29.3115   20.7318 C   0  0  0  0  0  0
  -27.2388  -28.4381   20.7326 C   0  0  0  0  0  0
  -26.0032  -26.7836   19.4960 C   0  0  0  0  0  0
  -24.8769  -27.6334   19.4781 C   0  0  0  0  0  0
  -23.6804  -29.7902   20.1530 C   0  0  0  0  0  0
  -25.4126  -36.3023   24.0313 C   0  0  1  0  0  0
  -20.5924  -28.3730   23.1227 C   0  0  2  0  0  0
  -20.6793  -26.9429   22.5403 C   0  0  0  0  0  0
  -19.5765  -26.6383   21.5213 C   0  0  0  0  0  0
  -18.1947  -26.7937   22.1625 C   0  0  0  0  0  0
  -19.1566  -28.8883   23.2843 C   0  0  0  0  0  0
  -18.9480  -30.1478   23.8871 C   0  0  0  0  0  0
  -17.6476  -30.6595   24.0560 C   0  0  0  0  0  0
  -25.9081  -34.9399   23.5054 C   0  0  0  0  0  0
  -16.5367  -29.9086   23.6339 C   0  0  0  0  0  0
  -16.7292  -28.6505   23.0360 C   0  0  0  0  0  0
  -26.4536  -31.6561   25.0716 C   0  0  0  0  0  0
  -25.3707  -31.3760   26.1401 C   0  0  0  0  0  0
  -27.0409  -30.2952   24.6325 C   0  0  0  0  0  0
  -27.6057  -32.4335   25.7507 C   0  0  0  0  0  0
  -27.5575  -37.1780   24.8464 C   0  0  0  0  0  0
  -21.4273  -29.3050   22.3594 N   0  0  0  0  0  0
  -26.4285  -37.3740   23.9410 N   0  0  0  0  0  0
  -24.7240  -31.0237   22.0912 N   0  0  0  0  0  0
  -23.4211  -28.8084   23.3012 O   0  0  0  0  0  0
  -28.2564  -26.0900   20.2093 O   0  0  0  0  0  0
  -26.5667  -34.8903   22.4633 O   0  0  0  0  0  0
  -23.5583  -32.1305   23.7059 O   0  0  0  0  0  0
  -31.2700  -18.1446   20.9981 C   0  0  0  0  0  0
  -29.0860  -18.8363   20.2721 C   0  0  0  0  0  0
  -31.6149  -19.5198   21.1762 C   0  0  0  0  0  0
  -29.3940  -20.2887   20.4280 C   0  0  0  0  0  0
  -30.6835  -20.5824   20.9298 C   0  0  0  0  0  0
  -30.0056  -17.6990   20.5521 C   0  0  0  0  0  0
  -32.9725  -19.8384   21.6713 C   0  0  0  0  0  0
  -33.7491  -19.0430   22.4296 C   0  0  0  0  0  0
  -28.4298  -21.5807   20.1099 C   0  0  0  0  0  0
  -31.0854  -22.0577   21.1858 C   0  0  0  0  0  0
  -29.9561  -23.1195   21.3698 C   0  0  0  0  0  0
  -28.9583  -23.1719   20.2048 C   0  0  2  0  0  0
  -35.1452  -19.4063   22.8873 C   0  0  0  0  0  0
  -27.9406  -24.5458   20.2117 C   0  0  0  0  0  0
  -29.7287  -16.1769   20.4688 N   0  0  0  0  0  0
  -31.4723  -12.7841   19.1769 H   0  0  0  0  0  0
  -30.4482  -11.6710   20.0396 H   0  0  0  0  0  0
  -29.8469  -11.7270   17.5933 H   0  0  0  0  0  0
  -29.6007  -13.4538   17.6767 H   0  0  0  0  0  0
  -27.9601  -11.2713   18.9929 H   0  0  0  0  0  0
  -27.3912  -12.4306   17.8203 H   0  0  0  0  0  0
  -27.5819  -14.2467   19.3940 H   0  0  0  0  0  0
  -28.7706  -12.3278   21.4566 H   0  0  0  0  0  0
  -28.3656  -14.0058   21.7404 H   0  0  0  0  0  0
  -25.2772   -9.5680   22.4765 H   0  0  0  0  0  0
  -24.0006   -7.4632   22.7475 H   0  0  0  0  0  0
  -21.0852   -8.8778   19.8952 H   0  0  0  0  0  0
  -22.3712  -10.9674   19.6168 H   0  0  0  0  0  0
  -21.2008   -7.6149   23.9716 H   0  0  0  0  0  0
  -21.1481   -6.0523   25.9078 H   0  0  0  0  0  0
  -22.0598   -2.7610   23.2846 H   0  0  0  0  0  0
  -22.4071  -11.9855   22.4831 H   0  0  0  0  0  0
  -21.1060  -13.1204   22.2647 H   0  0  0  0  0  0
  -24.6359  -15.8413   20.5229 H   0  0  0  0  0  0
  -26.2443  -15.6380   20.0537 H   0  0  0  0  0  0
  -26.7295  -32.5272   23.0984 H   0  0  0  0  0  0
  -25.0085  -33.9596   25.0305 H   0  0  0  0  0  0
  -22.7567  -31.2882   21.3771 H   0  0  0  0  0  0
  -23.3762  -35.9568   23.3288 H   0  0  0  0  0  0
  -24.3576  -36.8896   22.2060 H   0  0  0  0  0  0
  -23.7237  -37.6433   23.6692 H   0  0  0  0  0  0
  -26.1728  -31.4563   20.6176 H   0  0  0  0  0  0
  -26.8801  -30.7533   22.0358 H   0  0  0  0  0  0
  -28.1382  -28.7635   21.2365 H   0  0  0  0  0  0
  -25.8846  -25.8370   18.9943 H   0  0  0  0  0  0
  -23.9772  -27.3007   18.9786 H   0  0  0  0  0  0
  -23.8217  -30.5646   19.3981 H   0  0  0  0  0  0
  -22.7936  -29.2362   19.8400 H   0  0  0  0  0  0
  -25.1315  -36.1844   25.0804 H   0  0  0  0  0  0
  -21.0016  -28.3323   24.1348 H   0  0  0  0  0  0
  -20.5689  -26.2343   23.3625 H   0  0  0  0  0  0
  -21.6658  -26.7433   22.1198 H   0  0  0  0  0  0
  -19.6925  -25.6287   21.1261 H   0  0  0  0  0  0
  -19.6701  -27.3179   20.6731 H   0  0  0  0  0  0
  -17.4215  -26.6680   21.4030 H   0  0  0  0  0  0
  -18.0347  -26.0087   22.9030 H   0  0  0  0  0  0
  -19.7955  -30.7304   24.2227 H   0  0  0  0  0  0
  -17.5028  -31.6272   24.5166 H   0  0  0  0  0  0
  -15.5366  -30.2979   23.7679 H   0  0  0  0  0  0
  -15.8693  -28.0815   22.7090 H   0  0  0  0  0  0
  -24.5898  -30.7096   25.7719 H   0  0  0  0  0  0
  -24.8881  -32.2945   26.4752 H   0  0  0  0  0  0
  -25.7980  -30.8983   27.0226 H   0  0  0  0  0  0
  -26.3038  -29.6665   24.1317 H   0  0  0  0  0  0
  -27.3991  -29.7263   25.4915 H   0  0  0  0  0  0
  -27.8958  -30.4179   23.9673 H   0  0  0  0  0  0
  -27.2643  -33.3658   26.2018 H   0  0  0  0  0  0
  -28.3904  -32.6859   25.0364 H   0  0  0  0  0  0
  -28.0683  -31.8504   26.5480 H   0  0  0  0  0  0
  -28.2579  -38.0090   24.7523 H   0  0  0  0  0  0
  -28.1086  -36.2620   24.6279 H   0  0  0  0  0  0
  -27.2294  -37.1409   25.8867 H   0  0  0  0  0  0
  -20.9490  -29.8758   21.6764 H   0  0  0  0  0  0
  -26.0147  -38.2804   24.1422 H   0  0  0  0  0  0
  -32.0144  -17.3939   21.2145 H   0  0  0  0  0  0
  -28.0945  -18.5885   19.9197 H   0  0  0  0  0  0
  -33.3841  -20.7900   21.3666 H   0  0  0  0  0  0
  -33.3913  -18.0784   22.7608 H   0  0  0  0  0  0
  -27.5878  -21.4847   20.7959 H   0  0  0  0  0  0
  -28.0002  -21.4258   19.1198 H   0  0  0  0  0  0
  -31.7316  -22.3675   20.3634 H   0  0  0  0  0  0
  -31.6979  -22.1049   22.0863 H   0  0  0  0  0  0
  -30.4110  -24.1022   21.5002 H   0  0  0  0  0  0
  -29.4138  -22.9148   22.2938 H   0  0  0  0  0  0
  -29.5707  -23.3106   19.3130 H   0  0  0  0  0  0
  -35.4453  -20.3889   22.5210 H   0  0  0  0  0  0
  -35.8636  -18.6715   22.5226 H   0  0  0  0  0  0
  -35.1925  -19.4188   23.9767 H   0  0  0  0  0  0
  -27.2570  -24.4058   21.0496 H   0  0  0  0  0  0
  -27.3303  -24.3790   19.3270 H   0  0  0  0  0  0
  -28.7457  -15.9532   20.4592 H   0  0  0  0  0  0
  1 25  1  0  0  0
  1 30  2  0  0  0
  1 85  1  0  0  0
  2  3  1  0  0  0
  2 25  1  0  0  0
  2 86  1  0  0  0
  2 87  1  0  0  0
  3  4  1  0  0  0
  3 88  1  0  0  0
  3 89  1  0  0  0
  4  5  1  0  0  0
  4 90  1  0  0  0
  4 91  1  0  0  0
  5  6  1  0  0  0
  5 26  1  0  0  0
  5 92  1  0  0  0
  6 25  1  0  0  0
  6 93  1  0  0  0
  6 94  1  0  0  0
  7  8  2  0  0  0
  7 26  1  0  0  0
  7 29  1  0  0  0
  8  9  1  0  0  0
  8 22  1  0  0  0
  9 10  1  0  0  0
  9 27  2  0  0  0
 10 11  2  0  0  0
 10 15  1  0  0  0
 11 12  1  0  0  0
 11 95  1  0  0  0
 12 13  2  0  0  0
 12 96  1  0  0  0
 13 14  1  0  0  0
 13 31  1  0  0  0
 14 15  2  0  0  0
 14 97  1  0  0  0
 15 98  1  0  0  0
 16 17  2  0  0  0
 16 21  1  0  0  0
 16 31  1  0  0  0
 17 18  1  0  0  0
 17 99  1  0  0  0
 18 19  2  0  0  0
 18100  1  0  0  0
 19 20  1  0  0  0
 19 24  1  0  0  0
 20 21  2  0  0  0
 20101  1  0  0  0
 21 23  1  0  0  0
 22 28  1  0  0  0
 22 32  2  0  0  0
 26 27  1  0  0  0
 28102  1  0  0  0
 28103  1  0  0  0
 29104  1  0  0  0
 29105  1  0  0  0
 33 34  1  0  0  0
 33 66  1  0  0  0
 33 70  2  0  0  0
 34 36  1  0  0  0
 34 59  1  0  0  0
 34106  1  0  0  0
 35 44  2  0  0  0
 35 45  1  0  0  0
 35 68  1  0  0  0
 36 56  1  0  0  0
 36107  1  0  0  0
 37 39  1  0  0  0
 37 47  1  0  0  0
 37 66  1  0  0  0
 37108  1  0  0  0
 38 43  2  0  0  0
 38 46  1  0  0  0
 38 47  1  0  0  0
 39 64  1  0  0  0
 39 67  2  0  0  0
 40 52  1  0  0  0
 40 53  2  0  0  0
 40 58  1  0  0  0
 41109  1  0  0  0
 41110  1  0  0  0
 41111  1  0  0  0
 41 48  1  0  0  0
 42 43  1  0  0  0
 42 66  1  0  0  0
 42112  1  0  0  0
 42113  1  0  0  0
 43 44  1  0  0  0
 44114  1  0  0  0
 45 46  2  0  0  0
 45115  1  0  0  0
 46116  1  0  0  0
 47117  1  0  0  0
 47118  1  0  0  0
 48 56  1  0  0  0
 48 65  1  0  0  0
 48119  1  0  0  0
 49 50  1  0  0  0
 49 53  1  0  0  0
 49 64  1  0  0  0
 49120  1  0  0  0
 50 51  1  0  0  0
 50121  1  0  0  0
 50122  1  0  0  0
 51 52  1  0  0  0
 51123  1  0  0  0
 51124  1  0  0  0
 52125  1  0  0  0
 52126  1  0  0  0
 53 54  1  0  0  0
 54 55  2  0  0  0
 54127  1  0  0  0
 55 57  1  0  0  0
 55128  1  0  0  0
 56 69  2  0  0  0
 57 58  2  0  0  0
 57129  1  0  0  0
 58130  1  0  0  0
 59 60  1  0  0  0
 59 61  1  0  0  0
 59 62  1  0  0  0
 60131  1  0  0  0
 60132  1  0  0  0
 60133  1  0  0  0
 61134  1  0  0  0
 61135  1  0  0  0
 61136  1  0  0  0
 62137  1  0  0  0
 62138  1  0  0  0
 62139  1  0  0  0
 63 65  1  0  0  0
 63140  1  0  0  0
 63141  1  0  0  0
 63142  1  0  0  0
 64143  1  0  0  0
 65144  1  0  0  0
 68 84  1  0  0  0
 71 73  2  0  0  0
 71 76  1  0  0  0
 71145  1  0  0  0
 72 74  1  0  0  0
 72 76  2  0  0  0
 72146  1  0  0  0
 73 75  1  0  0  0
 73 77  1  0  0  0
 74 75  2  0  0  0
 74 79  1  0  0  0
 75 80  1  0  0  0
 76 85  1  0  0  0
 77 78  2  0  0  0
 77147  1  0  0  0
 78 83  1  0  0  0
 78148  1  0  0  0
 79 82  1  0  0  0
 79149  1  0  0  0
 79150  1  0  0  0
 80 81  1  0  0  0
 80151  1  0  0  0
 80152  1  0  0  0
 81 82  1  0  0  0
 81153  1  0  0  0
 81154  1  0  0  0
 82 84  1  0  0  0
 82155  1  0  0  0
 83156  1  0  0  0
 83157  1  0  0  0
 83158  1  0  0  0
 84159  1  0  0  0
 84160  1  0  0  0
 85161  1  0  0  0
M  ISO  4   1 100  68 101  84 101  85 100
M  END
> <chiral flag>
0

> <version>
0

> <s_m_source_file>
/data/baiqing/PycharmProjects/Reinvent-master-3.2/result/LINK_invent/BTK/process_docking_weight1_custom_product_contain_oxygen_bond_distance_aromatic_linkinvent_7_9_3/rearranged_h_0125.sdf

> <i_m_source_file_index>
41

> <r_mmod_Potential_Energy-OPLS-2005>
581.236328125

> <r_mmod_Stretch_Energy-OPLS-2005>
283.898620605469

> <r_mmod_Bend_Energy-OPLS-2005>
256.987396240234

> <r_mmod_Torsional_Energy-OPLS-2005>
233.756439208984

> <r_mmod_Improper_Torsional_Energy-OPLS-2005>
5.85465574264526

> <r_mmod_Van_der_Waal_Energy-OPLS-2005>
139.738159179688

> <r_mmod_Electrostatic_Energy-OPLS-2005>
-355.881530761719

> <r_mmod_Solvation_Energy-OPLS-2005>
-206.631698608398

> <b_mmod_Minimization_Converged-OPLS-2005>
0

> <r_mmod_RMS_Derivative-OPLS-2005>
0.176846101880074

$$$$
41
                    3D
 Structure written by MMmdl.
158166  0  0  1  0            999 V2000
  -30.6412  -14.6811   20.4433 C   0  0  0  0  0  0
  -30.4214  -12.4081   19.4749 C   0  0  0  0  0  0
  -29.5056  -12.4920   18.2355 C   0  0  0  0  0  0
  -28.0295  -12.3327   18.6467 C   0  0  0  0  0  0
  -27.6427  -13.2296   19.8535 C   0  0  2  0  0  0
  -28.6856  -13.1502   20.9899 C   0  0  0  0  0  0
  -25.2517  -13.8200   20.5707 C   0  0  0  0  0  0
  -24.1802  -13.0447   20.9209 C   0  0  0  0  0  0
  -24.6388  -11.6923   20.8756 C   0  0  0  0  0  0
  -23.9066  -10.4299   21.0417 C   0  0  0  0  0  0
  -24.3616   -9.4211   21.9192 C   0  0  0  0  0  0
  -23.6288   -8.2244   22.0757 C   0  0  0  0  0  0
  -22.4272   -8.0280   21.3545 C   0  0  0  0  0  0
  -21.9908   -9.0260   20.4652 C   0  0  0  0  0  0
  -22.7237  -10.2141   20.3063 C   0  0  0  0  0  0
  -21.6850   -6.0737   22.5280 C   0  0  0  0  0  0
  -21.4018   -6.5643   23.8215 C   0  0  0  0  0  0
  -21.3659   -5.6796   24.9177 C   0  0  0  0  0  0
  -21.6040   -4.3059   24.7227 C   0  0  0  0  0  0
  -21.8819   -3.8148   23.4349 C   0  0  0  0  0  0
  -21.9194   -4.6965   22.3406 C   0  0  0  0  0  0
  -22.7823  -13.5229   21.1867 C   0  0  0  0  0  0
  -22.1662   -4.2149   21.0983 F   0  0  0  0  0  0
  -21.5625   -3.4543   25.7741 F   0  0  0  0  0  0
  -29.9948  -13.4710   20.4110 N   0  0  0  0  0  0
  -26.2939  -12.9404   20.3296 N   0  0  0  0  0  0
  -25.9316  -11.6548   20.5761 N   0  0  0  0  0  0
  -22.0467  -12.8219   22.0422 N   0  0  0  0  0  0
  -25.4212  -15.1925   20.4135 N   0  0  0  0  0  0
  -31.8408  -14.7372   20.1607 O   0  0  0  0  0  0
  -21.6635   -6.8877   21.4240 O   0  0  0  0  0  0
  -22.3506  -14.5533   20.6718 O   0  0  0  0  0  0
  -24.6266  -31.8580   23.1997 C   0  0  0  0  0  0
  -25.9113  -32.4763   23.8330 C   0  0  1  0  0  0
  -27.2291  -27.3066   20.1201 C   0  0  0  0  0  0
  -25.5924  -33.8564   24.2257 N   0  0  0  0  0  0
  -23.4203  -30.4796   21.5420 C   0  0  2  0  0  0
  -24.8667  -28.9276   20.1095 C   0  0  0  0  0  0
  -22.7471  -29.4617   22.4933 C   0  0  0  0  0  0
  -18.0285  -28.1390   22.8490 C   0  0  0  0  0  0
  -24.1490  -36.7286   23.2641 C   0  0  0  0  0  0
  -25.9606  -30.7848   21.3712 C   0  0  0  0  0  0
  -26.0331  -29.4102   20.7144 C   0  0  0  0  0  0
  -27.2122  -28.6096   20.7105 C   0  0  0  0  0  0
  -26.0358  -26.8684   19.5040 C   0  0  0  0  0  0
  -24.8707  -27.6632   19.4969 C   0  0  0  0  0  0
  -23.6349  -29.8098   20.1579 C   0  0  0  0  0  0
  -25.4117  -36.3077   24.0328 C   0  0  1  0  0  0
  -20.5885  -28.3691   23.1289 C   0  0  2  0  0  0
  -20.6778  -26.9416   22.5418 C   0  0  0  0  0  0
  -19.5754  -26.6388   21.5220 C   0  0  0  0  0  0
  -18.1930  -26.7933   22.1627 C   0  0  0  0  0  0
  -19.1537  -28.8857   23.2883 C   0  0  0  0  0  0
  -18.9461  -30.1460   23.8896 C   0  0  0  0  0  0
  -17.6462  -30.6591   24.0567 C   0  0  0  0  0  0
  -25.9054  -34.9446   23.5094 C   0  0  0  0  0  0
  -16.5352  -29.9091   23.6334 C   0  0  0  0  0  0
  -16.7272  -28.6512   23.0350 C   0  0  0  0  0  0
  -26.4497  -31.6583   25.0707 C   0  0  0  0  0  0
  -25.3731  -31.3726   26.1433 C   0  0  0  0  0  0
  -27.0348  -30.3008   24.6174 C   0  0  0  0  0  0
  -27.6047  -32.4326   25.7478 C   0  0  0  0  0  0
  -27.5578  -37.1798   24.8465 C   0  0  0  0  0  0
  -21.4185  -29.3037   22.3675 N   0  0  0  0  0  0
  -26.4291  -37.3774   23.9407 N   0  0  0  0  0  0
  -24.6879  -31.0583   22.0947 N   0  0  0  0  0  0
  -23.4193  -28.8173   23.3027 O   0  0  0  0  0  0
  -28.3750  -26.4979   20.1965 O   0  0  0  0  0  0
  -26.5626  -34.8920   22.4663 O   0  0  0  0  0  0
  -23.5428  -32.1380   23.7323 O   0  0  0  0  0  0
  -31.1190  -20.9637   18.1475 C   0  0  0  0  0  0
  -31.5223  -21.9331   17.5224 C   0  0  0  0  0  0
  -31.2917  -18.5793   18.3902 C   0  0  0  0  0  0
  -31.0232  -17.3281   18.9612 C   0  0  0  0  0  0
  -29.5185  -18.4155   20.5184 C   0  0  0  0  0  0
  -30.6954  -19.7658   18.8590 C   0  0  0  0  0  0
  -29.7637  -19.7339   19.9463 C   0  0  0  0  0  0
  -30.1486  -17.1893   20.0591 C   0  0  0  0  0  0
  -31.9987  -23.1185   16.7969 C   0  0  0  0  0  0
  -29.0393  -21.0352   20.5394 C   0  0  0  0  0  0
  -29.1182  -22.4982   19.8573 C   0  0  0  0  0  0
  -28.4281  -23.8074   20.4796 C   0  0  0  0  0  0
  -28.4977  -25.1459   19.5976 C   0  0  0  0  0  0
  -29.8911  -15.8350   20.6014 N   0  0  0  0  0  0
  -31.4660  -12.5071   19.1757 H   0  0  0  0  0  0
  -30.3403  -11.4296   19.9509 H   0  0  0  0  0  0
  -29.7760  -11.7207   17.5132 H   0  0  0  0  0  0
  -29.6480  -13.4491   17.7310 H   0  0  0  0  0  0
  -27.8753  -11.2839   18.9032 H   0  0  0  0  0  0
  -27.3753  -12.5371   17.7989 H   0  0  0  0  0  0
  -27.6422  -14.2536   19.4791 H   0  0  0  0  0  0
  -28.7017  -12.1539   21.4349 H   0  0  0  0  0  0
  -28.4329  -13.8416   21.7950 H   0  0  0  0  0  0
  -25.2757   -9.5683   22.4771 H   0  0  0  0  0  0
  -24.0000   -7.4630   22.7477 H   0  0  0  0  0  0
  -21.0838   -8.8780   19.8954 H   0  0  0  0  0  0
  -22.3694  -10.9684   19.6178 H   0  0  0  0  0  0
  -21.2012   -7.6152   23.9717 H   0  0  0  0  0  0
  -21.1480   -6.0528   25.9078 H   0  0  0  0  0  0
  -22.0595   -2.7610   23.2852 H   0  0  0  0  0  0
  -22.4082  -11.9880   22.4811 H   0  0  0  0  0  0
  -21.1089  -13.1252   22.2637 H   0  0  0  0  0  0
  -24.6532  -15.8450   20.5258 H   0  0  0  0  0  0
  -26.2669  -15.6330   20.0731 H   0  0  0  0  0  0
  -26.7179  -32.5429   23.1073 H   0  0  0  0  0  0
  -25.0074  -33.9702   25.0407 H   0  0  0  0  0  0
  -22.7150  -31.3007   21.3971 H   0  0  0  0  0  0
  -23.3752  -35.9617   23.3304 H   0  0  0  0  0  0
  -24.3581  -36.8905   22.2055 H   0  0  0  0  0  0
  -23.7240  -37.6487   23.6663 H   0  0  0  0  0  0
  -26.0941  -31.5480   20.6033 H   0  0  0  0  0  0
  -26.8406  -30.8332   22.0010 H   0  0  0  0  0  0
  -28.1080  -28.9769   21.1914 H   0  0  0  0  0  0
  -25.9668  -25.8932   19.0483 H   0  0  0  0  0  0
  -23.9721  -27.2838   19.0296 H   0  0  0  0  0  0
  -23.7538  -30.5849   19.3999 H   0  0  0  0  0  0
  -22.7545  -29.2387   19.8575 H   0  0  0  0  0  0
  -25.1300  -36.1924   25.0820 H   0  0  0  0  0  0
  -20.9975  -28.3272   24.1409 H   0  0  0  0  0  0
  -20.5694  -26.2299   23.3616 H   0  0  0  0  0  0
  -21.6646  -26.7457   22.1202 H   0  0  0  0  0  0
  -19.6918  -25.6300   21.1246 H   0  0  0  0  0  0
  -19.6692  -27.3204   20.6756 H   0  0  0  0  0  0
  -17.4203  -26.6682   21.4024 H   0  0  0  0  0  0
  -18.0324  -26.0076   22.9023 H   0  0  0  0  0  0
  -19.7937  -30.7278   24.2262 H   0  0  0  0  0  0
  -17.5017  -31.6272   24.5171 H   0  0  0  0  0  0
  -15.5353  -30.2994   23.7663 H   0  0  0  0  0  0
  -15.8671  -28.0837   22.7057 H   0  0  0  0  0  0
  -24.5905  -30.7072   25.7767 H   0  0  0  0  0  0
  -24.8922  -32.2894   26.4854 H   0  0  0  0  0  0
  -25.8056  -30.8909   27.0212 H   0  0  0  0  0  0
  -26.2929  -29.6742   24.1209 H   0  0  0  0  0  0
  -27.4058  -29.7277   25.4684 H   0  0  0  0  0  0
  -27.8790  -30.4292   23.9394 H   0  0  0  0  0  0
  -27.2652  -33.3628   26.2047 H   0  0  0  0  0  0
  -28.3863  -32.6884   25.0311 H   0  0  0  0  0  0
  -28.0713  -31.8460   26.5403 H   0  0  0  0  0  0
  -28.2600  -38.0093   24.7514 H   0  0  0  0  0  0
  -28.1070  -36.2623   24.6293 H   0  0  0  0  0  0
  -27.2295  -37.1451   25.8869 H   0  0  0  0  0  0
  -20.9367  -29.8735   21.6861 H   0  0  0  0  0  0
  -26.0170  -38.2847   24.1407 H   0  0  0  0  0  0
  -31.9824  -18.6172   17.5588 H   0  0  0  0  0  0
  -31.5110  -16.4755   18.5128 H   0  0  0  0  0  0
  -28.8266  -18.3489   21.3462 H   0  0  0  0  0  0
  -31.1825  -23.5473   16.2155 H   0  0  0  0  0  0
  -32.8097  -22.8407   16.1232 H   0  0  0  0  0  0
  -32.3603  -23.8645   17.5054 H   0  0  0  0  0  0
  -29.3976  -21.1347   21.5647 H   0  0  0  0  0  0
  -27.9838  -20.7780   20.6332 H   0  0  0  0  0  0
  -28.7640  -22.4066   18.8303 H   0  0  0  0  0  0
  -30.1701  -22.7714   19.8066 H   0  0  0  0  0  0
  -28.9029  -24.0071   21.4407 H   0  0  0  0  0  0
  -27.3830  -23.5952   20.7068 H   0  0  0  0  0  0
  -27.8658  -25.0376   18.7177 H   0  0  0  0  0  0
  -29.5025  -25.1609   19.1742 H   0  0  0  0  0  0
  -28.9750  -15.6926   20.9992 H   0  0  0  0  0  0
  1 25  1  0  0  0
  1 30  2  0  0  0
  1 84  1  0  0  0
  2  3  1  0  0  0
  2 25  1  0  0  0
  2 85  1  0  0  0
  2 86  1  0  0  0
  3  4  1  0  0  0
  3 87  1  0  0  0
  3 88  1  0  0  0
  4  5  1  0  0  0
  4 89  1  0  0  0
  4 90  1  0  0  0
  5  6  1  0  0  0
  5 26  1  0  0  0
  5 91  1  0  0  0
  6 25  1  0  0  0
  6 92  1  0  0  0
  6 93  1  0  0  0
  7  8  2  0  0  0
  7 26  1  0  0  0
  7 29  1  0  0  0
  8  9  1  0  0  0
  8 22  1  0  0  0
  9 10  1  0  0  0
  9 27  2  0  0  0
 10 11  2  0  0  0
 10 15  1  0  0  0
 11 12  1  0  0  0
 11 94  1  0  0  0
 12 13  2  0  0  0
 12 95  1  0  0  0
 13 14  1  0  0  0
 13 31  1  0  0  0
 14 15  2  0  0  0
 14 96  1  0  0  0
 15 97  1  0  0  0
 16 17  2  0  0  0
 16 21  1  0  0  0
 16 31  1  0  0  0
 17 18  1  0  0  0
 17 98  1  0  0  0
 18 19  2  0  0  0
 18 99  1  0  0  0
 19 20  1  0  0  0
 19 24  1  0  0  0
 20 21  2  0  0  0
 20100  1  0  0  0
 21 23  1  0  0  0
 22 28  1  0  0  0
 22 32  2  0  0  0
 26 27  1  0  0  0
 28101  1  0  0  0
 28102  1  0  0  0
 29103  1  0  0  0
 29104  1  0  0  0
 33 34  1  0  0  0
 33 66  1  0  0  0
 33 70  2  0  0  0
 34 36  1  0  0  0
 34 59  1  0  0  0
 34105  1  0  0  0
 35 44  2  0  0  0
 35 45  1  0  0  0
 35 68  1  0  0  0
 36 56  1  0  0  0
 36106  1  0  0  0
 37 39  1  0  0  0
 37 47  1  0  0  0
 37 66  1  0  0  0
 37107  1  0  0  0
 38 43  2  0  0  0
 38 46  1  0  0  0
 38 47  1  0  0  0
 39 64  1  0  0  0
 39 67  2  0  0  0
 40 52  1  0  0  0
 40 53  2  0  0  0
 40 58  1  0  0  0
 41108  1  0  0  0
 41109  1  0  0  0
 41110  1  0  0  0
 41 48  1  0  0  0
 42 43  1  0  0  0
 42 66  1  0  0  0
 42111  1  0  0  0
 42112  1  0  0  0
 43 44  1  0  0  0
 44113  1  0  0  0
 45 46  2  0  0  0
 45114  1  0  0  0
 46115  1  0  0  0
 47116  1  0  0  0
 47117  1  0  0  0
 48 56  1  0  0  0
 48 65  1  0  0  0
 48118  1  0  0  0
 49 50  1  0  0  0
 49 53  1  0  0  0
 49 64  1  0  0  0
 49119  1  0  0  0
 50 51  1  0  0  0
 50120  1  0  0  0
 50121  1  0  0  0
 51 52  1  0  0  0
 51122  1  0  0  0
 51123  1  0  0  0
 52124  1  0  0  0
 52125  1  0  0  0
 53 54  1  0  0  0
 54 55  2  0  0  0
 54126  1  0  0  0
 55 57  1  0  0  0
 55127  1  0  0  0
 56 69  2  0  0  0
 57 58  2  0  0  0
 57128  1  0  0  0
 58129  1  0  0  0
 59 60  1  0  0  0
 59 61  1  0  0  0
 59 62  1  0  0  0
 60130  1  0  0  0
 60131  1  0  0  0
 60132  1  0  0  0
 61133  1  0  0  0
 61134  1  0  0  0
 61135  1  0  0  0
 62136  1  0  0  0
 62137  1  0  0  0
 62138  1  0  0  0
 63 65  1  0  0  0
 63139  1  0  0  0
 63140  1  0  0  0
 63141  1  0  0  0
 64142  1  0  0  0
 65143  1  0  0  0
 68 83  1  0  0  0
 71 72  3  0  0  0
 71 76  1  0  0  0
 72 79  1  0  0  0
 73 74  2  0  0  0
 73 76  1  0  0  0
 73144  1  0  0  0
 74 78  1  0  0  0
 74145  1  0  0  0
 75 77  1  0  0  0
 75 78  2  0  0  0
 75146  1  0  0  0
 76 77  2  0  0  0
 77 80  1  0  0  0
 78 84  1  0  0  0
 79147  1  0  0  0
 79148  1  0  0  0
 79149  1  0  0  0
 80 81  1  0  0  0
 80150  1  0  0  0
 80151  1  0  0  0
 81 82  1  0  0  0
 81152  1  0  0  0
 81153  1  0  0  0
 82 83  1  0  0  0
 82154  1  0  0  0
 82155  1  0  0  0
 83156  1  0  0  0
 83157  1  0  0  0
 84158  1  0  0  0
M  ISO  4   1 100  68 101  83 101  84 100
M  END
> <chiral flag>
0

> <version>
0

> <s_m_source_file>
/data/baiqing/PycharmProjects/Reinvent-master-3.2/result/LINK_invent/BTK/process_docking_weight1_custom_product_contain_oxygen_bond_distance_aromatic_linkinvent_7_9_3/rearranged_h_0125.sdf

> <i_m_source_file_index>
42

> <r_mmod_Potential_Energy-OPLS-2005>
146.54753112793

> <r_mmod_Stretch_Energy-OPLS-2005>
106.852111816406

> <r_mmod_Bend_Energy-OPLS-2005>
172.409774780273

> <r_mmod_Torsional_Energy-OPLS-2005>
217.675521850586

> <r_mmod_Improper_Torsional_Energy-OPLS-2005>
4.74703741073608

> <r_mmod_Van_der_Waal_Energy-OPLS-2005>
150.934509277344

> <r_mmod_Electrostatic_Energy-OPLS-2005>
-364.906555175781

> <r_mmod_Solvation_Energy-OPLS-2005>
-201.428588867188

> <b_mmod_Minimization_Converged-OPLS-2005>
0

> <r_mmod_RMS_Derivative-OPLS-2005>
0.880479454994202

$$$$
42
                    3D
 Structure written by MMmdl.
155163  0  0  1  0            999 V2000
  -30.5444  -14.8806   20.4250 C   0  0  0  0  0  0
  -30.4509  -12.5392   19.4844 C   0  0  0  0  0  0
  -29.5228  -12.5244   18.2466 C   0  0  0  0  0  0
  -28.0523  -12.3188   18.6624 C   0  0  0  0  0  0
  -27.6395  -13.2295   19.8475 C   0  0  2  0  0  0
  -28.6880  -13.2114   20.9819 C   0  0  0  0  0  0
  -25.2484  -13.8142   20.5737 C   0  0  0  0  0  0
  -24.1782  -13.0387   20.9219 C   0  0  0  0  0  0
  -24.6392  -11.6878   20.8745 C   0  0  0  0  0  0
  -23.9071  -10.4264   21.0402 C   0  0  0  0  0  0
  -24.3619   -9.4185   21.9182 C   0  0  0  0  0  0
  -23.6288   -8.2227   22.0756 C   0  0  0  0  0  0
  -22.4269   -8.0271   21.3544 C   0  0  0  0  0  0
  -21.9908   -9.0246   20.4646 C   0  0  0  0  0  0
  -22.7244  -10.2117   20.3051 C   0  0  0  0  0  0
  -21.6847   -6.0730   22.5281 C   0  0  0  0  0  0
  -21.4012   -6.5636   23.8215 C   0  0  0  0  0  0
  -21.3658   -5.6786   24.9176 C   0  0  0  0  0  0
  -21.6044   -4.3050   24.7225 C   0  0  0  0  0  0
  -21.8820   -3.8143   23.4347 C   0  0  0  0  0  0
  -21.9192   -4.6959   22.3403 C   0  0  0  0  0  0
  -22.7805  -13.5183   21.1870 C   0  0  0  0  0  0
  -22.1659   -4.2148   21.0980 F   0  0  0  0  0  0
  -21.5630   -3.4533   25.7736 F   0  0  0  0  0  0
  -29.9757  -13.6136   20.3948 N   0  0  0  0  0  0
  -26.2927  -12.9367   20.3276 N   0  0  0  0  0  0
  -25.9324  -11.6509   20.5742 N   0  0  0  0  0  0
  -22.0440  -12.8191   22.0427 N   0  0  0  0  0  0
  -25.4073  -15.1873   20.4253 N   0  0  0  0  0  0
  -31.7357  -15.0011   20.1207 O   0  0  0  0  0  0
  -21.6628   -6.8872   21.4242 O   0  0  0  0  0  0
  -22.3502  -14.5491   20.6712 O   0  0  0  0  0  0
  -24.6404  -31.8474   23.1919 C   0  0  0  0  0  0
  -25.9196  -32.4709   23.8290 C   0  0  1  0  0  0
  -27.2245  -27.1773   20.1362 C   0  0  0  0  0  0
  -25.5960  -33.8513   24.2211 N   0  0  0  0  0  0
  -23.4420  -30.4679   21.5368 C   0  0  2  0  0  0
  -24.8928  -28.9044   20.1069 C   0  0  0  0  0  0
  -22.7554  -29.4560   22.4876 C   0  0  0  0  0  0
  -18.0298  -28.1392   22.8473 C   0  0  0  0  0  0
  -24.1493  -36.7259   23.2640 C   0  0  0  0  0  0
  -25.9954  -30.7314   21.3882 C   0  0  0  0  0  0
  -26.0668  -29.3471   20.7287 C   0  0  0  0  0  0
  -27.2305  -28.4963   20.7344 C   0  0  0  0  0  0
  -26.0283  -26.8367   19.4621 C   0  0  0  0  0  0
  -24.8845  -27.6609   19.4599 C   0  0  0  0  0  0
  -23.6661  -29.7998   20.1544 C   0  0  0  0  0  0
  -25.4123  -36.3040   24.0318 C   0  0  1  0  0  0
  -20.5910  -28.3712   23.1242 C   0  0  2  0  0  0
  -20.6784  -26.9421   22.5402 C   0  0  0  0  0  0
  -19.5760  -26.6380   21.5207 C   0  0  0  0  0  0
  -18.1940  -26.7931   22.1620 C   0  0  0  0  0  0
  -19.1556  -28.8872   23.2847 C   0  0  0  0  0  0
  -18.9473  -30.1470   23.8870 C   0  0  0  0  0  0
  -17.6471  -30.6590   24.0555 C   0  0  0  0  0  0
  -25.9072  -34.9414   23.5070 C   0  0  0  0  0  0
  -16.5361  -29.9079   23.6337 C   0  0  0  0  0  0
  -16.7284  -28.6500   23.0354 C   0  0  0  0  0  0
  -26.4530  -31.6565   25.0718 C   0  0  0  0  0  0
  -25.3720  -31.3745   26.1415 C   0  0  0  0  0  0
  -27.0392  -30.2963   24.6284 C   0  0  0  0  0  0
  -27.6069  -32.4319   25.7499 C   0  0  0  0  0  0
  -27.5576  -37.1786   24.8465 C   0  0  0  0  0  0
  -21.4250  -29.3043   22.3624 N   0  0  0  0  0  0
  -26.4288  -37.3750   23.9407 N   0  0  0  0  0  0
  -24.7118  -31.0360   22.0940 N   0  0  0  0  0  0
  -23.4214  -28.8108   23.3012 O   0  0  0  0  0  0
  -28.2845  -26.2122   20.2288 O   0  0  0  0  0  0
  -26.5649  -34.8908   22.4643 O   0  0  0  0  0  0
  -23.5533  -32.1339   23.7160 O   0  0  0  0  0  0
  -30.2359  -19.9281   20.9140 C   0  0  0  0  0  0
  -30.4275  -18.4898   21.0779 C   0  0  0  0  0  0
  -28.5537  -19.5013   19.3180 C   0  0  0  0  0  0
  -29.2678  -20.5148   20.0283 C   0  0  0  0  0  0
  -28.7411  -18.0756   19.4613 C   0  0  0  0  0  0
  -29.6934  -17.4816   20.3588 C   0  0  0  0  0  0
  -28.8757  -23.4715   20.4289 C   0  0  0  0  0  0
  -28.6392  -16.5776   17.4065 C   0  0  0  0  0  0
  -29.0722  -22.0857   19.5838 C   0  0  0  0  0  0
  -27.8723  -17.1836   18.5890 C   0  0  0  0  0  0
  -28.0680  -24.7496   19.7913 C   0  0  0  0  0  0
  -29.6940  -15.9831   20.6334 N   0  0  0  0  0  0
  -29.3496  -23.5578   21.5667 O   0  0  0  0  0  0
  -31.4851  -12.6983   19.1740 H   0  0  0  0  0  0
  -30.4362  -11.5729   19.9912 H   0  0  0  0  0  0
  -29.8296  -11.7400   17.5530 H   0  0  0  0  0  0
  -29.6204  -13.4659   17.7042 H   0  0  0  0  0  0
  -27.9327  -11.2721   18.9443 H   0  0  0  0  0  0
  -27.3915  -12.4817   17.8102 H   0  0  0  0  0  0
  -27.6161  -14.2351   19.4376 H   0  0  0  0  0  0
  -28.7596  -12.2194   21.4300 H   0  0  0  0  0  0
  -28.3983  -13.8883   21.7873 H   0  0  0  0  0  0
  -25.2763   -9.5660   22.4759 H   0  0  0  0  0  0
  -23.9993   -7.4616   22.7477 H   0  0  0  0  0  0
  -21.0838   -8.8770   19.8954 H   0  0  0  0  0  0
  -22.3709  -10.9657   19.6161 H   0  0  0  0  0  0
  -21.2005   -7.6144   23.9719 H   0  0  0  0  0  0
  -21.1479   -6.0514   25.9078 H   0  0  0  0  0  0
  -22.0602   -2.7607   23.2843 H   0  0  0  0  0  0
  -22.4044  -11.9857   22.4833 H   0  0  0  0  0  0
  -21.1067  -13.1242   22.2628 H   0  0  0  0  0  0
  -24.6301  -15.8279   20.5458 H   0  0  0  0  0  0
  -26.2499  -15.6441   20.1098 H   0  0  0  0  0  0
  -26.7260  -32.5331   23.1021 H   0  0  0  0  0  0
  -25.0106  -33.9630   25.0359 H   0  0  0  0  0  0
  -22.7419  -31.2924   21.3853 H   0  0  0  0  0  0
  -23.3759  -35.9587   23.3297 H   0  0  0  0  0  0
  -24.3585  -36.8894   22.2057 H   0  0  0  0  0  0
  -23.7247  -37.6454   23.6678 H   0  0  0  0  0  0
  -26.1495  -31.4881   20.6177 H   0  0  0  0  0  0
  -26.8667  -30.7788   22.0297 H   0  0  0  0  0  0
  -28.1214  -28.8266   21.2501 H   0  0  0  0  0  0
  -25.9335  -25.8980   18.9387 H   0  0  0  0  0  0
  -23.9910  -27.3210   18.9540 H   0  0  0  0  0  0
  -23.7967  -30.5753   19.3986 H   0  0  0  0  0  0
  -22.7827  -29.2374   19.8468 H   0  0  0  0  0  0
  -25.1314  -36.1867   25.0810 H   0  0  0  0  0  0
  -20.9994  -28.3294   24.1366 H   0  0  0  0  0  0
  -20.5676  -26.2326   23.3615 H   0  0  0  0  0  0
  -21.6651  -26.7428   22.1203 H   0  0  0  0  0  0
  -19.6923  -25.6284   21.1254 H   0  0  0  0  0  0
  -19.6702  -27.3173   20.6723 H   0  0  0  0  0  0
  -17.4210  -26.6665   21.4022 H   0  0  0  0  0  0
  -18.0346  -26.0080   22.9025 H   0  0  0  0  0  0
  -19.7951  -30.7291   24.2225 H   0  0  0  0  0  0
  -17.5026  -31.6269   24.5158 H   0  0  0  0  0  0
  -15.5360  -30.2972   23.7682 H   0  0  0  0  0  0
  -15.8684  -28.0814   22.7082 H   0  0  0  0  0  0
  -24.5908  -30.7085   25.7734 H   0  0  0  0  0  0
  -24.8897  -32.2923   26.4788 H   0  0  0  0  0  0
  -25.8008  -30.8952   27.0224 H   0  0  0  0  0  0
  -26.3006  -29.6681   24.1291 H   0  0  0  0  0  0
  -27.4014  -29.7268   25.4854 H   0  0  0  0  0  0
  -27.8915  -30.4206   23.9598 H   0  0  0  0  0  0
  -27.2677  -33.3640   26.2028 H   0  0  0  0  0  0
  -28.3907  -32.6837   25.0342 H   0  0  0  0  0  0
  -28.0707  -31.8469   26.5452 H   0  0  0  0  0  0
  -28.2585  -38.0088   24.7512 H   0  0  0  0  0  0
  -28.1078  -36.2618   24.6294 H   0  0  0  0  0  0
  -27.2294  -37.1436   25.8867 H   0  0  0  0  0  0
  -20.9457  -29.8763   21.6811 H   0  0  0  0  0  0
  -26.0157  -38.2820   24.1400 H   0  0  0  0  0  0
  -30.8727  -20.5912   21.4834 H   0  0  0  0  0  0
  -31.1579  -18.1615   21.8038 H   0  0  0  0  0  0
  -27.8311  -19.8354   18.5864 H   0  0  0  0  0  0
  -27.9903  -15.9332   16.8129 H   0  0  0  0  0  0
  -29.4842  -15.9759   17.7404 H   0  0  0  0  0  0
  -29.0250  -17.3566   16.7484 H   0  0  0  0  0  0
  -28.2266  -22.0819   18.8968 H   0  0  0  0  0  0
  -29.9290  -22.2917   18.9426 H   0  0  0  0  0  0
  -27.0173  -17.7469   18.2130 H   0  0  0  0  0  0
  -27.4486  -16.3998   19.2052 H   0  0  0  0  0  0
  -27.0264  -24.4973   19.9824 H   0  0  0  0  0  0
  -28.1944  -24.7081   18.7093 H   0  0  0  0  0  0
  -28.7688  -15.6412   20.8386 H   0  0  0  0  0  0
  1 25  1  0  0  0
  1 30  2  0  0  0
  1 82  1  0  0  0
  2  3  1  0  0  0
  2 25  1  0  0  0
  2 84  1  0  0  0
  2 85  1  0  0  0
  3  4  1  0  0  0
  3 86  1  0  0  0
  3 87  1  0  0  0
  4  5  1  0  0  0
  4 88  1  0  0  0
  4 89  1  0  0  0
  5  6  1  0  0  0
  5 26  1  0  0  0
  5 90  1  0  0  0
  6 25  1  0  0  0
  6 91  1  0  0  0
  6 92  1  0  0  0
  7  8  2  0  0  0
  7 26  1  0  0  0
  7 29  1  0  0  0
  8  9  1  0  0  0
  8 22  1  0  0  0
  9 10  1  0  0  0
  9 27  2  0  0  0
 10 11  2  0  0  0
 10 15  1  0  0  0
 11 12  1  0  0  0
 11 93  1  0  0  0
 12 13  2  0  0  0
 12 94  1  0  0  0
 13 14  1  0  0  0
 13 31  1  0  0  0
 14 15  2  0  0  0
 14 95  1  0  0  0
 15 96  1  0  0  0
 16 17  2  0  0  0
 16 21  1  0  0  0
 16 31  1  0  0  0
 17 18  1  0  0  0
 17 97  1  0  0  0
 18 19  2  0  0  0
 18 98  1  0  0  0
 19 20  1  0  0  0
 19 24  1  0  0  0
 20 21  2  0  0  0
 20 99  1  0  0  0
 21 23  1  0  0  0
 22 28  1  0  0  0
 22 32  2  0  0  0
 26 27  1  0  0  0
 28100  1  0  0  0
 28101  1  0  0  0
 29102  1  0  0  0
 29103  1  0  0  0
 33 34  1  0  0  0
 33 66  1  0  0  0
 33 70  2  0  0  0
 34 36  1  0  0  0
 34 59  1  0  0  0
 34104  1  0  0  0
 35 44  2  0  0  0
 35 45  1  0  0  0
 35 68  1  0  0  0
 36 56  1  0  0  0
 36105  1  0  0  0
 37 39  1  0  0  0
 37 47  1  0  0  0
 37 66  1  0  0  0
 37106  1  0  0  0
 38 43  2  0  0  0
 38 46  1  0  0  0
 38 47  1  0  0  0
 39 64  1  0  0  0
 39 67  2  0  0  0
 40 52  1  0  0  0
 40 53  2  0  0  0
 40 58  1  0  0  0
 41107  1  0  0  0
 41108  1  0  0  0
 41109  1  0  0  0
 41 48  1  0  0  0
 42 43  1  0  0  0
 42 66  1  0  0  0
 42110  1  0  0  0
 42111  1  0  0  0
 43 44  1  0  0  0
 44112  1  0  0  0
 45 46  2  0  0  0
 45113  1  0  0  0
 46114  1  0  0  0
 47115  1  0  0  0
 47116  1  0  0  0
 48 56  1  0  0  0
 48 65  1  0  0  0
 48117  1  0  0  0
 49 50  1  0  0  0
 49 53  1  0  0  0
 49 64  1  0  0  0
 49118  1  0  0  0
 50 51  1  0  0  0
 50119  1  0  0  0
 50120  1  0  0  0
 51 52  1  0  0  0
 51121  1  0  0  0
 51122  1  0  0  0
 52123  1  0  0  0
 52124  1  0  0  0
 53 54  1  0  0  0
 54 55  2  0  0  0
 54125  1  0  0  0
 55 57  1  0  0  0
 55126  1  0  0  0
 56 69  2  0  0  0
 57 58  2  0  0  0
 57127  1  0  0  0
 58128  1  0  0  0
 59 60  1  0  0  0
 59 61  1  0  0  0
 59 62  1  0  0  0
 60129  1  0  0  0
 60130  1  0  0  0
 60131  1  0  0  0
 61132  1  0  0  0
 61133  1  0  0  0
 61134  1  0  0  0
 62135  1  0  0  0
 62136  1  0  0  0
 62137  1  0  0  0
 63 65  1  0  0  0
 63138  1  0  0  0
 63139  1  0  0  0
 63140  1  0  0  0
 64141  1  0  0  0
 65142  1  0  0  0
 68 81  1  0  0  0
 71 72  2  0  0  0
 71 74  1  0  0  0
 71143  1  0  0  0
 72 76  1  0  0  0
 72144  1  0  0  0
 73 74  2  0  0  0
 73 75  1  0  0  0
 73145  1  0  0  0
 74 79  1  0  0  0
 75 76  2  0  0  0
 75 80  1  0  0  0
 76 82  1  0  0  0
 77 79  1  0  0  0
 77 81  1  0  0  0
 77 83  2  0  0  0
 78 80  1  0  0  0
 78146  1  0  0  0
 78147  1  0  0  0
 78148  1  0  0  0
 79149  1  0  0  0
 79150  1  0  0  0
 80151  1  0  0  0
 80152  1  0  0  0
 81153  1  0  0  0
 81154  1  0  0  0
 82155  1  0  0  0
M  ISO  4   1 100  68 101  81 101  82 100
M  END
> <chiral flag>
0

> <version>
0

> <s_m_source_file>
/data/baiqing/PycharmProjects/Reinvent-master-3.2/result/LINK_invent/BTK/process_docking_weight1_custom_product_contain_oxygen_bond_distance_aromatic_linkinvent_7_9_3/rearranged_h_0125.sdf

> <i_m_source_file_index>
43

> <r_mmod_Potential_Energy-OPLS-2005>
402.856903076172

> <r_mmod_Stretch_Energy-OPLS-2005>
192.450561523438

> <r_mmod_Bend_Energy-OPLS-2005>
250.660873413086

> <r_mmod_Torsional_Energy-OPLS-2005>
240.01579284668

> <r_mmod_Improper_Torsional_Energy-OPLS-2005>
6.96896600723267

> <r_mmod_Van_der_Waal_Energy-OPLS-2005>
125.99388885498

> <r_mmod_Electrostatic_Energy-OPLS-2005>
-331.827728271484

> <r_mmod_Solvation_Energy-OPLS-2005>
-235.352294921875

> <b_mmod_Minimization_Converged-OPLS-2005>
0

> <r_mmod_RMS_Derivative-OPLS-2005>
0.6465784907341

$$$$
43
                    3D
 Structure written by MMmdl.
156164  0  0  1  0            999 V2000
  -30.6343  -14.6067   20.4913 C   0  0  0  0  0  0
  -30.4465  -12.3861   19.4260 C   0  0  0  0  0  0
  -29.5025  -12.4887   18.2061 C   0  0  0  0  0  0
  -28.0239  -12.3390   18.6257 C   0  0  0  0  0  0
  -27.6523  -13.2146   19.8496 C   0  0  2  0  0  0
  -28.6973  -13.0675   20.9764 C   0  0  0  0  0  0
  -25.2578  -13.8223   20.5657 C   0  0  0  0  0  0
  -24.1820  -13.0479   20.9190 C   0  0  0  0  0  0
  -24.6391  -11.6954   20.8758 C   0  0  0  0  0  0
  -23.9046  -10.4326   21.0398 C   0  0  0  0  0  0
  -24.3610   -9.4252   21.9170 C   0  0  0  0  0  0
  -23.6293   -8.2294   22.0755 C   0  0  0  0  0  0
  -22.4285   -8.0302   21.3534 C   0  0  0  0  0  0
  -21.9907   -9.0285   20.4653 C   0  0  0  0  0  0
  -22.7225  -10.2162   20.3044 C   0  0  0  0  0  0
  -21.6865   -6.0752   22.5274 C   0  0  0  0  0  0
  -21.4032   -6.5644   23.8207 C   0  0  0  0  0  0
  -21.3632   -5.6774   24.9159 C   0  0  0  0  0  0
  -21.6044   -4.3050   24.7205 C   0  0  0  0  0  0
  -21.8816   -3.8155   23.4327 C   0  0  0  0  0  0
  -21.9206   -4.6987   22.3386 C   0  0  0  0  0  0
  -22.7844  -13.5316   21.1783 C   0  0  0  0  0  0
  -22.1664   -4.2156   21.0975 F   0  0  0  0  0  0
  -21.5598   -3.4534   25.7726 F   0  0  0  0  0  0
  -30.0103  -13.3963   20.4083 N   0  0  0  0  0  0
  -26.2970  -12.9374   20.3260 N   0  0  0  0  0  0
  -25.9308  -11.6541   20.5779 N   0  0  0  0  0  0
  -22.0381  -12.8369   22.0339 N   0  0  0  0  0  0
  -25.4365  -15.1922   20.4041 N   0  0  0  0  0  0
  -31.8372  -14.7243   20.2360 O   0  0  0  0  0  0
  -21.6649   -6.8900   21.4232 O   0  0  0  0  0  0
  -22.3555  -14.5592   20.6563 O   0  0  0  0  0  0
  -24.6176  -31.8621   23.2013 C   0  0  0  0  0  0
  -25.9071  -32.4761   23.8322 C   0  0  1  0  0  0
  -27.2216  -27.3882   20.1068 C   0  0  0  0  0  0
  -25.5938  -33.8564   24.2288 N   0  0  0  0  0  0
  -23.4053  -30.4822   21.5433 C   0  0  2  0  0  0
  -24.8460  -28.9418   20.1033 C   0  0  0  0  0  0
  -22.7435  -29.4625   22.4979 C   0  0  0  0  0  0
  -18.0278  -28.1335   22.8474 C   0  0  0  0  0  0
  -24.1495  -36.7315   23.2621 C   0  0  0  0  0  0
  -25.9348  -30.8112   21.3588 C   0  0  0  0  0  0
  -26.0044  -29.4411   20.7098 C   0  0  0  0  0  0
  -27.1911  -28.6701   20.7079 C   0  0  0  0  0  0
  -26.0463  -26.9175   19.4772 C   0  0  0  0  0  0
  -24.8657  -27.6854   19.4746 C   0  0  0  0  0  0
  -23.6056  -29.8046   20.1600 C   0  0  0  0  0  0
  -25.4104  -36.3091   24.0339 C   0  0  1  0  0  0
  -20.5865  -28.3656   23.1284 C   0  0  2  0  0  0
  -20.6747  -26.9397   22.5384 C   0  0  0  0  0  0
  -19.5729  -26.6362   21.5175 C   0  0  0  0  0  0
  -18.1916  -26.7886   22.1597 C   0  0  0  0  0  0
  -19.1524  -28.8814   23.2867 C   0  0  0  0  0  0
  -18.9459  -30.1414   23.8880 C   0  0  0  0  0  0
  -17.6459  -30.6555   24.0543 C   0  0  0  0  0  0
  -25.9046  -34.9450   23.5120 C   0  0  0  0  0  0
  -16.5353  -29.9050   23.6304 C   0  0  0  0  0  0
  -16.7266  -28.6456   23.0354 C   0  0  0  0  0  0
  -26.4496  -31.6531   25.0655 C   0  0  0  0  0  0
  -25.3790  -31.3679   26.1444 C   0  0  0  0  0  0
  -27.0301  -30.2951   24.6029 C   0  0  0  0  0  0
  -27.6069  -32.4253   25.7423 C   0  0  0  0  0  0
  -27.5615  -37.1771   24.8441 C   0  0  0  0  0  0
  -21.4159  -29.3041   22.3738 N   0  0  0  0  0  0
  -26.4285  -37.3792   23.9438 N   0  0  0  0  0  0
  -24.6712  -31.0696   22.0916 N   0  0  0  0  0  0
  -23.4202  -28.8176   23.3037 O   0  0  0  0  0  0
  -28.3927  -26.6516   20.1744 O   0  0  0  0  0  0
  -26.5609  -34.8927   22.4680 O   0  0  0  0  0  0
  -23.5367  -32.1397   23.7391 O   0  0  0  0  0  0
  -30.2171  -19.7836   19.3111 C   0  0  0  0  0  0
  -30.5979  -18.7235   18.4926 C   0  0  0  0  0  0
  -29.5014  -18.1813   20.9978 C   0  0  0  0  0  0
  -29.6114  -19.5479   20.5598 C   0  0  0  0  0  0
  -30.4660  -17.3872   18.9007 C   0  0  0  0  0  0
  -29.9702  -17.0714   20.2045 C   0  0  0  0  0  0
  -29.1331  -20.7551   21.3210 C   0  0  0  0  0  0
  -29.1362  -22.0353   20.8472 C   0  0  0  0  0  0
  -27.8422  -24.2308   20.6876 C   0  0  0  0  0  0
  -30.8120  -16.3696   17.8329 C   0  0  0  0  0  0
  -28.7746  -23.3486   21.5528 C   0  0  0  0  0  0
  -28.4537  -25.2785   19.7105 C   0  0  0  0  0  0
  -29.8188  -15.6904   20.6640 N   0  0  0  0  0  0
  -26.6264  -24.0207   20.7007 O   0  0  0  0  0  0
  -31.4782  -12.5333   19.0981 H   0  0  0  0  0  0
  -30.4121  -11.3876   19.8621 H   0  0  0  0  0  0
  -29.7613  -11.7207   17.4739 H   0  0  0  0  0  0
  -29.6444  -13.4476   17.7042 H   0  0  0  0  0  0
  -27.8568  -11.2891   18.8649 H   0  0  0  0  0  0
  -27.3602  -12.5723   17.7916 H   0  0  0  0  0  0
  -27.6762  -14.2454   19.4962 H   0  0  0  0  0  0
  -28.7001  -12.0502   21.3712 H   0  0  0  0  0  0
  -28.4560  -13.7184   21.8160 H   0  0  0  0  0  0
  -25.2736   -9.5792   22.4751 H   0  0  0  0  0  0
  -23.9991   -7.4732   22.7516 H   0  0  0  0  0  0
  -21.0811   -8.8842   19.9003 H   0  0  0  0  0  0
  -22.3658  -10.9715   19.6178 H   0  0  0  0  0  0
  -21.2026   -7.6147   23.9720 H   0  0  0  0  0  0
  -21.1433   -6.0498   25.9062 H   0  0  0  0  0  0
  -22.0618   -2.7622   23.2823 H   0  0  0  0  0  0
  -22.3890  -12.0052   22.4848 H   0  0  0  0  0  0
  -21.0993  -13.1517   22.2360 H   0  0  0  0  0  0
  -24.6816  -15.8617   20.5057 H   0  0  0  0  0  0
  -26.2864  -15.6158   20.0552 H   0  0  0  0  0  0
  -26.7135  -32.5447   23.1066 H   0  0  0  0  0  0
  -25.0127  -33.9697   25.0469 H   0  0  0  0  0  0
  -22.6959  -31.2996   21.4001 H   0  0  0  0  0  0
  -23.3780  -35.9616   23.3170 H   0  0  0  0  0  0
  -24.3634  -36.9040   22.2063 H   0  0  0  0  0  0
  -23.7200  -37.6471   23.6696 H   0  0  0  0  0  0
  -26.0547  -31.5695   20.5839 H   0  0  0  0  0  0
  -26.8223  -30.8603   21.9775 H   0  0  0  0  0  0
  -28.0882  -29.0407   21.1841 H   0  0  0  0  0  0
  -26.0105  -25.9550   18.9906 H   0  0  0  0  0  0
  -23.9821  -27.3033   18.9805 H   0  0  0  0  0  0
  -23.6904  -30.5624   19.3821 H   0  0  0  0  0  0
  -22.7333  -29.2069   19.8897 H   0  0  0  0  0  0
  -25.1250  -36.1938   25.0826 H   0  0  0  0  0  0
  -20.9944  -28.3209   24.1407 H   0  0  0  0  0  0
  -20.5588  -26.2306   23.3589 H   0  0  0  0  0  0
  -21.6630  -26.7389   22.1228 H   0  0  0  0  0  0
  -19.6898  -25.6272   21.1215 H   0  0  0  0  0  0
  -19.6630  -27.3158   20.6690 H   0  0  0  0  0  0
  -17.4186  -26.6634   21.3999 H   0  0  0  0  0  0
  -18.0325  -26.0003   22.8968 H   0  0  0  0  0  0
  -19.7946  -30.7217   24.2248 H   0  0  0  0  0  0
  -17.5031  -31.6229   24.5154 H   0  0  0  0  0  0
  -15.5353  -30.2960   23.7610 H   0  0  0  0  0  0
  -15.8675  -28.0762   22.7083 H   0  0  0  0  0  0
  -24.5865  -30.7129   25.7816 H   0  0  0  0  0  0
  -24.9108  -32.2862   26.4995 H   0  0  0  0  0  0
  -25.8158  -30.8757   27.0143 H   0  0  0  0  0  0
  -26.2793  -29.6683   24.1190 H   0  0  0  0  0  0
  -27.4184  -29.7212   25.4457 H   0  0  0  0  0  0
  -27.8603  -30.4230   23.9073 H   0  0  0  0  0  0
  -27.2670  -33.3557   26.1987 H   0  0  0  0  0  0
  -28.3884  -32.6794   25.0252 H   0  0  0  0  0  0
  -28.0722  -31.8381   26.5351 H   0  0  0  0  0  0
  -28.2528  -38.0172   24.7647 H   0  0  0  0  0  0
  -28.1218  -36.2718   24.6036 H   0  0  0  0  0  0
  -27.2386  -37.1162   25.8850 H   0  0  0  0  0  0
  -20.9345  -29.8861   21.7022 H   0  0  0  0  0  0
  -26.0171  -38.2865   24.1460 H   0  0  0  0  0  0
  -30.3939  -20.7758   18.9264 H   0  0  0  0  0  0
  -30.9785  -18.9553   17.5109 H   0  0  0  0  0  0
  -29.0494  -17.9875   21.9617 H   0  0  0  0  0  0
  -28.7855  -20.5692   22.3274 H   0  0  0  0  0  0
  -29.4445  -22.2439   19.8375 H   0  0  0  0  0  0
  -31.1193  -16.8679   16.9131 H   0  0  0  0  0  0
  -29.9414  -15.7662   17.5874 H   0  0  0  0  0  0
  -31.6554  -15.7385   18.0948 H   0  0  0  0  0  0
  -29.6981  -23.9030   21.7336 H   0  0  0  0  0  0
  -28.3264  -23.1595   22.5302 H   0  0  0  0  0  0
  -27.9663  -25.1836   18.7407 H   0  0  0  0  0  0
  -29.4992  -25.0138   19.5438 H   0  0  0  0  0  0
  -28.8998  -15.4519   21.0027 H   0  0  0  0  0  0
  1 25  1  0  0  0
  1 30  2  0  0  0
  1 83  1  0  0  0
  2  3  1  0  0  0
  2 25  1  0  0  0
  2 85  1  0  0  0
  2 86  1  0  0  0
  3  4  1  0  0  0
  3 87  1  0  0  0
  3 88  1  0  0  0
  4  5  1  0  0  0
  4 89  1  0  0  0
  4 90  1  0  0  0
  5  6  1  0  0  0
  5 26  1  0  0  0
  5 91  1  0  0  0
  6 25  1  0  0  0
  6 92  1  0  0  0
  6 93  1  0  0  0
  7  8  2  0  0  0
  7 26  1  0  0  0
  7 29  1  0  0  0
  8  9  1  0  0  0
  8 22  1  0  0  0
  9 10  1  0  0  0
  9 27  2  0  0  0
 10 11  2  0  0  0
 10 15  1  0  0  0
 11 12  1  0  0  0
 11 94  1  0  0  0
 12 13  2  0  0  0
 12 95  1  0  0  0
 13 14  1  0  0  0
 13 31  1  0  0  0
 14 15  2  0  0  0
 14 96  1  0  0  0
 15 97  1  0  0  0
 16 17  2  0  0  0
 16 21  1  0  0  0
 16 31  1  0  0  0
 17 18  1  0  0  0
 17 98  1  0  0  0
 18 19  2  0  0  0
 18 99  1  0  0  0
 19 20  1  0  0  0
 19 24  1  0  0  0
 20 21  2  0  0  0
 20100  1  0  0  0
 21 23  1  0  0  0
 22 28  1  0  0  0
 22 32  2  0  0  0
 26 27  1  0  0  0
 28101  1  0  0  0
 28102  1  0  0  0
 29103  1  0  0  0
 29104  1  0  0  0
 33 34  1  0  0  0
 33 66  1  0  0  0
 33 70  2  0  0  0
 34 36  1  0  0  0
 34 59  1  0  0  0
 34105  1  0  0  0
 35 44  2  0  0  0
 35 45  1  0  0  0
 35 68  1  0  0  0
 36 56  1  0  0  0
 36106  1  0  0  0
 37 39  1  0  0  0
 37 47  1  0  0  0
 37 66  1  0  0  0
 37107  1  0  0  0
 38 43  2  0  0  0
 38 46  1  0  0  0
 38 47  1  0  0  0
 39 64  1  0  0  0
 39 67  2  0  0  0
 40 52  1  0  0  0
 40 53  2  0  0  0
 40 58  1  0  0  0
 41108  1  0  0  0
 41109  1  0  0  0
 41110  1  0  0  0
 41 48  1  0  0  0
 42 43  1  0  0  0
 42 66  1  0  0  0
 42111  1  0  0  0
 42112  1  0  0  0
 43 44  1  0  0  0
 44113  1  0  0  0
 45 46  2  0  0  0
 45114  1  0  0  0
 46115  1  0  0  0
 47116  1  0  0  0
 47117  1  0  0  0
 48 56  1  0  0  0
 48 65  1  0  0  0
 48118  1  0  0  0
 49 50  1  0  0  0
 49 53  1  0  0  0
 49 64  1  0  0  0
 49119  1  0  0  0
 50 51  1  0  0  0
 50120  1  0  0  0
 50121  1  0  0  0
 51 52  1  0  0  0
 51122  1  0  0  0
 51123  1  0  0  0
 52124  1  0  0  0
 52125  1  0  0  0
 53 54  1  0  0  0
 54 55  2  0  0  0
 54126  1  0  0  0
 55 57  1  0  0  0
 55127  1  0  0  0
 56 69  2  0  0  0
 57 58  2  0  0  0
 57128  1  0  0  0
 58129  1  0  0  0
 59 60  1  0  0  0
 59 61  1  0  0  0
 59 62  1  0  0  0
 60130  1  0  0  0
 60131  1  0  0  0
 60132  1  0  0  0
 61133  1  0  0  0
 61134  1  0  0  0
 61135  1  0  0  0
 62136  1  0  0  0
 62137  1  0  0  0
 62138  1  0  0  0
 63 65  1  0  0  0
 63139  1  0  0  0
 63140  1  0  0  0
 63141  1  0  0  0
 64142  1  0  0  0
 65143  1  0  0  0
 68 82  1  0  0  0
 71 72  2  0  0  0
 71 74  1  0  0  0
 71144  1  0  0  0
 72 75  1  0  0  0
 72145  1  0  0  0
 73 74  2  0  0  0
 73 76  1  0  0  0
 73146  1  0  0  0
 74 77  1  0  0  0
 75 76  2  0  0  0
 75 80  1  0  0  0
 76 83  1  0  0  0
 77 78  2  0  0  0
 77147  1  0  0  0
 78 81  1  0  0  0
 78148  1  0  0  0
 79 81  1  0  0  0
 79 82  1  0  0  0
 79 84  2  0  0  0
 80149  1  0  0  0
 80150  1  0  0  0
 80151  1  0  0  0
 81152  1  0  0  0
 81153  1  0  0  0
 82154  1  0  0  0
 82155  1  0  0  0
 83156  1  0  0  0
M  ISO  4   1 100  68 101  82 101  83 100
M  END
> <chiral flag>
0

> <version>
0

> <s_m_source_file>
/data/baiqing/PycharmProjects/Reinvent-master-3.2/result/LINK_invent/BTK/process_docking_weight1_custom_product_contain_oxygen_bond_distance_aromatic_linkinvent_7_9_3/rearranged_h_0125.sdf

> <i_m_source_file_index>
44

> <r_mmod_Potential_Energy-OPLS-2005>
51.5753479003906

> <r_mmod_Stretch_Energy-OPLS-2005>
57.3368911743164

> <r_mmod_Bend_Energy-OPLS-2005>
125.646392822266

> <r_mmod_Torsional_Energy-OPLS-2005>
243.757507324219

> <r_mmod_Improper_Torsional_Energy-OPLS-2005>
6.55838346481323

> <r_mmod_Van_der_Waal_Energy-OPLS-2005>
156.673065185547

> <r_mmod_Electrostatic_Energy-OPLS-2005>
-352.252075195312

> <r_mmod_Solvation_Energy-OPLS-2005>
-222.193923950195

> <b_mmod_Minimization_Converged-OPLS-2005>
0

> <r_mmod_RMS_Derivative-OPLS-2005>
6.8261342048645

$$$$
44
                    3D
 Structure written by MMmdl.
161169  0  0  1  0            999 V2000
  -30.7366  -14.4188   20.6380 C   0  0  0  0  0  0
  -30.4184  -12.2983   19.4158 C   0  0  0  0  0  0
  -29.4927  -12.5234   18.2029 C   0  0  0  0  0  0
  -28.0129  -12.3769   18.6081 C   0  0  0  0  0  0
  -27.6632  -13.1996   19.8756 C   0  0  2  0  0  0
  -28.6962  -12.9381   20.9920 C   0  0  0  0  0  0
  -25.2596  -13.8154   20.5650 C   0  0  0  0  0  0
  -24.1837  -13.0435   20.9144 C   0  0  0  0  0  0
  -24.6380  -11.6898   20.8712 C   0  0  0  0  0  0
  -23.9043  -10.4290   21.0399 C   0  0  0  0  0  0
  -24.3604   -9.4211   21.9182 C   0  0  0  0  0  0
  -23.6283   -8.2244   22.0757 C   0  0  0  0  0  0
  -22.4268   -8.0275   21.3547 C   0  0  0  0  0  0
  -21.9903   -9.0241   20.4640 C   0  0  0  0  0  0
  -22.7222  -10.2125   20.3045 C   0  0  0  0  0  0
  -21.6848   -6.0726   22.5281 C   0  0  0  0  0  0
  -21.4016   -6.5634   23.8215 C   0  0  0  0  0  0
  -21.3660   -5.6790   24.9179 C   0  0  0  0  0  0
  -21.6044   -4.3054   24.7232 C   0  0  0  0  0  0
  -21.8822   -3.8142   23.4355 C   0  0  0  0  0  0
  -21.9190   -4.6954   22.3407 C   0  0  0  0  0  0
  -22.7865  -13.5243   21.1815 C   0  0  0  0  0  0
  -22.1653   -4.2136   21.0987 F   0  0  0  0  0  0
  -21.5636   -3.4540   25.7750 F   0  0  0  0  0  0
  -30.0381  -13.2570   20.4669 N   0  0  0  0  0  0
  -26.3019  -12.9304   20.3331 N   0  0  0  0  0  0
  -25.9299  -11.6467   20.5716 N   0  0  0  0  0  0
  -22.0514  -12.8237   22.0383 N   0  0  0  0  0  0
  -25.4329  -15.1870   20.4085 N   0  0  0  0  0  0
  -31.7884  -14.6678   20.0372 O   0  0  0  0  0  0
  -21.6636   -6.8869   21.4245 O   0  0  0  0  0  0
  -22.3548  -14.5547   20.6664 O   0  0  0  0  0  0
  -24.6120  -31.8697   23.2117 C   0  0  0  0  0  0
  -25.9025  -32.4825   23.8398 C   0  0  1  0  0  0
  -27.2387  -27.4553   20.0760 C   0  0  0  0  0  0
  -25.5884  -33.8621   24.2326 N   0  0  0  0  0  0
  -23.3971  -30.4948   21.5528 C   0  0  2  0  0  0
  -24.8397  -28.9592   20.1188 C   0  0  0  0  0  0
  -22.7383  -29.4678   22.5008 C   0  0  0  0  0  0
  -18.0258  -28.1387   22.8502 C   0  0  0  0  0  0
  -24.1478  -36.7318   23.2647 C   0  0  0  0  0  0
  -25.9233  -30.8403   21.3606 C   0  0  0  0  0  0
  -25.9986  -29.4744   20.7108 C   0  0  0  0  0  0
  -27.1959  -28.7268   20.6911 C   0  0  0  0  0  0
  -26.0498  -26.9383   19.5071 C   0  0  0  0  0  0
  -24.8580  -27.6877   19.5214 C   0  0  0  0  0  0
  -23.6027  -29.8262   20.1675 C   0  0  0  0  0  0
  -25.4108  -36.3112   24.0339 C   0  0  1  0  0  0
  -20.5845  -28.3673   23.1334 C   0  0  2  0  0  0
  -20.6746  -26.9414   22.5427 C   0  0  0  0  0  0
  -19.5726  -26.6397   21.5221 C   0  0  0  0  0  0
  -18.1903  -26.7931   22.1629 C   0  0  0  0  0  0
  -19.1508  -28.8844   23.2912 C   0  0  0  0  0  0
  -18.9440  -30.1449   23.8927 C   0  0  0  0  0  0
  -17.6444  -30.6593   24.0583 C   0  0  0  0  0  0
  -25.9032  -34.9476   23.5131 C   0  0  0  0  0  0
  -16.5336  -29.9106   23.6330 C   0  0  0  0  0  0
  -16.7251  -28.6520   23.0356 C   0  0  0  0  0  0
  -26.4472  -31.6591   25.0711 C   0  0  0  0  0  0
  -25.3741  -31.3654   26.1449 C   0  0  0  0  0  0
  -27.0339  -30.3056   24.6059 C   0  0  0  0  0  0
  -27.6030  -32.4318   25.7485 C   0  0  0  0  0  0
  -27.5569  -37.1831   24.8481 C   0  0  0  0  0  0
  -21.4112  -29.3044   22.3743 N   0  0  0  0  0  0
  -26.4301  -37.3788   23.9398 N   0  0  0  0  0  0
  -24.6626  -31.0821   22.1007 N   0  0  0  0  0  0
  -23.4161  -28.8226   23.3049 O   0  0  0  0  0  0
  -28.4501  -26.7933   20.0576 O   0  0  0  0  0  0
  -26.5603  -34.8924   22.4696 O   0  0  0  0  0  0
  -23.5320  -32.1450   23.7527 O   0  0  0  0  0  0
  -29.9270  -17.9630   21.8370 C   0  0  0  0  0  0
  -29.5950  -19.2400   21.3396 C   0  0  0  0  0  0
  -29.4110  -16.9822   19.6872 C   0  0  0  0  0  0
  -29.8467  -16.8066   21.0239 C   0  0  0  0  0  0
  -29.0853  -18.2600   19.1764 C   0  0  0  0  0  0
  -29.1746  -19.4093   19.9986 C   0  0  0  0  0  0
  -30.1624  -15.4562   21.6032 C   0  0  0  0  0  0
  -27.1108  -18.1439   17.5909 C   0  0  0  0  0  0
  -28.6209  -18.3723   17.7316 C   0  0  0  0  0  0
  -28.4546  -24.3506   20.1631 C   0  0  0  0  0  0
  -28.6211  -23.0357   19.3736 C   0  0  0  0  0  0
  -28.6157  -25.6038   19.2835 C   0  0  0  0  0  0
  -28.8285  -21.7981   20.2654 C   0  0  0  0  0  0
  -30.0136  -15.2163   22.8419 N   0  0  0  0  0  0
  -28.8493  -20.6331   19.4415 O   0  0  0  0  0  0
  -31.4638  -12.3940   19.1169 H   0  0  0  0  0  0
  -30.3152  -11.2777   19.7888 H   0  0  0  0  0  0
  -29.7336  -11.8150   17.4092 H   0  0  0  0  0  0
  -29.6638  -13.5183   17.7886 H   0  0  0  0  0  0
  -27.8196  -11.3186   18.7887 H   0  0  0  0  0  0
  -27.3647  -12.6655   17.7801 H   0  0  0  0  0  0
  -27.7202  -14.2533   19.6034 H   0  0  0  0  0  0
  -28.6691  -11.8888   21.2894 H   0  0  0  0  0  0
  -28.4170  -13.4846   21.8902 H   0  0  0  0  0  0
  -25.2752   -9.5691   22.4752 H   0  0  0  0  0  0
  -23.9989   -7.4647   22.7488 H   0  0  0  0  0  0
  -21.0838   -8.8748   19.8946 H   0  0  0  0  0  0
  -22.3678  -10.9654   19.6144 H   0  0  0  0  0  0
  -21.2009   -7.6143   23.9713 H   0  0  0  0  0  0
  -21.1482   -6.0523   25.9080 H   0  0  0  0  0  0
  -22.0603   -2.7602   23.2862 H   0  0  0  0  0  0
  -22.4132  -11.9889   22.4754 H   0  0  0  0  0  0
  -21.1129  -13.1252   22.2582 H   0  0  0  0  0  0
  -24.6705  -15.8446   20.5294 H   0  0  0  0  0  0
  -26.2971  -15.6322   20.1277 H   0  0  0  0  0  0
  -26.7093  -32.5550   23.1163 H   0  0  0  0  0  0
  -25.0010  -33.9783   25.0455 H   0  0  0  0  0  0
  -22.6848  -31.3112   21.4155 H   0  0  0  0  0  0
  -23.3743  -35.9644   23.3308 H   0  0  0  0  0  0
  -24.3559  -36.8955   22.2063 H   0  0  0  0  0  0
  -23.7230  -37.6515   23.6681 H   0  0  0  0  0  0
  -26.0296  -31.6061   20.5909 H   0  0  0  0  0  0
  -26.8136  -30.8963   21.9751 H   0  0  0  0  0  0
  -28.0937  -29.1301   21.1382 H   0  0  0  0  0  0
  -26.0146  -25.9609   19.0512 H   0  0  0  0  0  0
  -23.9618  -27.2800   19.0728 H   0  0  0  0  0  0
  -23.7095  -30.6011   19.4070 H   0  0  0  0  0  0
  -22.7257  -29.2461   19.8740 H   0  0  0  0  0  0
  -25.1292  -36.1986   25.0836 H   0  0  0  0  0  0
  -20.9930  -28.3240   24.1457 H   0  0  0  0  0  0
  -20.5668  -26.2282   23.3609 H   0  0  0  0  0  0
  -21.6618  -26.7470   22.1218 H   0  0  0  0  0  0
  -19.6893  -25.6319   21.1233 H   0  0  0  0  0  0
  -19.6661  -27.3218   20.6763 H   0  0  0  0  0  0
  -17.4177  -26.6700   21.4023 H   0  0  0  0  0  0
  -18.0290  -26.0065   22.9014 H   0  0  0  0  0  0
  -19.7915  -30.7256   24.2307 H   0  0  0  0  0  0
  -17.5010  -31.6273   24.5194 H   0  0  0  0  0  0
  -15.5344  -30.3034   23.7638 H   0  0  0  0  0  0
  -15.8639  -28.0861   22.7061 H   0  0  0  0  0  0
  -24.5896  -30.7044   25.7753 H   0  0  0  0  0  0
  -24.8952  -32.2796   26.4962 H   0  0  0  0  0  0
  -25.8091  -30.8749   27.0167 H   0  0  0  0  0  0
  -26.2885  -29.6776   24.1166 H   0  0  0  0  0  0
  -27.4215  -29.7324   25.4495 H   0  0  0  0  0  0
  -27.8660  -30.4422   23.9145 H   0  0  0  0  0  0
  -27.2645  -33.3632   26.2038 H   0  0  0  0  0  0
  -28.3852  -32.6856   25.0318 H   0  0  0  0  0  0
  -28.0677  -31.8454   26.5425 H   0  0  0  0  0  0
  -28.2618  -38.0095   24.7483 H   0  0  0  0  0  0
  -28.1036  -36.2623   24.6385 H   0  0  0  0  0  0
  -27.2265  -37.1579   25.8880 H   0  0  0  0  0  0
  -20.9260  -29.8786   21.6989 H   0  0  0  0  0  0
  -26.0194  -38.2876   24.1364 H   0  0  0  0  0  0
  -30.2504  -17.8832   22.8652 H   0  0  0  0  0  0
  -29.6758  -20.0768   22.0170 H   0  0  0  0  0  0
  -29.3123  -16.1277   19.0323 H   0  0  0  0  0  0
  -26.7997  -18.2352   16.5501 H   0  0  0  0  0  0
  -26.5481  -18.8770   18.1698 H   0  0  0  0  0  0
  -26.8240  -17.1502   17.9366 H   0  0  0  0  0  0
  -29.1612  -17.6453   17.1241 H   0  0  0  0  0  0
  -28.8862  -19.3493   17.3250 H   0  0  0  0  0  0
  -29.1989  -24.3942   20.9590 H   0  0  0  0  0  0
  -27.4807  -24.3610   20.6539 H   0  0  0  0  0  0
  -29.4761  -23.1203   18.7013 H   0  0  0  0  0  0
  -27.7469  -22.8884   18.7384 H   0  0  0  0  0  0
  -27.9836  -25.5718   18.3969 H   0  0  0  0  0  0
  -29.6340  -25.6274   18.8950 H   0  0  0  0  0  0
  -28.0252  -21.7158   20.9986 H   0  0  0  0  0  0
  -29.7711  -21.9120   20.8025 H   0  0  0  0  0  0
  -29.6392  -16.0246   23.3226 H   0  0  0  0  0  0
  1 25  1  0  0  0
  1 30  2  0  0  0
  1 77  1  0  0  0
  2  3  1  0  0  0
  2 25  1  0  0  0
  2 86  1  0  0  0
  2 87  1  0  0  0
  3  4  1  0  0  0
  3 88  1  0  0  0
  3 89  1  0  0  0
  4  5  1  0  0  0
  4 90  1  0  0  0
  4 91  1  0  0  0
  5  6  1  0  0  0
  5 26  1  0  0  0
  5 92  1  0  0  0
  6 25  1  0  0  0
  6 93  1  0  0  0
  6 94  1  0  0  0
  7  8  2  0  0  0
  7 26  1  0  0  0
  7 29  1  0  0  0
  8  9  1  0  0  0
  8 22  1  0  0  0
  9 10  1  0  0  0
  9 27  2  0  0  0
 10 11  2  0  0  0
 10 15  1  0  0  0
 11 12  1  0  0  0
 11 95  1  0  0  0
 12 13  2  0  0  0
 12 96  1  0  0  0
 13 14  1  0  0  0
 13 31  1  0  0  0
 14 15  2  0  0  0
 14 97  1  0  0  0
 15 98  1  0  0  0
 16 17  2  0  0  0
 16 21  1  0  0  0
 16 31  1  0  0  0
 17 18  1  0  0  0
 17 99  1  0  0  0
 18 19  2  0  0  0
 18100  1  0  0  0
 19 20  1  0  0  0
 19 24  1  0  0  0
 20 21  2  0  0  0
 20101  1  0  0  0
 21 23  1  0  0  0
 22 28  1  0  0  0
 22 32  2  0  0  0
 26 27  1  0  0  0
 28102  1  0  0  0
 28103  1  0  0  0
 29104  1  0  0  0
 29105  1  0  0  0
 33 34  1  0  0  0
 33 66  1  0  0  0
 33 70  2  0  0  0
 34 36  1  0  0  0
 34 59  1  0  0  0
 34106  1  0  0  0
 35 44  2  0  0  0
 35 45  1  0  0  0
 35 68  1  0  0  0
 36 56  1  0  0  0
 36107  1  0  0  0
 37 39  1  0  0  0
 37 47  1  0  0  0
 37 66  1  0  0  0
 37108  1  0  0  0
 38 43  2  0  0  0
 38 46  1  0  0  0
 38 47  1  0  0  0
 39 64  1  0  0  0
 39 67  2  0  0  0
 40 52  1  0  0  0
 40 53  2  0  0  0
 40 58  1  0  0  0
 41109  1  0  0  0
 41110  1  0  0  0
 41111  1  0  0  0
 41 48  1  0  0  0
 42 43  1  0  0  0
 42 66  1  0  0  0
 42112  1  0  0  0
 42113  1  0  0  0
 43 44  1  0  0  0
 44114  1  0  0  0
 45 46  2  0  0  0
 45115  1  0  0  0
 46116  1  0  0  0
 47117  1  0  0  0
 47118  1  0  0  0
 48 56  1  0  0  0
 48 65  1  0  0  0
 48119  1  0  0  0
 49 50  1  0  0  0
 49 53  1  0  0  0
 49 64  1  0  0  0
 49120  1  0  0  0
 50 51  1  0  0  0
 50121  1  0  0  0
 50122  1  0  0  0
 51 52  1  0  0  0
 51123  1  0  0  0
 51124  1  0  0  0
 52125  1  0  0  0
 52126  1  0  0  0
 53 54  1  0  0  0
 54 55  2  0  0  0
 54127  1  0  0  0
 55 57  1  0  0  0
 55128  1  0  0  0
 56 69  2  0  0  0
 57 58  2  0  0  0
 57129  1  0  0  0
 58130  1  0  0  0
 59 60  1  0  0  0
 59 61  1  0  0  0
 59 62  1  0  0  0
 60131  1  0  0  0
 60132  1  0  0  0
 60133  1  0  0  0
 61134  1  0  0  0
 61135  1  0  0  0
 61136  1  0  0  0
 62137  1  0  0  0
 62138  1  0  0  0
 62139  1  0  0  0
 63 65  1  0  0  0
 63140  1  0  0  0
 63141  1  0  0  0
 63142  1  0  0  0
 64143  1  0  0  0
 65144  1  0  0  0
 68 82  1  0  0  0
 71 72  2  0  0  0
 71 74  1  0  0  0
 71145  1  0  0  0
 72 76  1  0  0  0
 72146  1  0  0  0
 73 74  2  0  0  0
 73 75  1  0  0  0
 73147  1  0  0  0
 74 77  1  0  0  0
 75 76  2  0  0  0
 75 79  1  0  0  0
 76 85  1  0  0  0
 77 84  2  0  0  0
 78 79  1  0  0  0
 78148  1  0  0  0
 78149  1  0  0  0
 78150  1  0  0  0
 79151  1  0  0  0
 79152  1  0  0  0
 80 81  1  0  0  0
 80 82  1  0  0  0
 80153  1  0  0  0
 80154  1  0  0  0
 81 83  1  0  0  0
 81155  1  0  0  0
 81156  1  0  0  0
 82157  1  0  0  0
 82158  1  0  0  0
 83 85  1  0  0  0
 83159  1  0  0  0
 83160  1  0  0  0
 84161  1  0  0  0
M  ISO  4   1 100  68 101  77 100  82 101
M  END
> <chiral flag>
0

> <version>
0

> <s_m_source_file>
/data/baiqing/PycharmProjects/Reinvent-master-3.2/result/LINK_invent/BTK/process_docking_weight1_custom_product_contain_oxygen_bond_distance_aromatic_linkinvent_7_9_3/rearranged_h_0125.sdf

> <i_m_source_file_index>
45

> <r_mmod_Potential_Energy-OPLS-2005>
87.0395355224609

> <r_mmod_Stretch_Energy-OPLS-2005>
39.0321273803711

> <r_mmod_Bend_Energy-OPLS-2005>
110.460052490234

> <r_mmod_Torsional_Energy-OPLS-2005>
196.708969116211

> <r_mmod_Improper_Torsional_Energy-OPLS-2005>
2.11537575721741

> <r_mmod_Van_der_Waal_Energy-OPLS-2005>
157.982986450195

> <r_mmod_Electrostatic_Energy-OPLS-2005>
-233.155609130859

> <r_mmod_Solvation_Energy-OPLS-2005>
-194.617126464844

> <b_mmod_Minimization_Converged-OPLS-2005>
0

> <r_mmod_RMS_Derivative-OPLS-2005>
1.11138951778412

$$$$
45
                    3D
 Structure written by MMmdl.
152160  0  0  1  0            999 V2000
  -30.4533  -15.1981   20.3751 C   0  0  0  0  0  0
  -30.4391  -12.7538   19.5391 C   0  0  0  0  0  0
  -29.5362  -12.5657   18.2924 C   0  0  0  0  0  0
  -28.0786  -12.3023   18.7102 C   0  0  0  0  0  0
  -27.6133  -13.2731   19.8239 C   0  0  2  0  0  0
  -28.6425  -13.4150   20.9628 C   0  0  0  0  0  0
  -25.2398  -13.8256   20.5744 C   0  0  0  0  0  0
  -24.1744  -13.0443   20.9241 C   0  0  0  0  0  0
  -24.6393  -11.6941   20.8749 C   0  0  0  0  0  0
  -23.9089  -10.4301   21.0408 C   0  0  0  0  0  0
  -24.3633   -9.4215   21.9185 C   0  0  0  0  0  0
  -23.6297   -8.2254   22.0760 C   0  0  0  0  0  0
  -22.4276   -8.0296   21.3555 C   0  0  0  0  0  0
  -21.9920   -9.0271   20.4655 C   0  0  0  0  0  0
  -22.7259  -10.2142   20.3062 C   0  0  0  0  0  0
  -21.6854   -6.0741   22.5275 C   0  0  0  0  0  0
  -21.4018   -6.5642   23.8211 C   0  0  0  0  0  0
  -21.3656   -5.6793   24.9170 C   0  0  0  0  0  0
  -21.6038   -4.3058   24.7218 C   0  0  0  0  0  0
  -21.8821   -3.8150   23.4340 C   0  0  0  0  0  0
  -21.9195   -4.6967   22.3396 C   0  0  0  0  0  0
  -22.7767  -13.5201   21.1902 C   0  0  0  0  0  0
  -22.1663   -4.2157   21.0973 F   0  0  0  0  0  0
  -21.5623   -3.4538   25.7731 F   0  0  0  0  0  0
  -29.8958  -13.8931   20.3610 N   0  0  0  0  0  0
  -26.2817  -12.9525   20.3199 N   0  0  0  0  0  0
  -25.9330  -11.6631   20.5710 N   0  0  0  0  0  0
  -22.0420  -12.8190   22.0454 N   0  0  0  0  0  0
  -25.4042  -15.1990   20.4223 N   0  0  0  0  0  0
  -31.6714  -15.1926   20.1454 O   0  0  0  0  0  0
  -21.6644   -6.8890   21.4242 O   0  0  0  0  0  0
  -22.3452  -14.5506   20.6745 O   0  0  0  0  0  0
  -24.6587  -31.8283   23.1737 C   0  0  0  0  0  0
  -25.9275  -32.4625   23.8184 C   0  0  1  0  0  0
  -27.2173  -26.9693   20.1807 C   0  0  0  0  0  0
  -25.5953  -33.8434   24.2089 N   0  0  0  0  0  0
  -23.4719  -30.4410   21.5223 C   0  0  2  0  0  0
  -24.9275  -28.8420   20.1067 C   0  0  0  0  0  0
  -22.7646  -29.4453   22.4791 C   0  0  0  0  0  0
  -18.0319  -28.1413   22.8455 C   0  0  0  0  0  0
  -24.1489  -36.7234   23.2646 C   0  0  0  0  0  0
  -26.0386  -30.6460   21.4003 C   0  0  0  0  0  0
  -26.1084  -29.2408   20.7456 C   0  0  0  0  0  0
  -27.2480  -28.3232   20.7666 C   0  0  0  0  0  0
  -26.0157  -26.7256   19.4761 C   0  0  0  0  0  0
  -24.9055  -27.6030   19.4495 C   0  0  0  0  0  0
  -23.7100  -29.7619   20.1460 C   0  0  0  0  0  0
  -25.4128  -36.2990   24.0303 C   0  0  1  0  0  0
  -20.5941  -28.3747   23.1195 C   0  0  2  0  0  0
  -20.6800  -26.9439   22.5400 C   0  0  0  0  0  0
  -19.5775  -26.6378   21.5217 C   0  0  0  0  0  0
  -18.1949  -26.7944   22.1619 C   0  0  0  0  0  0
  -19.1579  -28.8901   23.2804 C   0  0  0  0  0  0
  -18.9496  -30.1485   23.8855 C   0  0  0  0  0  0
  -17.6489  -30.6598   24.0552 C   0  0  0  0  0  0
  -25.9093  -34.9375   23.5016 C   0  0  0  0  0  0
  -16.5378  -29.9086   23.6349 C   0  0  0  0  0  0
  -16.7300  -28.6509   23.0359 C   0  0  0  0  0  0
  -26.4536  -31.6549   25.0697 C   0  0  0  0  0  0
  -25.3663  -31.3813   26.1356 C   0  0  0  0  0  0
  -27.0421  -30.2922   24.6403 C   0  0  0  0  0  0
  -27.6039  -32.4347   25.7484 C   0  0  0  0  0  0
  -27.5566  -37.1770   24.8470 C   0  0  0  0  0  0
  -21.4322  -29.3042   22.3544 N   0  0  0  0  0  0
  -26.4282  -37.3721   23.9412 N   0  0  0  0  0  0
  -24.7441  -30.9979   22.0865 N   0  0  0  0  0  0
  -23.4208  -28.8010   23.3008 O   0  0  0  0  0  0
  -28.1969  -25.8572   20.2803 O   0  0  0  0  0  0
  -26.5700  -34.8901   22.4612 O   0  0  0  0  0  0
  -23.5666  -32.1234   23.6854 O   0  0  0  0  0  0
  -28.0774  -20.0882   20.3156 C   0  0  0  0  0  0
  -27.6569  -21.5095   20.2595 C   0  0  0  0  0  0
  -29.8362  -22.2114   20.3752 C   0  0  0  0  0  0
  -29.4308  -19.5711   20.3852 C   0  0  0  0  0  0
  -28.4784  -22.7165   20.2746 C   0  0  0  0  0  0
  -30.2728  -20.7822   20.4333 C   0  0  0  0  0  0
  -30.0029  -17.9735   20.3894 C   0  0  0  0  0  0
  -29.6068  -16.5691   20.4741 C   0  0  0  0  0  0
  -32.2375  -20.1282   21.9300 C   0  0  0  0  0  0
  -31.7805  -20.5744   20.5313 C   0  0  0  0  0  0
  -27.7913  -24.2998   20.0473 C   0  0  0  0  0  0
  -31.4648  -12.9383   19.2184 H   0  0  0  0  0  0
  -30.4808  -11.8375   20.1292 H   0  0  0  0  0  0
  -29.9056  -11.7442   17.6768 H   0  0  0  0  0  0
  -29.5815  -13.4610   17.6710 H   0  0  0  0  0  0
  -28.0232  -11.2750   19.0741 H   0  0  0  0  0  0
  -27.4142  -12.3583   17.8470 H   0  0  0  0  0  0
  -27.5398  -14.2476   19.3400 H   0  0  0  0  0  0
  -28.7835  -12.4707   21.4902 H   0  0  0  0  0  0
  -28.2925  -14.1344   21.7046 H   0  0  0  0  0  0
  -25.2773   -9.5686   22.4774 H   0  0  0  0  0  0
  -23.9995   -7.4648   22.7492 H   0  0  0  0  0  0
  -21.0848   -8.8805   19.8967 H   0  0  0  0  0  0
  -22.3723  -10.9688   19.6182 H   0  0  0  0  0  0
  -21.2016   -7.6155   23.9714 H   0  0  0  0  0  0
  -21.1470   -6.0524   25.9072 H   0  0  0  0  0  0
  -22.0600   -2.7614   23.2835 H   0  0  0  0  0  0
  -22.4032  -11.9837   22.4819 H   0  0  0  0  0  0
  -21.1055  -13.1251   22.2699 H   0  0  0  0  0  0
  -24.6366  -15.8493   20.5514 H   0  0  0  0  0  0
  -26.2508  -15.6468   20.0958 H   0  0  0  0  0  0
  -26.7336  -32.5177   23.0894 H   0  0  0  0  0  0
  -25.0077  -33.9532   25.0223 H   0  0  0  0  0  0
  -22.7834  -31.2711   21.3550 H   0  0  0  0  0  0
  -23.3749  -35.9568   23.3306 H   0  0  0  0  0  0
  -24.3554  -36.8888   22.2060 H   0  0  0  0  0  0
  -23.7260  -37.6430   23.6702 H   0  0  0  0  0  0
  -26.2132  -31.3862   20.6189 H   0  0  0  0  0  0
  -26.9020  -30.7038   22.0505 H   0  0  0  0  0  0
  -28.1321  -28.6220   21.3133 H   0  0  0  0  0  0
  -25.8885  -25.7881   18.9571 H   0  0  0  0  0  0
  -24.0149  -27.2951   18.9181 H   0  0  0  0  0  0
  -23.8575  -30.5333   19.3895 H   0  0  0  0  0  0
  -22.8230  -29.2102   19.8304 H   0  0  0  0  0  0
  -25.1321  -36.1796   25.0796 H   0  0  0  0  0  0
  -21.0022  -28.3358   24.1322 H   0  0  0  0  0  0
  -20.5707  -26.2368   23.3634 H   0  0  0  0  0  0
  -21.6654  -26.7432   22.1189 H   0  0  0  0  0  0
  -19.6942  -25.6282   21.1267 H   0  0  0  0  0  0
  -19.6719  -27.3168   20.6735 H   0  0  0  0  0  0
  -17.4222  -26.6687   21.4019 H   0  0  0  0  0  0
  -18.0329  -26.0106   22.9038 H   0  0  0  0  0  0
  -19.7979  -30.7293   24.2209 H   0  0  0  0  0  0
  -17.5055  -31.6279   24.5154 H   0  0  0  0  0  0
  -15.5381  -30.2969   23.7708 H   0  0  0  0  0  0
  -15.8704  -28.0810   22.7110 H   0  0  0  0  0  0
  -24.5869  -30.7140   25.7660 H   0  0  0  0  0  0
  -24.8833  -32.3027   26.4617 H   0  0  0  0  0  0
  -25.7884  -30.9086   27.0235 H   0  0  0  0  0  0
  -26.3080  -29.6606   24.1392 H   0  0  0  0  0  0
  -27.3957  -29.7273   25.5035 H   0  0  0  0  0  0
  -27.9015  -30.4114   23.9806 H   0  0  0  0  0  0
  -27.2638  -33.3718   26.1897 H   0  0  0  0  0  0
  -28.3926  -32.6784   25.0356 H   0  0  0  0  0  0
  -28.0613  -31.8576   26.5537 H   0  0  0  0  0  0
  -28.2570  -38.0068   24.7471 H   0  0  0  0  0  0
  -28.1060  -36.2589   24.6334 H   0  0  0  0  0  0
  -27.2272  -37.1470   25.8867 H   0  0  0  0  0  0
  -20.9569  -29.8760   21.6704 H   0  0  0  0  0  0
  -26.0133  -38.2786   24.1395 H   0  0  0  0  0  0
  -27.2836  -19.3556   20.2719 H   0  0  0  0  0  0
  -26.5919  -21.6725   20.1741 H   0  0  0  0  0  0
  -30.6080  -22.9681   20.3916 H   0  0  0  0  0  0
  -31.0740  -17.9897   20.2611 H   0  0  0  0  0  0
  -28.5466  -16.4166   20.6078 H   0  0  0  0  0  0
  -33.3194  -19.9919   21.9570 H   0  0  0  0  0  0
  -31.7854  -19.1810   22.2244 H   0  0  0  0  0  0
  -31.9792  -20.8688   22.6878 H   0  0  0  0  0  0
  -32.3008  -21.4963   20.2723 H   0  0  0  0  0  0
  -32.0966  -19.8540   19.7767 H   0  0  0  0  0  0
  -26.8468  -24.2147   20.5856 H   0  0  0  0  0  0
  -27.5092  -24.2673   18.9950 H   0  0  0  0  0  0
  1 25  1  0  0  0
  1 30  2  0  0  0
  1 78  1  0  0  0
  2  3  1  0  0  0
  2 25  1  0  0  0
  2 82  1  0  0  0
  2 83  1  0  0  0
  3  4  1  0  0  0
  3 84  1  0  0  0
  3 85  1  0  0  0
  4  5  1  0  0  0
  4 86  1  0  0  0
  4 87  1  0  0  0
  5  6  1  0  0  0
  5 26  1  0  0  0
  5 88  1  0  0  0
  6 25  1  0  0  0
  6 89  1  0  0  0
  6 90  1  0  0  0
  7  8  2  0  0  0
  7 26  1  0  0  0
  7 29  1  0  0  0
  8  9  1  0  0  0
  8 22  1  0  0  0
  9 10  1  0  0  0
  9 27  2  0  0  0
 10 11  2  0  0  0
 10 15  1  0  0  0
 11 12  1  0  0  0
 11 91  1  0  0  0
 12 13  2  0  0  0
 12 92  1  0  0  0
 13 14  1  0  0  0
 13 31  1  0  0  0
 14 15  2  0  0  0
 14 93  1  0  0  0
 15 94  1  0  0  0
 16 17  2  0  0  0
 16 21  1  0  0  0
 16 31  1  0  0  0
 17 18  1  0  0  0
 17 95  1  0  0  0
 18 19  2  0  0  0
 18 96  1  0  0  0
 19 20  1  0  0  0
 19 24  1  0  0  0
 20 21  2  0  0  0
 20 97  1  0  0  0
 21 23  1  0  0  0
 22 28  1  0  0  0
 22 32  2  0  0  0
 26 27  1  0  0  0
 28 98  1  0  0  0
 28 99  1  0  0  0
 29100  1  0  0  0
 29101  1  0  0  0
 33 34  1  0  0  0
 33 66  1  0  0  0
 33 70  2  0  0  0
 34 36  1  0  0  0
 34 59  1  0  0  0
 34102  1  0  0  0
 35 44  2  0  0  0
 35 45  1  0  0  0
 35 68  1  0  0  0
 36 56  1  0  0  0
 36103  1  0  0  0
 37 39  1  0  0  0
 37 47  1  0  0  0
 37 66  1  0  0  0
 37104  1  0  0  0
 38 43  2  0  0  0
 38 46  1  0  0  0
 38 47  1  0  0  0
 39 64  1  0  0  0
 39 67  2  0  0  0
 40 52  1  0  0  0
 40 53  2  0  0  0
 40 58  1  0  0  0
 41105  1  0  0  0
 41106  1  0  0  0
 41107  1  0  0  0
 41 48  1  0  0  0
 42 43  1  0  0  0
 42 66  1  0  0  0
 42108  1  0  0  0
 42109  1  0  0  0
 43 44  1  0  0  0
 44110  1  0  0  0
 45 46  2  0  0  0
 45111  1  0  0  0
 46112  1  0  0  0
 47113  1  0  0  0
 47114  1  0  0  0
 48 56  1  0  0  0
 48 65  1  0  0  0
 48115  1  0  0  0
 49 50  1  0  0  0
 49 53  1  0  0  0
 49 64  1  0  0  0
 49116  1  0  0  0
 50 51  1  0  0  0
 50117  1  0  0  0
 50118  1  0  0  0
 51 52  1  0  0  0
 51119  1  0  0  0
 51120  1  0  0  0
 52121  1  0  0  0
 52122  1  0  0  0
 53 54  1  0  0  0
 54 55  2  0  0  0
 54123  1  0  0  0
 55 57  1  0  0  0
 55124  1  0  0  0
 56 69  2  0  0  0
 57 58  2  0  0  0
 57125  1  0  0  0
 58126  1  0  0  0
 59 60  1  0  0  0
 59 61  1  0  0  0
 59 62  1  0  0  0
 60127  1  0  0  0
 60128  1  0  0  0
 60129  1  0  0  0
 61130  1  0  0  0
 61131  1  0  0  0
 61132  1  0  0  0
 62133  1  0  0  0
 62134  1  0  0  0
 62135  1  0  0  0
 63 65  1  0  0  0
 63136  1  0  0  0
 63137  1  0  0  0
 63138  1  0  0  0
 64139  1  0  0  0
 65140  1  0  0  0
 68 81  1  0  0  0
 71 72  2  0  0  0
 71 74  1  0  0  0
 71141  1  0  0  0
 72 75  1  0  0  0
 72142  1  0  0  0
 73 75  2  0  0  0
 73 76  1  0  0  0
 73143  1  0  0  0
 74 76  2  0  0  0
 74 77  1  0  0  0
 75 81  1  0  0  0
 76 80  1  0  0  0
 77 78  2  0  0  0
 77144  1  0  0  0
 78145  1  0  0  0
 79 80  1  0  0  0
 79146  1  0  0  0
 79147  1  0  0  0
 79148  1  0  0  0
 80149  1  0  0  0
 80150  1  0  0  0
 81151  1  0  0  0
 81152  1  0  0  0
M  ISO  4   1 100  68 101  78 100  81 101
M  END
> <chiral flag>
0

> <version>
0

> <s_m_source_file>
/data/baiqing/PycharmProjects/Reinvent-master-3.2/result/LINK_invent/BTK/process_docking_weight1_custom_product_contain_oxygen_bond_distance_aromatic_linkinvent_7_9_3/rearranged_h_0125.sdf

> <i_m_source_file_index>
46

> <r_mmod_Potential_Energy-OPLS-2005>
1071.2626953125

> <r_mmod_Stretch_Energy-OPLS-2005>
453.262268066406

> <r_mmod_Bend_Energy-OPLS-2005>
403.746337890625

> <r_mmod_Torsional_Energy-OPLS-2005>
193.126342773438

> <r_mmod_Improper_Torsional_Energy-OPLS-2005>
4.17163467407227

> <r_mmod_Van_der_Waal_Energy-OPLS-2005>
135.015274047852

> <r_mmod_Electrostatic_Energy-OPLS-2005>
-324.311645507812

> <r_mmod_Solvation_Energy-OPLS-2005>
-192.301406860352

> <b_mmod_Minimization_Converged-OPLS-2005>
0

> <r_mmod_RMS_Derivative-OPLS-2005>
1.82606470584869

$$$$
46
                    3D
 Structure written by MMmdl.
156164  0  0  1  0            999 V2000
  -30.6436  -14.6634   20.4749 C   0  0  0  0  0  0
  -30.4405  -12.4050   19.4525 C   0  0  0  0  0  0
  -29.5079  -12.5073   18.2250 C   0  0  0  0  0  0
  -28.0318  -12.3440   18.6400 C   0  0  0  0  0  0
  -27.6482  -13.2190   19.8634 C   0  0  2  0  0  0
  -28.7043  -13.1030   20.9882 C   0  0  0  0  0  0
  -25.2374  -13.7993   20.5628 C   0  0  0  0  0  0
  -24.1732  -13.0271   20.9246 C   0  0  0  0  0  0
  -24.6388  -11.6797   20.8795 C   0  0  0  0  0  0
  -23.9069  -10.4206   21.0424 C   0  0  0  0  0  0
  -24.3617   -9.4138   21.9204 C   0  0  0  0  0  0
  -23.6273   -8.2191   22.0767 C   0  0  0  0  0  0
  -22.4259   -8.0250   21.3545 C   0  0  0  0  0  0
  -21.9897   -9.0227   20.4648 C   0  0  0  0  0  0
  -22.7246  -10.2087   20.3062 C   0  0  0  0  0  0
  -21.6836   -6.0720   22.5279 C   0  0  0  0  0  0
  -21.4010   -6.5629   23.8211 C   0  0  0  0  0  0
  -21.3654   -5.6782   24.9171 C   0  0  0  0  0  0
  -21.6042   -4.3045   24.7220 C   0  0  0  0  0  0
  -21.8822   -3.8133   23.4343 C   0  0  0  0  0  0
  -21.9188   -4.6951   22.3400 C   0  0  0  0  0  0
  -22.7760  -13.5096   21.1873 C   0  0  0  0  0  0
  -22.1659   -4.2142   21.0973 F   0  0  0  0  0  0
  -21.5625   -3.4527   25.7732 F   0  0  0  0  0  0
  -30.0184  -13.4418   20.4135 N   0  0  0  0  0  0
  -26.2941  -12.9302   20.3342 N   0  0  0  0  0  0
  -25.9338  -11.6453   20.5833 N   0  0  0  0  0  0
  -22.0393  -12.8146   22.0452 N   0  0  0  0  0  0
  -25.3621  -15.1652   20.3823 N   0  0  0  0  0  0
  -31.8221  -14.7983   20.1349 O   0  0  0  0  0  0
  -21.6613   -6.8860   21.4241 O   0  0  0  0  0  0
  -22.3477  -14.5408   20.6697 O   0  0  0  0  0  0
  -24.6246  -31.8607   23.2039 C   0  0  0  0  0  0
  -25.9097  -32.4782   23.8371 C   0  0  1  0  0  0
  -27.2370  -27.3366   20.1043 C   0  0  0  0  0  0
  -25.5916  -33.8579   24.2300 N   0  0  0  0  0  0
  -23.4191  -30.4840   21.5459 C   0  0  2  0  0  0
  -24.8674  -28.9414   20.1127 C   0  0  0  0  0  0
  -22.7473  -29.4618   22.4930 C   0  0  0  0  0  0
  -18.0292  -28.1383   22.8481 C   0  0  0  0  0  0
  -24.1491  -36.7296   23.2636 C   0  0  0  0  0  0
  -25.9598  -30.7951   21.3752 C   0  0  0  0  0  0
  -26.0362  -29.4242   20.7158 C   0  0  0  0  0  0
  -27.2221  -28.6330   20.7038 C   0  0  0  0  0  0
  -26.0402  -26.9024   19.4845 C   0  0  0  0  0  0
  -24.8700  -27.6843   19.4921 C   0  0  0  0  0  0
  -23.6355  -29.8211   20.1607 C   0  0  0  0  0  0
  -25.4107  -36.3081   24.0337 C   0  0  1  0  0  0
  -20.5888  -28.3686   23.1273 C   0  0  2  0  0  0
  -20.6780  -26.9410   22.5400 C   0  0  0  0  0  0
  -19.5754  -26.6382   21.5202 C   0  0  0  0  0  0
  -18.1938  -26.7925   22.1624 C   0  0  0  0  0  0
  -19.1542  -28.8851   23.2876 C   0  0  0  0  0  0
  -18.9467  -30.1453   23.8896 C   0  0  0  0  0  0
  -17.6466  -30.6581   24.0563 C   0  0  0  0  0  0
  -25.9044  -34.9449   23.5120 C   0  0  0  0  0  0
  -16.5358  -29.9080   23.6326 C   0  0  0  0  0  0
  -16.7278  -28.6498   23.0345 C   0  0  0  0  0  0
  -26.4493  -31.6582   25.0730 C   0  0  0  0  0  0
  -25.3738  -31.3725   26.1472 C   0  0  0  0  0  0
  -27.0331  -30.3008   24.6174 C   0  0  0  0  0  0
  -27.6080  -32.4299   25.7474 C   0  0  0  0  0  0
  -27.5586  -37.1789   24.8456 C   0  0  0  0  0  0
  -21.4186  -29.3041   22.3670 N   0  0  0  0  0  0
  -26.4284  -37.3776   23.9419 N   0  0  0  0  0  0
  -24.6865  -31.0625   22.0992 N   0  0  0  0  0  0
  -23.4199  -28.8153   23.3007 O   0  0  0  0  0  0
  -28.3696  -26.5070   20.1400 O   0  0  0  0  0  0
  -26.5610  -34.8910   22.4685 O   0  0  0  0  0  0
  -23.5410  -32.1399   23.7370 O   0  0  0  0  0  0
  -31.2314  -19.3421   20.7370 C   0  0  0  0  0  0
  -31.1867  -17.9127   20.7971 C   0  0  0  0  0  0
  -28.9087  -19.4207   20.1753 C   0  0  0  0  0  0
  -30.0906  -20.1437   20.4443 C   0  0  0  0  0  0
  -28.8516  -17.9994   20.2369 C   0  0  0  0  0  0
  -29.9844  -17.1923   20.5655 C   0  0  0  0  0  0
  -30.1510  -21.6646   20.4451 C   0  0  0  0  0  0
  -29.1706  -22.5917   20.1853 C   0  0  0  0  0  0
  -29.3556  -24.1004   20.2574 C   0  0  0  0  0  0
  -27.4346  -16.9071   18.4617 C   0  0  0  0  0  0
  -27.5188  -17.3648   19.9252 C   0  0  0  0  0  0
  -28.1623  -25.0626   19.8954 C   0  0  0  0  0  0
  -29.8295  -15.7374   20.7234 N   0  0  0  0  0  0
  -30.4317  -24.6033   20.5982 O   0  0  0  0  0  0
  -31.4814  -12.5248   19.1462 H   0  0  0  0  0  0
  -30.3740  -11.4158   19.9091 H   0  0  0  0  0  0
  -29.7725  -11.7495   17.4861 H   0  0  0  0  0  0
  -29.6469  -13.4739   17.7361 H   0  0  0  0  0  0
  -27.8744  -11.2909   18.8788 H   0  0  0  0  0  0
  -27.3764  -12.5648   17.7967 H   0  0  0  0  0  0
  -27.6503  -14.2487   19.5135 H   0  0  0  0  0  0
  -28.7215  -12.0900   21.3936 H   0  0  0  0  0  0
  -28.4551  -13.7559   21.8259 H   0  0  0  0  0  0
  -25.2763   -9.5610   22.4781 H   0  0  0  0  0  0
  -23.9963   -7.4579   22.7491 H   0  0  0  0  0  0
  -21.0822   -8.8766   19.8956 H   0  0  0  0  0  0
  -22.3730  -10.9636   19.6169 H   0  0  0  0  0  0
  -21.2014   -7.6143   23.9714 H   0  0  0  0  0  0
  -21.1466   -6.0510   25.9073 H   0  0  0  0  0  0
  -22.0609   -2.7594   23.2844 H   0  0  0  0  0  0
  -22.3983  -11.9817   22.4878 H   0  0  0  0  0  0
  -21.1018  -13.1213   22.2635 H   0  0  0  0  0  0
  -24.5451  -15.7650   20.4260 H   0  0  0  0  0  0
  -26.1364  -15.5875   19.8903 H   0  0  0  0  0  0
  -26.7167  -32.5465   23.1125 H   0  0  0  0  0  0
  -25.0062  -33.9730   25.0445 H   0  0  0  0  0  0
  -22.7123  -31.3041   21.4031 H   0  0  0  0  0  0
  -23.3750  -35.9630   23.3278 H   0  0  0  0  0  0
  -24.3603  -36.8930   22.2056 H   0  0  0  0  0  0
  -23.7238  -37.6492   23.6666 H   0  0  0  0  0  0
  -26.0916  -31.5610   20.6097 H   0  0  0  0  0  0
  -26.8391  -30.8421   22.0056 H   0  0  0  0  0  0
  -28.1187  -28.9996   21.1843 H   0  0  0  0  0  0
  -25.9777  -25.9458   18.9882 H   0  0  0  0  0  0
  -23.9741  -27.3081   19.0158 H   0  0  0  0  0  0
  -23.7578  -30.5995   19.4066 H   0  0  0  0  0  0
  -22.7561  -29.2520   19.8539 H   0  0  0  0  0  0
  -25.1277  -36.1941   25.0828 H   0  0  0  0  0  0
  -20.9985  -28.3268   24.1394 H   0  0  0  0  0  0
  -20.5678  -26.2301   23.3601 H   0  0  0  0  0  0
  -21.6652  -26.7436   22.1197 H   0  0  0  0  0  0
  -19.6915  -25.6293   21.1233 H   0  0  0  0  0  0
  -19.6684  -27.3190   20.6730 H   0  0  0  0  0  0
  -17.4201  -26.6655   21.4039 H   0  0  0  0  0  0
  -18.0351  -26.0070   22.9023 H   0  0  0  0  0  0
  -19.7945  -30.7268   24.2266 H   0  0  0  0  0  0
  -17.5021  -31.6262   24.5164 H   0  0  0  0  0  0
  -15.5359  -30.2984   23.7640 H   0  0  0  0  0  0
  -15.8682  -28.0814   22.7058 H   0  0  0  0  0  0
  -24.5876  -30.7117   25.7799 H   0  0  0  0  0  0
  -24.8977  -32.2898   26.4949 H   0  0  0  0  0  0
  -25.8060  -30.8848   27.0218 H   0  0  0  0  0  0
  -26.2899  -29.6746   24.1224 H   0  0  0  0  0  0
  -27.4066  -29.7276   25.4669 H   0  0  0  0  0  0
  -27.8756  -30.4303   23.9376 H   0  0  0  0  0  0
  -27.2733  -33.3612   26.2053 H   0  0  0  0  0  0
  -28.3878  -32.6822   25.0276 H   0  0  0  0  0  0
  -28.0757  -31.8414   26.5377 H   0  0  0  0  0  0
  -28.2569  -38.0120   24.7548 H   0  0  0  0  0  0
  -28.1115  -36.2655   24.6213 H   0  0  0  0  0  0
  -27.2319  -37.1353   25.8860 H   0  0  0  0  0  0
  -20.9362  -29.8791   21.6901 H   0  0  0  0  0  0
  -26.0166  -38.2845   24.1443 H   0  0  0  0  0  0
  -32.1730  -19.8331   20.9404 H   0  0  0  0  0  0
  -32.0891  -17.3769   21.0553 H   0  0  0  0  0  0
  -28.0084  -19.9646   19.9282 H   0  0  0  0  0  0
  -31.1237  -22.0611   20.7042 H   0  0  0  0  0  0
  -28.1822  -22.2528   19.9139 H   0  0  0  0  0  0
  -26.4579  -16.4848   18.2283 H   0  0  0  0  0  0
  -28.1904  -16.1566   18.2303 H   0  0  0  0  0  0
  -27.5913  -17.7473   17.7847 H   0  0  0  0  0  0
  -26.7116  -18.0680   20.1387 H   0  0  0  0  0  0
  -27.3851  -16.5477   20.6266 H   0  0  0  0  0  0
  -27.2953  -24.7236   20.4634 H   0  0  0  0  0  0
  -27.9324  -24.9161   18.8399 H   0  0  0  0  0  0
  -28.8832  -15.4443   20.9062 H   0  0  0  0  0  0
  1 25  1  0  0  0
  1 30  2  0  0  0
  1 83  1  0  0  0
  2  3  1  0  0  0
  2 25  1  0  0  0
  2 85  1  0  0  0
  2 86  1  0  0  0
  3  4  1  0  0  0
  3 87  1  0  0  0
  3 88  1  0  0  0
  4  5  1  0  0  0
  4 89  1  0  0  0
  4 90  1  0  0  0
  5  6  1  0  0  0
  5 26  1  0  0  0
  5 91  1  0  0  0
  6 25  1  0  0  0
  6 92  1  0  0  0
  6 93  1  0  0  0
  7  8  2  0  0  0
  7 26  1  0  0  0
  7 29  1  0  0  0
  8  9  1  0  0  0
  8 22  1  0  0  0
  9 10  1  0  0  0
  9 27  2  0  0  0
 10 11  2  0  0  0
 10 15  1  0  0  0
 11 12  1  0  0  0
 11 94  1  0  0  0
 12 13  2  0  0  0
 12 95  1  0  0  0
 13 14  1  0  0  0
 13 31  1  0  0  0
 14 15  2  0  0  0
 14 96  1  0  0  0
 15 97  1  0  0  0
 16 17  2  0  0  0
 16 21  1  0  0  0
 16 31  1  0  0  0
 17 18  1  0  0  0
 17 98  1  0  0  0
 18 19  2  0  0  0
 18 99  1  0  0  0
 19 20  1  0  0  0
 19 24  1  0  0  0
 20 21  2  0  0  0
 20100  1  0  0  0
 21 23  1  0  0  0
 22 28  1  0  0  0
 22 32  2  0  0  0
 26 27  1  0  0  0
 28101  1  0  0  0
 28102  1  0  0  0
 29103  1  0  0  0
 29104  1  0  0  0
 33 34  1  0  0  0
 33 66  1  0  0  0
 33 70  2  0  0  0
 34 36  1  0  0  0
 34 59  1  0  0  0
 34105  1  0  0  0
 35 44  2  0  0  0
 35 45  1  0  0  0
 35 68  1  0  0  0
 36 56  1  0  0  0
 36106  1  0  0  0
 37 39  1  0  0  0
 37 47  1  0  0  0
 37 66  1  0  0  0
 37107  1  0  0  0
 38 43  2  0  0  0
 38 46  1  0  0  0
 38 47  1  0  0  0
 39 64  1  0  0  0
 39 67  2  0  0  0
 40 52  1  0  0  0
 40 53  2  0  0  0
 40 58  1  0  0  0
 41108  1  0  0  0
 41109  1  0  0  0
 41110  1  0  0  0
 41 48  1  0  0  0
 42 43  1  0  0  0
 42 66  1  0  0  0
 42111  1  0  0  0
 42112  1  0  0  0
 43 44  1  0  0  0
 44113  1  0  0  0
 45 46  2  0  0  0
 45114  1  0  0  0
 46115  1  0  0  0
 47116  1  0  0  0
 47117  1  0  0  0
 48 56  1  0  0  0
 48 65  1  0  0  0
 48118  1  0  0  0
 49 50  1  0  0  0
 49 53  1  0  0  0
 49 64  1  0  0  0
 49119  1  0  0  0
 50 51  1  0  0  0
 50120  1  0  0  0
 50121  1  0  0  0
 51 52  1  0  0  0
 51122  1  0  0  0
 51123  1  0  0  0
 52124  1  0  0  0
 52125  1  0  0  0
 53 54  1  0  0  0
 54 55  2  0  0  0
 54126  1  0  0  0
 55 57  1  0  0  0
 55127  1  0  0  0
 56 69  2  0  0  0
 57 58  2  0  0  0
 57128  1  0  0  0
 58129  1  0  0  0
 59 60  1  0  0  0
 59 61  1  0  0  0
 59 62  1  0  0  0
 60130  1  0  0  0
 60131  1  0  0  0
 60132  1  0  0  0
 61133  1  0  0  0
 61134  1  0  0  0
 61135  1  0  0  0
 62136  1  0  0  0
 62137  1  0  0  0
 62138  1  0  0  0
 63 65  1  0  0  0
 63139  1  0  0  0
 63140  1  0  0  0
 63141  1  0  0  0
 64142  1  0  0  0
 65143  1  0  0  0
 68 82  1  0  0  0
 71 72  2  0  0  0
 71 74  1  0  0  0
 71144  1  0  0  0
 72 76  1  0  0  0
 72145  1  0  0  0
 73 74  2  0  0  0
 73 75  1  0  0  0
 73146  1  0  0  0
 74 77  1  0  0  0
 75 76  2  0  0  0
 75 81  1  0  0  0
 76 83  1  0  0  0
 77 78  2  0  0  0
 77147  1  0  0  0
 78 79  1  0  0  0
 78148  1  0  0  0
 79 82  1  0  0  0
 79 84  2  0  0  0
 80 81  1  0  0  0
 80149  1  0  0  0
 80150  1  0  0  0
 80151  1  0  0  0
 81152  1  0  0  0
 81153  1  0  0  0
 82154  1  0  0  0
 82155  1  0  0  0
 83156  1  0  0  0
M  ISO  4   1 100  68 101  82 101  83 100
M  END
> <chiral flag>
0

> <version>
0

> <s_m_source_file>
/data/baiqing/PycharmProjects/Reinvent-master-3.2/result/LINK_invent/BTK/process_docking_weight1_custom_product_contain_oxygen_bond_distance_aromatic_linkinvent_7_9_3/rearranged_h_0125.sdf

> <i_m_source_file_index>
47

> <r_mmod_Potential_Energy-OPLS-2005>
31.8995704650879

> <r_mmod_Stretch_Energy-OPLS-2005>
77.0539016723633

> <r_mmod_Bend_Energy-OPLS-2005>
127.921928405762

> <r_mmod_Torsional_Energy-OPLS-2005>
216.776718139648

> <r_mmod_Improper_Torsional_Energy-OPLS-2005>
6.49543905258179

> <r_mmod_Van_der_Waal_Energy-OPLS-2005>
146.129379272461

> <r_mmod_Electrostatic_Energy-OPLS-2005>
-364.775726318359

> <r_mmod_Solvation_Energy-OPLS-2005>
-227.465255737305

> <b_mmod_Minimization_Converged-OPLS-2005>
0

> <r_mmod_RMS_Derivative-OPLS-2005>
1.43183290958405

$$$$
47
                    3D
 Structure written by MMmdl.
160168  0  0  1  0            999 V2000
  -30.6871  -14.4791   20.5725 C   0  0  0  0  0  0
  -30.4274  -12.3102   19.4253 C   0  0  0  0  0  0
  -29.5005  -12.5155   18.2090 C   0  0  0  0  0  0
  -28.0200  -12.3768   18.6157 C   0  0  0  0  0  0
  -27.6645  -13.2080   19.8783 C   0  0  2  0  0  0
  -28.7040  -12.9759   20.9981 C   0  0  0  0  0  0
  -25.2587  -13.8147   20.5646 C   0  0  0  0  0  0
  -24.1846  -13.0433   20.9178 C   0  0  0  0  0  0
  -24.6401  -11.6904   20.8738 C   0  0  0  0  0  0
  -23.9069  -10.4295   21.0399 C   0  0  0  0  0  0
  -24.3615   -9.4211   21.9178 C   0  0  0  0  0  0
  -23.6286   -8.2247   22.0753 C   0  0  0  0  0  0
  -22.4266   -8.0290   21.3550 C   0  0  0  0  0  0
  -21.9908   -9.0261   20.4648 C   0  0  0  0  0  0
  -22.7242  -10.2135   20.3045 C   0  0  0  0  0  0
  -21.6862   -6.0736   22.5280 C   0  0  0  0  0  0
  -21.4015   -6.5632   23.8212 C   0  0  0  0  0  0
  -21.3645   -5.6784   24.9174 C   0  0  0  0  0  0
  -21.6035   -4.3052   24.7224 C   0  0  0  0  0  0
  -21.8822   -3.8148   23.4347 C   0  0  0  0  0  0
  -21.9200   -4.6966   22.3404 C   0  0  0  0  0  0
  -22.7867  -13.5243   21.1836 C   0  0  0  0  0  0
  -22.1671   -4.2155   21.0984 F   0  0  0  0  0  0
  -21.5619   -3.4532   25.7732 F   0  0  0  0  0  0
  -30.0388  -13.2875   20.4548 N   0  0  0  0  0  0
  -26.3034  -12.9332   20.3362 N   0  0  0  0  0  0
  -25.9328  -11.6489   20.5755 N   0  0  0  0  0  0
  -22.0487  -12.8253   22.0387 N   0  0  0  0  0  0
  -25.4257  -15.1848   20.3961 N   0  0  0  0  0  0
  -31.8091  -14.6728   20.0952 O   0  0  0  0  0  0
  -21.6644   -6.8880   21.4242 O   0  0  0  0  0  0
  -22.3563  -14.5557   20.6695 O   0  0  0  0  0  0
  -24.6150  -31.8679   23.2097 C   0  0  0  0  0  0
  -25.9049  -32.4818   23.8396 C   0  0  1  0  0  0
  -27.2321  -27.4317   20.1024 C   0  0  0  0  0  0
  -25.5900  -33.8615   24.2330 N   0  0  0  0  0  0
  -23.4038  -30.4902   21.5498 C   0  0  2  0  0  0
  -24.8517  -28.9531   20.1163 C   0  0  0  0  0  0
  -22.7414  -29.4659   22.4987 C   0  0  0  0  0  0
  -18.0278  -28.1380   22.8493 C   0  0  0  0  0  0
  -24.1475  -36.7292   23.2637 C   0  0  0  0  0  0
  -25.9323  -30.8311   21.3642 C   0  0  0  0  0  0
  -26.0105  -29.4630   20.7174 C   0  0  0  0  0  0
  -27.2058  -28.7072   20.7132 C   0  0  0  0  0  0
  -26.0638  -26.9362   19.4924 C   0  0  0  0  0  0
  -24.8724  -27.6870   19.5032 C   0  0  0  0  0  0
  -23.6142  -29.8217   20.1647 C   0  0  0  0  0  0
  -25.4094  -36.3098   24.0343 C   0  0  1  0  0  0
  -20.5872  -28.3671   23.1319 C   0  0  2  0  0  0
  -20.6767  -26.9404   22.5427 C   0  0  0  0  0  0
  -19.5745  -26.6391   21.5216 C   0  0  0  0  0  0
  -18.1924  -26.7930   22.1624 C   0  0  0  0  0  0
  -19.1530  -28.8839   23.2908 C   0  0  0  0  0  0
  -18.9457  -30.1442   23.8928 C   0  0  0  0  0  0
  -17.6459  -30.6584   24.0577 C   0  0  0  0  0  0
  -25.9031  -34.9469   23.5132 C   0  0  0  0  0  0
  -16.5352  -29.9094   23.6317 C   0  0  0  0  0  0
  -16.7269  -28.6509   23.0344 C   0  0  0  0  0  0
  -26.4474  -31.6592   25.0723 C   0  0  0  0  0  0
  -25.3738  -31.3695   26.1471 C   0  0  0  0  0  0
  -27.0301  -30.3035   24.6079 C   0  0  0  0  0  0
  -27.6055  -32.4300   25.7486 C   0  0  0  0  0  0
  -27.5573  -37.1794   24.8463 C   0  0  0  0  0  0
  -21.4143  -29.3033   22.3713 N   0  0  0  0  0  0
  -26.4274  -37.3788   23.9426 N   0  0  0  0  0  0
  -24.6683  -31.0772   22.0999 N   0  0  0  0  0  0
  -23.4178  -28.8201   23.3039 O   0  0  0  0  0  0
  -28.3745  -26.6651   20.0695 O   0  0  0  0  0  0
  -26.5593  -34.8924   22.4693 O   0  0  0  0  0  0
  -23.5342  -32.1444   23.7484 O   0  0  0  0  0  0
  -28.8482  -19.0473   21.3400 C   0  0  0  0  0  0
  -30.9166  -17.5575   20.1725 C   0  0  0  0  0  0
  -28.9120  -17.6426   21.5564 C   0  0  0  0  0  0
  -29.9566  -16.8769   20.9628 C   0  0  0  0  0  0
  -29.8075  -19.7202   20.5431 C   0  0  0  0  0  0
  -30.8413  -18.9504   19.9692 C   0  0  0  0  0  0
  -26.5934  -17.7390   22.7431 C   0  0  0  0  0  0
  -27.8718  -16.9426   22.4388 C   0  0  0  0  0  0
  -28.1312  -24.4260   21.1923 C   0  0  0  0  0  0
  -29.1150  -23.4185   20.5398 C   0  0  0  0  0  0
  -28.6156  -25.9012   21.2580 C   0  0  0  0  0  0
  -28.8017  -21.9296   20.8501 C   0  0  0  0  0  0
  -29.9693  -15.4522   21.1747 N   0  0  0  0  0  0
  -29.8099  -21.0855   20.2837 O   0  0  0  0  0  0
  -31.7820  -19.5590   19.2048 F   0  0  0  0  0  0
  -31.4724  -12.4109   19.1257 H   0  0  0  0  0  0
  -30.3280  -11.2970   19.8160 H   0  0  0  0  0  0
  -29.7418  -11.7958   17.4255 H   0  0  0  0  0  0
  -29.6739  -13.5030   17.7777 H   0  0  0  0  0  0
  -27.8250  -11.3204   18.8026 H   0  0  0  0  0  0
  -27.3755  -12.6633   17.7841 H   0  0  0  0  0  0
  -27.7118  -14.2585   19.5896 H   0  0  0  0  0  0
  -28.6784  -11.9362   21.3267 H   0  0  0  0  0  0
  -28.4571  -13.5614   21.8846 H   0  0  0  0  0  0
  -25.2749   -9.5693   22.4767 H   0  0  0  0  0  0
  -23.9999   -7.4638   22.7465 H   0  0  0  0  0  0
  -21.0844   -8.8778   19.8949 H   0  0  0  0  0  0
  -22.3698  -10.9674   19.6159 H   0  0  0  0  0  0
  -21.2008   -7.6137   23.9719 H   0  0  0  0  0  0
  -21.1453   -6.0511   25.9077 H   0  0  0  0  0  0
  -22.0613   -2.7610   23.2849 H   0  0  0  0  0  0
  -22.4080  -11.9907   22.4786 H   0  0  0  0  0  0
  -21.1106  -13.1304   22.2556 H   0  0  0  0  0  0
  -24.6555  -15.8355   20.5023 H   0  0  0  0  0  0
  -26.2682  -15.6246   20.0511 H   0  0  0  0  0  0
  -26.7124  -32.5540   23.1165 H   0  0  0  0  0  0
  -25.0070  -33.9774   25.0490 H   0  0  0  0  0  0
  -22.6918  -31.3064   21.4102 H   0  0  0  0  0  0
  -23.3745  -35.9616   23.3301 H   0  0  0  0  0  0
  -24.3576  -36.8899   22.2052 H   0  0  0  0  0  0
  -23.7220  -37.6491   23.6655 H   0  0  0  0  0  0
  -26.0436  -31.5930   20.5915 H   0  0  0  0  0  0
  -26.8210  -30.8896   21.9809 H   0  0  0  0  0  0
  -28.1024  -29.0959   21.1760 H   0  0  0  0  0  0
  -26.0771  -25.9657   19.0168 H   0  0  0  0  0  0
  -23.9820  -27.2878   19.0376 H   0  0  0  0  0  0
  -23.7246  -30.5973   19.4055 H   0  0  0  0  0  0
  -22.7376  -29.2432   19.8683 H   0  0  0  0  0  0
  -25.1264  -36.1952   25.0832 H   0  0  0  0  0  0
  -20.9971  -28.3249   24.1438 H   0  0  0  0  0  0
  -20.5671  -26.2276   23.3618 H   0  0  0  0  0  0
  -21.6639  -26.7448   22.1223 H   0  0  0  0  0  0
  -19.6908  -25.6309   21.1230 H   0  0  0  0  0  0
  -19.6680  -27.3213   20.6754 H   0  0  0  0  0  0
  -17.4197  -26.6698   21.4018 H   0  0  0  0  0  0
  -18.0307  -26.0066   22.9007 H   0  0  0  0  0  0
  -19.7933  -30.7243   24.2318 H   0  0  0  0  0  0
  -17.5019  -31.6260   24.5191 H   0  0  0  0  0  0
  -15.5357  -30.3011   23.7618 H   0  0  0  0  0  0
  -15.8669  -28.0835   22.7051 H   0  0  0  0  0  0
  -24.5910  -30.7039   25.7817 H   0  0  0  0  0  0
  -24.8927  -32.2848   26.4924 H   0  0  0  0  0  0
  -25.8091  -30.8869   27.0230 H   0  0  0  0  0  0
  -26.2837  -29.6801   24.1138 H   0  0  0  0  0  0
  -27.4092  -29.7258   25.4521 H   0  0  0  0  0  0
  -27.8662  -30.4363   23.9208 H   0  0  0  0  0  0
  -27.2685  -33.3591   26.2091 H   0  0  0  0  0  0
  -28.3851  -32.6869   25.0305 H   0  0  0  0  0  0
  -28.0737  -31.8406   26.5378 H   0  0  0  0  0  0
  -28.2583  -38.0098   24.7531 H   0  0  0  0  0  0
  -28.1070  -36.2635   24.6247 H   0  0  0  0  0  0
  -27.2305  -37.1402   25.8868 H   0  0  0  0  0  0
  -20.9308  -29.8733   21.6915 H   0  0  0  0  0  0
  -26.0155  -38.2854   24.1456 H   0  0  0  0  0  0
  -28.0526  -19.6185   21.7906 H   0  0  0  0  0  0
  -31.7330  -17.0384   19.6969 H   0  0  0  0  0  0
  -25.8976  -17.1317   23.3220 H   0  0  0  0  0  0
  -26.0819  -18.0335   21.8259 H   0  0  0  0  0  0
  -26.7997  -18.6336   23.3306 H   0  0  0  0  0  0
  -28.3536  -16.6637   23.3774 H   0  0  0  0  0  0
  -27.5662  -16.0110   21.9644 H   0  0  0  0  0  0
  -27.9721  -24.1009   22.2212 H   0  0  0  0  0  0
  -27.1507  -24.3672   20.7187 H   0  0  0  0  0  0
  -30.1245  -23.6297   20.8944 H   0  0  0  0  0  0
  -29.1349  -23.5779   19.4608 H   0  0  0  0  0  0
  -29.6839  -25.9298   21.4725 H   0  0  0  0  0  0
  -28.1434  -26.3875   22.1151 H   0  0  0  0  0  0
  -27.8233  -21.6586   20.4509 H   0  0  0  0  0  0
  -28.7712  -21.7886   21.9317 H   0  0  0  0  0  0
  -29.1560  -15.0938   21.6484 H   0  0  0  0  0  0
  1 25  1  0  0  0
  1 30  2  0  0  0
  1 83  1  0  0  0
  2  3  1  0  0  0
  2 25  1  0  0  0
  2 86  1  0  0  0
  2 87  1  0  0  0
  3  4  1  0  0  0
  3 88  1  0  0  0
  3 89  1  0  0  0
  4  5  1  0  0  0
  4 90  1  0  0  0
  4 91  1  0  0  0
  5  6  1  0  0  0
  5 26  1  0  0  0
  5 92  1  0  0  0
  6 25  1  0  0  0
  6 93  1  0  0  0
  6 94  1  0  0  0
  7  8  2  0  0  0
  7 26  1  0  0  0
  7 29  1  0  0  0
  8  9  1  0  0  0
  8 22  1  0  0  0
  9 10  1  0  0  0
  9 27  2  0  0  0
 10 11  2  0  0  0
 10 15  1  0  0  0
 11 12  1  0  0  0
 11 95  1  0  0  0
 12 13  2  0  0  0
 12 96  1  0  0  0
 13 14  1  0  0  0
 13 31  1  0  0  0
 14 15  2  0  0  0
 14 97  1  0  0  0
 15 98  1  0  0  0
 16 17  2  0  0  0
 16 21  1  0  0  0
 16 31  1  0  0  0
 17 18  1  0  0  0
 17 99  1  0  0  0
 18 19  2  0  0  0
 18100  1  0  0  0
 19 20  1  0  0  0
 19 24  1  0  0  0
 20 21  2  0  0  0
 20101  1  0  0  0
 21 23  1  0  0  0
 22 28  1  0  0  0
 22 32  2  0  0  0
 26 27  1  0  0  0
 28102  1  0  0  0
 28103  1  0  0  0
 29104  1  0  0  0
 29105  1  0  0  0
 33 34  1  0  0  0
 33 66  1  0  0  0
 33 70  2  0  0  0
 34 36  1  0  0  0
 34 59  1  0  0  0
 34106  1  0  0  0
 35 44  2  0  0  0
 35 45  1  0  0  0
 35 68  1  0  0  0
 36 56  1  0  0  0
 36107  1  0  0  0
 37 39  1  0  0  0
 37 47  1  0  0  0
 37 66  1  0  0  0
 37108  1  0  0  0
 38 43  2  0  0  0
 38 46  1  0  0  0
 38 47  1  0  0  0
 39 64  1  0  0  0
 39 67  2  0  0  0
 40 52  1  0  0  0
 40 53  2  0  0  0
 40 58  1  0  0  0
 41109  1  0  0  0
 41110  1  0  0  0
 41111  1  0  0  0
 41 48  1  0  0  0
 42 43  1  0  0  0
 42 66  1  0  0  0
 42112  1  0  0  0
 42113  1  0  0  0
 43 44  1  0  0  0
 44114  1  0  0  0
 45 46  2  0  0  0
 45115  1  0  0  0
 46116  1  0  0  0
 47117  1  0  0  0
 47118  1  0  0  0
 48 56  1  0  0  0
 48 65  1  0  0  0
 48119  1  0  0  0
 49 50  1  0  0  0
 49 53  1  0  0  0
 49 64  1  0  0  0
 49120  1  0  0  0
 50 51  1  0  0  0
 50121  1  0  0  0
 50122  1  0  0  0
 51 52  1  0  0  0
 51123  1  0  0  0
 51124  1  0  0  0
 52125  1  0  0  0
 52126  1  0  0  0
 53 54  1  0  0  0
 54 55  2  0  0  0
 54127  1  0  0  0
 55 57  1  0  0  0
 55128  1  0  0  0
 56 69  2  0  0  0
 57 58  2  0  0  0
 57129  1  0  0  0
 58130  1  0  0  0
 59 60  1  0  0  0
 59 61  1  0  0  0
 59 62  1  0  0  0
 60131  1  0  0  0
 60132  1  0  0  0
 60133  1  0  0  0
 61134  1  0  0  0
 61135  1  0  0  0
 61136  1  0  0  0
 62137  1  0  0  0
 62138  1  0  0  0
 62139  1  0  0  0
 63 65  1  0  0  0
 63140  1  0  0  0
 63141  1  0  0  0
 63142  1  0  0  0
 64143  1  0  0  0
 65144  1  0  0  0
 68 81  1  0  0  0
 71 73  2  0  0  0
 71 75  1  0  0  0
 71145  1  0  0  0
 72 74  2  0  0  0
 72 76  1  0  0  0
 72146  1  0  0  0
 73 74  1  0  0  0
 73 78  1  0  0  0
 74 83  1  0  0  0
 75 76  2  0  0  0
 75 84  1  0  0  0
 76 85  1  0  0  0
 77 78  1  0  0  0
 77147  1  0  0  0
 77148  1  0  0  0
 77149  1  0  0  0
 78150  1  0  0  0
 78151  1  0  0  0
 79 80  1  0  0  0
 79 81  1  0  0  0
 79152  1  0  0  0
 79153  1  0  0  0
 80 82  1  0  0  0
 80154  1  0  0  0
 80155  1  0  0  0
 81156  1  0  0  0
 81157  1  0  0  0
 82 84  1  0  0  0
 82158  1  0  0  0
 82159  1  0  0  0
 83160  1  0  0  0
M  ISO  4   1 100  68 101  81 101  83 100
M  END
> <chiral flag>
0

> <version>
0

> <s_m_source_file>
/data/baiqing/PycharmProjects/Reinvent-master-3.2/result/LINK_invent/BTK/process_docking_weight1_custom_product_contain_oxygen_bond_distance_aromatic_linkinvent_7_9_3/rearranged_h_0125.sdf

> <i_m_source_file_index>
48

> <r_mmod_Potential_Energy-OPLS-2005>
-11.179235458374

> <r_mmod_Stretch_Energy-OPLS-2005>
41.3174133300781

> <r_mmod_Bend_Energy-OPLS-2005>
109.194671630859

> <r_mmod_Torsional_Energy-OPLS-2005>
237.885269165039

> <r_mmod_Improper_Torsional_Energy-OPLS-2005>
3.5232572555542

> <r_mmod_Van_der_Waal_Energy-OPLS-2005>
152.123001098633

> <r_mmod_Electrostatic_Energy-OPLS-2005>
-364.210235595703

> <r_mmod_Solvation_Energy-OPLS-2005>
-203.400177001953

> <b_mmod_Minimization_Converged-OPLS-2005>
0

> <r_mmod_RMS_Derivative-OPLS-2005>
1.47913444042206

$$$$
48
                    3D
 Structure written by MMmdl.
157165  0  0  1  0            999 V2000
  -30.7275  -14.4797   20.6173 C   0  0  0  0  0  0
  -30.4257  -12.3329   19.4187 C   0  0  0  0  0  0
  -29.4951  -12.5136   18.2034 C   0  0  0  0  0  0
  -28.0195  -12.3632   18.6218 C   0  0  0  0  0  0
  -27.6615  -13.2108   19.8721 C   0  0  2  0  0  0
  -28.7046  -13.0080   20.9926 C   0  0  0  0  0  0
  -25.2597  -13.8162   20.5690 C   0  0  0  0  0  0
  -24.1857  -13.0434   20.9196 C   0  0  0  0  0  0
  -24.6415  -11.6904   20.8744 C   0  0  0  0  0  0
  -23.9081  -10.4288   21.0407 C   0  0  0  0  0  0
  -24.3627   -9.4201   21.9185 C   0  0  0  0  0  0
  -23.6299   -8.2239   22.0751 C   0  0  0  0  0  0
  -22.4278   -8.0282   21.3544 C   0  0  0  0  0  0
  -21.9918   -9.0258   20.4644 C   0  0  0  0  0  0
  -22.7253  -10.2134   20.3055 C   0  0  0  0  0  0
  -21.6853   -6.0742   22.5278 C   0  0  0  0  0  0
  -21.4011   -6.5640   23.8213 C   0  0  0  0  0  0
  -21.3657   -5.6792   24.9172 C   0  0  0  0  0  0
  -21.6046   -4.3059   24.7219 C   0  0  0  0  0  0
  -21.8821   -3.8152   23.4339 C   0  0  0  0  0  0
  -21.9191   -4.6970   22.3396 C   0  0  0  0  0  0
  -22.7877  -13.5229   21.1847 C   0  0  0  0  0  0
  -22.1668   -4.2161   21.0977 F   0  0  0  0  0  0
  -21.5621   -3.4535   25.7727 F   0  0  0  0  0  0
  -30.0301  -13.3227   20.4347 N   0  0  0  0  0  0
  -26.3035  -12.9341   20.3362 N   0  0  0  0  0  0
  -25.9342  -11.6498   20.5774 N   0  0  0  0  0  0
  -22.0516  -12.8221   22.0401 N   0  0  0  0  0  0
  -25.4303  -15.1880   20.4081 N   0  0  0  0  0  0
  -31.8384  -14.6682   20.1137 O   0  0  0  0  0  0
  -21.6637   -6.8884   21.4246 O   0  0  0  0  0  0
  -22.3564  -14.5537   20.6695 O   0  0  0  0  0  0
  -24.6153  -31.8693   23.2116 C   0  0  0  0  0  0
  -25.9035  -32.4847   23.8417 C   0  0  1  0  0  0
  -27.2199  -27.4099   20.0893 C   0  0  0  0  0  0
  -25.5887  -33.8642   24.2345 N   0  0  0  0  0  0
  -23.4040  -30.4965   21.5514 C   0  0  2  0  0  0
  -24.8455  -28.9652   20.1125 C   0  0  0  0  0  0
  -22.7410  -29.4676   22.4970 C   0  0  0  0  0  0
  -18.0270  -28.1384   22.8516 C   0  0  0  0  0  0
  -24.1477  -36.7302   23.2645 C   0  0  0  0  0  0
  -25.9377  -30.8257   21.3702 C   0  0  0  0  0  0
  -26.0098  -29.4601   20.7129 C   0  0  0  0  0  0
  -27.1976  -28.6888   20.7013 C   0  0  0  0  0  0
  -26.0336  -26.9484   19.4673 C   0  0  0  0  0  0
  -24.8534  -27.7096   19.4880 C   0  0  0  0  0  0
  -23.6122  -29.8364   20.1644 C   0  0  0  0  0  0
  -25.4099  -36.3123   24.0359 C   0  0  1  0  0  0
  -20.5869  -28.3669   23.1315 C   0  0  2  0  0  0
  -20.6765  -26.9409   22.5408 C   0  0  0  0  0  0
  -19.5733  -26.6395   21.5216 C   0  0  0  0  0  0
  -18.1912  -26.7940   22.1635 C   0  0  0  0  0  0
  -19.1527  -28.8843   23.2922 C   0  0  0  0  0  0
  -18.9456  -30.1450   23.8932 C   0  0  0  0  0  0
  -17.6460  -30.6601   24.0572 C   0  0  0  0  0  0
  -25.9032  -34.9486   23.5148 C   0  0  0  0  0  0
  -16.5348  -29.9103   23.6341 C   0  0  0  0  0  0
  -16.7263  -28.6512   23.0388 C   0  0  0  0  0  0
  -26.4456  -31.6634   25.0748 C   0  0  0  0  0  0
  -25.3723  -31.3750   26.1503 C   0  0  0  0  0  0
  -27.0280  -30.3075   24.6135 C   0  0  0  0  0  0
  -27.6035  -32.4353   25.7496 C   0  0  0  0  0  0
  -27.5580  -37.1812   24.8473 C   0  0  0  0  0  0
  -21.4139  -29.3043   22.3714 N   0  0  0  0  0  0
  -26.4284  -37.3808   23.9429 N   0  0  0  0  0  0
  -24.6709  -31.0782   22.1020 N   0  0  0  0  0  0
  -23.4181  -28.8212   23.3013 O   0  0  0  0  0  0
  -28.3781  -26.6473   20.1268 O   0  0  0  0  0  0
  -26.5585  -34.8936   22.4702 O   0  0  0  0  0  0
  -23.5337  -32.1439   23.7491 O   0  0  0  0  0  0
  -29.4361  -20.0088   21.2148 C   0  0  0  0  0  0
  -29.4991  -18.5963   21.3679 C   0  0  0  0  0  0
  -31.8687  -18.7715   21.7729 C   0  0  0  0  0  0
  -30.5742  -20.8469   21.3883 C   0  0  0  0  0  0
  -30.7202  -17.9638   21.6896 C   0  0  0  0  0  0
  -31.8214  -20.1756   21.6145 C   0  0  0  0  0  0
  -29.3055  -23.1289   20.7719 C   0  0  0  0  0  0
  -29.4173  -24.4081   20.3240 C   0  0  0  0  0  0
  -30.4384  -22.3660   21.3748 C   0  0  0  0  0  0
  -33.1661  -20.8916   21.7060 C   0  0  0  0  0  0
  -30.8513  -16.4835   22.1015 C   0  0  0  0  0  0
  -28.2857  -25.2547   19.7546 C   0  0  0  0  0  0
  -31.2867  -23.0873   21.9790 N   0  0  0  0  0  0
  -30.1315  -15.4321   21.3630 N   0  0  0  0  0  0
  -31.4684  -12.4393   19.1147 H   0  0  0  0  0  0
  -30.3390  -11.3236   19.8241 H   0  0  0  0  0  0
  -29.7418  -11.7860   17.4292 H   0  0  0  0  0  0
  -29.6552  -13.4986   17.7618 H   0  0  0  0  0  0
  -27.8449  -11.3075   18.8323 H   0  0  0  0  0  0
  -27.3623  -12.6212   17.7904 H   0  0  0  0  0  0
  -27.7031  -14.2573   19.5692 H   0  0  0  0  0  0
  -28.6912  -11.9748   21.3422 H   0  0  0  0  0  0
  -28.4576  -13.6113   21.8662 H   0  0  0  0  0  0
  -25.2774   -9.5667   22.4763 H   0  0  0  0  0  0
  -24.0005   -7.4623   22.7458 H   0  0  0  0  0  0
  -21.0850   -8.8779   19.8946 H   0  0  0  0  0  0
  -22.3717  -10.9676   19.6160 H   0  0  0  0  0  0
  -21.2014   -7.6148   23.9720 H   0  0  0  0  0  0
  -21.1477   -6.0520   25.9077 H   0  0  0  0  0  0
  -22.0605   -2.7616   23.2830 H   0  0  0  0  0  0
  -22.4131  -11.9885   22.4799 H   0  0  0  0  0  0
  -21.1127  -13.1237   22.2584 H   0  0  0  0  0  0
  -24.6614  -15.8414   20.5092 H   0  0  0  0  0  0
  -26.2794  -15.6251   20.0723 H   0  0  0  0  0  0
  -26.7105  -32.5547   23.1176 H   0  0  0  0  0  0
  -25.0050  -33.9826   25.0502 H   0  0  0  0  0  0
  -22.6930  -31.3149   21.4156 H   0  0  0  0  0  0
  -23.3752  -35.9625   23.3318 H   0  0  0  0  0  0
  -24.3563  -36.8890   22.2053 H   0  0  0  0  0  0
  -23.7213  -37.6510   23.6640 H   0  0  0  0  0  0
  -26.0598  -31.5936   20.6052 H   0  0  0  0  0  0
  -26.8226  -30.8719   21.9943 H   0  0  0  0  0  0
  -28.0927  -29.0655   21.1765 H   0  0  0  0  0  0
  -25.9870  -26.0007   18.9517 H   0  0  0  0  0  0
  -23.9592  -27.3267   19.0136 H   0  0  0  0  0  0
  -23.7261  -30.6137   19.4075 H   0  0  0  0  0  0
  -22.7344  -29.2614   19.8648 H   0  0  0  0  0  0
  -25.1274  -36.1988   25.0856 H   0  0  0  0  0  0
  -20.9989  -28.3222   24.1432 H   0  0  0  0  0  0
  -20.5651  -26.2288   23.3597 H   0  0  0  0  0  0
  -21.6638  -26.7440   22.1210 H   0  0  0  0  0  0
  -19.6879  -25.6305   21.1252 H   0  0  0  0  0  0
  -19.6677  -27.3205   20.6744 H   0  0  0  0  0  0
  -17.4192  -26.6725   21.4022 H   0  0  0  0  0  0
  -18.0286  -26.0066   22.9012 H   0  0  0  0  0  0
  -19.7924  -30.7260   24.2326 H   0  0  0  0  0  0
  -17.5016  -31.6292   24.5150 H   0  0  0  0  0  0
  -15.5354  -30.3025   23.7641 H   0  0  0  0  0  0
  -15.8661  -28.0823   22.7121 H   0  0  0  0  0  0
  -24.5872  -30.7123   25.7839 H   0  0  0  0  0  0
  -24.8947  -32.2919   26.4965 H   0  0  0  0  0  0
  -25.8075  -30.8900   27.0247 H   0  0  0  0  0  0
  -26.2819  -29.6856   24.1171 H   0  0  0  0  0  0
  -27.4018  -29.7299   25.4599 H   0  0  0  0  0  0
  -27.8686  -30.4399   23.9315 H   0  0  0  0  0  0
  -27.2654  -33.3637   26.2099 H   0  0  0  0  0  0
  -28.3821  -32.6926   25.0305 H   0  0  0  0  0  0
  -28.0735  -31.8465   26.5382 H   0  0  0  0  0  0
  -28.2621  -38.0088   24.7509 H   0  0  0  0  0  0
  -28.1050  -36.2622   24.6302 H   0  0  0  0  0  0
  -27.2303  -37.1463   25.8878 H   0  0  0  0  0  0
  -20.9263  -29.8786   21.6976 H   0  0  0  0  0  0
  -26.0173  -38.2892   24.1419 H   0  0  0  0  0  0
  -28.4694  -20.4483   21.0210 H   0  0  0  0  0  0
  -28.5924  -18.0130   21.2946 H   0  0  0  0  0  0
  -32.8160  -18.3041   22.0047 H   0  0  0  0  0  0
  -28.3593  -22.6122   20.7143 H   0  0  0  0  0  0
  -30.3772  -24.9046   20.3582 H   0  0  0  0  0  0
  -33.9957  -20.1999   21.5586 H   0  0  0  0  0  0
  -33.2993  -21.3484   22.6877 H   0  0  0  0  0  0
  -33.2628  -21.6572   20.9356 H   0  0  0  0  0  0
  -30.5039  -16.4222   23.1338 H   0  0  0  0  0  0
  -31.9110  -16.2246   22.1601 H   0  0  0  0  0  0
  -27.3583  -24.8028   20.1077 H   0  0  0  0  0  0
  -28.3027  -25.1792   18.6665 H   0  0  0  0  0  0
  -32.0095  -22.5150   22.3995 H   0  0  0  0  0  0
  -29.1906  -15.2344   21.6679 H   0  0  0  0  0  0
  1 25  1  0  0  0
  1 30  2  0  0  0
  1 84  1  0  0  0
  2  3  1  0  0  0
  2 25  1  0  0  0
  2 85  1  0  0  0
  2 86  1  0  0  0
  3  4  1  0  0  0
  3 87  1  0  0  0
  3 88  1  0  0  0
  4  5  1  0  0  0
  4 89  1  0  0  0
  4 90  1  0  0  0
  5  6  1  0  0  0
  5 26  1  0  0  0
  5 91  1  0  0  0
  6 25  1  0  0  0
  6 92  1  0  0  0
  6 93  1  0  0  0
  7  8  2  0  0  0
  7 26  1  0  0  0
  7 29  1  0  0  0
  8  9  1  0  0  0
  8 22  1  0  0  0
  9 10  1  0  0  0
  9 27  2  0  0  0
 10 11  2  0  0  0
 10 15  1  0  0  0
 11 12  1  0  0  0
 11 94  1  0  0  0
 12 13  2  0  0  0
 12 95  1  0  0  0
 13 14  1  0  0  0
 13 31  1  0  0  0
 14 15  2  0  0  0
 14 96  1  0  0  0
 15 97  1  0  0  0
 16 17  2  0  0  0
 16 21  1  0  0  0
 16 31  1  0  0  0
 17 18  1  0  0  0
 17 98  1  0  0  0
 18 19  2  0  0  0
 18 99  1  0  0  0
 19 20  1  0  0  0
 19 24  1  0  0  0
 20 21  2  0  0  0
 20100  1  0  0  0
 21 23  1  0  0  0
 22 28  1  0  0  0
 22 32  2  0  0  0
 26 27  1  0  0  0
 28101  1  0  0  0
 28102  1  0  0  0
 29103  1  0  0  0
 29104  1  0  0  0
 33 34  1  0  0  0
 33 66  1  0  0  0
 33 70  2  0  0  0
 34 36  1  0  0  0
 34 59  1  0  0  0
 34105  1  0  0  0
 35 44  2  0  0  0
 35 45  1  0  0  0
 35 68  1  0  0  0
 36 56  1  0  0  0
 36106  1  0  0  0
 37 39  1  0  0  0
 37 47  1  0  0  0
 37 66  1  0  0  0
 37107  1  0  0  0
 38 43  2  0  0  0
 38 46  1  0  0  0
 38 47  1  0  0  0
 39 64  1  0  0  0
 39 67  2  0  0  0
 40 52  1  0  0  0
 40 53  2  0  0  0
 40 58  1  0  0  0
 41108  1  0  0  0
 41109  1  0  0  0
 41110  1  0  0  0
 41 48  1  0  0  0
 42 43  1  0  0  0
 42 66  1  0  0  0
 42111  1  0  0  0
 42112  1  0  0  0
 43 44  1  0  0  0
 44113  1  0  0  0
 45 46  2  0  0  0
 45114  1  0  0  0
 46115  1  0  0  0
 47116  1  0  0  0
 47117  1  0  0  0
 48 56  1  0  0  0
 48 65  1  0  0  0
 48118  1  0  0  0
 49 50  1  0  0  0
 49 53  1  0  0  0
 49 64  1  0  0  0
 49119  1  0  0  0
 50 51  1  0  0  0
 50120  1  0  0  0
 50121  1  0  0  0
 51 52  1  0  0  0
 51122  1  0  0  0
 51123  1  0  0  0
 52124  1  0  0  0
 52125  1  0  0  0
 53 54  1  0  0  0
 54 55  2  0  0  0
 54126  1  0  0  0
 55 57  1  0  0  0
 55127  1  0  0  0
 56 69  2  0  0  0
 57 58  2  0  0  0
 57128  1  0  0  0
 58129  1  0  0  0
 59 60  1  0  0  0
 59 61  1  0  0  0
 59 62  1  0  0  0
 60130  1  0  0  0
 60131  1  0  0  0
 60132  1  0  0  0
 61133  1  0  0  0
 61134  1  0  0  0
 61135  1  0  0  0
 62136  1  0  0  0
 62137  1  0  0  0
 62138  1  0  0  0
 63 65  1  0  0  0
 63139  1  0  0  0
 63140  1  0  0  0
 63141  1  0  0  0
 64142  1  0  0  0
 65143  1  0  0  0
 68 82  1  0  0  0
 71 72  2  0  0  0
 71 74  1  0  0  0
 71144  1  0  0  0
 72 75  1  0  0  0
 72145  1  0  0  0
 73 75  2  0  0  0
 73 76  1  0  0  0
 73146  1  0  0  0
 74 76  2  0  0  0
 74 79  1  0  0  0
 75 81  1  0  0  0
 76 80  1  0  0  0
 77 78  2  0  0  0
 77 79  1  0  0  0
 77147  1  0  0  0
 78 82  1  0  0  0
 78148  1  0  0  0
 79 83  2  0  0  0
 80149  1  0  0  0
 80150  1  0  0  0
 80151  1  0  0  0
 81 84  1  0  0  0
 81152  1  0  0  0
 81153  1  0  0  0
 82154  1  0  0  0
 82155  1  0  0  0
 83156  1  0  0  0
 84157  1  0  0  0
M  ISO  4   1 100  68 101  82 101  84 100
M  END
> <chiral flag>
0

> <version>
0

> <s_m_source_file>
/data/baiqing/PycharmProjects/Reinvent-master-3.2/result/LINK_invent/BTK/process_docking_weight1_custom_product_contain_oxygen_bond_distance_aromatic_linkinvent_7_9_3/rearranged_h_0125.sdf

> <i_m_source_file_index>
49

> <r_mmod_Potential_Energy-OPLS-2005>
-63.4029159545898

> <r_mmod_Stretch_Energy-OPLS-2005>
47.4883460998535

> <r_mmod_Bend_Energy-OPLS-2005>
112.37638092041

> <r_mmod_Torsional_Energy-OPLS-2005>
214.379608154297

> <r_mmod_Improper_Torsional_Energy-OPLS-2005>
3.81786060333252

> <r_mmod_Van_der_Waal_Energy-OPLS-2005>
175.483459472656

> <r_mmod_Electrostatic_Energy-OPLS-2005>
-410.859527587891

> <r_mmod_Solvation_Energy-OPLS-2005>
-222.21369934082

> <b_mmod_Minimization_Converged-OPLS-2005>
0

> <r_mmod_RMS_Derivative-OPLS-2005>
1.68678653240204

$$$$
49
                    3D
 Structure written by MMmdl.
155163  0  0  1  0            999 V2000
  -30.6312  -14.7534   20.4730 C   0  0  0  0  0  0
  -30.4150  -12.4931   19.4430 C   0  0  0  0  0  0
  -29.4925  -12.5557   18.2067 C   0  0  0  0  0  0
  -28.0200  -12.3702   18.6191 C   0  0  0  0  0  0
  -27.6341  -13.2511   19.8416 C   0  0  2  0  0  0
  -28.6862  -13.1532   20.9633 C   0  0  0  0  0  0
  -25.2460  -13.8240   20.5631 C   0  0  0  0  0  0
  -24.1820  -13.0493   20.9133 C   0  0  0  0  0  0
  -24.6421  -11.6952   20.8631 C   0  0  0  0  0  0
  -23.9118  -10.4360   21.0335 C   0  0  0  0  0  0
  -24.3682   -9.4292   21.9164 C   0  0  0  0  0  0
  -23.6362   -8.2318   22.0769 C   0  0  0  0  0  0
  -22.4329   -8.0335   21.3556 C   0  0  0  0  0  0
  -21.9943   -9.0280   20.4647 C   0  0  0  0  0  0
  -22.7261  -10.2166   20.3024 C   0  0  0  0  0  0
  -21.6901   -6.0766   22.5259 C   0  0  0  0  0  0
  -21.4061   -6.5689   23.8181 C   0  0  0  0  0  0
  -21.3646   -5.6835   24.9145 C   0  0  0  0  0  0
  -21.6038   -4.3085   24.7182 C   0  0  0  0  0  0
  -21.8829   -3.8192   23.4296 C   0  0  0  0  0  0
  -21.9232   -4.7013   22.3377 C   0  0  0  0  0  0
  -22.7848  -13.5221   21.1844 C   0  0  0  0  0  0
  -22.1700   -4.2210   21.0934 F   0  0  0  0  0  0
  -21.5603   -3.4558   25.7676 F   0  0  0  0  0  0
  -29.9554  -13.5569   20.3616 N   0  0  0  0  0  0
  -26.2912  -12.9518   20.3207 N   0  0  0  0  0  0
  -25.9370  -11.6622   20.5633 N   0  0  0  0  0  0
  -22.0555  -12.8175   22.0372 N   0  0  0  0  0  0
  -25.4042  -15.1957   20.4065 N   0  0  0  0  0  0
  -31.8534  -14.7500   20.3357 O   0  0  0  0  0  0
  -21.6699   -6.8921   21.4218 O   0  0  0  0  0  0
  -22.3495  -14.5532   20.6689 O   0  0  0  0  0  0
  -24.6300  -31.8600   23.1982 C   0  0  0  0  0  0
  -25.9086  -32.4790   23.8411 C   0  0  1  0  0  0
  -27.2281  -27.3058   20.1125 C   0  0  0  0  0  0
  -25.5910  -33.8592   24.2373 N   0  0  0  0  0  0
  -23.4311  -30.4723   21.5439 C   0  0  2  0  0  0
  -24.8857  -28.9365   20.1094 C   0  0  0  0  0  0
  -22.7543  -29.4513   22.4925 C   0  0  0  0  0  0
  -18.0325  -28.1379   22.8325 C   0  0  0  0  0  0
  -24.1498  -36.7278   23.2663 C   0  0  0  0  0  0
  -25.9709  -30.7980   21.3744 C   0  0  0  0  0  0
  -26.0589  -29.4273   20.6989 C   0  0  0  0  0  0
  -27.2450  -28.6258   20.6711 C   0  0  0  0  0  0
  -26.0373  -26.8786   19.4855 C   0  0  0  0  0  0
  -24.8831  -27.6814   19.4793 C   0  0  0  0  0  0
  -23.6474  -29.8038   20.1607 C   0  0  0  0  0  0
  -25.4117  -36.3110   24.0361 C   0  0  1  0  0  0
  -20.5935  -28.3658   23.1267 C   0  0  2  0  0  0
  -20.6797  -26.9319   22.5316 C   0  0  0  0  0  0
  -19.5791  -26.6409   21.5012 C   0  0  0  0  0  0
  -18.1949  -26.8022   22.1336 C   0  0  0  0  0  0
  -19.1609  -28.8823   23.2785 C   0  0  0  0  0  0
  -18.9564  -30.1369   23.8885 C   0  0  0  0  0  0
  -17.6603  -30.6567   24.0547 C   0  0  0  0  0  0
  -25.9009  -34.9446   23.5148 C   0  0  0  0  0  0
  -16.5483  -29.9082   23.6264 C   0  0  0  0  0  0
  -16.7327  -28.6505   23.0239 C   0  0  0  0  0  0
  -26.4478  -31.6580   25.0779 C   0  0  0  0  0  0
  -25.3713  -31.3658   26.1515 C   0  0  0  0  0  0
  -27.0358  -30.3017   24.6219 C   0  0  0  0  0  0
  -27.6071  -32.4308   25.7545 C   0  0  0  0  0  0
  -27.5593  -37.1805   24.8470 C   0  0  0  0  0  0
  -21.4217  -29.3123   22.3801 N   0  0  0  0  0  0
  -26.4320  -37.3788   23.9371 N   0  0  0  0  0  0
  -24.6957  -31.0585   22.0963 N   0  0  0  0  0  0
  -23.4308  -28.7902   23.2878 O   0  0  0  0  0  0
  -28.3021  -26.4036   20.1568 O   0  0  0  0  0  0
  -26.5552  -34.8902   22.4703 O   0  0  0  0  0  0
  -23.5431  -32.1259   23.7308 O   0  0  0  0  0  0
  -27.4974  -19.1080   21.6845 C   0  0  0  0  0  0
  -28.2970  -16.7636   21.7150 C   0  0  0  0  0  0
  -29.3240  -18.4115   20.2482 C   0  0  0  0  0  0
  -27.4178  -17.7764   22.1764 C   0  0  0  0  0  0
  -28.4671  -19.4830   20.7265 C   0  0  0  0  0  0
  -29.2507  -17.0302   20.7114 C   0  0  0  0  0  0
  -28.4286  -23.7374   20.1751 C   0  0  0  0  0  0
  -26.3263  -17.4147   23.1706 C   0  0  0  0  0  0
  -28.4225  -20.9625   20.1162 C   0  0  0  0  0  0
  -28.3595  -22.3467   20.9659 C   0  0  0  0  0  0
  -28.0866  -25.1153   20.8971 C   0  0  0  0  0  0
  -30.0284  -15.9450   20.0787 N   0  0  0  0  0  0
  -28.7837  -23.7560   18.9912 O   0  0  0  0  0  0
  -31.4526  -12.6212   19.1429 H   0  0  0  0  0  0
  -30.3616  -11.5154   19.9202 H   0  0  0  0  0  0
  -29.7721  -11.8024   17.4678 H   0  0  0  0  0  0
  -29.6120  -13.5221   17.7187 H   0  0  0  0  0  0
  -27.8725  -11.3177   18.8548 H   0  0  0  0  0  0
  -27.3541  -12.5893   17.7835 H   0  0  0  0  0  0
  -27.6289  -14.2815   19.4922 H   0  0  0  0  0  0
  -28.7428  -12.1280   21.3299 H   0  0  0  0  0  0
  -28.4279  -13.7496   21.8354 H   0  0  0  0  0  0
  -25.2794   -9.5827   22.4761 H   0  0  0  0  0  0
  -24.0076   -7.4736   22.7526 H   0  0  0  0  0  0
  -21.0876   -8.8803   19.8975 H   0  0  0  0  0  0
  -22.3678  -10.9712   19.6174 H   0  0  0  0  0  0
  -21.2084   -7.6201   23.9687 H   0  0  0  0  0  0
  -21.1432   -6.0559   25.9028 H   0  0  0  0  0  0
  -22.0613   -2.7652   23.2746 H   0  0  0  0  0  0
  -22.4274  -11.9859   22.4784 H   0  0  0  0  0  0
  -21.1145  -13.1219   22.2596 H   0  0  0  0  0  0
  -24.6546  -15.8498   20.5771 H   0  0  0  0  0  0
  -26.2595  -15.6403   20.1027 H   0  0  0  0  0  0
  -26.7187  -32.5480   23.1234 H   0  0  0  0  0  0
  -25.0160  -33.9825   25.0603 H   0  0  0  0  0  0
  -22.7251  -31.2854   21.3873 H   0  0  0  0  0  0
  -23.3796  -35.9581   23.3300 H   0  0  0  0  0  0
  -24.3624  -36.8891   22.2084 H   0  0  0  0  0  0
  -23.7180  -37.6456   23.6646 H   0  0  0  0  0  0
  -26.1053  -31.5940   20.6422 H   0  0  0  0  0  0
  -26.8479  -30.8431   22.0041 H   0  0  0  0  0  0
  -28.1626  -29.0053   21.1013 H   0  0  0  0  0  0
  -25.9860  -25.9080   19.0074 H   0  0  0  0  0  0
  -23.9846  -27.3222   19.0015 H   0  0  0  0  0  0
  -23.7619  -30.5761   19.3991 H   0  0  0  0  0  0
  -22.7728  -29.2060   19.8736 H   0  0  0  0  0  0
  -25.1293  -36.2051   25.0852 H   0  0  0  0  0  0
  -20.9816  -28.3206   24.1465 H   0  0  0  0  0  0
  -20.5627  -26.2171   23.3545 H   0  0  0  0  0  0
  -21.6624  -26.7424   22.1098 H   0  0  0  0  0  0
  -19.6909  -25.6407   21.0870 H   0  0  0  0  0  0
  -19.6754  -27.3095   20.6529 H   0  0  0  0  0  0
  -17.4298  -26.6955   21.3603 H   0  0  0  0  0  0
  -18.0180  -26.0210   22.8736 H   0  0  0  0  0  0
  -19.8115  -30.6992   24.2295 H   0  0  0  0  0  0
  -17.5210  -31.6188   24.5294 H   0  0  0  0  0  0
  -15.5523  -30.2955   23.7658 H   0  0  0  0  0  0
  -15.8765  -28.0939   22.6849 H   0  0  0  0  0  0
  -24.5955  -30.6985   25.7769 H   0  0  0  0  0  0
  -24.8877  -32.2788   26.4953 H   0  0  0  0  0  0
  -25.8106  -30.8795   27.0239 H   0  0  0  0  0  0
  -26.2978  -29.6760   24.1197 H   0  0  0  0  0  0
  -27.3989  -29.7318   25.4772 H   0  0  0  0  0  0
  -27.8843  -30.4309   23.9512 H   0  0  0  0  0  0
  -27.2736  -33.3626   26.2093 H   0  0  0  0  0  0
  -28.3888  -32.6799   25.0374 H   0  0  0  0  0  0
  -28.0686  -31.8424   26.5464 H   0  0  0  0  0  0
  -28.2607  -38.0116   24.7518 H   0  0  0  0  0  0
  -28.1110  -36.2630   24.6315 H   0  0  0  0  0  0
  -27.2289  -37.1445   25.8883 H   0  0  0  0  0  0
  -20.9312  -29.9540   21.7732 H   0  0  0  0  0  0
  -26.0226  -38.2879   24.1404 H   0  0  0  0  0  0
  -26.7633  -19.8325   22.0265 H   0  0  0  0  0  0
  -28.1919  -15.7710   22.1097 H   0  0  0  0  0  0
  -30.0301  -18.6583   19.4694 H   0  0  0  0  0  0
  -25.8976  -18.3060   23.6244 H   0  0  0  0  0  0
  -26.6921  -16.7900   23.9831 H   0  0  0  0  0  0
  -25.5194  -16.8739   22.6804 H   0  0  0  0  0  0
  -27.5091  -20.9594   19.5278 H   0  0  0  0  0  0
  -29.2068  -21.0661   19.3723 H   0  0  0  0  0  0
  -27.4443  -22.3554   21.5614 H   0  0  0  0  0  0
  -29.1842  -22.4093   21.6849 H   0  0  0  0  0  0
  -27.0595  -25.0414   21.2569 H   0  0  0  0  0  0
  -28.7434  -25.1520   21.7720 H   0  0  0  0  0  0
  -30.7036  -16.3739   19.4593 H   0  0  0  0  0  0
  1 25  1  0  0  0
  1 30  2  0  0  0
  1 82  1  0  0  0
  2  3  1  0  0  0
  2 25  1  0  0  0
  2 84  1  0  0  0
  2 85  1  0  0  0
  3  4  1  0  0  0
  3 86  1  0  0  0
  3 87  1  0  0  0
  4  5  1  0  0  0
  4 88  1  0  0  0
  4 89  1  0  0  0
  5  6  1  0  0  0
  5 26  1  0  0  0
  5 90  1  0  0  0
  6 25  1  0  0  0
  6 91  1  0  0  0
  6 92  1  0  0  0
  7  8  2  0  0  0
  7 26  1  0  0  0
  7 29  1  0  0  0
  8  9  1  0  0  0
  8 22  1  0  0  0
  9 10  1  0  0  0
  9 27  2  0  0  0
 10 11  2  0  0  0
 10 15  1  0  0  0
 11 12  1  0  0  0
 11 93  1  0  0  0
 12 13  2  0  0  0
 12 94  1  0  0  0
 13 14  1  0  0  0
 13 31  1  0  0  0
 14 15  2  0  0  0
 14 95  1  0  0  0
 15 96  1  0  0  0
 16 17  2  0  0  0
 16 21  1  0  0  0
 16 31  1  0  0  0
 17 18  1  0  0  0
 17 97  1  0  0  0
 18 19  2  0  0  0
 18 98  1  0  0  0
 19 20  1  0  0  0
 19 24  1  0  0  0
 20 21  2  0  0  0
 20 99  1  0  0  0
 21 23  1  0  0  0
 22 28  1  0  0  0
 22 32  2  0  0  0
 26 27  1  0  0  0
 28100  1  0  0  0
 28101  1  0  0  0
 29102  1  0  0  0
 29103  1  0  0  0
 33 34  1  0  0  0
 33 66  1  0  0  0
 33 70  2  0  0  0
 34 36  1  0  0  0
 34 59  1  0  0  0
 34104  1  0  0  0
 35 44  2  0  0  0
 35 45  1  0  0  0
 35 68  1  0  0  0
 36 56  1  0  0  0
 36105  1  0  0  0
 37 39  1  0  0  0
 37 47  1  0  0  0
 37 66  1  0  0  0
 37106  1  0  0  0
 38 43  2  0  0  0
 38 46  1  0  0  0
 38 47  1  0  0  0
 39 64  1  0  0  0
 39 67  2  0  0  0
 40 52  1  0  0  0
 40 53  2  0  0  0
 40 58  1  0  0  0
 41107  1  0  0  0
 41108  1  0  0  0
 41109  1  0  0  0
 41 48  1  0  0  0
 42 43  1  0  0  0
 42 66  1  0  0  0
 42110  1  0  0  0
 42111  1  0  0  0
 43 44  1  0  0  0
 44112  1  0  0  0
 45 46  2  0  0  0
 45113  1  0  0  0
 46114  1  0  0  0
 47115  1  0  0  0
 47116  1  0  0  0
 48 56  1  0  0  0
 48 65  1  0  0  0
 48117  1  0  0  0
 49 50  1  0  0  0
 49 53  1  0  0  0
 49 64  1  0  0  0
 49118  1  0  0  0
 50 51  1  0  0  0
 50119  1  0  0  0
 50120  1  0  0  0
 51 52  1  0  0  0
 51121  1  0  0  0
 51122  1  0  0  0
 52123  1  0  0  0
 52124  1  0  0  0
 53 54  1  0  0  0
 54 55  2  0  0  0
 54125  1  0  0  0
 55 57  1  0  0  0
 55126  1  0  0  0
 56 69  2  0  0  0
 57 58  2  0  0  0
 57127  1  0  0  0
 58128  1  0  0  0
 59 60  1  0  0  0
 59 61  1  0  0  0
 59 62  1  0  0  0
 60129  1  0  0  0
 60130  1  0  0  0
 60131  1  0  0  0
 61132  1  0  0  0
 61133  1  0  0  0
 61134  1  0  0  0
 62135  1  0  0  0
 62136  1  0  0  0
 62137  1  0  0  0
 63 65  1  0  0  0
 63138  1  0  0  0
 63139  1  0  0  0
 63140  1  0  0  0
 64141  1  0  0  0
 65142  1  0  0  0
 68 81  1  0  0  0
 71 74  2  0  0  0
 71 75  1  0  0  0
 71143  1  0  0  0
 72 74  1  0  0  0
 72 76  2  0  0  0
 72144  1  0  0  0
 73 75  2  0  0  0
 73 76  1  0  0  0
 73145  1  0  0  0
 74 78  1  0  0  0
 75 79  1  0  0  0
 76 82  1  0  0  0
 77 80  1  0  0  0
 77 81  1  0  0  0
 77 83  2  0  0  0
 78146  1  0  0  0
 78147  1  0  0  0
 78148  1  0  0  0
 79 80  1  0  0  0
 79149  1  0  0  0
 79150  1  0  0  0
 80151  1  0  0  0
 80152  1  0  0  0
 81153  1  0  0  0
 81154  1  0  0  0
 82155  1  0  0  0
M  ISO  4   1 100  68 101  81 101  82 100
M  END
> <chiral flag>
0

> <version>
0

> <s_m_source_file>
/data/baiqing/PycharmProjects/Reinvent-master-3.2/result/LINK_invent/BTK/process_docking_weight1_custom_product_contain_oxygen_bond_distance_aromatic_linkinvent_7_9_3/rearranged_h_0125.sdf

> <i_m_source_file_index>
50

> <r_mmod_Potential_Energy-OPLS-2005>
252.43505859375

> <r_mmod_Stretch_Energy-OPLS-2005>
118.431854248047

> <r_mmod_Bend_Energy-OPLS-2005>
201.16569519043

> <r_mmod_Torsional_Energy-OPLS-2005>
280.612182617188

> <r_mmod_Improper_Torsional_Energy-OPLS-2005>
29.2228698730469

> <r_mmod_Van_der_Waal_Energy-OPLS-2005>
120.965255737305

> <r_mmod_Electrostatic_Energy-OPLS-2005>
-376.554138183594

> <r_mmod_Solvation_Energy-OPLS-2005>
-208.009048461914

> <b_mmod_Minimization_Converged-OPLS-2005>
0

> <r_mmod_RMS_Derivative-OPLS-2005>
13.7865581512451

$$$$
50
                    3D
 Structure written by MMmdl.
154162  0  0  1  0            999 V2000
  -30.6298  -14.6250   20.5071 C   0  0  0  0  0  0
  -30.4391  -12.3835   19.4531 C   0  0  0  0  0  0
  -29.5089  -12.5085   18.2254 C   0  0  0  0  0  0
  -28.0303  -12.3506   18.6347 C   0  0  0  0  0  0
  -27.6558  -13.2160   19.8676 C   0  0  2  0  0  0
  -28.7003  -13.0598   20.9966 C   0  0  0  0  0  0
  -25.2561  -13.8158   20.5664 C   0  0  0  0  0  0
  -24.1836  -13.0434   20.9192 C   0  0  0  0  0  0
  -24.6401  -11.6901   20.8744 C   0  0  0  0  0  0
  -23.9066  -10.4292   21.0413 C   0  0  0  0  0  0
  -24.3618   -9.4204   21.9188 C   0  0  0  0  0  0
  -23.6293   -8.2242   22.0753 C   0  0  0  0  0  0
  -22.4275   -8.0282   21.3542 C   0  0  0  0  0  0
  -21.9913   -9.0257   20.4644 C   0  0  0  0  0  0
  -22.7240  -10.2135   20.3058 C   0  0  0  0  0  0
  -21.6852   -6.0736   22.5280 C   0  0  0  0  0  0
  -21.4012   -6.5640   23.8213 C   0  0  0  0  0  0
  -21.3658   -5.6793   24.9175 C   0  0  0  0  0  0
  -21.6047   -4.3058   24.7226 C   0  0  0  0  0  0
  -21.8817   -3.8148   23.4346 C   0  0  0  0  0  0
  -21.9193   -4.6965   22.3401 C   0  0  0  0  0  0
  -22.7854  -13.5228   21.1848 C   0  0  0  0  0  0
  -22.1662   -4.2150   21.0980 F   0  0  0  0  0  0
  -21.5627   -3.4539   25.7739 F   0  0  0  0  0  0
  -30.0192  -13.4001   20.4376 N   0  0  0  0  0  0
  -26.2999  -12.9350   20.3330 N   0  0  0  0  0  0
  -25.9334  -11.6504   20.5772 N   0  0  0  0  0  0
  -22.0496  -12.8228   22.0408 N   0  0  0  0  0  0
  -25.4250  -15.1871   20.4014 N   0  0  0  0  0  0
  -31.7838  -14.7893   20.0990 O   0  0  0  0  0  0
  -21.6637   -6.8876   21.4240 O   0  0  0  0  0  0
  -22.3541  -14.5537   20.6693 O   0  0  0  0  0  0
  -24.6253  -31.8609   23.2020 C   0  0  0  0  0  0
  -25.9104  -32.4785   23.8340 C   0  0  1  0  0  0
  -27.2266  -27.3309   20.1148 C   0  0  0  0  0  0
  -25.5919  -33.8578   24.2277 N   0  0  0  0  0  0
  -23.4186  -30.4852   21.5451 C   0  0  2  0  0  0
  -24.8642  -28.9418   20.1128 C   0  0  0  0  0  0
  -22.7472  -29.4634   22.4933 C   0  0  0  0  0  0
  -18.0288  -28.1389   22.8485 C   0  0  0  0  0  0
  -24.1493  -36.7293   23.2639 C   0  0  0  0  0  0
  -25.9583  -30.7967   21.3698 C   0  0  0  0  0  0
  -26.0333  -29.4248   20.7138 C   0  0  0  0  0  0
  -27.2184  -28.6328   20.7017 C   0  0  0  0  0  0
  -26.0304  -26.8957   19.4968 C   0  0  0  0  0  0
  -24.8642  -27.6825   19.4956 C   0  0  0  0  0  0
  -23.6313  -29.8192   20.1611 C   0  0  0  0  0  0
  -25.4120  -36.3086   24.0330 C   0  0  1  0  0  0
  -20.5890  -28.3693   23.1279 C   0  0  2  0  0  0
  -20.6787  -26.9420   22.5408 C   0  0  0  0  0  0
  -19.5759  -26.6390   21.5216 C   0  0  0  0  0  0
  -18.1934  -26.7932   22.1626 C   0  0  0  0  0  0
  -19.1542  -28.8856   23.2877 C   0  0  0  0  0  0
  -18.9466  -30.1457   23.8897 C   0  0  0  0  0  0
  -17.6467  -30.6592   24.0569 C   0  0  0  0  0  0
  -25.9049  -34.9454   23.5107 C   0  0  0  0  0  0
  -16.5358  -29.9091   23.6332 C   0  0  0  0  0  0
  -16.7275  -28.6510   23.0348 C   0  0  0  0  0  0
  -26.4495  -31.6580   25.0703 C   0  0  0  0  0  0
  -25.3726  -31.3709   26.1427 C   0  0  0  0  0  0
  -27.0341  -30.3011   24.6139 C   0  0  0  0  0  0
  -27.6066  -32.4301   25.7472 C   0  0  0  0  0  0
  -27.5586  -37.1805   24.8469 C   0  0  0  0  0  0
  -21.4188  -29.3045   22.3672 N   0  0  0  0  0  0
  -26.4304  -37.3780   23.9399 N   0  0  0  0  0  0
  -24.6864  -31.0640   22.0962 N   0  0  0  0  0  0
  -23.4202  -28.8167   23.3002 O   0  0  0  0  0  0
  -28.3540  -26.4973   20.1577 O   0  0  0  0  0  0
  -26.5625  -34.8926   22.4682 O   0  0  0  0  0  0
  -23.5422  -32.1376   23.7371 O   0  0  0  0  0  0
  -30.8005  -19.1902   19.7235 C   0  0  0  0  0  0
  -30.8261  -17.7760   19.8987 C   0  0  0  0  0  0
  -28.9460  -19.3696   21.2316 C   0  0  0  0  0  0
  -29.8647  -20.0339   20.3814 C   0  0  0  0  0  0
  -28.9661  -17.9523   21.4223 C   0  0  0  0  0  0
  -29.9073  -17.1118   20.7527 C   0  0  0  0  0  0
  -29.9189  -21.5403   20.1699 C   0  0  0  0  0  0
  -29.1246  -22.5589   20.6270 C   0  0  0  0  0  0
  -27.9427  -17.3499   22.3710 C   0  0  0  0  0  0
  -29.3727  -24.0943   20.4187 C   0  0  0  0  0  0
  -28.1394  -25.0352   20.1068 C   0  0  0  0  0  0
  -29.8394  -15.6600   20.9290 N   0  0  0  0  0  0
  -31.4808  -12.5062   19.1513 H   0  0  0  0  0  0
  -30.3706  -11.3862   19.8892 H   0  0  0  0  0  0
  -29.7709  -11.7598   17.4766 H   0  0  0  0  0  0
  -29.6552  -13.4799   17.7497 H   0  0  0  0  0  0
  -27.8612  -11.2968   18.8584 H   0  0  0  0  0  0
  -27.3785  -12.5903   17.7938 H   0  0  0  0  0  0
  -27.6785  -14.2539   19.5347 H   0  0  0  0  0  0
  -28.7080  -12.0347   21.3700 H   0  0  0  0  0  0
  -28.4452  -13.6831   21.8548 H   0  0  0  0  0  0
  -25.2763   -9.5681   22.4760 H   0  0  0  0  0  0
  -24.0003   -7.4631   22.7471 H   0  0  0  0  0  0
  -21.0842   -8.8774   19.8951 H   0  0  0  0  0  0
  -22.3699  -10.9673   19.6167 H   0  0  0  0  0  0
  -21.2005   -7.6149   23.9715 H   0  0  0  0  0  0
  -21.1481   -6.0524   25.9077 H   0  0  0  0  0  0
  -22.0599   -2.7609   23.2847 H   0  0  0  0  0  0
  -22.4111  -11.9895   22.4810 H   0  0  0  0  0  0
  -21.1108  -13.1246   22.2601 H   0  0  0  0  0  0
  -24.6512  -15.8358   20.4928 H   0  0  0  0  0  0
  -26.2627  -15.6199   20.0347 H   0  0  0  0  0  0
  -26.7177  -32.5470   23.1092 H   0  0  0  0  0  0
  -25.0068  -33.9705   25.0425 H   0  0  0  0  0  0
  -22.7118  -31.3055   21.4023 H   0  0  0  0  0  0
  -23.3754  -35.9629   23.3307 H   0  0  0  0  0  0
  -24.3589  -36.8907   22.2054 H   0  0  0  0  0  0
  -23.7248  -37.6500   23.6655 H   0  0  0  0  0  0
  -26.0875  -31.5579   20.5988 H   0  0  0  0  0  0
  -26.8406  -30.8459   21.9966 H   0  0  0  0  0  0
  -28.1182  -29.0005   21.1753 H   0  0  0  0  0  0
  -25.9675  -25.9335   19.0115 H   0  0  0  0  0  0
  -23.9679  -27.3072   19.0214 H   0  0  0  0  0  0
  -23.7460  -30.5926   19.4007 H   0  0  0  0  0  0
  -22.7522  -29.2444   19.8640 H   0  0  0  0  0  0
  -25.1301  -36.1946   25.0826 H   0  0  0  0  0  0
  -20.9986  -28.3282   24.1400 H   0  0  0  0  0  0
  -20.5707  -26.2306   23.3607 H   0  0  0  0  0  0
  -21.6651  -26.7464   22.1193 H   0  0  0  0  0  0
  -19.6930  -25.6304   21.1237 H   0  0  0  0  0  0
  -19.6699  -27.3209   20.6752 H   0  0  0  0  0  0
  -17.4210  -26.6674   21.4021 H   0  0  0  0  0  0
  -18.0337  -26.0071   22.9021 H   0  0  0  0  0  0
  -19.7942  -30.7272   24.2266 H   0  0  0  0  0  0
  -17.5024  -31.6270   24.5171 H   0  0  0  0  0  0
  -15.5358  -30.2997   23.7657 H   0  0  0  0  0  0
  -15.8671  -28.0833   22.7057 H   0  0  0  0  0  0
  -24.5908  -30.7057   25.7741 H   0  0  0  0  0  0
  -24.8909  -32.2873   26.4844 H   0  0  0  0  0  0
  -25.8043  -30.8883   27.0204 H   0  0  0  0  0  0
  -26.2914  -29.6757   24.1175 H   0  0  0  0  0  0
  -27.4066  -29.7265   25.4626 H   0  0  0  0  0  0
  -27.8763  -30.4302   23.9338 H   0  0  0  0  0  0
  -27.2688  -33.3597   26.2062 H   0  0  0  0  0  0
  -28.3871  -32.6861   25.0294 H   0  0  0  0  0  0
  -28.0741  -31.8412   26.5373 H   0  0  0  0  0  0
  -28.2611  -38.0096   24.7514 H   0  0  0  0  0  0
  -28.1072  -36.2625   24.6300 H   0  0  0  0  0  0
  -27.2293  -37.1462   25.8871 H   0  0  0  0  0  0
  -20.9374  -29.8751   21.6865 H   0  0  0  0  0  0
  -26.0184  -38.2859   24.1400 H   0  0  0  0  0  0
  -31.5297  -19.6325   19.0588 H   0  0  0  0  0  0
  -31.5651  -17.2096   19.3500 H   0  0  0  0  0  0
  -28.2127  -19.9605   21.7624 H   0  0  0  0  0  0
  -30.7607  -21.8543   19.5683 H   0  0  0  0  0  0
  -28.2621  -22.3112   21.2295 H   0  0  0  0  0  0
  -27.5631  -18.1007   23.0646 H   0  0  0  0  0  0
  -28.3731  -16.5485   22.9714 H   0  0  0  0  0  0
  -27.0955  -16.9523   21.8137 H   0  0  0  0  0  0
  -30.1298  -24.2270   19.6452 H   0  0  0  0  0  0
  -29.8295  -24.4539   21.3408 H   0  0  0  0  0  0
  -27.7749  -24.7639   19.1161 H   0  0  0  0  0  0
  -27.3448  -24.7871   20.8129 H   0  0  0  0  0  0
  -28.9771  -15.3376   21.3387 H   0  0  0  0  0  0
  1 25  1  0  0  0
  1 30  2  0  0  0
  1 82  1  0  0  0
  2  3  1  0  0  0
  2 25  1  0  0  0
  2 83  1  0  0  0
  2 84  1  0  0  0
  3  4  1  0  0  0
  3 85  1  0  0  0
  3 86  1  0  0  0
  4  5  1  0  0  0
  4 87  1  0  0  0
  4 88  1  0  0  0
  5  6  1  0  0  0
  5 26  1  0  0  0
  5 89  1  0  0  0
  6 25  1  0  0  0
  6 90  1  0  0  0
  6 91  1  0  0  0
  7  8  2  0  0  0
  7 26  1  0  0  0
  7 29  1  0  0  0
  8  9  1  0  0  0
  8 22  1  0  0  0
  9 10  1  0  0  0
  9 27  2  0  0  0
 10 11  2  0  0  0
 10 15  1  0  0  0
 11 12  1  0  0  0
 11 92  1  0  0  0
 12 13  2  0  0  0
 12 93  1  0  0  0
 13 14  1  0  0  0
 13 31  1  0  0  0
 14 15  2  0  0  0
 14 94  1  0  0  0
 15 95  1  0  0  0
 16 17  2  0  0  0
 16 21  1  0  0  0
 16 31  1  0  0  0
 17 18  1  0  0  0
 17 96  1  0  0  0
 18 19  2  0  0  0
 18 97  1  0  0  0
 19 20  1  0  0  0
 19 24  1  0  0  0
 20 21  2  0  0  0
 20 98  1  0  0  0
 21 23  1  0  0  0
 22 28  1  0  0  0
 22 32  2  0  0  0
 26 27  1  0  0  0
 28 99  1  0  0  0
 28100  1  0  0  0
 29101  1  0  0  0
 29102  1  0  0  0
 33 34  1  0  0  0
 33 66  1  0  0  0
 33 70  2  0  0  0
 34 36  1  0  0  0
 34 59  1  0  0  0
 34103  1  0  0  0
 35 44  2  0  0  0
 35 45  1  0  0  0
 35 68  1  0  0  0
 36 56  1  0  0  0
 36104  1  0  0  0
 37 39  1  0  0  0
 37 47  1  0  0  0
 37 66  1  0  0  0
 37105  1  0  0  0
 38 43  2  0  0  0
 38 46  1  0  0  0
 38 47  1  0  0  0
 39 64  1  0  0  0
 39 67  2  0  0  0
 40 52  1  0  0  0
 40 53  2  0  0  0
 40 58  1  0  0  0
 41106  1  0  0  0
 41107  1  0  0  0
 41108  1  0  0  0
 41 48  1  0  0  0
 42 43  1  0  0  0
 42 66  1  0  0  0
 42109  1  0  0  0
 42110  1  0  0  0
 43 44  1  0  0  0
 44111  1  0  0  0
 45 46  2  0  0  0
 45112  1  0  0  0
 46113  1  0  0  0
 47114  1  0  0  0
 47115  1  0  0  0
 48 56  1  0  0  0
 48 65  1  0  0  0
 48116  1  0  0  0
 49 50  1  0  0  0
 49 53  1  0  0  0
 49 64  1  0  0  0
 49117  1  0  0  0
 50 51  1  0  0  0
 50118  1  0  0  0
 50119  1  0  0  0
 51 52  1  0  0  0
 51120  1  0  0  0
 51121  1  0  0  0
 52122  1  0  0  0
 52123  1  0  0  0
 53 54  1  0  0  0
 54 55  2  0  0  0
 54124  1  0  0  0
 55 57  1  0  0  0
 55125  1  0  0  0
 56 69  2  0  0  0
 57 58  2  0  0  0
 57126  1  0  0  0
 58127  1  0  0  0
 59 60  1  0  0  0
 59 61  1  0  0  0
 59 62  1  0  0  0
 60128  1  0  0  0
 60129  1  0  0  0
 60130  1  0  0  0
 61131  1  0  0  0
 61132  1  0  0  0
 61133  1  0  0  0
 62134  1  0  0  0
 62135  1  0  0  0
 62136  1  0  0  0
 63 65  1  0  0  0
 63137  1  0  0  0
 63138  1  0  0  0
 63139  1  0  0  0
 64140  1  0  0  0
 65141  1  0  0  0
 68 81  1  0  0  0
 71 72  2  0  0  0
 71 74  1  0  0  0
 71142  1  0  0  0
 72 76  1  0  0  0
 72143  1  0  0  0
 73 74  2  0  0  0
 73 75  1  0  0  0
 73144  1  0  0  0
 74 77  1  0  0  0
 75 76  2  0  0  0
 75 79  1  0  0  0
 76 82  1  0  0  0
 77 78  2  0  0  0
 77145  1  0  0  0
 78 80  1  0  0  0
 78146  1  0  0  0
 79147  1  0  0  0
 79148  1  0  0  0
 79149  1  0  0  0
 80 81  1  0  0  0
 80150  1  0  0  0
 80151  1  0  0  0
 81152  1  0  0  0
 81153  1  0  0  0
 82154  1  0  0  0
M  ISO  4   1 100  68 101  81 101  82 100
M  END
> <chiral flag>
0

> <version>
0

> <s_m_source_file>
/data/baiqing/PycharmProjects/Reinvent-master-3.2/result/LINK_invent/BTK/process_docking_weight1_custom_product_contain_oxygen_bond_distance_aromatic_linkinvent_7_9_3/rearranged_h_0125.sdf

> <i_m_source_file_index>
51

> <r_mmod_Potential_Energy-OPLS-2005>
15.8081169128418

> <r_mmod_Stretch_Energy-OPLS-2005>
72.9601364135742

> <r_mmod_Bend_Energy-OPLS-2005>
127.959579467773

> <r_mmod_Torsional_Energy-OPLS-2005>
210.670867919922

> <r_mmod_Improper_Torsional_Energy-OPLS-2005>
3.97630620002747

> <r_mmod_Van_der_Waal_Energy-OPLS-2005>
145.290176391602

> <r_mmod_Electrostatic_Energy-OPLS-2005>
-385.619903564453

> <r_mmod_Solvation_Energy-OPLS-2005>
-202.09001159668

> <b_mmod_Minimization_Converged-OPLS-2005>
0

> <r_mmod_RMS_Derivative-OPLS-2005>
1.18030452728271

$$$$
51
                    3D
 Structure written by MMmdl.
155163  0  0  1  0            999 V2000
  -30.6500  -14.6842   20.5376 C   0  0  0  0  0  0
  -30.4356  -12.4283   19.4903 C   0  0  0  0  0  0
  -29.5235  -12.5318   18.2476 C   0  0  0  0  0  0
  -28.0448  -12.3593   18.6419 C   0  0  0  0  0  0
  -27.6528  -13.2338   19.8642 C   0  0  2  0  0  0
  -28.6883  -13.1140   21.0037 C   0  0  0  0  0  0
  -25.2555  -13.8214   20.5678 C   0  0  0  0  0  0
  -24.1825  -13.0466   20.9179 C   0  0  0  0  0  0
  -24.6413  -11.6937   20.8743 C   0  0  0  0  0  0
  -23.9096  -10.4311   21.0412 C   0  0  0  0  0  0
  -24.3642   -9.4228   21.9189 C   0  0  0  0  0  0
  -23.6296   -8.2278   22.0761 C   0  0  0  0  0  0
  -22.4276   -8.0324   21.3560 C   0  0  0  0  0  0
  -21.9930   -9.0311   20.4670 C   0  0  0  0  0  0
  -22.7271  -10.2179   20.3064 C   0  0  0  0  0  0
  -21.6854   -6.0763   22.5278 C   0  0  0  0  0  0
  -21.4024   -6.5635   23.8223 C   0  0  0  0  0  0
  -21.3655   -5.6768   24.9167 C   0  0  0  0  0  0
  -21.6051   -4.3036   24.7208 C   0  0  0  0  0  0
  -21.8811   -3.8148   23.4320 C   0  0  0  0  0  0
  -21.9197   -4.6990   22.3392 C   0  0  0  0  0  0
  -22.7828  -13.5265   21.1792 C   0  0  0  0  0  0
  -22.1653   -4.2181   21.0961 F   0  0  0  0  0  0
  -21.5660   -3.4508   25.7714 F   0  0  0  0  0  0
  -30.0073  -13.4668   20.4602 N   0  0  0  0  0  0
  -26.2993  -12.9413   20.3302 N   0  0  0  0  0  0
  -25.9349  -11.6552   20.5748 N   0  0  0  0  0  0
  -22.0413  -12.8354   22.0355 N   0  0  0  0  0  0
  -25.4268  -15.1950   20.4160 N   0  0  0  0  0  0
  -31.7771  -14.7969   20.0417 O   0  0  0  0  0  0
  -21.6649   -6.8914   21.4239 O   0  0  0  0  0  0
  -22.3505  -14.5518   20.6551 O   0  0  0  0  0  0
  -24.6299  -31.8569   23.2024 C   0  0  0  0  0  0
  -25.9147  -32.4741   23.8370 C   0  0  1  0  0  0
  -27.2251  -27.2857   20.1454 C   0  0  0  0  0  0
  -25.5954  -33.8547   24.2284 N   0  0  0  0  0  0
  -23.4241  -30.4804   21.5447 C   0  0  2  0  0  0
  -24.8754  -28.9328   20.1139 C   0  0  0  0  0  0
  -22.7484  -29.4620   22.4924 C   0  0  0  0  0  0
  -18.0299  -28.1401   22.8498 C   0  0  0  0  0  0
  -24.1495  -36.7285   23.2632 C   0  0  0  0  0  0
  -25.9674  -30.7775   21.3806 C   0  0  0  0  0  0
  -26.0431  -29.4018   20.7279 C   0  0  0  0  0  0
  -27.2183  -28.5895   20.7409 C   0  0  0  0  0  0
  -26.0424  -26.8924   19.4727 C   0  0  0  0  0  0
  -24.8795  -27.6838   19.4763 C   0  0  0  0  0  0
  -23.6436  -29.8127   20.1616 C   0  0  0  0  0  0
  -25.4106  -36.3051   24.0319 C   0  0  1  0  0  0
  -20.5910  -28.3715   23.1271 C   0  0  2  0  0  0
  -20.6811  -26.9434   22.5414 C   0  0  0  0  0  0
  -19.5765  -26.6400   21.5232 C   0  0  0  0  0  0
  -18.1945  -26.7948   22.1637 C   0  0  0  0  0  0
  -19.1562  -28.8880   23.2881 C   0  0  0  0  0  0
  -18.9460  -30.1492   23.8881 C   0  0  0  0  0  0
  -17.6453  -30.6604   24.0567 C   0  0  0  0  0  0
  -25.9057  -34.9424   23.5103 C   0  0  0  0  0  0
  -16.5350  -29.9088   23.6329 C   0  0  0  0  0  0
  -16.7285  -28.6510   23.0348 C   0  0  0  0  0  0
  -26.4536  -31.6556   25.0743 C   0  0  0  0  0  0
  -25.3734  -31.3704   26.1434 C   0  0  0  0  0  0
  -27.0386  -30.2987   24.6208 C   0  0  0  0  0  0
  -27.6119  -32.4261   25.7510 C   0  0  0  0  0  0
  -27.5569  -37.1780   24.8442 C   0  0  0  0  0  0
  -21.4204  -29.3045   22.3645 N   0  0  0  0  0  0
  -26.4267  -37.3747   23.9404 N   0  0  0  0  0  0
  -24.6930  -31.0558   22.0999 N   0  0  0  0  0  0
  -23.4191  -28.8178   23.3025 O   0  0  0  0  0  0
  -28.3189  -26.3999   20.2543 O   0  0  0  0  0  0
  -26.5613  -34.8880   22.4660 O   0  0  0  0  0  0
  -23.5463  -32.1383   23.7326 O   0  0  0  0  0  0
  -29.5062  -18.6166   22.6927 C   0  0  0  0  0  0
  -29.4069  -19.7148   20.5314 C   0  0  0  0  0  0
  -28.9748  -21.0149   22.5394 C   0  0  0  0  0  0
  -29.6536  -18.5061   21.2910 C   0  0  0  0  0  0
  -29.2049  -19.8532   23.3116 C   0  0  0  0  0  0
  -29.0523  -20.9868   21.1309 C   0  0  0  0  0  0
  -30.0905  -17.1628   20.6873 C   0  0  0  0  0  0
  -29.9712  -15.8695   21.1668 C   0  0  0  0  0  0
  -29.1414  -19.9452   24.8291 C   0  0  0  0  0  0
  -28.6311  -22.2699   20.3013 C   0  0  0  0  0  0
  -28.9449  -23.7845   20.7648 C   0  0  0  0  0  0
  -28.0959  -24.9381   20.0363 C   0  0  0  0  0  0
  -31.4814  -12.5324   19.2009 H   0  0  0  0  0  0
  -30.3592  -11.4345   19.9379 H   0  0  0  0  0  0
  -29.8126  -11.7833   17.5088 H   0  0  0  0  0  0
  -29.6653  -13.5018   17.7686 H   0  0  0  0  0  0
  -27.8881  -11.3047   18.8735 H   0  0  0  0  0  0
  -27.4032  -12.5854   17.7885 H   0  0  0  0  0  0
  -27.6678  -14.2694   19.5217 H   0  0  0  0  0  0
  -28.7045  -12.0930   21.3855 H   0  0  0  0  0  0
  -28.4085  -13.7366   21.8534 H   0  0  0  0  0  0
  -25.2804   -9.5722   22.4741 H   0  0  0  0  0  0
  -24.0051   -7.4659   22.7451 H   0  0  0  0  0  0
  -21.0882   -8.8811   19.8942 H   0  0  0  0  0  0
  -22.3731  -10.9724   19.6174 H   0  0  0  0  0  0
  -21.1982   -7.6138   23.9742 H   0  0  0  0  0  0
  -21.1496   -6.0486   25.9085 H   0  0  0  0  0  0
  -22.0593   -2.7619   23.2785 H   0  0  0  0  0  0
  -22.3983  -12.0130   22.4977 H   0  0  0  0  0  0
  -21.1003  -13.1418   22.2367 H   0  0  0  0  0  0
  -24.6687  -15.8547   20.5555 H   0  0  0  0  0  0
  -26.2959  -15.6410   20.1466 H   0  0  0  0  0  0
  -26.7204  -32.5405   23.1120 H   0  0  0  0  0  0
  -25.0080  -33.9695   25.0416 H   0  0  0  0  0  0
  -22.7183  -31.3012   21.3967 H   0  0  0  0  0  0
  -23.3750  -35.9625   23.3263 H   0  0  0  0  0  0
  -24.3619  -36.8950   22.2057 H   0  0  0  0  0  0
  -23.7278  -37.6483   23.6696 H   0  0  0  0  0  0
  -26.0968  -31.5324   20.6039 H   0  0  0  0  0  0
  -26.8497  -30.8356   22.0055 H   0  0  0  0  0  0
  -28.1022  -28.9359   21.2624 H   0  0  0  0  0  0
  -25.9852  -25.9473   18.9521 H   0  0  0  0  0  0
  -23.9846  -27.3164   18.9918 H   0  0  0  0  0  0
  -23.7650  -30.5868   19.4027 H   0  0  0  0  0  0
  -22.7627  -29.2412   19.8611 H   0  0  0  0  0  0
  -25.1306  -36.1873   25.0810 H   0  0  0  0  0  0
  -21.0004  -28.3298   24.1390 H   0  0  0  0  0  0
  -20.5784  -26.2294   23.3609 H   0  0  0  0  0  0
  -21.6656  -26.7498   22.1140 H   0  0  0  0  0  0
  -19.6927  -25.6310   21.1263 H   0  0  0  0  0  0
  -19.6726  -27.3214   20.6770 H   0  0  0  0  0  0
  -17.4227  -26.6735   21.4021 H   0  0  0  0  0  0
  -18.0307  -26.0095   22.9027 H   0  0  0  0  0  0
  -19.7930  -30.7358   24.2205 H   0  0  0  0  0  0
  -17.4988  -31.6278   24.5184 H   0  0  0  0  0  0
  -15.5346  -30.2985   23.7677 H   0  0  0  0  0  0
  -15.8677  -28.0847   22.7034 H   0  0  0  0  0  0
  -24.5912  -30.7073   25.7723 H   0  0  0  0  0  0
  -24.8911  -32.2865   26.4850 H   0  0  0  0  0  0
  -25.8002  -30.8861   27.0220 H   0  0  0  0  0  0
  -26.2984  -29.6710   24.1237 H   0  0  0  0  0  0
  -27.4101  -29.7278   25.4725 H   0  0  0  0  0  0
  -27.8836  -30.4307   23.9451 H   0  0  0  0  0  0
  -27.2800  -33.3559   26.2126 H   0  0  0  0  0  0
  -28.3922  -32.6792   25.0329 H   0  0  0  0  0  0
  -28.0790  -31.8337   26.5381 H   0  0  0  0  0  0
  -28.2546  -38.0114   24.7510 H   0  0  0  0  0  0
  -28.1118  -36.2647   24.6244 H   0  0  0  0  0  0
  -27.2285  -37.1354   25.8841 H   0  0  0  0  0  0
  -20.9384  -29.8697   21.6791 H   0  0  0  0  0  0
  -26.0144  -38.2814   24.1425 H   0  0  0  0  0  0
  -29.6753  -17.7508   23.3165 H   0  0  0  0  0  0
  -29.4774  -19.6639   19.4542 H   0  0  0  0  0  0
  -28.7129  -21.9342   23.0455 H   0  0  0  0  0  0
  -30.6397  -17.2788   19.7600 H   0  0  0  0  0  0
  -29.4074  -15.7121   22.0745 H   0  0  0  0  0  0
  -29.3332  -18.9843   25.3113 H   0  0  0  0  0  0
  -28.1616  -20.2908   25.1621 H   0  0  0  0  0  0
  -29.8911  -20.6464   25.2003 H   0  0  0  0  0  0
  -27.5457  -22.1917   20.2164 H   0  0  0  0  0  0
  -28.9977  -22.1448   19.2819 H   0  0  0  0  0  0
  -30.0095  -23.9802   20.6342 H   0  0  0  0  0  0
  -28.7598  -23.8828   21.8344 H   0  0  0  0  0  0
  -27.0657  -24.7012   20.3017 H   0  0  0  0  0  0
  -28.1739  -24.7742   18.9612 H   0  0  0  0  0  0
  1 25  1  0  0  0
  1 30  2  0  0  0
  1 78  1  0  0  0
  2  3  1  0  0  0
  2 25  1  0  0  0
  2 83  1  0  0  0
  2 84  1  0  0  0
  3  4  1  0  0  0
  3 85  1  0  0  0
  3 86  1  0  0  0
  4  5  1  0  0  0
  4 87  1  0  0  0
  4 88  1  0  0  0
  5  6  1  0  0  0
  5 26  1  0  0  0
  5 89  1  0  0  0
  6 25  1  0  0  0
  6 90  1  0  0  0
  6 91  1  0  0  0
  7  8  2  0  0  0
  7 26  1  0  0  0
  7 29  1  0  0  0
  8  9  1  0  0  0
  8 22  1  0  0  0
  9 10  1  0  0  0
  9 27  2  0  0  0
 10 11  2  0  0  0
 10 15  1  0  0  0
 11 12  1  0  0  0
 11 92  1  0  0  0
 12 13  2  0  0  0
 12 93  1  0  0  0
 13 14  1  0  0  0
 13 31  1  0  0  0
 14 15  2  0  0  0
 14 94  1  0  0  0
 15 95  1  0  0  0
 16 17  2  0  0  0
 16 21  1  0  0  0
 16 31  1  0  0  0
 17 18  1  0  0  0
 17 96  1  0  0  0
 18 19  2  0  0  0
 18 97  1  0  0  0
 19 20  1  0  0  0
 19 24  1  0  0  0
 20 21  2  0  0  0
 20 98  1  0  0  0
 21 23  1  0  0  0
 22 28  1  0  0  0
 22 32  2  0  0  0
 26 27  1  0  0  0
 28 99  1  0  0  0
 28100  1  0  0  0
 29101  1  0  0  0
 29102  1  0  0  0
 33 34  1  0  0  0
 33 66  1  0  0  0
 33 70  2  0  0  0
 34 36  1  0  0  0
 34 59  1  0  0  0
 34103  1  0  0  0
 35 44  2  0  0  0
 35 45  1  0  0  0
 35 68  1  0  0  0
 36 56  1  0  0  0
 36104  1  0  0  0
 37 39  1  0  0  0
 37 47  1  0  0  0
 37 66  1  0  0  0
 37105  1  0  0  0
 38 43  2  0  0  0
 38 46  1  0  0  0
 38 47  1  0  0  0
 39 64  1  0  0  0
 39 67  2  0  0  0
 40 52  1  0  0  0
 40 53  2  0  0  0
 40 58  1  0  0  0
 41106  1  0  0  0
 41107  1  0  0  0
 41108  1  0  0  0
 41 48  1  0  0  0
 42 43  1  0  0  0
 42 66  1  0  0  0
 42109  1  0  0  0
 42110  1  0  0  0
 43 44  1  0  0  0
 44111  1  0  0  0
 45 46  2  0  0  0
 45112  1  0  0  0
 46113  1  0  0  0
 47114  1  0  0  0
 47115  1  0  0  0
 48 56  1  0  0  0
 48 65  1  0  0  0
 48116  1  0  0  0
 49 50  1  0  0  0
 49 53  1  0  0  0
 49 64  1  0  0  0
 49117  1  0  0  0
 50 51  1  0  0  0
 50118  1  0  0  0
 50119  1  0  0  0
 51 52  1  0  0  0
 51120  1  0  0  0
 51121  1  0  0  0
 52122  1  0  0  0
 52123  1  0  0  0
 53 54  1  0  0  0
 54 55  2  0  0  0
 54124  1  0  0  0
 55 57  1  0  0  0
 55125  1  0  0  0
 56 69  2  0  0  0
 57 58  2  0  0  0
 57126  1  0  0  0
 58127  1  0  0  0
 59 60  1  0  0  0
 59 61  1  0  0  0
 59 62  1  0  0  0
 60128  1  0  0  0
 60129  1  0  0  0
 60130  1  0  0  0
 61131  1  0  0  0
 61132  1  0  0  0
 61133  1  0  0  0
 62134  1  0  0  0
 62135  1  0  0  0
 62136  1  0  0  0
 63 65  1  0  0  0
 63137  1  0  0  0
 63138  1  0  0  0
 63139  1  0  0  0
 64140  1  0  0  0
 65141  1  0  0  0
 68 82  1  0  0  0
 71 74  2  0  0  0
 71 75  1  0  0  0
 71142  1  0  0  0
 72 74  1  0  0  0
 72 76  2  0  0  0
 72143  1  0  0  0
 73 75  2  0  0  0
 73 76  1  0  0  0
 73144  1  0  0  0
 74 77  1  0  0  0
 75 79  1  0  0  0
 76 80  1  0  0  0
 77 78  2  0  0  0
 77145  1  0  0  0
 78146  1  0  0  0
 79147  1  0  0  0
 79148  1  0  0  0
 79149  1  0  0  0
 80 81  1  0  0  0
 80150  1  0  0  0
 80151  1  0  0  0
 81 82  1  0  0  0
 81152  1  0  0  0
 81153  1  0  0  0
 82154  1  0  0  0
 82155  1  0  0  0
M  ISO  4   1 100  68 101  78 100  82 101
M  END
> <chiral flag>
0

> <version>
0

> <s_m_source_file>
/data/baiqing/PycharmProjects/Reinvent-master-3.2/result/LINK_invent/BTK/process_docking_weight1_custom_product_contain_oxygen_bond_distance_aromatic_linkinvent_7_9_3/rearranged_h_0125.sdf

> <i_m_source_file_index>
52

> <r_mmod_Potential_Energy-OPLS-2005>
128.596740722656

> <r_mmod_Stretch_Energy-OPLS-2005>
103.473365783691

> <r_mmod_Bend_Energy-OPLS-2005>
149.711090087891

> <r_mmod_Torsional_Energy-OPLS-2005>
190.077835083008

> <r_mmod_Improper_Torsional_Energy-OPLS-2005>
3.44052672386169

> <r_mmod_Van_der_Waal_Energy-OPLS-2005>
143.842575073242

> <r_mmod_Electrostatic_Energy-OPLS-2005>
-336.85693359375

> <r_mmod_Solvation_Energy-OPLS-2005>
-191.578277587891

> <b_mmod_Minimization_Converged-OPLS-2005>
0

> <r_mmod_RMS_Derivative-OPLS-2005>
4.28816509246826

$$$$
52
                    3D
 Structure written by MMmdl.
164173  0  0  1  0            999 V2000
  -30.7145  -14.4670   20.5807 C   0  0  0  0  0  0
  -30.4320  -12.3037   19.4302 C   0  0  0  0  0  0
  -29.5014  -12.4959   18.2152 C   0  0  0  0  0  0
  -28.0246  -12.3467   18.6270 C   0  0  0  0  0  0
  -27.6660  -13.1980   19.8730 C   0  0  2  0  0  0
  -28.7044  -12.9765   20.9933 C   0  0  0  0  0  0
  -25.2646  -13.8132   20.5715 C   0  0  0  0  0  0
  -24.1872  -13.0411   20.9159 C   0  0  0  0  0  0
  -24.6401  -11.6874   20.8721 C   0  0  0  0  0  0
  -23.9076  -10.4247   21.0404 C   0  0  0  0  0  0
  -24.3618   -9.4167   21.9200 C   0  0  0  0  0  0
  -23.6279   -8.2207   22.0751 C   0  0  0  0  0  0
  -22.4263   -8.0277   21.3548 C   0  0  0  0  0  0
  -21.9913   -9.0248   20.4654 C   0  0  0  0  0  0
  -22.7232  -10.2116   20.3070 C   0  0  0  0  0  0
  -21.6829   -6.0736   22.5280 C   0  0  0  0  0  0
  -21.3970   -6.5636   23.8208 C   0  0  0  0  0  0
  -21.3661   -5.6793   24.9185 C   0  0  0  0  0  0
  -21.6075   -4.3056   24.7222 C   0  0  0  0  0  0
  -21.8804   -3.8144   23.4332 C   0  0  0  0  0  0
  -21.9156   -4.6962   22.3397 C   0  0  0  0  0  0
  -22.7883  -13.5224   21.1819 C   0  0  0  0  0  0
  -22.1638   -4.2150   21.0965 F   0  0  0  0  0  0
  -21.5650   -3.4544   25.7724 F   0  0  0  0  0  0
  -30.0439  -13.2852   20.4568 N   0  0  0  0  0  0
  -26.3060  -12.9287   20.3365 N   0  0  0  0  0  0
  -25.9325  -11.6446   20.5746 N   0  0  0  0  0  0
  -22.0503  -12.8243   22.0389 N   0  0  0  0  0  0
  -25.4419  -15.1849   20.4194 N   0  0  0  0  0  0
  -31.8300  -14.6449   20.0790 O   0  0  0  0  0  0
  -21.6630   -6.8876   21.4238 O   0  0  0  0  0  0
  -22.3565  -14.5501   20.6625 O   0  0  0  0  0  0
  -24.6188  -31.8662   23.2082 C   0  0  0  0  0  0
  -25.9063  -32.4813   23.8374 C   0  0  1  0  0  0
  -27.2453  -27.4331   20.0979 C   0  0  0  0  0  0
  -25.5903  -33.8608   24.2301 N   0  0  0  0  0  0
  -23.4067  -30.4829   21.5557 C   0  0  2  0  0  0
  -24.8529  -28.9414   20.1224 C   0  0  0  0  0  0
  -22.7435  -29.4633   22.5084 C   0  0  0  0  0  0
  -18.0278  -28.1354   22.8547 C   0  0  0  0  0  0
  -24.1475  -36.7318   23.2635 C   0  0  0  0  0  0
  -25.9315  -30.8294   21.3561 C   0  0  0  0  0  0
  -26.0138  -29.4597   20.7115 C   0  0  0  0  0  0
  -27.2156  -28.7151   20.6919 C   0  0  0  0  0  0
  -26.0742  -26.9280   19.5003 C   0  0  0  0  0  0
  -24.8795  -27.6757   19.5074 C   0  0  0  0  0  0
  -23.6145  -29.8084   20.1736 C   0  0  0  0  0  0
  -25.4106  -36.3109   24.0335 C   0  0  1  0  0  0
  -20.5869  -28.3641   23.1384 C   0  0  2  0  0  0
  -20.6773  -26.9385   22.5430 C   0  0  0  0  0  0
  -19.5721  -26.6405   21.5240 C   0  0  0  0  0  0
  -18.1907  -26.7912   22.1670 C   0  0  0  0  0  0
  -19.1518  -28.8816   23.2976 C   0  0  0  0  0  0
  -18.9430  -30.1429   23.8964 C   0  0  0  0  0  0
  -17.6420  -30.6575   24.0571 C   0  0  0  0  0  0
  -25.9041  -34.9478   23.5128 C   0  0  0  0  0  0
  -16.5329  -29.9061   23.6323 C   0  0  0  0  0  0
  -16.7268  -28.6475   23.0376 C   0  0  0  0  0  0
  -26.4472  -31.6585   25.0694 C   0  0  0  0  0  0
  -25.3736  -31.3702   26.1444 C   0  0  0  0  0  0
  -27.0248  -30.3022   24.6002 C   0  0  0  0  0  0
  -27.6049  -32.4305   25.7463 C   0  0  0  0  0  0
  -27.5578  -37.1811   24.8465 C   0  0  0  0  0  0
  -21.4163  -29.3019   22.3816 N   0  0  0  0  0  0
  -26.4287  -37.3802   23.9417 N   0  0  0  0  0  0
  -24.6715  -31.0723   22.1010 N   0  0  0  0  0  0
  -23.4208  -28.8173   23.3125 O   0  0  0  0  0  0
  -28.4075  -26.6928   20.0593 O   0  0  0  0  0  0
  -26.5613  -34.8941   22.4682 O   0  0  0  0  0  0
  -23.5375  -32.1429   23.7477 O   0  0  0  0  0  0
  -29.3193  -19.2104   20.4446 C   0  0  0  0  0  0
  -27.6366  -20.2044   21.8838 C   0  0  0  0  0  0
  -28.2761  -17.8714   22.1906 C   0  0  0  0  0  0
  -28.5816  -20.3621   20.8420 C   0  0  0  0  0  0
  -29.1810  -17.9650   21.1111 C   0  0  0  0  0  0
  -27.4988  -18.9817   22.5699 C   0  0  0  0  0  0
  -29.0597  -21.7181   18.8559 C   0  0  0  0  0  0
  -28.7772  -21.7020   20.1755 C   0  0  0  0  0  0
  -28.6576  -22.9971   20.8894 C   0  0  0  0  0  0
  -28.6522  -24.1856   20.2192 C   0  0  0  0  0  0
  -29.9550  -16.7869   20.6523 C   0  0  0  0  0  0
  -29.9685  -15.5536   21.2100 C   0  0  0  0  0  0
  -29.2102  -22.9591   17.9960 C   0  0  0  0  0  0
  -28.9287  -24.2883   18.7247 C   0  0  0  0  0  0
  -26.5180  -18.8764   23.7226 C   0  0  0  0  0  0
  -28.6281  -23.0339   22.4159 C   0  0  0  0  0  0
  -28.4430  -25.5417   20.9247 C   0  0  0  0  0  0
  -31.4760  -12.4007   19.1250 H   0  0  0  0  0  0
  -30.3379  -11.2929   19.8331 H   0  0  0  0  0  0
  -29.7494  -11.7655   17.4430 H   0  0  0  0  0  0
  -29.6614  -13.4801   17.7702 H   0  0  0  0  0  0
  -27.8583  -11.2908   18.8501 H   0  0  0  0  0  0
  -27.3659  -12.5926   17.7939 H   0  0  0  0  0  0
  -27.7141  -14.2436   19.5683 H   0  0  0  0  0  0
  -28.6874  -11.9384   21.3252 H   0  0  0  0  0  0
  -28.4428  -13.5516   21.8765 H   0  0  0  0  0  0
  -25.2748   -9.5631   22.4813 H   0  0  0  0  0  0
  -23.9964   -7.4585   22.7454 H   0  0  0  0  0  0
  -21.0852   -8.8767   19.8960 H   0  0  0  0  0  0
  -22.3686  -10.9680   19.6205 H   0  0  0  0  0  0
  -21.1944   -7.6130   23.9720 H   0  0  0  0  0  0
  -21.1539   -6.0520   25.9105 H   0  0  0  0  0  0
  -22.0589   -2.7614   23.2818 H   0  0  0  0  0  0
  -22.4081  -11.9939   22.4862 H   0  0  0  0  0  0
  -21.1140  -13.1332   22.2566 H   0  0  0  0  0  0
  -24.6875  -15.8480   20.5636 H   0  0  0  0  0  0
  -26.3160  -15.6276   20.1661 H   0  0  0  0  0  0
  -26.7142  -32.5532   23.1153 H   0  0  0  0  0  0
  -25.0039  -33.9736   25.0443 H   0  0  0  0  0  0
  -22.6961  -31.3001   21.4165 H   0  0  0  0  0  0
  -23.3723  -35.9657   23.3318 H   0  0  0  0  0  0
  -24.3564  -36.8906   22.2036 H   0  0  0  0  0  0
  -23.7219  -37.6534   23.6636 H   0  0  0  0  0  0
  -26.0255  -31.5835   20.5739 H   0  0  0  0  0  0
  -26.8299  -30.9039   21.9588 H   0  0  0  0  0  0
  -28.1162  -29.1143   21.1376 H   0  0  0  0  0  0
  -26.0902  -25.9614   19.0187 H   0  0  0  0  0  0
  -23.9950  -27.2713   19.0359 H   0  0  0  0  0  0
  -23.7188  -30.5819   19.4109 H   0  0  0  0  0  0
  -22.7380  -29.2273   19.8838 H   0  0  0  0  0  0
  -25.1270  -36.1986   25.0825 H   0  0  0  0  0  0
  -20.9948  -28.3134   24.1515 H   0  0  0  0  0  0
  -20.5754  -26.2205   23.3583 H   0  0  0  0  0  0
  -21.6629  -26.7475   22.1156 H   0  0  0  0  0  0
  -19.6868  -25.6349   21.1185 H   0  0  0  0  0  0
  -19.6640  -27.3288   20.6830 H   0  0  0  0  0  0
  -17.4182  -26.6728   21.4064 H   0  0  0  0  0  0
  -18.0292  -26.0029   22.9036 H   0  0  0  0  0  0
  -19.7891  -30.7247   24.2363 H   0  0  0  0  0  0
  -17.4961  -31.6257   24.5161 H   0  0  0  0  0  0
  -15.5320  -30.2972   23.7587 H   0  0  0  0  0  0
  -15.8687  -28.0793   22.7058 H   0  0  0  0  0  0
  -24.5952  -30.6975   25.7813 H   0  0  0  0  0  0
  -24.8866  -32.2850   26.4836 H   0  0  0  0  0  0
  -25.8097  -30.8950   27.0240 H   0  0  0  0  0  0
  -26.2730  -29.6860   24.1029 H   0  0  0  0  0  0
  -27.3999  -29.7168   25.4411 H   0  0  0  0  0  0
  -27.8607  -30.4337   23.9117 H   0  0  0  0  0  0
  -27.2658  -33.3615   26.2028 H   0  0  0  0  0  0
  -28.3864  -32.6849   25.0290 H   0  0  0  0  0  0
  -28.0710  -31.8438   26.5387 H   0  0  0  0  0  0
  -28.2610  -38.0098   24.7523 H   0  0  0  0  0  0
  -28.1057  -36.2632   24.6284 H   0  0  0  0  0  0
  -27.2306  -37.1462   25.8870 H   0  0  0  0  0  0
  -20.9309  -29.8742   21.7047 H   0  0  0  0  0  0
  -26.0179  -38.2884   24.1417 H   0  0  0  0  0  0
  -30.0278  -19.2752   19.6331 H   0  0  0  0  0  0
  -27.0073  -21.0318   22.1772 H   0  0  0  0  0  0
  -28.1522  -16.9423   22.7254 H   0  0  0  0  0  0
  -29.1435  -20.7883   18.3096 H   0  0  0  0  0  0
  -30.5475  -16.9451   19.7609 H   0  0  0  0  0  0
  -29.4313  -15.3628   22.1239 H   0  0  0  0  0  0
  -28.5248  -22.8667   17.1490 H   0  0  0  0  0  0
  -30.2141  -22.9672   17.5652 H   0  0  0  0  0  0
  -29.7975  -24.9398   18.6064 H   0  0  0  0  0  0
  -28.1019  -24.8094   18.2423 H   0  0  0  0  0  0
  -26.7718  -19.6070   24.4915 H   0  0  0  0  0  0
  -26.5383  -17.8873   24.1823 H   0  0  0  0  0  0
  -25.5002  -19.0764   23.3840 H   0  0  0  0  0  0
  -27.6155  -23.2038   22.7819 H   0  0  0  0  0  0
  -29.2789  -23.8128   22.8105 H   0  0  0  0  0  0
  -29.0140  -22.1156   22.8530 H   0  0  0  0  0  0
  -29.2869  -25.7019   21.5946 H   0  0  0  0  0  0
  -27.5535  -25.4872   21.5552 H   0  0  0  0  0  0
  1 25  1  0  0  0
  1 30  2  0  0  0
  1 82  1  0  0  0
  2  3  1  0  0  0
  2 25  1  0  0  0
  2 88  1  0  0  0
  2 89  1  0  0  0
  3  4  1  0  0  0
  3 90  1  0  0  0
  3 91  1  0  0  0
  4  5  1  0  0  0
  4 92  1  0  0  0
  4 93  1  0  0  0
  5  6  1  0  0  0
  5 26  1  0  0  0
  5 94  1  0  0  0
  6 25  1  0  0  0
  6 95  1  0  0  0
  6 96  1  0  0  0
  7  8  2  0  0  0
  7 26  1  0  0  0
  7 29  1  0  0  0
  8  9  1  0  0  0
  8 22  1  0  0  0
  9 10  1  0  0  0
  9 27  2  0  0  0
 10 11  2  0  0  0
 10 15  1  0  0  0
 11 12  1  0  0  0
 11 97  1  0  0  0
 12 13  2  0  0  0
 12 98  1  0  0  0
 13 14  1  0  0  0
 13 31  1  0  0  0
 14 15  2  0  0  0
 14 99  1  0  0  0
 15100  1  0  0  0
 16 17  2  0  0  0
 16 21  1  0  0  0
 16 31  1  0  0  0
 17 18  1  0  0  0
 17101  1  0  0  0
 18 19  2  0  0  0
 18102  1  0  0  0
 19 20  1  0  0  0
 19 24  1  0  0  0
 20 21  2  0  0  0
 20103  1  0  0  0
 21 23  1  0  0  0
 22 28  1  0  0  0
 22 32  2  0  0  0
 26 27  1  0  0  0
 28104  1  0  0  0
 28105  1  0  0  0
 29106  1  0  0  0
 29107  1  0  0  0
 33 34  1  0  0  0
 33 66  1  0  0  0
 33 70  2  0  0  0
 34 36  1  0  0  0
 34 59  1  0  0  0
 34108  1  0  0  0
 35 44  2  0  0  0
 35 45  1  0  0  0
 35 68  1  0  0  0
 36 56  1  0  0  0
 36109  1  0  0  0
 37 39  1  0  0  0
 37 47  1  0  0  0
 37 66  1  0  0  0
 37110  1  0  0  0
 38 43  2  0  0  0
 38 46  1  0  0  0
 38 47  1  0  0  0
 39 64  1  0  0  0
 39 67  2  0  0  0
 40 52  1  0  0  0
 40 53  2  0  0  0
 40 58  1  0  0  0
 41111  1  0  0  0
 41112  1  0  0  0
 41113  1  0  0  0
 41 48  1  0  0  0
 42 43  1  0  0  0
 42 66  1  0  0  0
 42114  1  0  0  0
 42115  1  0  0  0
 43 44  1  0  0  0
 44116  1  0  0  0
 45 46  2  0  0  0
 45117  1  0  0  0
 46118  1  0  0  0
 47119  1  0  0  0
 47120  1  0  0  0
 48 56  1  0  0  0
 48 65  1  0  0  0
 48121  1  0  0  0
 49 50  1  0  0  0
 49 53  1  0  0  0
 49 64  1  0  0  0
 49122  1  0  0  0
 50 51  1  0  0  0
 50123  1  0  0  0
 50124  1  0  0  0
 51 52  1  0  0  0
 51125  1  0  0  0
 51126  1  0  0  0
 52127  1  0  0  0
 52128  1  0  0  0
 53 54  1  0  0  0
 54 55  2  0  0  0
 54129  1  0  0  0
 55 57  1  0  0  0
 55130  1  0  0  0
 56 69  2  0  0  0
 57 58  2  0  0  0
 57131  1  0  0  0
 58132  1  0  0  0
 59 60  1  0  0  0
 59 61  1  0  0  0
 59 62  1  0  0  0
 60133  1  0  0  0
 60134  1  0  0  0
 60135  1  0  0  0
 61136  1  0  0  0
 61137  1  0  0  0
 61138  1  0  0  0
 62139  1  0  0  0
 62140  1  0  0  0
 62141  1  0  0  0
 63 65  1  0  0  0
 63142  1  0  0  0
 63143  1  0  0  0
 63144  1  0  0  0
 64145  1  0  0  0
 65146  1  0  0  0
 68 87  1  0  0  0
 71 74  2  0  0  0
 71 75  1  0  0  0
 71147  1  0  0  0
 72 74  1  0  0  0
 72 76  2  0  0  0
 72148  1  0  0  0
 73 75  2  0  0  0
 73 76  1  0  0  0
 73149  1  0  0  0
 74 78  1  0  0  0
 75 81  1  0  0  0
 76 85  1  0  0  0
 77 78  2  0  0  0
 77 83  1  0  0  0
 77150  1  0  0  0
 78 79  1  0  0  0
 79 80  2  0  0  0
 79 86  1  0  0  0
 80 84  1  0  0  0
 80 87  1  0  0  0
 81 82  2  0  0  0
 81151  1  0  0  0
 82152  1  0  0  0
 83 84  1  0  0  0
 83153  1  0  0  0
 83154  1  0  0  0
 84155  1  0  0  0
 84156  1  0  0  0
 85157  1  0  0  0
 85158  1  0  0  0
 85159  1  0  0  0
 86160  1  0  0  0
 86161  1  0  0  0
 86162  1  0  0  0
 87163  1  0  0  0
 87164  1  0  0  0
M  ISO  4   1 100  68 101  82 100  87 101
M  END
> <chiral flag>
0

> <version>
0

> <s_m_source_file>
/data/baiqing/PycharmProjects/Reinvent-master-3.2/result/LINK_invent/BTK/process_docking_weight1_custom_product_contain_oxygen_bond_distance_aromatic_linkinvent_7_9_3/rearranged_h_0125.sdf

> <i_m_source_file_index>
53

> <r_mmod_Potential_Energy-OPLS-2005>
77.487419128418

> <r_mmod_Stretch_Energy-OPLS-2005>
45.5138893127441

> <r_mmod_Bend_Energy-OPLS-2005>
104.642150878906

> <r_mmod_Torsional_Energy-OPLS-2005>
244.071472167969

> <r_mmod_Improper_Torsional_Energy-OPLS-2005>
3.32688164710999

> <r_mmod_Van_der_Waal_Energy-OPLS-2005>
175.555572509766

> <r_mmod_Electrostatic_Energy-OPLS-2005>
-325.249053955078

> <r_mmod_Solvation_Energy-OPLS-2005>
-182.108856201172

> <b_mmod_Minimization_Converged-OPLS-2005>
0

> <r_mmod_RMS_Derivative-OPLS-2005>
4.42949199676514

$$$$
53
                    3D
 Structure written by MMmdl.
157165  0  0  1  0            999 V2000
  -30.5539  -14.7812   20.4748 C   0  0  0  0  0  0
  -30.4421  -12.4718   19.5119 C   0  0  0  0  0  0
  -29.5304  -12.5162   18.2634 C   0  0  0  0  0  0
  -28.0532  -12.3280   18.6616 C   0  0  0  0  0  0
  -27.6447  -13.2264   19.8603 C   0  0  2  0  0  0
  -28.6766  -13.1472   21.0078 C   0  0  0  0  0  0
  -25.2489  -13.8175   20.5645 C   0  0  0  0  0  0
  -24.1772  -13.0435   20.9183 C   0  0  0  0  0  0
  -24.6354  -11.6914   20.8729 C   0  0  0  0  0  0
  -23.9032  -10.4290   21.0397 C   0  0  0  0  0  0
  -24.3608   -9.4203   21.9153 C   0  0  0  0  0  0
  -23.6294   -8.2235   22.0733 C   0  0  0  0  0  0
  -22.4267   -8.0273   21.3540 C   0  0  0  0  0  0
  -21.9889   -9.0239   20.4638 C   0  0  0  0  0  0
  -22.7214  -10.2122   20.3042 C   0  0  0  0  0  0
  -21.6845   -6.0723   22.5271 C   0  0  0  0  0  0
  -21.4013   -6.5625   23.8210 C   0  0  0  0  0  0
  -21.3665   -5.6783   24.9173 C   0  0  0  0  0  0
  -21.6048   -4.3043   24.7226 C   0  0  0  0  0  0
  -21.8819   -3.8133   23.4343 C   0  0  0  0  0  0
  -21.9194   -4.6948   22.3403 C   0  0  0  0  0  0
  -22.7794  -13.5223   21.1874 C   0  0  0  0  0  0
  -22.1653   -4.2132   21.0979 F   0  0  0  0  0  0
  -21.5644   -3.4531   25.7737 F   0  0  0  0  0  0
  -29.9856  -13.5228   20.4554 N   0  0  0  0  0  0
  -26.2916  -12.9369   20.3262 N   0  0  0  0  0  0
  -25.9283  -11.6514   20.5724 N   0  0  0  0  0  0
  -22.0445  -12.8229   22.0452 N   0  0  0  0  0  0
  -25.4188  -15.1899   20.4051 N   0  0  0  0  0  0
  -31.6864  -14.9334   20.0084 O   0  0  0  0  0  0
  -21.6640   -6.8864   21.4235 O   0  0  0  0  0  0
  -22.3478  -14.5528   20.6720 O   0  0  0  0  0  0
  -24.6350  -31.8474   23.1905 C   0  0  0  0  0  0
  -25.9163  -32.4711   23.8275 C   0  0  1  0  0  0
  -27.2332  -27.2336   20.1258 C   0  0  0  0  0  0
  -25.5945  -33.8516   24.2201 N   0  0  0  0  0  0
  -23.4349  -30.4642   21.5352 C   0  0  2  0  0  0
  -24.8833  -28.9028   20.1017 C   0  0  0  0  0  0
  -22.7532  -29.4534   22.4900 C   0  0  0  0  0  0
  -18.0284  -28.1377   22.8484 C   0  0  0  0  0  0
  -24.1488  -36.7281   23.2645 C   0  0  0  0  0  0
  -25.9796  -30.7538   21.3698 C   0  0  0  0  0  0
  -26.0518  -29.3708   20.7125 C   0  0  0  0  0  0
  -27.2243  -28.5486   20.7104 C   0  0  0  0  0  0
  -26.0407  -26.8299   19.4893 C   0  0  0  0  0  0
  -24.8844  -27.6420   19.4782 C   0  0  0  0  0  0
  -23.6535  -29.7918   20.1513 C   0  0  0  0  0  0
  -25.4113  -36.3032   24.0314 C   0  0  1  0  0  0
  -20.5894  -28.3674   23.1279 C   0  0  2  0  0  0
  -20.6768  -26.9385   22.5430 C   0  0  0  0  0  0
  -19.5749  -26.6366   21.5221 C   0  0  0  0  0  0
  -18.1921  -26.7931   22.1605 C   0  0  0  0  0  0
  -19.1543  -28.8846   23.2878 C   0  0  0  0  0  0
  -18.9464  -30.1449   23.8892 C   0  0  0  0  0  0
  -17.6461  -30.6583   24.0556 C   0  0  0  0  0  0
  -25.9057  -34.9414   23.5061 C   0  0  0  0  0  0
  -16.5349  -29.9076   23.6333 C   0  0  0  0  0  0
  -16.7273  -28.6494   23.0356 C   0  0  0  0  0  0
  -26.4543  -31.6561   25.0692 C   0  0  0  0  0  0
  -25.3786  -31.3718   26.1441 C   0  0  0  0  0  0
  -27.0420  -30.2984   24.6190 C   0  0  0  0  0  0
  -27.6076  -32.4333   25.7464 C   0  0  0  0  0  0
  -27.5576  -37.1774   24.8460 C   0  0  0  0  0  0
  -21.4223  -29.3011   22.3671 N   0  0  0  0  0  0
  -26.4275  -37.3748   23.9416 N   0  0  0  0  0  0
  -24.7026  -31.0407   22.0889 N   0  0  0  0  0  0
  -23.4216  -28.8097   23.3025 O   0  0  0  0  0  0
  -28.3499  -26.3650   20.2260 O   0  0  0  0  0  0
  -26.5643  -34.8915   22.4636 O   0  0  0  0  0  0
  -23.5495  -32.1318   23.7181 O   0  0  0  0  0  0
  -31.7520  -20.6941   20.6198 C   0  0  0  0  0  0
  -32.9878  -20.0964   20.8945 C   0  0  0  0  0  0
  -31.8752  -17.9814   21.1414 C   0  0  0  0  0  0
  -30.5088  -19.9967   20.5783 C   0  0  0  0  0  0
  -33.0489  -18.7377   21.1899 C   0  0  0  0  0  0
  -30.6183  -18.5142   20.7577 C   0  0  0  0  0  0
  -29.3054  -20.9909   20.4042 C   0  0  0  0  0  0
  -29.3269  -22.3990   20.4617 C   0  0  0  0  0  0
  -34.3757  -18.0723   21.4886 C   0  0  0  0  0  0
  -29.5755  -17.3487   20.4776 C   0  0  0  0  0  0
  -28.2114  -23.5501   20.4131 C   0  0  0  0  0  0
  -28.4782  -24.9718   19.6449 C   0  0  0  0  0  0
  -29.7572  -15.8534   20.8719 N   0  0  0  0  0  0
  -31.4857  -12.6073   19.2244 H   0  0  0  0  0  0
  -30.3942  -11.4929   19.9926 H   0  0  0  0  0  0
  -29.8333  -11.7427   17.5568 H   0  0  0  0  0  0
  -29.6522  -13.4695   17.7458 H   0  0  0  0  0  0
  -27.9202  -11.2784   18.9281 H   0  0  0  0  0  0
  -27.4008  -12.5058   17.8065 H   0  0  0  0  0  0
  -27.6455  -14.2503   19.4859 H   0  0  0  0  0  0
  -28.7093  -12.1370   21.4198 H   0  0  0  0  0  0
  -28.3865  -13.7998   21.8330 H   0  0  0  0  0  0
  -25.2757   -9.5683   22.4716 H   0  0  0  0  0  0
  -24.0010   -7.4617   22.7439 H   0  0  0  0  0  0
  -21.0817   -8.8754   19.8945 H   0  0  0  0  0  0
  -22.3656  -10.9660   19.6157 H   0  0  0  0  0  0
  -21.1993   -7.6128   23.9709 H   0  0  0  0  0  0
  -21.1492   -6.0507   25.9076 H   0  0  0  0  0  0
  -22.0594   -2.7588   23.2854 H   0  0  0  0  0  0
  -22.4086  -11.9941   22.4925 H   0  0  0  0  0  0
  -21.1048  -13.1227   22.2609 H   0  0  0  0  0  0
  -24.6500  -15.8447   20.5019 H   0  0  0  0  0  0
  -26.2669  -15.6243   20.0654 H   0  0  0  0  0  0
  -26.7230  -32.5343   23.1009 H   0  0  0  0  0  0
  -25.0097  -33.9642   25.0352 H   0  0  0  0  0  0
  -22.7351  -31.2873   21.3828 H   0  0  0  0  0  0
  -23.3743  -35.9619   23.3277 H   0  0  0  0  0  0
  -24.3603  -36.8950   22.2072 H   0  0  0  0  0  0
  -23.7254  -37.6476   23.6705 H   0  0  0  0  0  0
  -26.1190  -31.5108   20.5969 H   0  0  0  0  0  0
  -26.8601  -30.8058   22.0003 H   0  0  0  0  0  0
  -28.1216  -28.9076   21.1960 H   0  0  0  0  0  0
  -25.9779  -25.8577   19.0249 H   0  0  0  0  0  0
  -23.9865  -27.2763   18.9978 H   0  0  0  0  0  0
  -23.7818  -30.5696   19.3970 H   0  0  0  0  0  0
  -22.7717  -29.2273   19.8422 H   0  0  0  0  0  0
  -25.1285  -36.1852   25.0802 H   0  0  0  0  0  0
  -20.9979  -28.3235   24.1397 H   0  0  0  0  0  0
  -20.5641  -26.2278   23.3634 H   0  0  0  0  0  0
  -21.6637  -26.7390   22.1228 H   0  0  0  0  0  0
  -19.6915  -25.6284   21.1236 H   0  0  0  0  0  0
  -19.6700  -27.3195   20.6766 H   0  0  0  0  0  0
  -17.4207  -26.6708   21.3986 H   0  0  0  0  0  0
  -18.0276  -26.0073   22.8982 H   0  0  0  0  0  0
  -19.7944  -30.7260   24.2263 H   0  0  0  0  0  0
  -17.5016  -31.6258   24.5159 H   0  0  0  0  0  0
  -15.5358  -30.2963   23.7675 H   0  0  0  0  0  0
  -15.8671  -28.0809   22.7069 H   0  0  0  0  0  0
  -24.5909  -30.7121   25.7786 H   0  0  0  0  0  0
  -24.9067  -32.2907   26.4921 H   0  0  0  0  0  0
  -25.8136  -30.8850   27.0178 H   0  0  0  0  0  0
  -26.3005  -29.6685   24.1272 H   0  0  0  0  0  0
  -27.4193  -29.7290   25.4692 H   0  0  0  0  0  0
  -27.8830  -30.4286   23.9377 H   0  0  0  0  0  0
  -27.2642  -33.3606   26.2061 H   0  0  0  0  0  0
  -28.3871  -32.6950   25.0294 H   0  0  0  0  0  0
  -28.0782  -31.8475   26.5373 H   0  0  0  0  0  0
  -28.2550  -38.0106   24.7524 H   0  0  0  0  0  0
  -28.1094  -36.2636   24.6215 H   0  0  0  0  0  0
  -27.2320  -37.1352   25.8870 H   0  0  0  0  0  0
  -20.9418  -29.8754   21.6888 H   0  0  0  0  0  0
  -26.0133  -38.2801   24.1461 H   0  0  0  0  0  0
  -31.8319  -21.7472   20.4218 H   0  0  0  0  0  0
  -33.8880  -20.6961   20.8871 H   0  0  0  0  0  0
  -31.9811  -16.9338   21.3596 H   0  0  0  0  0  0
  -28.3487  -20.5152   20.2409 H   0  0  0  0  0  0
  -30.2682  -22.8901   20.6335 H   0  0  0  0  0  0
  -35.0638  -18.7707   21.9633 H   0  0  0  0  0  0
  -34.8280  -17.7208   20.5604 H   0  0  0  0  0  0
  -34.2534  -17.2189   22.1562 H   0  0  0  0  0  0
  -29.4136  -17.3540   19.4000 H   0  0  0  0  0  0
  -28.6262  -17.6683   20.9094 H   0  0  0  0  0  0
  -28.0068  -23.7909   21.4559 H   0  0  0  0  0  0
  -27.2859  -23.1106   20.0392 H   0  0  0  0  0  0
  -27.9726  -24.9407   18.6797 H   0  0  0  0  0  0
  -29.5303  -24.9364   19.3641 H   0  0  0  0  0  0
  -28.9368  -15.5128   21.3524 H   0  0  0  0  0  0
  1 25  1  0  0  0
  1 30  2  0  0  0
  1 83  1  0  0  0
  2  3  1  0  0  0
  2 25  1  0  0  0
  2 84  1  0  0  0
  2 85  1  0  0  0
  3  4  1  0  0  0
  3 86  1  0  0  0
  3 87  1  0  0  0
  4  5  1  0  0  0
  4 88  1  0  0  0
  4 89  1  0  0  0
  5  6  1  0  0  0
  5 26  1  0  0  0
  5 90  1  0  0  0
  6 25  1  0  0  0
  6 91  1  0  0  0
  6 92  1  0  0  0
  7  8  2  0  0  0
  7 26  1  0  0  0
  7 29  1  0  0  0
  8  9  1  0  0  0
  8 22  1  0  0  0
  9 10  1  0  0  0
  9 27  2  0  0  0
 10 11  2  0  0  0
 10 15  1  0  0  0
 11 12  1  0  0  0
 11 93  1  0  0  0
 12 13  2  0  0  0
 12 94  1  0  0  0
 13 14  1  0  0  0
 13 31  1  0  0  0
 14 15  2  0  0  0
 14 95  1  0  0  0
 15 96  1  0  0  0
 16 17  2  0  0  0
 16 21  1  0  0  0
 16 31  1  0  0  0
 17 18  1  0  0  0
 17 97  1  0  0  0
 18 19  2  0  0  0
 18 98  1  0  0  0
 19 20  1  0  0  0
 19 24  1  0  0  0
 20 21  2  0  0  0
 20 99  1  0  0  0
 21 23  1  0  0  0
 22 28  1  0  0  0
 22 32  2  0  0  0
 26 27  1  0  0  0
 28100  1  0  0  0
 28101  1  0  0  0
 29102  1  0  0  0
 29103  1  0  0  0
 33 34  1  0  0  0
 33 66  1  0  0  0
 33 70  2  0  0  0
 34 36  1  0  0  0
 34 59  1  0  0  0
 34104  1  0  0  0
 35 44  2  0  0  0
 35 45  1  0  0  0
 35 68  1  0  0  0
 36 56  1  0  0  0
 36105  1  0  0  0
 37 39  1  0  0  0
 37 47  1  0  0  0
 37 66  1  0  0  0
 37106  1  0  0  0
 38 43  2  0  0  0
 38 46  1  0  0  0
 38 47  1  0  0  0
 39 64  1  0  0  0
 39 67  2  0  0  0
 40 52  1  0  0  0
 40 53  2  0  0  0
 40 58  1  0  0  0
 41107  1  0  0  0
 41108  1  0  0  0
 41109  1  0  0  0
 41 48  1  0  0  0
 42 43  1  0  0  0
 42 66  1  0  0  0
 42110  1  0  0  0
 42111  1  0  0  0
 43 44  1  0  0  0
 44112  1  0  0  0
 45 46  2  0  0  0
 45113  1  0  0  0
 46114  1  0  0  0
 47115  1  0  0  0
 47116  1  0  0  0
 48 56  1  0  0  0
 48 65  1  0  0  0
 48117  1  0  0  0
 49 50  1  0  0  0
 49 53  1  0  0  0
 49 64  1  0  0  0
 49118  1  0  0  0
 50 51  1  0  0  0
 50119  1  0  0  0
 50120  1  0  0  0
 51 52  1  0  0  0
 51121  1  0  0  0
 51122  1  0  0  0
 52123  1  0  0  0
 52124  1  0  0  0
 53 54  1  0  0  0
 54 55  2  0  0  0
 54125  1  0  0  0
 55 57  1  0  0  0
 55126  1  0  0  0
 56 69  2  0  0  0
 57 58  2  0  0  0
 57127  1  0  0  0
 58128  1  0  0  0
 59 60  1  0  0  0
 59 61  1  0  0  0
 59 62  1  0  0  0
 60129  1  0  0  0
 60130  1  0  0  0
 60131  1  0  0  0
 61132  1  0  0  0
 61133  1  0  0  0
 61134  1  0  0  0
 62135  1  0  0  0
 62136  1  0  0  0
 62137  1  0  0  0
 63 65  1  0  0  0
 63138  1  0  0  0
 63139  1  0  0  0
 63140  1  0  0  0
 64141  1  0  0  0
 65142  1  0  0  0
 68 82  1  0  0  0
 71 72  2  0  0  0
 71 74  1  0  0  0
 71143  1  0  0  0
 72 75  1  0  0  0
 72144  1  0  0  0
 73 75  2  0  0  0
 73 76  1  0  0  0
 73145  1  0  0  0
 74 76  2  0  0  0
 74 77  1  0  0  0
 75 79  1  0  0  0
 76 80  1  0  0  0
 77 78  2  0  0  0
 77146  1  0  0  0
 78 81  1  0  0  0
 78147  1  0  0  0
 79148  1  0  0  0
 79149  1  0  0  0
 79150  1  0  0  0
 80 83  1  0  0  0
 80151  1  0  0  0
 80152  1  0  0  0
 81 82  1  0  0  0
 81153  1  0  0  0
 81154  1  0  0  0
 82155  1  0  0  0
 82156  1  0  0  0
 83157  1  0  0  0
M  ISO  4   1 100  68 101  82 101  83 100
M  END
> <chiral flag>
0

> <version>
0

> <s_m_source_file>
/data/baiqing/PycharmProjects/Reinvent-master-3.2/result/LINK_invent/BTK/process_docking_weight1_custom_product_contain_oxygen_bond_distance_aromatic_linkinvent_7_9_3/rearranged_h_0125.sdf

> <i_m_source_file_index>
54

> <r_mmod_Potential_Energy-OPLS-2005>
286.334045410156

> <r_mmod_Stretch_Energy-OPLS-2005>
166.010345458984

> <r_mmod_Bend_Energy-OPLS-2005>
255.418899536133

> <r_mmod_Torsional_Energy-OPLS-2005>
216.874710083008

> <r_mmod_Improper_Torsional_Energy-OPLS-2005>
5.95005941390991

> <r_mmod_Van_der_Waal_Energy-OPLS-2005>
146.483047485352

> <r_mmod_Electrostatic_Energy-OPLS-2005>
-391.165313720703

> <r_mmod_Solvation_Energy-OPLS-2005>
-215.475860595703

> <b_mmod_Minimization_Converged-OPLS-2005>
0

> <r_mmod_RMS_Derivative-OPLS-2005>
2.65368437767029

$$$$
54
                    3D
 Structure written by MMmdl.
153161  0  0  1  0            999 V2000
  -30.6147  -14.7415   20.4584 C   0  0  0  0  0  0
  -30.4330  -12.4552   19.4623 C   0  0  0  0  0  0
  -29.5048  -12.4997   18.2289 C   0  0  0  0  0  0
  -28.0322  -12.3232   18.6492 C   0  0  0  0  0  0
  -27.6382  -13.2295   19.8458 C   0  0  2  0  0  0
  -28.6867  -13.1700   20.9775 C   0  0  0  0  0  0
  -25.2487  -13.8184   20.5686 C   0  0  0  0  0  0
  -24.1786  -13.0428   20.9217 C   0  0  0  0  0  0
  -24.6381  -11.6910   20.8752 C   0  0  0  0  0  0
  -23.9061  -10.4287   21.0408 C   0  0  0  0  0  0
  -24.3614   -9.4202   21.9185 C   0  0  0  0  0  0
  -23.6288   -8.2238   22.0753 C   0  0  0  0  0  0
  -22.4273   -8.0275   21.3540 C   0  0  0  0  0  0
  -21.9907   -9.0249   20.4645 C   0  0  0  0  0  0
  -22.7235  -10.2126   20.3056 C   0  0  0  0  0  0
  -21.6851   -6.0728   22.5271 C   0  0  0  0  0  0
  -21.4018   -6.5635   23.8205 C   0  0  0  0  0  0
  -21.3660   -5.6789   24.9172 C   0  0  0  0  0  0
  -21.6043   -4.3050   24.7222 C   0  0  0  0  0  0
  -21.8821   -3.8139   23.4344 C   0  0  0  0  0  0
  -21.9194   -4.6956   22.3401 C   0  0  0  0  0  0
  -22.7808  -13.5210   21.1876 C   0  0  0  0  0  0
  -22.1661   -4.2141   21.0978 F   0  0  0  0  0  0
  -21.5629   -3.4535   25.7737 F   0  0  0  0  0  0
  -29.9842  -13.5202   20.3859 N   0  0  0  0  0  0
  -26.2916  -12.9393   20.3268 N   0  0  0  0  0  0
  -25.9310  -11.6536   20.5755 N   0  0  0  0  0  0
  -22.0465  -12.8193   22.0438 N   0  0  0  0  0  0
  -25.4146  -15.1905   20.4070 N   0  0  0  0  0  0
  -31.8156  -14.8248   20.1862 O   0  0  0  0  0  0
  -21.6635   -6.8871   21.4233 O   0  0  0  0  0  0
  -22.3491  -14.5515   20.6723 O   0  0  0  0  0  0
  -24.6304  -31.8550   23.1968 C   0  0  0  0  0  0
  -25.9133  -32.4748   23.8318 C   0  0  1  0  0  0
  -27.2251  -27.2714   20.1369 C   0  0  0  0  0  0
  -25.5939  -33.8551   24.2248 N   0  0  0  0  0  0
  -23.4271  -30.4747   21.5399 C   0  0  2  0  0  0
  -24.8755  -28.9143   20.1166 C   0  0  0  0  0  0
  -22.7498  -29.4595   22.4922 C   0  0  0  0  0  0
  -18.0284  -28.1386   22.8478 C   0  0  0  0  0  0
  -24.1494  -36.7284   23.2642 C   0  0  0  0  0  0
  -25.9711  -30.7718   21.3729 C   0  0  0  0  0  0
  -26.0467  -29.3920   20.7202 C   0  0  0  0  0  0
  -27.2286  -28.5851   20.7121 C   0  0  0  0  0  0
  -26.0314  -26.8460   19.5207 C   0  0  0  0  0  0
  -24.8718  -27.6486   19.5065 C   0  0  0  0  0  0
  -23.6463  -29.8025   20.1585 C   0  0  0  0  0  0
  -25.4121  -36.3070   24.0328 C   0  0  1  0  0  0
  -20.5886  -28.3696   23.1274 C   0  0  2  0  0  0
  -20.6778  -26.9416   22.5410 C   0  0  0  0  0  0
  -19.5760  -26.6382   21.5210 C   0  0  0  0  0  0
  -18.1934  -26.7927   22.1616 C   0  0  0  0  0  0
  -19.1538  -28.8858   23.2863 C   0  0  0  0  0  0
  -18.9466  -30.1454   23.8885 C   0  0  0  0  0  0
  -17.6471  -30.6591   24.0556 C   0  0  0  0  0  0
  -25.9062  -34.9438   23.5095 C   0  0  0  0  0  0
  -16.5359  -29.9086   23.6331 C   0  0  0  0  0  0
  -16.7271  -28.6504   23.0349 C   0  0  0  0  0  0
  -26.4502  -31.6575   25.0708 C   0  0  0  0  0  0
  -25.3726  -31.3727   26.1434 C   0  0  0  0  0  0
  -27.0350  -30.2996   24.6179 C   0  0  0  0  0  0
  -27.6050  -32.4320   25.7483 C   0  0  0  0  0  0
  -27.5576  -37.1795   24.8462 C   0  0  0  0  0  0
  -21.4206  -29.3045   22.3669 N   0  0  0  0  0  0
  -26.4292  -37.3771   23.9407 N   0  0  0  0  0  0
  -24.6948  -31.0524   22.0931 N   0  0  0  0  0  0
  -23.4199  -28.8144   23.3025 O   0  0  0  0  0  0
  -28.3307  -26.4007   20.1175 O   0  0  0  0  0  0
  -26.5632  -34.8920   22.4663 O   0  0  0  0  0  0
  -23.5454  -32.1361   23.7279 O   0  0  0  0  0  0
  -30.9233  -20.0414   21.3252 C   0  0  0  0  0  0
  -31.3465  -17.6282   21.4797 C   0  0  0  0  0  0
  -29.7477  -19.8571   20.5646 C   0  0  0  0  0  0
  -29.3760  -18.4617   20.3073 C   0  0  0  0  0  0
  -30.1776  -17.3176   20.7507 C   0  0  0  0  0  0
  -31.7075  -18.9581   21.7654 C   0  0  0  0  0  0
  -29.0220  -21.1454   20.0841 C   0  0  0  0  0  0
  -29.1108  -22.4563   20.5475 C   0  0  0  0  0  0
  -28.4712  -23.7248   19.9345 C   0  0  0  0  0  0
  -28.1075  -18.1844   19.5188 C   0  0  0  0  0  0
  -28.2126  -25.0603   20.7828 C   0  0  0  0  0  0
  -29.8235  -15.8811   20.5654 N   0  0  0  0  0  0
  -28.1235  -23.7339   18.7491 O   0  0  0  0  0  0
  -32.8345  -19.2019   22.4767 F   0  0  0  0  0  0
  -31.4715  -12.5850   19.1533 H   0  0  0  0  0  0
  -30.3842  -11.4808   19.9508 H   0  0  0  0  0  0
  -29.7854  -11.7224   17.5165 H   0  0  0  0  0  0
  -29.6267  -13.4512   17.7088 H   0  0  0  0  0  0
  -27.8931  -11.2759   18.9201 H   0  0  0  0  0  0
  -27.3712  -12.5065   17.8012 H   0  0  0  0  0  0
  -27.6287  -14.2478   19.4576 H   0  0  0  0  0  0
  -28.7233  -12.1751   21.4234 H   0  0  0  0  0  0
  -28.4248  -13.8580   21.7831 H   0  0  0  0  0  0
  -25.2760   -9.5674   22.4756 H   0  0  0  0  0  0
  -23.9995   -7.4627   22.7472 H   0  0  0  0  0  0
  -21.0838   -8.8764   19.8951 H   0  0  0  0  0  0
  -22.3694  -10.9662   19.6163 H   0  0  0  0  0  0
  -21.2012   -7.6141   23.9707 H   0  0  0  0  0  0
  -21.1482   -6.0519   25.9073 H   0  0  0  0  0  0
  -22.0602   -2.7599   23.2846 H   0  0  0  0  0  0
  -22.4097  -11.9854   22.4815 H   0  0  0  0  0  0
  -21.1083  -13.1205   22.2660 H   0  0  0  0  0  0
  -24.6392  -15.8363   20.5093 H   0  0  0  0  0  0
  -26.2445  -15.6280   20.0326 H   0  0  0  0  0  0
  -26.7200  -32.5405   23.1059 H   0  0  0  0  0  0
  -25.0074  -33.9685   25.0386 H   0  0  0  0  0  0
  -22.7233  -31.2959   21.3910 H   0  0  0  0  0  0
  -23.3756  -35.9615   23.3301 H   0  0  0  0  0  0
  -24.3588  -36.8913   22.2057 H   0  0  0  0  0  0
  -23.7246  -37.6485   23.6672 H   0  0  0  0  0  0
  -26.1066  -31.5315   20.6020 H   0  0  0  0  0  0
  -26.8499  -30.8242   22.0035 H   0  0  0  0  0  0
  -28.1322  -28.9515   21.1795 H   0  0  0  0  0  0
  -25.9938  -25.8726   19.0513 H   0  0  0  0  0  0
  -23.9741  -27.2761   19.0308 H   0  0  0  0  0  0
  -23.7727  -30.5762   19.4005 H   0  0  0  0  0  0
  -22.7653  -29.2350   19.8535 H   0  0  0  0  0  0
  -25.1298  -36.1915   25.0820 H   0  0  0  0  0  0
  -20.9959  -28.3279   24.1404 H   0  0  0  0  0  0
  -20.5692  -26.2301   23.3612 H   0  0  0  0  0  0
  -21.6646  -26.7449   22.1199 H   0  0  0  0  0  0
  -19.6932  -25.6289   21.1244 H   0  0  0  0  0  0
  -19.6710  -27.3189   20.6739 H   0  0  0  0  0  0
  -17.4206  -26.6664   21.4018 H   0  0  0  0  0  0
  -18.0334  -26.0070   22.9013 H   0  0  0  0  0  0
  -19.7944  -30.7257   24.2258 H   0  0  0  0  0  0
  -17.5031  -31.6272   24.5160 H   0  0  0  0  0  0
  -15.5361  -30.2993   23.7665 H   0  0  0  0  0  0
  -15.8666  -28.0829   22.7074 H   0  0  0  0  0  0
  -24.5909  -30.7067   25.7764 H   0  0  0  0  0  0
  -24.8912  -32.2896   26.4842 H   0  0  0  0  0  0
  -25.8049  -30.8918   27.0218 H   0  0  0  0  0  0
  -26.2925  -29.6741   24.1211 H   0  0  0  0  0  0
  -27.4045  -29.7265   25.4693 H   0  0  0  0  0  0
  -27.8796  -30.4277   23.9409 H   0  0  0  0  0  0
  -27.2652  -33.3630   26.2036 H   0  0  0  0  0  0
  -28.3871  -32.6866   25.0316 H   0  0  0  0  0  0
  -28.0703  -31.8461   26.5420 H   0  0  0  0  0  0
  -28.2581  -38.0099   24.7514 H   0  0  0  0  0  0
  -28.1083  -36.2633   24.6281 H   0  0  0  0  0  0
  -27.2298  -37.1429   25.8864 H   0  0  0  0  0  0
  -20.9401  -29.8764   21.6868 H   0  0  0  0  0  0
  -26.0172  -38.2841   24.1417 H   0  0  0  0  0  0
  -31.2703  -21.0362   21.5599 H   0  0  0  0  0  0
  -31.9834  -16.8423   21.8576 H   0  0  0  0  0  0
  -28.3904  -20.9989   19.2193 H   0  0  0  0  0  0
  -29.7123  -22.6460   21.4229 H   0  0  0  0  0  0
  -27.3634  -18.9656   19.6691 H   0  0  0  0  0  0
  -27.6446  -17.2471   19.8233 H   0  0  0  0  0  0
  -28.3312  -18.1232   18.4536 H   0  0  0  0  0  0
  -28.9119  -25.0539   21.6188 H   0  0  0  0  0  0
  -27.2220  -24.9706   21.2298 H   0  0  0  0  0  0
  -28.8357  -15.6872   20.5352 H   0  0  0  0  0  0
  1 25  1  0  0  0
  1 30  2  0  0  0
  1 82  1  0  0  0
  2  3  1  0  0  0
  2 25  1  0  0  0
  2 85  1  0  0  0
  2 86  1  0  0  0
  3  4  1  0  0  0
  3 87  1  0  0  0
  3 88  1  0  0  0
  4  5  1  0  0  0
  4 89  1  0  0  0
  4 90  1  0  0  0
  5  6  1  0  0  0
  5 26  1  0  0  0
  5 91  1  0  0  0
  6 25  1  0  0  0
  6 92  1  0  0  0
  6 93  1  0  0  0
  7  8  2  0  0  0
  7 26  1  0  0  0
  7 29  1  0  0  0
  8  9  1  0  0  0
  8 22  1  0  0  0
  9 10  1  0  0  0
  9 27  2  0  0  0
 10 11  2  0  0  0
 10 15  1  0  0  0
 11 12  1  0  0  0
 11 94  1  0  0  0
 12 13  2  0  0  0
 12 95  1  0  0  0
 13 14  1  0  0  0
 13 31  1  0  0  0
 14 15  2  0  0  0
 14 96  1  0  0  0
 15 97  1  0  0  0
 16 17  2  0  0  0
 16 21  1  0  0  0
 16 31  1  0  0  0
 17 18  1  0  0  0
 17 98  1  0  0  0
 18 19  2  0  0  0
 18 99  1  0  0  0
 19 20  1  0  0  0
 19 24  1  0  0  0
 20 21  2  0  0  0
 20100  1  0  0  0
 21 23  1  0  0  0
 22 28  1  0  0  0
 22 32  2  0  0  0
 26 27  1  0  0  0
 28101  1  0  0  0
 28102  1  0  0  0
 29103  1  0  0  0
 29104  1  0  0  0
 33 34  1  0  0  0
 33 66  1  0  0  0
 33 70  2  0  0  0
 34 36  1  0  0  0
 34 59  1  0  0  0
 34105  1  0  0  0
 35 44  2  0  0  0
 35 45  1  0  0  0
 35 68  1  0  0  0
 36 56  1  0  0  0
 36106  1  0  0  0
 37 39  1  0  0  0
 37 47  1  0  0  0
 37 66  1  0  0  0
 37107  1  0  0  0
 38 43  2  0  0  0
 38 46  1  0  0  0
 38 47  1  0  0  0
 39 64  1  0  0  0
 39 67  2  0  0  0
 40 52  1  0  0  0
 40 53  2  0  0  0
 40 58  1  0  0  0
 41108  1  0  0  0
 41109  1  0  0  0
 41110  1  0  0  0
 41 48  1  0  0  0
 42 43  1  0  0  0
 42 66  1  0  0  0
 42111  1  0  0  0
 42112  1  0  0  0
 43 44  1  0  0  0
 44113  1  0  0  0
 45 46  2  0  0  0
 45114  1  0  0  0
 46115  1  0  0  0
 47116  1  0  0  0
 47117  1  0  0  0
 48 56  1  0  0  0
 48 65  1  0  0  0
 48118  1  0  0  0
 49 50  1  0  0  0
 49 53  1  0  0  0
 49 64  1  0  0  0
 49119  1  0  0  0
 50 51  1  0  0  0
 50120  1  0  0  0
 50121  1  0  0  0
 51 52  1  0  0  0
 51122  1  0  0  0
 51123  1  0  0  0
 52124  1  0  0  0
 52125  1  0  0  0
 53 54  1  0  0  0
 54 55  2  0  0  0
 54126  1  0  0  0
 55 57  1  0  0  0
 55127  1  0  0  0
 56 69  2  0  0  0
 57 58  2  0  0  0
 57128  1  0  0  0
 58129  1  0  0  0
 59 60  1  0  0  0
 59 61  1  0  0  0
 59 62  1  0  0  0
 60130  1  0  0  0
 60131  1  0  0  0
 60132  1  0  0  0
 61133  1  0  0  0
 61134  1  0  0  0
 61135  1  0  0  0
 62136  1  0  0  0
 62137  1  0  0  0
 62138  1  0  0  0
 63 65  1  0  0  0
 63139  1  0  0  0
 63140  1  0  0  0
 63141  1  0  0  0
 64142  1  0  0  0
 65143  1  0  0  0
 68 81  1  0  0  0
 71 73  2  0  0  0
 71 76  1  0  0  0
 71144  1  0  0  0
 72 75  1  0  0  0
 72 76  2  0  0  0
 72145  1  0  0  0
 73 74  1  0  0  0
 73 77  1  0  0  0
 74 75  2  0  0  0
 74 80  1  0  0  0
 75 82  1  0  0  0
 76 84  1  0  0  0
 77 78  2  0  0  0
 77146  1  0  0  0
 78 79  1  0  0  0
 78147  1  0  0  0
 79 81  1  0  0  0
 79 83  2  0  0  0
 80148  1  0  0  0
 80149  1  0  0  0
 80150  1  0  0  0
 81151  1  0  0  0
 81152  1  0  0  0
 82153  1  0  0  0
M  ISO  4   1 100  68 101  81 101  82 100
M  END
> <chiral flag>
0

> <version>
0

> <s_m_source_file>
/data/baiqing/PycharmProjects/Reinvent-master-3.2/result/LINK_invent/BTK/process_docking_weight1_custom_product_contain_oxygen_bond_distance_aromatic_linkinvent_7_9_3/rearranged_h_0125.sdf

> <i_m_source_file_index>
55

> <r_mmod_Potential_Energy-OPLS-2005>
162.653915405273

> <r_mmod_Stretch_Energy-OPLS-2005>
124.86979675293

> <r_mmod_Bend_Energy-OPLS-2005>
148.520294189453

> <r_mmod_Torsional_Energy-OPLS-2005>
249.506149291992

> <r_mmod_Improper_Torsional_Energy-OPLS-2005>
7.11762380599976

> <r_mmod_Van_der_Waal_Energy-OPLS-2005>
133.07096862793

> <r_mmod_Electrostatic_Energy-OPLS-2005>
-356.128112792969

> <r_mmod_Solvation_Energy-OPLS-2005>
-225.158081054688

> <b_mmod_Minimization_Converged-OPLS-2005>
0

> <r_mmod_RMS_Derivative-OPLS-2005>
1.04769229888916

$$$$
55
                    3D
 Structure written by MMmdl.
165174  0  0  1  0            999 V2000
  -30.7784  -14.3407   20.6960 C   0  0  0  0  0  0
  -30.4103  -12.2774   19.3962 C   0  0  0  0  0  0
  -29.4836  -12.5331   18.1939 C   0  0  0  0  0  0
  -28.0055  -12.3998   18.6032 C   0  0  0  0  0  0
  -27.6667  -13.2068   19.8836 C   0  0  2  0  0  0
  -28.7026  -12.9351   20.9974 C   0  0  0  0  0  0
  -25.2598  -13.8176   20.5671 C   0  0  0  0  0  0
  -24.1843  -13.0444   20.9163 C   0  0  0  0  0  0
  -24.6401  -11.6915   20.8716 C   0  0  0  0  0  0
  -23.9063  -10.4299   21.0392 C   0  0  0  0  0  0
  -24.3618   -9.4219   21.9180 C   0  0  0  0  0  0
  -23.6298   -8.2252   22.0754 C   0  0  0  0  0  0
  -22.4282   -8.0279   21.3550 C   0  0  0  0  0  0
  -21.9917   -9.0242   20.4641 C   0  0  0  0  0  0
  -22.7236  -10.2127   20.3039 C   0  0  0  0  0  0
  -21.6846   -6.0738   22.5278 C   0  0  0  0  0  0
  -21.4009   -6.5637   23.8213 C   0  0  0  0  0  0
  -21.3657   -5.6789   24.9173 C   0  0  0  0  0  0
  -21.6046   -4.3053   24.7224 C   0  0  0  0  0  0
  -21.8817   -3.8146   23.4343 C   0  0  0  0  0  0
  -21.9198   -4.6967   22.3401 C   0  0  0  0  0  0
  -22.7862  -13.5234   21.1823 C   0  0  0  0  0  0
  -22.1661   -4.2153   21.0979 F   0  0  0  0  0  0
  -21.5632   -3.4540   25.7744 F   0  0  0  0  0  0
  -30.0507  -13.2177   20.4685 N   0  0  0  0  0  0
  -26.3044  -12.9347   20.3379 N   0  0  0  0  0  0
  -25.9330  -11.6506   20.5744 N   0  0  0  0  0  0
  -22.0496  -12.8233   22.0381 N   0  0  0  0  0  0
  -25.4328  -15.1890   20.4073 N   0  0  0  0  0  0
  -31.7936  -14.6109   20.0453 O   0  0  0  0  0  0
  -21.6639   -6.8887   21.4241 O   0  0  0  0  0  0
  -22.3551  -14.5545   20.6678 O   0  0  0  0  0  0
  -24.6068  -31.8729   23.2130 C   0  0  0  0  0  0
  -25.8973  -32.4855   23.8423 C   0  0  1  0  0  0
  -27.2432  -27.4911   20.1083 C   0  0  0  0  0  0
  -25.5839  -33.8647   24.2373 N   0  0  0  0  0  0
  -23.3919  -30.4942   21.5536 C   0  0  2  0  0  0
  -24.8414  -28.9637   20.1192 C   0  0  0  0  0  0
  -22.7358  -29.4677   22.5039 C   0  0  0  0  0  0
  -18.0257  -28.1376   22.8511 C   0  0  0  0  0  0
  -24.1462  -36.7322   23.2641 C   0  0  0  0  0  0
  -25.9103  -30.8617   21.3512 C   0  0  0  0  0  0
  -25.9926  -29.4950   20.7129 C   0  0  0  0  0  0
  -27.1952  -28.7652   20.7118 C   0  0  0  0  0  0
  -26.0853  -26.9684   19.4986 C   0  0  0  0  0  0
  -24.8786  -27.6959   19.5096 C   0  0  0  0  0  0
  -23.5972  -29.8208   20.1700 C   0  0  0  0  0  0
  -25.4078  -36.3133   24.0363 C   0  0  1  0  0  0
  -20.5841  -28.3655   23.1341 C   0  0  2  0  0  0
  -20.6749  -26.9409   22.5418 C   0  0  0  0  0  0
  -19.5724  -26.6398   21.5219 C   0  0  0  0  0  0
  -18.1902  -26.7936   22.1627 C   0  0  0  0  0  0
  -19.1501  -28.8840   23.2924 C   0  0  0  0  0  0
  -18.9435  -30.1468   23.8912 C   0  0  0  0  0  0
  -17.6440  -30.6604   24.0577 C   0  0  0  0  0  0
  -25.9013  -34.9493   23.5175 C   0  0  0  0  0  0
  -16.5337  -29.9094   23.6362 C   0  0  0  0  0  0
  -16.7252  -28.6509   23.0379 C   0  0  0  0  0  0
  -26.4416  -31.6602   25.0722 C   0  0  0  0  0  0
  -25.3715  -31.3638   26.1485 C   0  0  0  0  0  0
  -27.0245  -30.3065   24.6035 C   0  0  0  0  0  0
  -27.5998  -32.4290   25.7508 C   0  0  0  0  0  0
  -27.5591  -37.1784   24.8458 C   0  0  0  0  0  0
  -21.4099  -29.3021   22.3751 N   0  0  0  0  0  0
  -26.4249  -37.3832   23.9480 N   0  0  0  0  0  0
  -24.6547  -31.0880   22.1000 N   0  0  0  0  0  0
  -23.4145  -28.8243   23.3081 O   0  0  0  0  0  0
  -28.3870  -26.7356   20.0837 O   0  0  0  0  0  0
  -26.5598  -34.8936   22.4750 O   0  0  0  0  0  0
  -23.5272  -32.1433   23.7575 O   0  0  0  0  0  0
  -31.8631  -18.5459   21.7232 C   0  0  0  0  0  0
  -31.5553  -17.2411   21.3122 C   0  0  0  0  0  0
  -30.3249  -16.8852   23.3722 C   0  0  0  0  0  0
  -31.3785  -19.0611   22.9462 C   0  0  0  0  0  0
  -30.6228  -18.2033   23.7878 C   0  0  0  0  0  0
  -30.7690  -16.3945   22.1260 C   0  0  0  0  0  0
  -30.9735  -24.9677   21.5762 C   0  0  0  0  0  0
  -29.6948  -25.3352   21.5006 C   0  0  0  0  0  0
  -31.5346  -20.4971   23.2628 C   0  0  0  0  0  0
  -32.1245  -21.4132   22.4748 C   0  0  0  0  0  0
  -28.7459  -24.1695   21.5499 C   0  0  0  0  0  0
  -29.6697  -22.9491   21.6876 C   0  0  0  0  0  0
  -31.1274  -23.4721   21.5975 C   0  0  2  0  0  0
  -30.0751  -18.6917   25.1205 C   0  0  0  0  0  0
  -29.1530  -26.7267   21.2873 C   0  0  0  0  0  0
  -32.0477  -22.9072   22.6923 C   0  0  0  0  0  0
  -30.3564  -15.0899   21.7288 N   0  0  0  0  0  0
  -31.4547  -12.3644   19.0921 H   0  0  0  0  0  0
  -30.2959  -11.2532   19.7539 H   0  0  0  0  0  0
  -29.7089  -11.8346   17.3862 H   0  0  0  0  0  0
  -29.6653  -13.5331   17.7955 H   0  0  0  0  0  0
  -27.7949  -11.3413   18.7600 H   0  0  0  0  0  0
  -27.3617  -12.7178   17.7814 H   0  0  0  0  0  0
  -27.7272  -14.2632   19.6218 H   0  0  0  0  0  0
  -28.6592  -11.8886   21.3019 H   0  0  0  0  0  0
  -28.4495  -13.5040   21.8923 H   0  0  0  0  0  0
  -25.2761   -9.5691   22.4758 H   0  0  0  0  0  0
  -24.0000   -7.4646   22.7479 H   0  0  0  0  0  0
  -21.0853   -8.8760   19.8942 H   0  0  0  0  0  0
  -22.3706  -10.9662   19.6137 H   0  0  0  0  0  0
  -21.1990   -7.6139   23.9721 H   0  0  0  0  0  0
  -21.1478   -6.0516   25.9076 H   0  0  0  0  0  0
  -22.0602   -2.7610   23.2851 H   0  0  0  0  0  0
  -22.4106  -11.9890   22.4767 H   0  0  0  0  0  0
  -21.1104  -13.1245   22.2569 H   0  0  0  0  0  0
  -24.6724  -15.8512   20.5180 H   0  0  0  0  0  0
  -26.2962  -15.6246   20.1062 H   0  0  0  0  0  0
  -26.7060  -32.5604   23.1210 H   0  0  0  0  0  0
  -24.9927  -33.9831   25.0480 H   0  0  0  0  0  0
  -22.6770  -31.3083   21.4143 H   0  0  0  0  0  0
  -23.3743  -35.9624   23.3223 H   0  0  0  0  0  0
  -24.3599  -36.9020   22.2077 H   0  0  0  0  0  0
  -23.7137  -37.6469   23.6705 H   0  0  0  0  0  0
  -25.9954  -31.6226   20.5733 H   0  0  0  0  0  0
  -26.8063  -30.9335   21.9553 H   0  0  0  0  0  0
  -28.0783  -29.1897   21.1669 H   0  0  0  0  0  0
  -26.1193  -25.9923   19.0372 H   0  0  0  0  0  0
  -23.9930  -27.2764   19.0518 H   0  0  0  0  0  0
  -23.6913  -30.5921   19.4043 H   0  0  0  0  0  0
  -22.7259  -29.2299   19.8827 H   0  0  0  0  0  0
  -25.1218  -36.2000   25.0838 H   0  0  0  0  0  0
  -20.9945  -28.3224   24.1457 H   0  0  0  0  0  0
  -20.5657  -26.2267   23.3587 H   0  0  0  0  0  0
  -21.6622  -26.7452   22.1214 H   0  0  0  0  0  0
  -19.6887  -25.6320   21.1229 H   0  0  0  0  0  0
  -19.6665  -27.3229   20.6764 H   0  0  0  0  0  0
  -17.4176  -26.6724   21.4027 H   0  0  0  0  0  0
  -18.0273  -26.0070   22.8994 H   0  0  0  0  0  0
  -19.7906  -30.7322   24.2234 H   0  0  0  0  0  0
  -17.4979  -31.6276   24.5186 H   0  0  0  0  0  0
  -15.5338  -30.3005   23.7666 H   0  0  0  0  0  0
  -15.8638  -28.0842   22.7088 H   0  0  0  0  0  0
  -24.5890  -30.6998   25.7800 H   0  0  0  0  0  0
  -24.8902  -32.2756   26.5022 H   0  0  0  0  0  0
  -25.8103  -30.8732   27.0185 H   0  0  0  0  0  0
  -26.2768  -29.6838   24.1094 H   0  0  0  0  0  0
  -27.4046  -29.7286   25.4476 H   0  0  0  0  0  0
  -27.8589  -30.4421   23.9142 H   0  0  0  0  0  0
  -27.2616  -33.3564   26.2154 H   0  0  0  0  0  0
  -28.3794  -32.6882   25.0325 H   0  0  0  0  0  0
  -28.0660  -31.8340   26.5380 H   0  0  0  0  0  0
  -28.2502  -38.0191   24.7684 H   0  0  0  0  0  0
  -28.1188  -36.2735   24.6031 H   0  0  0  0  0  0
  -27.2364  -37.1146   25.8866 H   0  0  0  0  0  0
  -20.9246  -29.8690   21.6946 H   0  0  0  0  0  0
  -26.0132  -38.2881   24.1602 H   0  0  0  0  0  0
  -32.4329  -19.1507   21.0348 H   0  0  0  0  0  0
  -31.9084  -16.9419   20.3386 H   0  0  0  0  0  0
  -29.7194  -16.2557   24.0106 H   0  0  0  0  0  0
  -31.8212  -25.6377   21.5135 H   0  0  0  0  0  0
  -31.0776  -20.8538   24.1734 H   0  0  0  0  0  0
  -32.6367  -21.1314   21.5685 H   0  0  0  0  0  0
  -28.1466  -24.1207   20.6402 H   0  0  0  0  0  0
  -28.0703  -24.2642   22.4013 H   0  0  0  0  0  0
  -29.4687  -22.2063   20.9131 H   0  0  0  0  0  0
  -29.4776  -22.4626   22.6449 H   0  0  0  0  0  0
  -31.5369  -23.2060   20.6221 H   0  0  0  0  0  0
  -29.6236  -17.8840   25.6965 H   0  0  0  0  0  0
  -29.3119  -19.4545   24.9626 H   0  0  0  0  0  0
  -30.8722  -19.1212   25.7286 H   0  0  0  0  0  0
  -29.9651  -27.4523   21.2269 H   0  0  0  0  0  0
  -28.5502  -26.9742   22.1639 H   0  0  0  0  0  0
  -33.0476  -23.3379   22.6271 H   0  0  0  0  0  0
  -31.6570  -23.1354   23.6856 H   0  0  0  0  0  0
  -29.5990  -14.6838   22.2570 H   0  0  0  0  0  0
  1 25  1  0  0  0
  1 30  2  0  0  0
  1 87  1  0  0  0
  2  3  1  0  0  0
  2 25  1  0  0  0
  2 88  1  0  0  0
  2 89  1  0  0  0
  3  4  1  0  0  0
  3 90  1  0  0  0
  3 91  1  0  0  0
  4  5  1  0  0  0
  4 92  1  0  0  0
  4 93  1  0  0  0
  5  6  1  0  0  0
  5 26  1  0  0  0
  5 94  1  0  0  0
  6 25  1  0  0  0
  6 95  1  0  0  0
  6 96  1  0  0  0
  7  8  2  0  0  0
  7 26  1  0  0  0
  7 29  1  0  0  0
  8  9  1  0  0  0
  8 22  1  0  0  0
  9 10  1  0  0  0
  9 27  2  0  0  0
 10 11  2  0  0  0
 10 15  1  0  0  0
 11 12  1  0  0  0
 11 97  1  0  0  0
 12 13  2  0  0  0
 12 98  1  0  0  0
 13 14  1  0  0  0
 13 31  1  0  0  0
 14 15  2  0  0  0
 14 99  1  0  0  0
 15100  1  0  0  0
 16 17  2  0  0  0
 16 21  1  0  0  0
 16 31  1  0  0  0
 17 18  1  0  0  0
 17101  1  0  0  0
 18 19  2  0  0  0
 18102  1  0  0  0
 19 20  1  0  0  0
 19 24  1  0  0  0
 20 21  2  0  0  0
 20103  1  0  0  0
 21 23  1  0  0  0
 22 28  1  0  0  0
 22 32  2  0  0  0
 26 27  1  0  0  0
 28104  1  0  0  0
 28105  1  0  0  0
 29106  1  0  0  0
 29107  1  0  0  0
 33 34  1  0  0  0
 33 66  1  0  0  0
 33 70  2  0  0  0
 34 36  1  0  0  0
 34 59  1  0  0  0
 34108  1  0  0  0
 35 44  2  0  0  0
 35 45  1  0  0  0
 35 68  1  0  0  0
 36 56  1  0  0  0
 36109  1  0  0  0
 37 39  1  0  0  0
 37 47  1  0  0  0
 37 66  1  0  0  0
 37110  1  0  0  0
 38 43  2  0  0  0
 38 46  1  0  0  0
 38 47  1  0  0  0
 39 64  1  0  0  0
 39 67  2  0  0  0
 40 52  1  0  0  0
 40 53  2  0  0  0
 40 58  1  0  0  0
 41111  1  0  0  0
 41112  1  0  0  0
 41113  1  0  0  0
 41 48  1  0  0  0
 42 43  1  0  0  0
 42 66  1  0  0  0
 42114  1  0  0  0
 42115  1  0  0  0
 43 44  1  0  0  0
 44116  1  0  0  0
 45 46  2  0  0  0
 45117  1  0  0  0
 46118  1  0  0  0
 47119  1  0  0  0
 47120  1  0  0  0
 48 56  1  0  0  0
 48 65  1  0  0  0
 48121  1  0  0  0
 49 50  1  0  0  0
 49 53  1  0  0  0
 49 64  1  0  0  0
 49122  1  0  0  0
 50 51  1  0  0  0
 50123  1  0  0  0
 50124  1  0  0  0
 51 52  1  0  0  0
 51125  1  0  0  0
 51126  1  0  0  0
 52127  1  0  0  0
 52128  1  0  0  0
 53 54  1  0  0  0
 54 55  2  0  0  0
 54129  1  0  0  0
 55 57  1  0  0  0
 55130  1  0  0  0
 56 69  2  0  0  0
 57 58  2  0  0  0
 57131  1  0  0  0
 58132  1  0  0  0
 59 60  1  0  0  0
 59 61  1  0  0  0
 59 62  1  0  0  0
 60133  1  0  0  0
 60134  1  0  0  0
 60135  1  0  0  0
 61136  1  0  0  0
 61137  1  0  0  0
 61138  1  0  0  0
 62139  1  0  0  0
 62140  1  0  0  0
 62141  1  0  0  0
 63 65  1  0  0  0
 63142  1  0  0  0
 63143  1  0  0  0
 63144  1  0  0  0
 64145  1  0  0  0
 65146  1  0  0  0
 68 85  1  0  0  0
 71 72  2  0  0  0
 71 74  1  0  0  0
 71147  1  0  0  0
 72 76  1  0  0  0
 72148  1  0  0  0
 73 75  1  0  0  0
 73 76  2  0  0  0
 73149  1  0  0  0
 74 75  2  0  0  0
 74 79  1  0  0  0
 75 84  1  0  0  0
 76 87  1  0  0  0
 77 78  2  0  0  0
 77 83  1  0  0  0
 77150  1  0  0  0
 78 81  1  0  0  0
 78 85  1  0  0  0
 79 80  2  0  0  0
 79151  1  0  0  0
 80 86  1  0  0  0
 80152  1  0  0  0
 81 82  1  0  0  0
 81153  1  0  0  0
 81154  1  0  0  0
 82 83  1  0  0  0
 82155  1  0  0  0
 82156  1  0  0  0
 83 86  1  0  0  0
 83157  1  0  0  0
 84158  1  0  0  0
 84159  1  0  0  0
 84160  1  0  0  0
 85161  1  0  0  0
 85162  1  0  0  0
 86163  1  0  0  0
 86164  1  0  0  0
 87165  1  0  0  0
M  ISO  4   1 100  68 101  85 101  87 100
M  END
> <chiral flag>
0

> <version>
0

> <s_m_source_file>
/data/baiqing/PycharmProjects/Reinvent-master-3.2/result/LINK_invent/BTK/process_docking_weight1_custom_product_contain_oxygen_bond_distance_aromatic_linkinvent_7_9_3/rearranged_h_0125.sdf

> <i_m_source_file_index>
56

> <r_mmod_Potential_Energy-OPLS-2005>
18.1422672271729

> <r_mmod_Stretch_Energy-OPLS-2005>
32.759765625

> <r_mmod_Bend_Energy-OPLS-2005>
139.156860351562

> <r_mmod_Torsional_Energy-OPLS-2005>
234.982391357422

> <r_mmod_Improper_Torsional_Energy-OPLS-2005>
4.41939830780029

> <r_mmod_Van_der_Waal_Energy-OPLS-2005>
167.422805786133

> <r_mmod_Electrostatic_Energy-OPLS-2005>
-370.193756103516

> <r_mmod_Solvation_Energy-OPLS-2005>
-196.690185546875

> <b_mmod_Minimization_Converged-OPLS-2005>
0

> <r_mmod_RMS_Derivative-OPLS-2005>
2.4530827999115

$$$$
56
                    3D
 Structure written by MMmdl.
160169  0  0  1  0            999 V2000
  -30.8012  -14.4699   20.5368 C   0  0  0  0  0  0
  -30.3959  -12.2872   19.4765 C   0  0  0  0  0  0
  -29.5073  -12.4752   18.2330 C   0  0  0  0  0  0
  -28.0251  -12.3504   18.6336 C   0  0  0  0  0  0
  -27.6568  -13.2283   19.8621 C   0  0  2  0  0  0
  -28.6976  -13.1097   21.0023 C   0  0  0  0  0  0
  -25.2559  -13.8202   20.5682 C   0  0  0  0  0  0
  -24.1828  -13.0450   20.9177 C   0  0  0  0  0  0
  -24.6399  -11.6918   20.8708 C   0  0  0  0  0  0
  -23.9062  -10.4302   21.0363 C   0  0  0  0  0  0
  -24.3604   -9.4229   21.9161 C   0  0  0  0  0  0
  -23.6292   -8.2248   22.0743 C   0  0  0  0  0  0
  -22.4282   -8.0266   21.3531 C   0  0  0  0  0  0
  -21.9904   -9.0239   20.4644 C   0  0  0  0  0  0
  -22.7213  -10.2122   20.3032 C   0  0  0  0  0  0
  -21.6862   -6.0711   22.5275 C   0  0  0  0  0  0
  -21.4013   -6.5619   23.8205 C   0  0  0  0  0  0
  -21.3666   -5.6774   24.9174 C   0  0  0  0  0  0
  -21.6057   -4.3043   24.7220 C   0  0  0  0  0  0
  -21.8819   -3.8129   23.4343 C   0  0  0  0  0  0
  -21.9195   -4.6941   22.3408 C   0  0  0  0  0  0
  -22.7854  -13.5237   21.1837 C   0  0  0  0  0  0
  -22.1668   -4.2117   21.0984 F   0  0  0  0  0  0
  -21.5641   -3.4528   25.7735 F   0  0  0  0  0  0
  -30.0337  -13.3457   20.4394 N   0  0  0  0  0  0
  -26.3013  -12.9413   20.3323 N   0  0  0  0  0  0
  -25.9336  -11.6557   20.5733 N   0  0  0  0  0  0
  -22.0489  -12.8232   22.0391 N   0  0  0  0  0  0
  -25.4257  -15.1913   20.4094 N   0  0  0  0  0  0
  -31.9503  -14.4766   20.0936 O   0  0  0  0  0  0
  -21.6646   -6.8850   21.4233 O   0  0  0  0  0  0
  -22.3547  -14.5538   20.6668 O   0  0  0  0  0  0
  -24.6185  -31.8666   23.2081 C   0  0  0  0  0  0
  -25.9077  -32.4804   23.8384 C   0  0  1  0  0  0
  -27.2373  -27.4091   20.0841 C   0  0  0  0  0  0
  -25.5924  -33.8612   24.2296 N   0  0  0  0  0  0
  -23.4067  -30.4909   21.5493 C   0  0  2  0  0  0
  -24.8518  -28.9510   20.1185 C   0  0  0  0  0  0
  -22.7416  -29.4655   22.4968 C   0  0  0  0  0  0
  -18.0273  -28.1360   22.8488 C   0  0  0  0  0  0
  -24.1468  -36.7283   23.2598 C   0  0  0  0  0  0
  -25.9424  -30.8158   21.3732 C   0  0  0  0  0  0
  -26.0155  -29.4521   20.7133 C   0  0  0  0  0  0
  -27.2087  -28.6894   20.6913 C   0  0  0  0  0  0
  -26.0463  -26.9270   19.4883 C   0  0  0  0  0  0
  -24.8619  -27.6859   19.5085 C   0  0  0  0  0  0
  -23.6178  -29.8250   20.1653 C   0  0  0  0  0  0
  -25.4057  -36.3096   24.0347 C   0  0  1  0  0  0
  -20.5866  -28.3667   23.1292 C   0  0  2  0  0  0
  -20.6751  -26.9404   22.5390 C   0  0  0  0  0  0
  -19.5728  -26.6383   21.5188 C   0  0  0  0  0  0
  -18.1919  -26.7903   22.1623 C   0  0  0  0  0  0
  -19.1521  -28.8825   23.2888 C   0  0  0  0  0  0
  -18.9453  -30.1423   23.8903 C   0  0  0  0  0  0
  -17.6462  -30.6579   24.0546 C   0  0  0  0  0  0
  -25.9061  -34.9479   23.5125 C   0  0  0  0  0  0
  -16.5350  -29.9079   23.6324 C   0  0  0  0  0  0
  -16.7264  -28.6485   23.0361 C   0  0  0  0  0  0
  -26.4485  -31.6614   25.0744 C   0  0  0  0  0  0
  -25.3749  -31.3779   26.1510 C   0  0  0  0  0  0
  -27.0305  -30.3029   24.6191 C   0  0  0  0  0  0
  -27.6080  -32.4336   25.7466 C   0  0  0  0  0  0
  -27.5679  -37.1610   24.8323 C   0  0  0  0  0  0
  -21.4143  -29.3045   22.3696 N   0  0  0  0  0  0
  -26.4161  -37.3884   23.9633 N   0  0  0  0  0  0
  -24.6733  -31.0743   22.0996 N   0  0  0  0  0  0
  -23.4179  -28.8189   23.3009 O   0  0  0  0  0  0
  -28.4142  -26.6749   20.0990 O   0  0  0  0  0  0
  -26.5640  -34.8968   22.4704 O   0  0  0  0  0  0
  -23.5366  -32.1449   23.7442 O   0  0  0  0  0  0
  -29.8231  -18.8962   20.6639 C   0  0  0  0  0  0
  -31.7092  -18.9717   22.1867 C   0  0  0  0  0  0
  -29.8083  -20.3128   20.6149 C   0  0  0  0  0  0
  -31.6836  -20.3818   22.1525 C   0  0  0  0  0  0
  -30.8131  -18.2122   21.4032 C   0  0  0  0  0  0
  -30.7627  -21.0731   21.3327 C   0  0  0  0  0  0
  -29.6461  -23.3953   20.7996 C   0  0  0  0  0  0
  -29.6410  -24.5138   20.0320 C   0  0  0  0  0  0
  -31.0440  -16.7575   21.2605 C   0  0  0  0  0  0
  -30.1942  -15.7452   20.9408 C   0  0  0  0  0  0
  -30.9141  -25.0380   19.3757 C   0  0  0  0  0  0
  -32.1983  -24.4505   19.9864 C   0  0  0  0  0  0
  -32.0821  -22.9406   20.2347 C   0  0  0  0  0  0
  -30.9032  -22.5981   21.1730 C   0  0  2  0  0  0
  -28.3681  -25.2927   19.6900 C   0  0  0  0  0  0
  -31.4513  -12.2930   19.1975 H   0  0  0  0  0  0
  -30.2230  -11.3054   19.9214 H   0  0  0  0  0  0
  -29.7563  -11.7229   17.4833 H   0  0  0  0  0  0
  -29.6999  -13.4471   17.7768 H   0  0  0  0  0  0
  -27.8406  -11.3001   18.8623 H   0  0  0  0  0  0
  -27.3821  -12.5932   17.7868 H   0  0  0  0  0  0
  -27.6754  -14.2620   19.5158 H   0  0  0  0  0  0
  -28.6618  -12.1187   21.4590 H   0  0  0  0  0  0
  -28.4705  -13.8143   21.8040 H   0  0  0  0  0  0
  -25.2738   -9.5739   22.4736 H   0  0  0  0  0  0
  -24.0027   -7.4645   22.7447 H   0  0  0  0  0  0
  -21.0834   -8.8726   19.8949 H   0  0  0  0  0  0
  -22.3647  -10.9643   19.6132 H   0  0  0  0  0  0
  -21.2001   -7.6122   23.9704 H   0  0  0  0  0  0
  -21.1497   -6.0504   25.9083 H   0  0  0  0  0  0
  -22.0596   -2.7590   23.2834 H   0  0  0  0  0  0
  -22.4104  -11.9926   22.4829 H   0  0  0  0  0  0
  -21.1087  -13.1275   22.2516 H   0  0  0  0  0  0
  -24.6568  -15.8443   20.5197 H   0  0  0  0  0  0
  -26.2808  -15.6374   20.1011 H   0  0  0  0  0  0
  -26.7147  -32.5486   23.1138 H   0  0  0  0  0  0
  -25.0028  -33.9773   25.0407 H   0  0  0  0  0  0
  -22.6976  -31.3093   21.4092 H   0  0  0  0  0  0
  -23.3927  -35.9400   23.2798 H   0  0  0  0  0  0
  -24.3705  -36.9356   22.2125 H   0  0  0  0  0  0
  -23.6899  -37.6204   23.6889 H   0  0  0  0  0  0
  -26.0818  -31.5837   20.6121 H   0  0  0  0  0  0
  -26.8216  -30.8506   22.0045 H   0  0  0  0  0  0
  -28.1074  -29.0730   21.1536 H   0  0  0  0  0  0
  -26.0020  -25.9645   18.9999 H   0  0  0  0  0  0
  -23.9656  -27.2873   19.0546 H   0  0  0  0  0  0
  -23.7372  -30.6004   19.4076 H   0  0  0  0  0  0
  -22.7388  -29.2535   19.8619 H   0  0  0  0  0  0
  -25.1144  -36.1851   25.0805 H   0  0  0  0  0  0
  -20.9975  -28.3230   24.1407 H   0  0  0  0  0  0
  -20.5645  -26.2283   23.3579 H   0  0  0  0  0  0
  -21.6619  -26.7424   22.1186 H   0  0  0  0  0  0
  -19.6885  -25.6300   21.1203 H   0  0  0  0  0  0
  -19.6649  -27.3192   20.6714 H   0  0  0  0  0  0
  -17.4179  -26.6637   21.4040 H   0  0  0  0  0  0
  -18.0339  -26.0037   22.9017 H   0  0  0  0  0  0
  -19.7945  -30.7205   24.2293 H   0  0  0  0  0  0
  -17.5037  -31.6266   24.5136 H   0  0  0  0  0  0
  -15.5352  -30.2979   23.7643 H   0  0  0  0  0  0
  -15.8662  -28.0790   22.7091 H   0  0  0  0  0  0
  -24.5764  -30.7335   25.7814 H   0  0  0  0  0  0
  -24.9144  -32.2982   26.5106 H   0  0  0  0  0  0
  -25.8060  -30.8757   27.0182 H   0  0  0  0  0  0
  -26.2848  -29.6764   24.1279 H   0  0  0  0  0  0
  -27.4059  -29.7306   25.4687 H   0  0  0  0  0  0
  -27.8700  -30.4299   23.9351 H   0  0  0  0  0  0
  -27.2747  -33.3685   26.1980 H   0  0  0  0  0  0
  -28.3891  -32.6819   25.0271 H   0  0  0  0  0  0
  -28.0738  -31.8489   26.5406 H   0  0  0  0  0  0
  -28.2113  -38.0421   24.8375 H   0  0  0  0  0  0
  -28.1719  -36.3188   24.4902 H   0  0  0  0  0  0
  -27.2650  -36.9684   25.8631 H   0  0  0  0  0  0
  -20.9295  -29.8790   21.6940 H   0  0  0  0  0  0
  -26.0004  -38.2796   24.2219 H   0  0  0  0  0  0
  -29.1333  -18.3393   20.0471 H   0  0  0  0  0  0
  -32.4797  -18.4766   22.7647 H   0  0  0  0  0  0
  -29.0972  -20.8085   19.9708 H   0  0  0  0  0  0
  -32.4267  -20.9317   22.7146 H   0  0  0  0  0  0
  -28.7178  -23.0467   21.2316 H   0  0  0  0  0  0
  -32.0986  -16.5176   21.3398 H   0  0  0  0  0  0
  -29.1258  -15.8993   20.9021 H   0  0  0  0  0  0
  -30.9465  -26.1259   19.4400 H   0  0  0  0  0  0
  -30.8632  -24.7945   18.3131 H   0  0  0  0  0  0
  -32.4056  -24.9488   20.9343 H   0  0  0  0  0  0
  -33.0496  -24.6623   19.3380 H   0  0  0  0  0  0
  -33.0174  -22.5715   20.6598 H   0  0  0  0  0  0
  -31.9561  -22.4258   19.2816 H   0  0  0  0  0  0
  -31.1591  -22.9704   22.1671 H   0  0  0  0  0  0
  -27.5204  -24.7795   20.1491 H   0  0  0  0  0  0
  -28.2281  -25.2455   18.6088 H   0  0  0  0  0  0
  1 25  1  0  0  0
  1 30  2  0  0  0
  1 80  1  0  0  0
  2  3  1  0  0  0
  2 25  1  0  0  0
  2 86  1  0  0  0
  2 87  1  0  0  0
  3  4  1  0  0  0
  3 88  1  0  0  0
  3 89  1  0  0  0
  4  5  1  0  0  0
  4 90  1  0  0  0
  4 91  1  0  0  0
  5  6  1  0  0  0
  5 26  1  0  0  0
  5 92  1  0  0  0
  6 25  1  0  0  0
  6 93  1  0  0  0
  6 94  1  0  0  0
  7  8  2  0  0  0
  7 26  1  0  0  0
  7 29  1  0  0  0
  8  9  1  0  0  0
  8 22  1  0  0  0
  9 10  1  0  0  0
  9 27  2  0  0  0
 10 11  2  0  0  0
 10 15  1  0  0  0
 11 12  1  0  0  0
 11 95  1  0  0  0
 12 13  2  0  0  0
 12 96  1  0  0  0
 13 14  1  0  0  0
 13 31  1  0  0  0
 14 15  2  0  0  0
 14 97  1  0  0  0
 15 98  1  0  0  0
 16 17  2  0  0  0
 16 21  1  0  0  0
 16 31  1  0  0  0
 17 18  1  0  0  0
 17 99  1  0  0  0
 18 19  2  0  0  0
 18100  1  0  0  0
 19 20  1  0  0  0
 19 24  1  0  0  0
 20 21  2  0  0  0
 20101  1  0  0  0
 21 23  1  0  0  0
 22 28  1  0  0  0
 22 32  2  0  0  0
 26 27  1  0  0  0
 28102  1  0  0  0
 28103  1  0  0  0
 29104  1  0  0  0
 29105  1  0  0  0
 33 34  1  0  0  0
 33 66  1  0  0  0
 33 70  2  0  0  0
 34 36  1  0  0  0
 34 59  1  0  0  0
 34106  1  0  0  0
 35 44  2  0  0  0
 35 45  1  0  0  0
 35 68  1  0  0  0
 36 56  1  0  0  0
 36107  1  0  0  0
 37 39  1  0  0  0
 37 47  1  0  0  0
 37 66  1  0  0  0
 37108  1  0  0  0
 38 43  2  0  0  0
 38 46  1  0  0  0
 38 47  1  0  0  0
 39 64  1  0  0  0
 39 67  2  0  0  0
 40 52  1  0  0  0
 40 53  2  0  0  0
 40 58  1  0  0  0
 41109  1  0  0  0
 41110  1  0  0  0
 41111  1  0  0  0
 41 48  1  0  0  0
 42 43  1  0  0  0
 42 66  1  0  0  0
 42112  1  0  0  0
 42113  1  0  0  0
 43 44  1  0  0  0
 44114  1  0  0  0
 45 46  2  0  0  0
 45115  1  0  0  0
 46116  1  0  0  0
 47117  1  0  0  0
 47118  1  0  0  0
 48 56  1  0  0  0
 48 65  1  0  0  0
 48119  1  0  0  0
 49 50  1  0  0  0
 49 53  1  0  0  0
 49 64  1  0  0  0
 49120  1  0  0  0
 50 51  1  0  0  0
 50121  1  0  0  0
 50122  1  0  0  0
 51 52  1  0  0  0
 51123  1  0  0  0
 51124  1  0  0  0
 52125  1  0  0  0
 52126  1  0  0  0
 53 54  1  0  0  0
 54 55  2  0  0  0
 54127  1  0  0  0
 55 57  1  0  0  0
 55128  1  0  0  0
 56 69  2  0  0  0
 57 58  2  0  0  0
 57129  1  0  0  0
 58130  1  0  0  0
 59 60  1  0  0  0
 59 61  1  0  0  0
 59 62  1  0  0  0
 60131  1  0  0  0
 60132  1  0  0  0
 60133  1  0  0  0
 61134  1  0  0  0
 61135  1  0  0  0
 61136  1  0  0  0
 62137  1  0  0  0
 62138  1  0  0  0
 62139  1  0  0  0
 63 65  1  0  0  0
 63140  1  0  0  0
 63141  1  0  0  0
 63142  1  0  0  0
 64143  1  0  0  0
 65144  1  0  0  0
 68 85  1  0  0  0
 71 73  2  0  0  0
 71 75  1  0  0  0
 71145  1  0  0  0
 72 74  1  0  0  0
 72 75  2  0  0  0
 72146  1  0  0  0
 73 76  1  0  0  0
 73147  1  0  0  0
 74 76  2  0  0  0
 74148  1  0  0  0
 75 79  1  0  0  0
 76 84  1  0  0  0
 77 78  2  0  0  0
 77 84  1  0  0  0
 77149  1  0  0  0
 78 81  1  0  0  0
 78 85  1  0  0  0
 79 80  2  0  0  0
 79150  1  0  0  0
 80151  1  0  0  0
 81 82  1  0  0  0
 81152  1  0  0  0
 81153  1  0  0  0
 82 83  1  0  0  0
 82154  1  0  0  0
 82155  1  0  0  0
 83 84  1  0  0  0
 83156  1  0  0  0
 83157  1  0  0  0
 84158  1  0  0  0
 85159  1  0  0  0
 85160  1  0  0  0
M  ISO  4   1 100  68 101  80 100  85 101
M  END
> <chiral flag>
0

> <version>
0

> <s_m_source_file>
/data/baiqing/PycharmProjects/Reinvent-master-3.2/result/LINK_invent/BTK/process_docking_weight1_custom_product_contain_oxygen_bond_distance_aromatic_linkinvent_7_9_3/rearranged_h_0125.sdf

> <i_m_source_file_index>
57

> <r_mmod_Potential_Energy-OPLS-2005>
37.5756187438965

> <r_mmod_Stretch_Energy-OPLS-2005>
41.9932708740234

> <r_mmod_Bend_Energy-OPLS-2005>
114.995735168457

> <r_mmod_Torsional_Energy-OPLS-2005>
199.629623413086

> <r_mmod_Improper_Torsional_Energy-OPLS-2005>
8.24188041687012

> <r_mmod_Van_der_Waal_Energy-OPLS-2005>
164.933837890625

> <r_mmod_Electrostatic_Energy-OPLS-2005>
-330.315246582031

> <r_mmod_Solvation_Energy-OPLS-2005>
-188.721969604492

> <b_mmod_Minimization_Converged-OPLS-2005>
0

> <r_mmod_RMS_Derivative-OPLS-2005>
3.29221677780151

$$$$
57
                    3D
 Structure written by MMmdl.
153161  0  0  1  0            999 V2000
  -30.6292  -14.6630   20.4932 C   0  0  0  0  0  0
  -30.4434  -12.4069   19.4579 C   0  0  0  0  0  0
  -29.5130  -12.5084   18.2286 C   0  0  0  0  0  0
  -28.0364  -12.3389   18.6420 C   0  0  0  0  0  0
  -27.6520  -13.2171   19.8624 C   0  0  2  0  0  0
  -28.7008  -13.0920   20.9916 C   0  0  0  0  0  0
  -25.2455  -13.8039   20.5551 C   0  0  0  0  0  0
  -24.1788  -13.0342   20.9215 C   0  0  0  0  0  0
  -24.6406  -11.6841   20.8790 C   0  0  0  0  0  0
  -23.9070  -10.4244   21.0439 C   0  0  0  0  0  0
  -24.3613   -9.4158   21.9210 C   0  0  0  0  0  0
  -23.6278   -8.2204   22.0761 C   0  0  0  0  0  0
  -22.4260   -8.0261   21.3543 C   0  0  0  0  0  0
  -21.9900   -9.0239   20.4649 C   0  0  0  0  0  0
  -22.7243  -10.2114   20.3073 C   0  0  0  0  0  0
  -21.6842   -6.0727   22.5281 C   0  0  0  0  0  0
  -21.4015   -6.5638   23.8213 C   0  0  0  0  0  0
  -21.3652   -5.6786   24.9173 C   0  0  0  0  0  0
  -21.6041   -4.3046   24.7223 C   0  0  0  0  0  0
  -21.8821   -3.8137   23.4343 C   0  0  0  0  0  0
  -21.9188   -4.6957   22.3400 C   0  0  0  0  0  0
  -22.7816  -13.5164   21.1846 C   0  0  0  0  0  0
  -22.1656   -4.2145   21.0978 F   0  0  0  0  0  0
  -21.5615   -3.4531   25.7730 F   0  0  0  0  0  0
  -30.0144  -13.4373   20.4249 N   0  0  0  0  0  0
  -26.2974  -12.9302   20.3306 N   0  0  0  0  0  0
  -25.9347  -11.6462   20.5827 N   0  0  0  0  0  0
  -22.0439  -12.8198   22.0423 N   0  0  0  0  0  0
  -25.3915  -15.1686   20.3640 N   0  0  0  0  0  0
  -31.7987  -14.8071   20.1285 O   0  0  0  0  0  0
  -21.6619   -6.8863   21.4238 O   0  0  0  0  0  0
  -22.3526  -14.5472   20.6671 O   0  0  0  0  0  0
  -24.6250  -31.8615   23.2044 C   0  0  0  0  0  0
  -25.9103  -32.4788   23.8380 C   0  0  1  0  0  0
  -27.2303  -27.3370   20.1048 C   0  0  0  0  0  0
  -25.5923  -33.8585   24.2307 N   0  0  0  0  0  0
  -23.4187  -30.4854   21.5477 C   0  0  2  0  0  0
  -24.8655  -28.9462   20.1126 C   0  0  0  0  0  0
  -22.7475  -29.4616   22.4941 C   0  0  0  0  0  0
  -18.0293  -28.1381   22.8485 C   0  0  0  0  0  0
  -24.1490  -36.7297   23.2630 C   0  0  0  0  0  0
  -25.9597  -30.7972   21.3747 C   0  0  0  0  0  0
  -26.0349  -29.4269   20.7144 C   0  0  0  0  0  0
  -27.2201  -28.6340   20.7018 C   0  0  0  0  0  0
  -26.0311  -26.9046   19.4871 C   0  0  0  0  0  0
  -24.8641  -27.6886   19.4922 C   0  0  0  0  0  0
  -23.6336  -29.8246   20.1615 C   0  0  0  0  0  0
  -25.4101  -36.3079   24.0336 C   0  0  1  0  0  0
  -20.5889  -28.3682   23.1277 C   0  0  2  0  0  0
  -20.6781  -26.9406   22.5401 C   0  0  0  0  0  0
  -19.5755  -26.6378   21.5204 C   0  0  0  0  0  0
  -18.1939  -26.7923   22.1622 C   0  0  0  0  0  0
  -19.1545  -28.8849   23.2877 C   0  0  0  0  0  0
  -18.9467  -30.1447   23.8901 C   0  0  0  0  0  0
  -17.6465  -30.6578   24.0559 C   0  0  0  0  0  0
  -25.9045  -34.9453   23.5121 C   0  0  0  0  0  0
  -16.5358  -29.9076   23.6323 C   0  0  0  0  0  0
  -16.7280  -28.6495   23.0350 C   0  0  0  0  0  0
  -26.4497  -31.6587   25.0738 C   0  0  0  0  0  0
  -25.3741  -31.3733   26.1481 C   0  0  0  0  0  0
  -27.0324  -30.3011   24.6174 C   0  0  0  0  0  0
  -27.6087  -32.4300   25.7477 C   0  0  0  0  0  0
  -27.5597  -37.1765   24.8439 C   0  0  0  0  0  0
  -21.4191  -29.3038   22.3679 N   0  0  0  0  0  0
  -26.4271  -37.3782   23.9444 N   0  0  0  0  0  0
  -24.6869  -31.0630   22.0997 N   0  0  0  0  0  0
  -23.4204  -28.8155   23.3013 O   0  0  0  0  0  0
  -28.3566  -26.5005   20.1376 O   0  0  0  0  0  0
  -26.5608  -34.8911   22.4683 O   0  0  0  0  0  0
  -23.5415  -32.1414   23.7375 O   0  0  0  0  0  0
  -31.1796  -19.3136   20.3211 C   0  0  0  0  0  0
  -31.1422  -17.8879   20.4226 C   0  0  0  0  0  0
  -28.8276  -19.4312   20.7316 C   0  0  0  0  0  0
  -30.0265  -20.1322   20.4767 C   0  0  0  0  0  0
  -28.7795  -18.0106   20.8490 C   0  0  0  0  0  0
  -29.9368  -17.1840   20.6885 C   0  0  0  0  0  0
  -30.1043  -21.6476   20.3638 C   0  0  0  0  0  0
  -29.1043  -22.5862   20.2914 C   0  0  0  0  0  0
  -29.3302  -24.0878   20.2145 C   0  0  0  0  0  0
  -27.4191  -17.4115   21.1222 C   0  0  0  0  0  0
  -28.1147  -25.0521   19.9606 C   0  0  0  0  0  0
  -29.8159  -15.7231   20.8124 N   0  0  0  0  0  0
  -30.4574  -24.5813   20.3318 O   0  0  0  0  0  0
  -31.4839  -12.5347   19.1541 H   0  0  0  0  0  0
  -30.3838  -11.4160   19.9109 H   0  0  0  0  0  0
  -29.7817  -11.7509   17.4900 H   0  0  0  0  0  0
  -29.6496  -13.4746   17.7415 H   0  0  0  0  0  0
  -27.8831  -11.2867   18.8848 H   0  0  0  0  0  0
  -27.3816  -12.5537   17.7968 H   0  0  0  0  0  0
  -27.6613  -14.2492   19.5126 H   0  0  0  0  0  0
  -28.7194  -12.0752   21.3872 H   0  0  0  0  0  0
  -28.4460  -13.7354   21.8348 H   0  0  0  0  0  0
  -25.2764   -9.5622   22.4786 H   0  0  0  0  0  0
  -23.9966   -7.4590   22.7488 H   0  0  0  0  0  0
  -21.0823   -8.8787   19.8961 H   0  0  0  0  0  0
  -22.3725  -10.9661   19.6183 H   0  0  0  0  0  0
  -21.2026   -7.6149   23.9718 H   0  0  0  0  0  0
  -21.1463   -6.0515   25.9074 H   0  0  0  0  0  0
  -22.0610   -2.7594   23.2852 H   0  0  0  0  0  0
  -22.4033  -11.9881   22.4850 H   0  0  0  0  0  0
  -21.1062  -13.1274   22.2606 H   0  0  0  0  0  0
  -24.5903  -15.7890   20.4051 H   0  0  0  0  0  0
  -26.1819  -15.5720   19.8805 H   0  0  0  0  0  0
  -26.7177  -32.5467   23.1139 H   0  0  0  0  0  0
  -25.0075  -33.9743   25.0454 H   0  0  0  0  0  0
  -22.7116  -31.3050   21.4068 H   0  0  0  0  0  0
  -23.3764  -35.9611   23.3214 H   0  0  0  0  0  0
  -24.3621  -36.8993   22.2064 H   0  0  0  0  0  0
  -23.7209  -37.6462   23.6697 H   0  0  0  0  0  0
  -26.0905  -31.5632   20.6090 H   0  0  0  0  0  0
  -26.8398  -30.8450   22.0044 H   0  0  0  0  0  0
  -28.1182  -28.9993   21.1811 H   0  0  0  0  0  0
  -25.9605  -25.9477   18.9925 H   0  0  0  0  0  0
  -23.9677  -27.3143   19.0166 H   0  0  0  0  0  0
  -23.7544  -30.6049   19.4091 H   0  0  0  0  0  0
  -22.7546  -29.2556   19.8547 H   0  0  0  0  0  0
  -25.1261  -36.1926   25.0822 H   0  0  0  0  0  0
  -20.9984  -28.3259   24.1392 H   0  0  0  0  0  0
  -20.5671  -26.2298   23.3601 H   0  0  0  0  0  0
  -21.6648  -26.7430   22.1199 H   0  0  0  0  0  0
  -19.6911  -25.6284   21.1234 H   0  0  0  0  0  0
  -19.6684  -27.3185   20.6728 H   0  0  0  0  0  0
  -17.4202  -26.6662   21.4033 H   0  0  0  0  0  0
  -18.0344  -26.0064   22.9019 H   0  0  0  0  0  0
  -19.7941  -30.7260   24.2276 H   0  0  0  0  0  0
  -17.5017  -31.6258   24.5161 H   0  0  0  0  0  0
  -15.5356  -30.2981   23.7627 H   0  0  0  0  0  0
  -15.8684  -28.0798   22.7069 H   0  0  0  0  0  0
  -24.5884  -30.7117   25.7813 H   0  0  0  0  0  0
  -24.8973  -32.2908   26.4945 H   0  0  0  0  0  0
  -25.8063  -30.8872   27.0236 H   0  0  0  0  0  0
  -26.2886  -29.6756   24.1226 H   0  0  0  0  0  0
  -27.4064  -29.7272   25.4662 H   0  0  0  0  0  0
  -27.8742  -30.4305   23.9369 H   0  0  0  0  0  0
  -27.2745  -33.3613   26.2058 H   0  0  0  0  0  0
  -28.3878  -32.6827   25.0273 H   0  0  0  0  0  0
  -28.0772  -31.8418   26.5376 H   0  0  0  0  0  0
  -28.2510  -38.0164   24.7631 H   0  0  0  0  0  0
  -28.1194  -36.2710   24.6053 H   0  0  0  0  0  0
  -27.2354  -37.1153   25.8841 H   0  0  0  0  0  0
  -20.9369  -29.8793   21.6917 H   0  0  0  0  0  0
  -26.0143  -38.2831   24.1539 H   0  0  0  0  0  0
  -32.1294  -19.7879   20.1184 H   0  0  0  0  0  0
  -32.0672  -17.3447   20.2946 H   0  0  0  0  0  0
  -27.9144  -19.9953   20.8568 H   0  0  0  0  0  0
  -31.1151  -22.0329   20.3562 H   0  0  0  0  0  0
  -28.0747  -22.2629   20.2877 H   0  0  0  0  0  0
  -26.7962  -18.0924   21.7046 H   0  0  0  0  0  0
  -27.4737  -16.4721   21.6712 H   0  0  0  0  0  0
  -26.9231  -17.2517   20.1663 H   0  0  0  0  0  0
  -27.3010  -24.7410   20.6170 H   0  0  0  0  0  0
  -27.7861  -24.8747   18.9363 H   0  0  0  0  0  0
  -28.8941  -15.4155   21.0782 H   0  0  0  0  0  0
  1 25  1  0  0  0
  1 30  2  0  0  0
  1 82  1  0  0  0
  2  3  1  0  0  0
  2 25  1  0  0  0
  2 84  1  0  0  0
  2 85  1  0  0  0
  3  4  1  0  0  0
  3 86  1  0  0  0
  3 87  1  0  0  0
  4  5  1  0  0  0
  4 88  1  0  0  0
  4 89  1  0  0  0
  5  6  1  0  0  0
  5 26  1  0  0  0
  5 90  1  0  0  0
  6 25  1  0  0  0
  6 91  1  0  0  0
  6 92  1  0  0  0
  7  8  2  0  0  0
  7 26  1  0  0  0
  7 29  1  0  0  0
  8  9  1  0  0  0
  8 22  1  0  0  0
  9 10  1  0  0  0
  9 27  2  0  0  0
 10 11  2  0  0  0
 10 15  1  0  0  0
 11 12  1  0  0  0
 11 93  1  0  0  0
 12 13  2  0  0  0
 12 94  1  0  0  0
 13 14  1  0  0  0
 13 31  1  0  0  0
 14 15  2  0  0  0
 14 95  1  0  0  0
 15 96  1  0  0  0
 16 17  2  0  0  0
 16 21  1  0  0  0
 16 31  1  0  0  0
 17 18  1  0  0  0
 17 97  1  0  0  0
 18 19  2  0  0  0
 18 98  1  0  0  0
 19 20  1  0  0  0
 19 24  1  0  0  0
 20 21  2  0  0  0
 20 99  1  0  0  0
 21 23  1  0  0  0
 22 28  1  0  0  0
 22 32  2  0  0  0
 26 27  1  0  0  0
 28100  1  0  0  0
 28101  1  0  0  0
 29102  1  0  0  0
 29103  1  0  0  0
 33 34  1  0  0  0
 33 66  1  0  0  0
 33 70  2  0  0  0
 34 36  1  0  0  0
 34 59  1  0  0  0
 34104  1  0  0  0
 35 44  2  0  0  0
 35 45  1  0  0  0
 35 68  1  0  0  0
 36 56  1  0  0  0
 36105  1  0  0  0
 37 39  1  0  0  0
 37 47  1  0  0  0
 37 66  1  0  0  0
 37106  1  0  0  0
 38 43  2  0  0  0
 38 46  1  0  0  0
 38 47  1  0  0  0
 39 64  1  0  0  0
 39 67  2  0  0  0
 40 52  1  0  0  0
 40 53  2  0  0  0
 40 58  1  0  0  0
 41107  1  0  0  0
 41108  1  0  0  0
 41109  1  0  0  0
 41 48  1  0  0  0
 42 43  1  0  0  0
 42 66  1  0  0  0
 42110  1  0  0  0
 42111  1  0  0  0
 43 44  1  0  0  0
 44112  1  0  0  0
 45 46  2  0  0  0
 45113  1  0  0  0
 46114  1  0  0  0
 47115  1  0  0  0
 47116  1  0  0  0
 48 56  1  0  0  0
 48 65  1  0  0  0
 48117  1  0  0  0
 49 50  1  0  0  0
 49 53  1  0  0  0
 49 64  1  0  0  0
 49118  1  0  0  0
 50 51  1  0  0  0
 50119  1  0  0  0
 50120  1  0  0  0
 51 52  1  0  0  0
 51121  1  0  0  0
 51122  1  0  0  0
 52123  1  0  0  0
 52124  1  0  0  0
 53 54  1  0  0  0
 54 55  2  0  0  0
 54125  1  0  0  0
 55 57  1  0  0  0
 55126  1  0  0  0
 56 69  2  0  0  0
 57 58  2  0  0  0
 57127  1  0  0  0
 58128  1  0  0  0
 59 60  1  0  0  0
 59 61  1  0  0  0
 59 62  1  0  0  0
 60129  1  0  0  0
 60130  1  0  0  0
 60131  1  0  0  0
 61132  1  0  0  0
 61133  1  0  0  0
 61134  1  0  0  0
 62135  1  0  0  0
 62136  1  0  0  0
 62137  1  0  0  0
 63 65  1  0  0  0
 63138  1  0  0  0
 63139  1  0  0  0
 63140  1  0  0  0
 64141  1  0  0  0
 65142  1  0  0  0
 68 81  1  0  0  0
 71 72  2  0  0  0
 71 74  1  0  0  0
 71143  1  0  0  0
 72 76  1  0  0  0
 72144  1  0  0  0
 73 74  2  0  0  0
 73 75  1  0  0  0
 73145  1  0  0  0
 74 77  1  0  0  0
 75 76  2  0  0  0
 75 80  1  0  0  0
 76 82  1  0  0  0
 77 78  2  0  0  0
 77146  1  0  0  0
 78 79  1  0  0  0
 78147  1  0  0  0
 79 81  1  0  0  0
 79 83  2  0  0  0
 80148  1  0  0  0
 80149  1  0  0  0
 80150  1  0  0  0
 81151  1  0  0  0
 81152  1  0  0  0
 82153  1  0  0  0
M  ISO  4   1 100  68 101  81 101  82 100
M  END
> <chiral flag>
0

> <version>
0

> <s_m_source_file>
/data/baiqing/PycharmProjects/Reinvent-master-3.2/result/LINK_invent/BTK/process_docking_weight1_custom_product_contain_oxygen_bond_distance_aromatic_linkinvent_7_9_3/rearranged_h_0125.sdf

> <i_m_source_file_index>
58

> <r_mmod_Potential_Energy-OPLS-2005>
17.3762893676758

> <r_mmod_Stretch_Energy-OPLS-2005>
76.2647705078125

> <r_mmod_Bend_Energy-OPLS-2005>
128.889190673828

> <r_mmod_Torsional_Energy-OPLS-2005>
209.611755371094

> <r_mmod_Improper_Torsional_Energy-OPLS-2005>
5.33827304840088

> <r_mmod_Van_der_Waal_Energy-OPLS-2005>
150.311431884766

> <r_mmod_Electrostatic_Energy-OPLS-2005>
-373.359924316406

> <r_mmod_Solvation_Energy-OPLS-2005>
-228.910049438477

> <b_mmod_Minimization_Converged-OPLS-2005>
0

> <r_mmod_RMS_Derivative-OPLS-2005>
1.88998234272003

$$$$
58
                    3D
 Structure written by MMmdl.
152160  0  0  1  0            999 V2000
  -30.6768  -14.5573   20.4728 C   0  0  0  0  0  0
  -30.4124  -12.3232   19.4655 C   0  0  0  0  0  0
  -29.4997  -12.4738   18.2278 C   0  0  0  0  0  0
  -28.0166  -12.3358   18.6292 C   0  0  0  0  0  0
  -27.6458  -13.2117   19.8571 C   0  0  2  0  0  0
  -28.6862  -13.0669   20.9896 C   0  0  0  0  0  0
  -25.2498  -13.8180   20.5709 C   0  0  0  0  0  0
  -24.1769  -13.0439   20.9205 C   0  0  0  0  0  0
  -24.6348  -11.6909   20.8763 C   0  0  0  0  0  0
  -23.9040  -10.4278   21.0414 C   0  0  0  0  0  0
  -24.3595   -9.4190   21.9185 C   0  0  0  0  0  0
  -23.6265   -8.2238   22.0766 C   0  0  0  0  0  0
  -22.4230   -8.0298   21.3577 C   0  0  0  0  0  0
  -21.9860   -9.0278   20.4680 C   0  0  0  0  0  0
  -22.7203  -10.2148   20.3074 C   0  0  0  0  0  0
  -21.6841   -6.0734   22.5283 C   0  0  0  0  0  0
  -21.4014   -6.5630   23.8228 C   0  0  0  0  0  0
  -21.3666   -5.6791   24.9195 C   0  0  0  0  0  0
  -21.6028   -4.3056   24.7237 C   0  0  0  0  0  0
  -21.8814   -3.8139   23.4363 C   0  0  0  0  0  0
  -21.9180   -4.6956   22.3409 C   0  0  0  0  0  0
  -22.7797  -13.5249   21.1855 C   0  0  0  0  0  0
  -22.1644   -4.2147   21.0992 F   0  0  0  0  0  0
  -21.5626   -3.4542   25.7750 F   0  0  0  0  0  0
  -30.0112  -13.3640   20.4308 N   0  0  0  0  0  0
  -26.2919  -12.9356   20.3306 N   0  0  0  0  0  0
  -25.9250  -11.6514   20.5734 N   0  0  0  0  0  0
  -22.0413  -12.8312   22.0447 N   0  0  0  0  0  0
  -25.4219  -15.1905   20.4157 N   0  0  0  0  0  0
  -31.8664  -14.6180   20.1491 O   0  0  0  0  0  0
  -21.6626   -6.8874   21.4245 O   0  0  0  0  0  0
  -22.3512  -14.5557   20.6682 O   0  0  0  0  0  0
  -24.6228  -31.8642   23.2080 C   0  0  0  0  0  0
  -25.9091  -32.4803   23.8389 C   0  0  1  0  0  0
  -27.2132  -27.3487   20.1044 C   0  0  0  0  0  0
  -25.5920  -33.8600   24.2299 N   0  0  0  0  0  0
  -23.4135  -30.4927   21.5513 C   0  0  2  0  0  0
  -24.8568  -28.9616   20.1153 C   0  0  0  0  0  0
  -22.7456  -29.4646   22.4957 C   0  0  0  0  0  0
  -18.0292  -28.1379   22.8522 C   0  0  0  0  0  0
  -24.1482  -36.7309   23.2639 C   0  0  0  0  0  0
  -25.9563  -30.8039   21.3794 C   0  0  0  0  0  0
  -26.0289  -29.4371   20.7149 C   0  0  0  0  0  0
  -27.2111  -28.6416   20.7033 C   0  0  0  0  0  0
  -26.0098  -26.9269   19.4806 C   0  0  0  0  0  0
  -24.8449  -27.7075   19.4964 C   0  0  0  0  0  0
  -23.6270  -29.8378   20.1642 C   0  0  0  0  0  0
  -25.4108  -36.3087   24.0322 C   0  0  1  0  0  0
  -20.5888  -28.3679   23.1319 C   0  0  2  0  0  0
  -20.6778  -26.9410   22.5430 C   0  0  0  0  0  0
  -19.5744  -26.6384   21.5237 C   0  0  0  0  0  0
  -18.1925  -26.7933   22.1648 C   0  0  0  0  0  0
  -19.1541  -28.8846   23.2919 C   0  0  0  0  0  0
  -18.9466  -30.1455   23.8921 C   0  0  0  0  0  0
  -17.6461  -30.6590   24.0569 C   0  0  0  0  0  0
  -25.9055  -34.9461   23.5112 C   0  0  0  0  0  0
  -16.5357  -29.9092   23.6327 C   0  0  0  0  0  0
  -16.7276  -28.6503   23.0371 C   0  0  0  0  0  0
  -26.4484  -31.6612   25.0749 C   0  0  0  0  0  0
  -25.3727  -31.3778   26.1491 C   0  0  0  0  0  0
  -27.0318  -30.3023   24.6218 C   0  0  0  0  0  0
  -27.6043  -32.4365   25.7505 C   0  0  0  0  0  0
  -27.5575  -37.1804   24.8460 C   0  0  0  0  0  0
  -21.4174  -29.3037   22.3702 N   0  0  0  0  0  0
  -26.4280  -37.3785   23.9412 N   0  0  0  0  0  0
  -24.6827  -31.0686   22.1033 N   0  0  0  0  0  0
  -23.4200  -28.8179   23.3005 O   0  0  0  0  0  0
  -28.3281  -26.4972   20.1613 O   0  0  0  0  0  0
  -26.5629  -34.8914   22.4675 O   0  0  0  0  0  0
  -23.5403  -32.1447   23.7420 O   0  0  0  0  0  0
  -28.5115  -18.6883   20.5676 C   0  0  0  0  0  0
  -30.7684  -19.5064   20.3110 C   0  0  0  0  0  0
  -28.0382  -20.0203   20.4508 C   0  0  0  0  0  0
  -30.2964  -20.8415   20.1989 C   0  0  0  0  0  0
  -29.8915  -18.3991   20.4741 C   0  0  0  0  0  0
  -28.9121  -21.1219   20.2493 C   0  0  0  0  0  0
  -30.4641  -17.0134   20.4772 C   0  0  0  0  0  0
  -29.8780  -15.7934   20.6575 C   0  0  0  0  0  0
  -28.2865  -22.5198   19.9816 C   0  0  0  0  0  0
  -29.0161  -23.8874   20.2770 C   0  0  0  0  0  0
  -28.0430  -25.0758   19.9260 C   0  0  0  0  0  0
  -31.4612  -12.3931   19.1758 H   0  0  0  0  0  0
  -30.2999  -11.3337   19.9137 H   0  0  0  0  0  0
  -29.7547  -11.7219   17.4802 H   0  0  0  0  0  0
  -29.6690  -13.4424   17.7534 H   0  0  0  0  0  0
  -27.8347  -11.2847   18.8588 H   0  0  0  0  0  0
  -27.3717  -12.5764   17.7830 H   0  0  0  0  0  0
  -27.6665  -14.2442   19.5101 H   0  0  0  0  0  0
  -28.6737  -12.0521   21.3904 H   0  0  0  0  0  0
  -28.4486  -13.7205   21.8294 H   0  0  0  0  0  0
  -25.2742   -9.5677   22.4768 H   0  0  0  0  0  0
  -23.9998   -7.4610   22.7452 H   0  0  0  0  0  0
  -21.0793   -8.8789   19.8986 H   0  0  0  0  0  0
  -22.3639  -10.9702   19.6212 H   0  0  0  0  0  0
  -21.2020   -7.6141   23.9741 H   0  0  0  0  0  0
  -21.1487   -6.0516   25.9106 H   0  0  0  0  0  0
  -22.0575   -2.7593   23.2856 H   0  0  0  0  0  0
  -22.4017  -12.0036   22.4935 H   0  0  0  0  0  0
  -21.1057  -13.1419   22.2647 H   0  0  0  0  0  0
  -24.6575  -15.8439   20.5459 H   0  0  0  0  0  0
  -26.2753  -15.6365   20.1034 H   0  0  0  0  0  0
  -26.7154  -32.5467   23.1132 H   0  0  0  0  0  0
  -24.9985  -33.9772   25.0386 H   0  0  0  0  0  0
  -22.7042  -31.3105   21.4130 H   0  0  0  0  0  0
  -23.3728  -35.9657   23.3309 H   0  0  0  0  0  0
  -24.3580  -36.8933   22.2054 H   0  0  0  0  0  0
  -23.7250  -37.6517   23.6669 H   0  0  0  0  0  0
  -26.0883  -31.5728   20.6174 H   0  0  0  0  0  0
  -26.8362  -30.8442   22.0108 H   0  0  0  0  0  0
  -28.1089  -29.0002   21.1884 H   0  0  0  0  0  0
  -25.9143  -25.9712   18.9888 H   0  0  0  0  0  0
  -23.9406  -27.3321   19.0381 H   0  0  0  0  0  0
  -23.7520  -30.6185   19.4133 H   0  0  0  0  0  0
  -22.7466  -29.2703   19.8566 H   0  0  0  0  0  0
  -25.1275  -36.1937   25.0814 H   0  0  0  0  0  0
  -20.9979  -28.3248   24.1440 H   0  0  0  0  0  0
  -20.5701  -26.2282   23.3621 H   0  0  0  0  0  0
  -21.6645  -26.7460   22.1198 H   0  0  0  0  0  0
  -19.6902  -25.6292   21.1270 H   0  0  0  0  0  0
  -19.6671  -27.3194   20.6767 H   0  0  0  0  0  0
  -17.4195  -26.6716   21.4047 H   0  0  0  0  0  0
  -18.0309  -26.0058   22.9024 H   0  0  0  0  0  0
  -19.7941  -30.7283   24.2286 H   0  0  0  0  0  0
  -17.5017  -31.6273   24.5163 H   0  0  0  0  0  0
  -15.5356  -30.2999   23.7629 H   0  0  0  0  0  0
  -15.8686  -28.0814   22.7082 H   0  0  0  0  0  0
  -24.5793  -30.7273   25.7800 H   0  0  0  0  0  0
  -24.9061  -32.2982   26.5013 H   0  0  0  0  0  0
  -25.8024  -30.8828   27.0206 H   0  0  0  0  0  0
  -26.2905  -29.6790   24.1208 H   0  0  0  0  0  0
  -27.3960  -29.7265   25.4737 H   0  0  0  0  0  0
  -27.8798  -30.4288   23.9482 H   0  0  0  0  0  0
  -27.2604  -33.3594   26.2183 H   0  0  0  0  0  0
  -28.3770  -32.7069   25.0298 H   0  0  0  0  0  0
  -28.0814  -31.8464   26.5338 H   0  0  0  0  0  0
  -28.2593  -38.0097   24.7478 H   0  0  0  0  0  0
  -28.1059  -36.2629   24.6286 H   0  0  0  0  0  0
  -27.2313  -37.1457   25.8870 H   0  0  0  0  0  0
  -20.9340  -29.8766   21.6934 H   0  0  0  0  0  0
  -26.0156  -38.2852   24.1434 H   0  0  0  0  0  0
  -27.7930  -17.8876   20.6841 H   0  0  0  0  0  0
  -31.8322  -19.3282   20.2339 H   0  0  0  0  0  0
  -26.9697  -20.1886   20.4786 H   0  0  0  0  0  0
  -31.0087  -21.6404   20.0344 H   0  0  0  0  0  0
  -31.5240  -17.0140   20.2615 H   0  0  0  0  0  0
  -28.8279  -15.7411   20.8977 H   0  0  0  0  0  0
  -27.3446  -22.5344   20.5346 H   0  0  0  0  0  0
  -27.9932  -22.5168   18.9301 H   0  0  0  0  0  0
  -29.9299  -23.9677   19.6870 H   0  0  0  0  0  0
  -29.3074  -23.9390   21.3270 H   0  0  0  0  0  0
  -27.1296  -24.8421   20.4761 H   0  0  0  0  0  0
  -27.8123  -24.9737   18.8645 H   0  0  0  0  0  0
  1 25  1  0  0  0
  1 30  2  0  0  0
  1 78  1  0  0  0
  2  3  1  0  0  0
  2 25  1  0  0  0
  2 82  1  0  0  0
  2 83  1  0  0  0
  3  4  1  0  0  0
  3 84  1  0  0  0
  3 85  1  0  0  0
  4  5  1  0  0  0
  4 86  1  0  0  0
  4 87  1  0  0  0
  5  6  1  0  0  0
  5 26  1  0  0  0
  5 88  1  0  0  0
  6 25  1  0  0  0
  6 89  1  0  0  0
  6 90  1  0  0  0
  7  8  2  0  0  0
  7 26  1  0  0  0
  7 29  1  0  0  0
  8  9  1  0  0  0
  8 22  1  0  0  0
  9 10  1  0  0  0
  9 27  2  0  0  0
 10 11  2  0  0  0
 10 15  1  0  0  0
 11 12  1  0  0  0
 11 91  1  0  0  0
 12 13  2  0  0  0
 12 92  1  0  0  0
 13 14  1  0  0  0
 13 31  1  0  0  0
 14 15  2  0  0  0
 14 93  1  0  0  0
 15 94  1  0  0  0
 16 17  2  0  0  0
 16 21  1  0  0  0
 16 31  1  0  0  0
 17 18  1  0  0  0
 17 95  1  0  0  0
 18 19  2  0  0  0
 18 96  1  0  0  0
 19 20  1  0  0  0
 19 24  1  0  0  0
 20 21  2  0  0  0
 20 97  1  0  0  0
 21 23  1  0  0  0
 22 28  1  0  0  0
 22 32  2  0  0  0
 26 27  1  0  0  0
 28 98  1  0  0  0
 28 99  1  0  0  0
 29100  1  0  0  0
 29101  1  0  0  0
 33 34  1  0  0  0
 33 66  1  0  0  0
 33 70  2  0  0  0
 34 36  1  0  0  0
 34 59  1  0  0  0
 34102  1  0  0  0
 35 44  2  0  0  0
 35 45  1  0  0  0
 35 68  1  0  0  0
 36 56  1  0  0  0
 36103  1  0  0  0
 37 39  1  0  0  0
 37 47  1  0  0  0
 37 66  1  0  0  0
 37104  1  0  0  0
 38 43  2  0  0  0
 38 46  1  0  0  0
 38 47  1  0  0  0
 39 64  1  0  0  0
 39 67  2  0  0  0
 40 52  1  0  0  0
 40 53  2  0  0  0
 40 58  1  0  0  0
 41105  1  0  0  0
 41106  1  0  0  0
 41107  1  0  0  0
 41 48  1  0  0  0
 42 43  1  0  0  0
 42 66  1  0  0  0
 42108  1  0  0  0
 42109  1  0  0  0
 43 44  1  0  0  0
 44110  1  0  0  0
 45 46  2  0  0  0
 45111  1  0  0  0
 46112  1  0  0  0
 47113  1  0  0  0
 47114  1  0  0  0
 48 56  1  0  0  0
 48 65  1  0  0  0
 48115  1  0  0  0
 49 50  1  0  0  0
 49 53  1  0  0  0
 49 64  1  0  0  0
 49116  1  0  0  0
 50 51  1  0  0  0
 50117  1  0  0  0
 50118  1  0  0  0
 51 52  1  0  0  0
 51119  1  0  0  0
 51120  1  0  0  0
 52121  1  0  0  0
 52122  1  0  0  0
 53 54  1  0  0  0
 54 55  2  0  0  0
 54123  1  0  0  0
 55 57  1  0  0  0
 55124  1  0  0  0
 56 69  2  0  0  0
 57 58  2  0  0  0
 57125  1  0  0  0
 58126  1  0  0  0
 59 60  1  0  0  0
 59 61  1  0  0  0
 59 62  1  0  0  0
 60127  1  0  0  0
 60128  1  0  0  0
 60129  1  0  0  0
 61130  1  0  0  0
 61131  1  0  0  0
 61132  1  0  0  0
 62133  1  0  0  0
 62134  1  0  0  0
 62135  1  0  0  0
 63 65  1  0  0  0
 63136  1  0  0  0
 63137  1  0  0  0
 63138  1  0  0  0
 64139  1  0  0  0
 65140  1  0  0  0
 68 81  1  0  0  0
 71 73  2  0  0  0
 71 75  1  0  0  0
 71141  1  0  0  0
 72 74  1  0  0  0
 72 75  2  0  0  0
 72142  1  0  0  0
 73 76  1  0  0  0
 73143  1  0  0  0
 74 76  2  0  0  0
 74144  1  0  0  0
 75 77  1  0  0  0
 76 79  1  0  0  0
 77 78  2  0  0  0
 77145  1  0  0  0
 78146  1  0  0  0
 79 80  1  0  0  0
 79147  1  0  0  0
 79148  1  0  0  0
 80 81  1  0  0  0
 80149  1  0  0  0
 80150  1  0  0  0
 81151  1  0  0  0
 81152  1  0  0  0
M  ISO  4   1 100  68 101  78 100  81 101
M  END
> <chiral flag>
0

> <version>
0

> <s_m_source_file>
/data/baiqing/PycharmProjects/Reinvent-master-3.2/result/LINK_invent/BTK/process_docking_weight1_custom_product_contain_oxygen_bond_distance_aromatic_linkinvent_7_9_3/rearranged_h_0125.sdf

> <i_m_source_file_index>
59

> <r_mmod_Potential_Energy-OPLS-2005>
53.9852981567383

> <r_mmod_Stretch_Energy-OPLS-2005>
58.0835304260254

> <r_mmod_Bend_Energy-OPLS-2005>
136.699890136719

> <r_mmod_Torsional_Energy-OPLS-2005>
180.458831787109

> <r_mmod_Improper_Torsional_Energy-OPLS-2005>
6.45808601379395

> <r_mmod_Van_der_Waal_Energy-OPLS-2005>
162.085784912109

> <r_mmod_Electrostatic_Energy-OPLS-2005>
-334.26708984375

> <r_mmod_Solvation_Energy-OPLS-2005>
-193.531509399414

> <b_mmod_Minimization_Converged-OPLS-2005>
0

> <r_mmod_RMS_Derivative-OPLS-2005>
3.39928030967712

$$$$
59
                    3D
 Structure written by MMmdl.
156164  0  0  1  0            999 V2000
  -30.6814  -14.7284   20.4292 C   0  0  0  0  0  0
  -30.4099  -12.4407   19.4868 C   0  0  0  0  0  0
  -29.5041  -12.4923   18.2394 C   0  0  0  0  0  0
  -28.0304  -12.3251   18.6496 C   0  0  0  0  0  0
  -27.6317  -13.2453   19.8346 C   0  0  2  0  0  0
  -28.6745  -13.2335   20.9706 C   0  0  0  0  0  0
  -25.2478  -13.8230   20.5708 C   0  0  0  0  0  0
  -24.1787  -13.0450   20.9215 C   0  0  0  0  0  0
  -24.6403  -11.6933   20.8753 C   0  0  0  0  0  0
  -23.9091  -10.4299   21.0413 C   0  0  0  0  0  0
  -24.3637   -9.4207   21.9189 C   0  0  0  0  0  0
  -23.6305   -8.2245   22.0760 C   0  0  0  0  0  0
  -22.4287   -8.0287   21.3549 C   0  0  0  0  0  0
  -21.9929   -9.0264   20.4650 C   0  0  0  0  0  0
  -22.7263  -10.2140   20.3061 C   0  0  0  0  0  0
  -21.6860   -6.0743   22.5283 C   0  0  0  0  0  0
  -21.4019   -6.5651   23.8216 C   0  0  0  0  0  0
  -21.3657   -5.6803   24.9177 C   0  0  0  0  0  0
  -21.6040   -4.3064   24.7228 C   0  0  0  0  0  0
  -21.8821   -3.8154   23.4351 C   0  0  0  0  0  0
  -21.9194   -4.6968   22.3405 C   0  0  0  0  0  0
  -22.7808  -13.5211   21.1879 C   0  0  0  0  0  0
  -22.1663   -4.2155   21.0980 F   0  0  0  0  0  0
  -21.5623   -3.4545   25.7739 F   0  0  0  0  0  0
  -29.9820  -13.5412   20.3849 N   0  0  0  0  0  0
  -26.2899  -12.9461   20.3237 N   0  0  0  0  0  0
  -25.9332  -11.6589   20.5738 N   0  0  0  0  0  0
  -22.0472  -12.8187   22.0435 N   0  0  0  0  0  0
  -25.4167  -15.1957   20.4157 N   0  0  0  0  0  0
  -31.8946  -14.6754   20.2140 O   0  0  0  0  0  0
  -21.6644   -6.8888   21.4246 O   0  0  0  0  0  0
  -22.3482  -14.5518   20.6735 O   0  0  0  0  0  0
  -24.6317  -31.8566   23.2013 C   0  0  0  0  0  0
  -25.9146  -32.4758   23.8350 C   0  0  1  0  0  0
  -27.2046  -27.2593   20.1223 C   0  0  0  0  0  0
  -25.5940  -33.8562   24.2266 N   0  0  0  0  0  0
  -23.4266  -30.4830   21.5460 C   0  0  2  0  0  0
  -24.8697  -28.9373   20.1101 C   0  0  0  0  0  0
  -22.7497  -29.4616   22.4920 C   0  0  0  0  0  0
  -18.0289  -28.1392   22.8486 C   0  0  0  0  0  0
  -24.1489  -36.7283   23.2638 C   0  0  0  0  0  0
  -25.9755  -30.7687   21.3827 C   0  0  0  0  0  0
  -26.0455  -29.3940   20.7195 C   0  0  0  0  0  0
  -27.2182  -28.5695   20.7126 C   0  0  0  0  0  0
  -26.0030  -26.8799   19.4784 C   0  0  0  0  0  0
  -24.8546  -27.6885   19.4780 C   0  0  0  0  0  0
  -23.6426  -29.8249   20.1605 C   0  0  0  0  0  0
  -25.4119  -36.3074   24.0322 C   0  0  1  0  0  0
  -20.5892  -28.3705   23.1263 C   0  0  2  0  0  0
  -20.6776  -26.9421   22.5407 C   0  0  0  0  0  0
  -19.5754  -26.6390   21.5208 C   0  0  0  0  0  0
  -18.1933  -26.7936   22.1623 C   0  0  0  0  0  0
  -19.1542  -28.8865   23.2869 C   0  0  0  0  0  0
  -18.9466  -30.1465   23.8890 C   0  0  0  0  0  0
  -17.6465  -30.6592   24.0568 C   0  0  0  0  0  0
  -25.9059  -34.9441   23.5095 C   0  0  0  0  0  0
  -16.5356  -29.9092   23.6336 C   0  0  0  0  0  0
  -16.7275  -28.6507   23.0361 C   0  0  0  0  0  0
  -26.4513  -31.6579   25.0737 C   0  0  0  0  0  0
  -25.3724  -31.3736   26.1447 C   0  0  0  0  0  0
  -27.0359  -30.2989   24.6235 C   0  0  0  0  0  0
  -27.6061  -32.4323   25.7511 C   0  0  0  0  0  0
  -27.5583  -37.1799   24.8466 C   0  0  0  0  0  0
  -21.4204  -29.3053   22.3652 N   0  0  0  0  0  0
  -26.4298  -37.3770   23.9405 N   0  0  0  0  0  0
  -24.6973  -31.0531   22.0996 N   0  0  0  0  0  0
  -23.4195  -28.8144   23.3010 O   0  0  0  0  0  0
  -28.2803  -26.3388   20.1815 O   0  0  0  0  0  0
  -26.5631  -34.8911   22.4663 O   0  0  0  0  0  0
  -23.5468  -32.1391   23.7310 O   0  0  0  0  0  0
  -29.7346  -19.8196   20.3552 C   0  0  0  0  0  0
  -32.3005  -20.5908   19.6189 C   0  0  0  0  0  0
  -30.7585  -18.7742   20.2833 C   0  0  0  0  0  0
  -29.9837  -21.2474   20.0862 C   0  0  0  0  0  0
  -32.0474  -19.2368   19.8721 C   0  0  0  0  0  0
  -31.3148  -21.5798   19.7034 C   0  0  0  0  0  0
  -30.7594  -17.2277   20.5061 C   0  0  0  0  0  0
  -28.9267  -22.3858   20.1268 C   0  0  0  0  0  0
  -29.9871  -16.0815   20.3862 C   0  0  0  0  0  0
  -29.0423  -23.7615   20.3252 C   0  0  0  0  0  0
  -33.2442  -18.3113   19.6369 C   0  0  0  0  0  0
  -31.7700  -22.9706   19.2781 C   0  0  0  0  0  0
  -27.9331  -24.8730   20.1555 C   0  0  0  0  0  0
  -31.4564  -12.5141   19.1874 H   0  0  0  0  0  0
  -30.3149  -11.4795   19.9941 H   0  0  0  0  0  0
  -29.7857  -11.7100   17.5337 H   0  0  0  0  0  0
  -29.6403  -13.4417   17.7184 H   0  0  0  0  0  0
  -27.8868  -11.2804   18.9277 H   0  0  0  0  0  0
  -27.3760  -12.5033   17.7953 H   0  0  0  0  0  0
  -27.6111  -14.2566   19.4291 H   0  0  0  0  0  0
  -28.7001  -12.2638   21.4698 H   0  0  0  0  0  0
  -28.4178  -13.9687   21.7348 H   0  0  0  0  0  0
  -25.2783   -9.5679   22.4764 H   0  0  0  0  0  0
  -24.0014   -7.4637   22.7481 H   0  0  0  0  0  0
  -21.0862   -8.8790   19.8953 H   0  0  0  0  0  0
  -22.3727  -10.9685   19.6170 H   0  0  0  0  0  0
  -21.2021   -7.6161   23.9720 H   0  0  0  0  0  0
  -21.1473   -6.0532   25.9077 H   0  0  0  0  0  0
  -22.0602   -2.7618   23.2849 H   0  0  0  0  0  0
  -22.4109  -11.9845   22.4802 H   0  0  0  0  0  0
  -21.1088  -13.1192   22.2659 H   0  0  0  0  0  0
  -24.6543  -15.8532   20.5407 H   0  0  0  0  0  0
  -26.2752  -15.6381   20.1122 H   0  0  0  0  0  0
  -26.7205  -32.5407   23.1085 H   0  0  0  0  0  0
  -25.0070  -33.9697   25.0400 H   0  0  0  0  0  0
  -22.7229  -31.3063   21.4055 H   0  0  0  0  0  0
  -23.3756  -35.9611   23.3299 H   0  0  0  0  0  0
  -24.3572  -36.8916   22.2054 H   0  0  0  0  0  0
  -23.7238  -37.6478   23.6670 H   0  0  0  0  0  0
  -26.1166  -31.5319   20.6164 H   0  0  0  0  0  0
  -26.8516  -30.8124   22.0180 H   0  0  0  0  0  0
  -28.1165  -28.9123   21.2062 H   0  0  0  0  0  0
  -25.9016  -25.9338   18.9719 H   0  0  0  0  0  0
  -23.9561  -27.3354   18.9905 H   0  0  0  0  0  0
  -23.7676  -30.6052   19.4093 H   0  0  0  0  0  0
  -22.7598  -29.2612   19.8538 H   0  0  0  0  0  0
  -25.1301  -36.1923   25.0815 H   0  0  0  0  0  0
  -20.9984  -28.3292   24.1385 H   0  0  0  0  0  0
  -20.5674  -26.2316   23.3615 H   0  0  0  0  0  0
  -21.6643  -26.7445   22.1204 H   0  0  0  0  0  0
  -19.6916  -25.6299   21.1242 H   0  0  0  0  0  0
  -19.6693  -27.3194   20.6734 H   0  0  0  0  0  0
  -17.4202  -26.6685   21.4025 H   0  0  0  0  0  0
  -18.0336  -26.0074   22.9016 H   0  0  0  0  0  0
  -19.7942  -30.7285   24.2253 H   0  0  0  0  0  0
  -17.5022  -31.6269   24.5179 H   0  0  0  0  0  0
  -15.5358  -30.2999   23.7658 H   0  0  0  0  0  0
  -15.8673  -28.0823   22.7089 H   0  0  0  0  0  0
  -24.5911  -30.7073   25.7773 H   0  0  0  0  0  0
  -24.8899  -32.2908   26.4833 H   0  0  0  0  0  0
  -25.8029  -30.8942   27.0248 H   0  0  0  0  0  0
  -26.2951  -29.6735   24.1242 H   0  0  0  0  0  0
  -27.4011  -29.7255   25.4765 H   0  0  0  0  0  0
  -27.8842  -30.4251   23.9503 H   0  0  0  0  0  0
  -27.2668  -33.3636   26.2059 H   0  0  0  0  0  0
  -28.3887  -32.6865   25.0349 H   0  0  0  0  0  0
  -28.0711  -31.8469   26.5454 H   0  0  0  0  0  0
  -28.2599  -38.0097   24.7508 H   0  0  0  0  0  0
  -28.1081  -36.2626   24.6306 H   0  0  0  0  0  0
  -27.2294  -37.1461   25.8867 H   0  0  0  0  0  0
  -20.9384  -29.8782   21.6864 H   0  0  0  0  0  0
  -26.0178  -38.2843   24.1412 H   0  0  0  0  0  0
  -28.7332  -19.5221   20.6317 H   0  0  0  0  0  0
  -33.2962  -20.8809   19.3107 H   0  0  0  0  0  0
  -31.7298  -16.9429   20.8759 H   0  0  0  0  0  0
  -27.9301  -22.0391   19.8880 H   0  0  0  0  0  0
  -28.9364  -16.1439   20.1493 H   0  0  0  0  0  0
  -29.9906  -24.1775   20.6168 H   0  0  0  0  0  0
  -34.0467  -18.8120   19.0940 H   0  0  0  0  0  0
  -32.9705  -17.4418   19.0377 H   0  0  0  0  0  0
  -33.6639  -17.9732   20.5851 H   0  0  0  0  0  0
  -32.6840  -22.9244   18.6852 H   0  0  0  0  0  0
  -31.9941  -23.5861   20.1490 H   0  0  0  0  0  0
  -31.0352  -23.4673   18.6457 H   0  0  0  0  0  0
  -27.1701  -24.6862   20.9127 H   0  0  0  0  0  0
  -27.4865  -24.6323   19.1917 H   0  0  0  0  0  0
  1 25  1  0  0  0
  1 30  2  0  0  0
  1 79  1  0  0  0
  2  3  1  0  0  0
  2 25  1  0  0  0
  2 84  1  0  0  0
  2 85  1  0  0  0
  3  4  1  0  0  0
  3 86  1  0  0  0
  3 87  1  0  0  0
  4  5  1  0  0  0
  4 88  1  0  0  0
  4 89  1  0  0  0
  5  6  1  0  0  0
  5 26  1  0  0  0
  5 90  1  0  0  0
  6 25  1  0  0  0
  6 91  1  0  0  0
  6 92  1  0  0  0
  7  8  2  0  0  0
  7 26  1  0  0  0
  7 29  1  0  0  0
  8  9  1  0  0  0
  8 22  1  0  0  0
  9 10  1  0  0  0
  9 27  2  0  0  0
 10 11  2  0  0  0
 10 15  1  0  0  0
 11 12  1  0  0  0
 11 93  1  0  0  0
 12 13  2  0  0  0
 12 94  1  0  0  0
 13 14  1  0  0  0
 13 31  1  0  0  0
 14 15  2  0  0  0
 14 95  1  0  0  0
 15 96  1  0  0  0
 16 17  2  0  0  0
 16 21  1  0  0  0
 16 31  1  0  0  0
 17 18  1  0  0  0
 17 97  1  0  0  0
 18 19  2  0  0  0
 18 98  1  0  0  0
 19 20  1  0  0  0
 19 24  1  0  0  0
 20 21  2  0  0  0
 20 99  1  0  0  0
 21 23  1  0  0  0
 22 28  1  0  0  0
 22 32  2  0  0  0
 26 27  1  0  0  0
 28100  1  0  0  0
 28101  1  0  0  0
 29102  1  0  0  0
 29103  1  0  0  0
 33 34  1  0  0  0
 33 66  1  0  0  0
 33 70  2  0  0  0
 34 36  1  0  0  0
 34 59  1  0  0  0
 34104  1  0  0  0
 35 44  2  0  0  0
 35 45  1  0  0  0
 35 68  1  0  0  0
 36 56  1  0  0  0
 36105  1  0  0  0
 37 39  1  0  0  0
 37 47  1  0  0  0
 37 66  1  0  0  0
 37106  1  0  0  0
 38 43  2  0  0  0
 38 46  1  0  0  0
 38 47  1  0  0  0
 39 64  1  0  0  0
 39 67  2  0  0  0
 40 52  1  0  0  0
 40 53  2  0  0  0
 40 58  1  0  0  0
 41107  1  0  0  0
 41108  1  0  0  0
 41109  1  0  0  0
 41 48  1  0  0  0
 42 43  1  0  0  0
 42 66  1  0  0  0
 42110  1  0  0  0
 42111  1  0  0  0
 43 44  1  0  0  0
 44112  1  0  0  0
 45 46  2  0  0  0
 45113  1  0  0  0
 46114  1  0  0  0
 47115  1  0  0  0
 47116  1  0  0  0
 48 56  1  0  0  0
 48 65  1  0  0  0
 48117  1  0  0  0
 49 50  1  0  0  0
 49 53  1  0  0  0
 49 64  1  0  0  0
 49118  1  0  0  0
 50 51  1  0  0  0
 50119  1  0  0  0
 50120  1  0  0  0
 51 52  1  0  0  0
 51121  1  0  0  0
 51122  1  0  0  0
 52123  1  0  0  0
 52124  1  0  0  0
 53 54  1  0  0  0
 54 55  2  0  0  0
 54125  1  0  0  0
 55 57  1  0  0  0
 55126  1  0  0  0
 56 69  2  0  0  0
 57 58  2  0  0  0
 57127  1  0  0  0
 58128  1  0  0  0
 59 60  1  0  0  0
 59 61  1  0  0  0
 59 62  1  0  0  0
 60129  1  0  0  0
 60130  1  0  0  0
 60131  1  0  0  0
 61132  1  0  0  0
 61133  1  0  0  0
 61134  1  0  0  0
 62135  1  0  0  0
 62136  1  0  0  0
 62137  1  0  0  0
 63 65  1  0  0  0
 63138  1  0  0  0
 63139  1  0  0  0
 63140  1  0  0  0
 64141  1  0  0  0
 65142  1  0  0  0
 68 83  1  0  0  0
 71 73  2  0  0  0
 71 74  1  0  0  0
 71143  1  0  0  0
 72 75  2  0  0  0
 72 76  1  0  0  0
 72144  1  0  0  0
 73 75  1  0  0  0
 73 77  1  0  0  0
 74 76  2  0  0  0
 74 78  1  0  0  0
 75 81  1  0  0  0
 76 82  1  0  0  0
 77 79  2  0  0  0
 77145  1  0  0  0
 78 80  2  0  0  0
 78146  1  0  0  0
 79147  1  0  0  0
 80 83  1  0  0  0
 80148  1  0  0  0
 81149  1  0  0  0
 81150  1  0  0  0
 81151  1  0  0  0
 82152  1  0  0  0
 82153  1  0  0  0
 82154  1  0  0  0
 83155  1  0  0  0
 83156  1  0  0  0
M  ISO  4   1 100  68 101  79 100  83 101
M  END
> <chiral flag>
0

> <version>
0

> <s_m_source_file>
/data/baiqing/PycharmProjects/Reinvent-master-3.2/result/LINK_invent/BTK/process_docking_weight1_custom_product_contain_oxygen_bond_distance_aromatic_linkinvent_7_9_3/rearranged_h_0125.sdf

> <i_m_source_file_index>
60

> <r_mmod_Potential_Energy-OPLS-2005>
307.231811523438

> <r_mmod_Stretch_Energy-OPLS-2005>
133.330490112305

> <r_mmod_Bend_Energy-OPLS-2005>
214.1171875

> <r_mmod_Torsional_Energy-OPLS-2005>
225.864318847656

> <r_mmod_Improper_Torsional_Energy-OPLS-2005>
10.9368200302124

> <r_mmod_Van_der_Waal_Energy-OPLS-2005>
176.5068359375

> <r_mmod_Electrostatic_Energy-OPLS-2005>
-354.519592285156

> <r_mmod_Solvation_Energy-OPLS-2005>
-191.417846679688

> <b_mmod_Minimization_Converged-OPLS-2005>
0

> <r_mmod_RMS_Derivative-OPLS-2005>
0.752604603767395

$$$$
60
                    3D
 Structure written by MMmdl.
176185  0  0  1  0            999 V2000
  -30.8181  -14.3082   20.7886 C   0  0  0  0  0  0
  -30.4174  -12.3069   19.3995 C   0  0  0  0  0  0
  -29.4833  -12.5490   18.2028 C   0  0  0  0  0  0
  -28.0148  -12.3728   18.6244 C   0  0  0  0  0  0
  -27.6669  -13.2025   19.8852 C   0  0  2  0  0  0
  -28.6986  -12.9630   21.0087 C   0  0  0  0  0  0
  -25.2613  -13.8160   20.5679 C   0  0  0  0  0  0
  -24.1845  -13.0436   20.9163 C   0  0  0  0  0  0
  -24.6401  -11.6905   20.8744 C   0  0  0  0  0  0
  -23.9069  -10.4291   21.0420 C   0  0  0  0  0  0
  -24.3617   -9.4203   21.9198 C   0  0  0  0  0  0
  -23.6291   -8.2238   22.0754 C   0  0  0  0  0  0
  -22.4278   -8.0280   21.3538 C   0  0  0  0  0  0
  -21.9917   -9.0261   20.4649 C   0  0  0  0  0  0
  -22.7252  -10.2138   20.3061 C   0  0  0  0  0  0
  -21.6861   -6.0735   22.5273 C   0  0  0  0  0  0
  -21.4018   -6.5638   23.8205 C   0  0  0  0  0  0
  -21.3659   -5.6793   24.9170 C   0  0  0  0  0  0
  -21.6045   -4.3055   24.7226 C   0  0  0  0  0  0
  -21.8821   -3.8146   23.4348 C   0  0  0  0  0  0
  -21.9193   -4.6962   22.3401 C   0  0  0  0  0  0
  -22.7880  -13.5241   21.1843 C   0  0  0  0  0  0
  -22.1665   -4.2149   21.0980 F   0  0  0  0  0  0
  -21.5628   -3.4536   25.7736 F   0  0  0  0  0  0
  -30.0507  -13.2322   20.4808 N   0  0  0  0  0  0
  -26.3042  -12.9321   20.3400 N   0  0  0  0  0  0
  -25.9320  -11.6485   20.5782 N   0  0  0  0  0  0
  -22.0520  -12.8212   22.0401 N   0  0  0  0  0  0
  -25.4365  -15.1869   20.4085 N   0  0  0  0  0  0
  -31.7585  -14.6953   20.0865 O   0  0  0  0  0  0
  -21.6639   -6.8882   21.4238 O   0  0  0  0  0  0
  -22.3566  -14.5557   20.6725 O   0  0  0  0  0  0
  -24.6080  -31.8701   23.2104 C   0  0  0  0  0  0
  -25.9011  -32.4822   23.8377 C   0  0  1  0  0  0
  -27.2460  -27.4662   20.0955 C   0  0  0  0  0  0
  -25.5905  -33.8621   24.2328 N   0  0  0  0  0  0
  -23.3936  -30.4923   21.5497 C   0  0  2  0  0  0
  -24.8469  -28.9599   20.1154 C   0  0  0  0  0  0
  -22.7373  -29.4673   22.4998 C   0  0  0  0  0  0
  -18.0273  -28.1399   22.8481 C   0  0  0  0  0  0
  -24.1485  -36.7329   23.2628 C   0  0  0  0  0  0
  -25.9185  -30.8400   21.3628 C   0  0  0  0  0  0
  -25.9987  -29.4728   20.7240 C   0  0  0  0  0  0
  -27.1970  -28.7301   20.7293 C   0  0  0  0  0  0
  -26.0857  -26.9700   19.4715 C   0  0  0  0  0  0
  -24.8838  -27.7028   19.4868 C   0  0  0  0  0  0
  -23.6006  -29.8157   20.1672 C   0  0  0  0  0  0
  -25.4102  -36.3114   24.0327 C   0  0  1  0  0  0
  -20.5857  -28.3661   23.1345 C   0  0  2  0  0  0
  -20.6779  -26.9405   22.5439 C   0  0  0  0  0  0
  -19.5766  -26.6396   21.5230 C   0  0  0  0  0  0
  -18.1927  -26.7951   22.1602 C   0  0  0  0  0  0
  -19.1522  -28.8844   23.2905 C   0  0  0  0  0  0
  -18.9446  -30.1460   23.8904 C   0  0  0  0  0  0
  -17.6452  -30.6598   24.0567 C   0  0  0  0  0  0
  -25.9037  -34.9477   23.5119 C   0  0  0  0  0  0
  -16.5342  -29.9088   23.6355 C   0  0  0  0  0  0
  -16.7265  -28.6512   23.0358 C   0  0  0  0  0  0
  -26.4451  -31.6561   25.0685 C   0  0  0  0  0  0
  -25.3703  -31.3679   26.1412 C   0  0  0  0  0  0
  -27.0253  -30.2983   24.6055 C   0  0  0  0  0  0
  -27.6056  -32.4242   25.7457 C   0  0  0  0  0  0
  -27.5573  -37.1815   24.8470 C   0  0  0  0  0  0
  -21.4106  -29.3018   22.3723 N   0  0  0  0  0  0
  -26.4304  -37.3790   23.9395 N   0  0  0  0  0  0
  -24.6573  -31.0843   22.0980 N   0  0  0  0  0  0
  -23.4150  -28.8238   23.3052 O   0  0  0  0  0  0
  -28.3814  -26.6943   20.0007 O   0  0  0  0  0  0
  -26.5615  -34.8923   22.4689 O   0  0  0  0  0  0
  -23.5289  -32.1436   23.7538 O   0  0  0  0  0  0
  -27.7344  -25.9213   24.5586 C   0  0  0  0  0  0
  -27.4869  -24.5383   24.4744 C   0  0  0  0  0  0
  -28.3148  -26.5959   23.4698 C   0  0  0  0  0  0
  -30.8128  -19.2844   21.9078 C   0  0  0  0  0  0
  -31.2136  -17.9355   21.8402 C   0  0  0  0  0  0
  -28.4187  -24.4973   22.2236 C   0  0  0  0  0  0
  -30.0848  -18.9380   24.1997 C   0  0  0  0  0  0
  -27.8286  -23.8169   23.3124 C   0  0  0  0  0  0
  -28.6558  -25.8901   22.2978 C   0  0  0  0  0  0
  -30.2512  -19.7986   23.0932 C   0  0  0  0  0  0
  -31.0442  -17.0712   22.9429 C   0  0  0  0  0  0
  -30.4607  -17.5791   24.1347 C   0  0  0  0  0  0
  -27.4622  -22.3962   23.2401 C   0  0  0  0  0  0
  -28.2695  -21.3211   23.1651 C   0  0  0  0  0  0
  -31.4109  -16.7467   26.3391 C   0  0  0  0  0  0
  -31.9704  -21.9715   24.3603 C   0  0  0  0  0  0
  -30.2228  -16.7192   25.3697 C   0  0  0  0  0  0
  -31.5172  -15.6275   22.7988 C   0  0  0  0  0  0
  -29.2596  -26.6387   21.1204 C   0  0  0  0  0  0
  -30.4345  -22.0170   24.3517 C   0  0  0  0  0  0
  -29.7919  -21.2545   23.1660 C   0  0  1  0  0  0
  -30.6040  -14.7913   22.0206 N   0  0  0  0  0  0
  -31.4598  -12.4188   19.0953 H   0  0  0  0  0  0
  -30.3250  -11.2803   19.7574 H   0  0  0  0  0  0
  -29.7298  -11.8668   17.3882 H   0  0  0  0  0  0
  -29.6369  -13.5593   17.8182 H   0  0  0  0  0  0
  -27.8478  -11.3135   18.8220 H   0  0  0  0  0  0
  -27.3517  -12.6409   17.8023 H   0  0  0  0  0  0
  -27.7233  -14.2552   19.6062 H   0  0  0  0  0  0
  -28.6495  -11.9315   21.3615 H   0  0  0  0  0  0
  -28.4338  -13.5807   21.8677 H   0  0  0  0  0  0
  -25.2760   -9.5673   22.4781 H   0  0  0  0  0  0
  -24.0004   -7.4620   22.7458 H   0  0  0  0  0  0
  -21.0856   -8.8796   19.8941 H   0  0  0  0  0  0
  -22.3733  -10.9687   19.6166 H   0  0  0  0  0  0
  -21.2014   -7.6147   23.9714 H   0  0  0  0  0  0
  -21.1483   -6.0520   25.9073 H   0  0  0  0  0  0
  -22.0603   -2.7609   23.2848 H   0  0  0  0  0  0
  -22.4147  -11.9851   22.4737 H   0  0  0  0  0  0
  -21.1147  -13.1251   22.2632 H   0  0  0  0  0  0
  -24.6812  -15.8545   20.5212 H   0  0  0  0  0  0
  -26.3049  -15.6186   20.1157 H   0  0  0  0  0  0
  -26.7065  -32.5557   23.1128 H   0  0  0  0  0  0
  -25.0077  -33.9765   25.0487 H   0  0  0  0  0  0
  -22.6774  -31.3052   21.4097 H   0  0  0  0  0  0
  -23.3734  -35.9681   23.3328 H   0  0  0  0  0  0
  -24.3590  -36.8914   22.2042 H   0  0  0  0  0  0
  -23.7260  -37.6554   23.6619 H   0  0  0  0  0  0
  -26.0269  -31.5932   20.5817 H   0  0  0  0  0  0
  -26.8085  -30.9020   21.9769 H   0  0  0  0  0  0
  -28.0754  -29.1450   21.2001 H   0  0  0  0  0  0
  -26.1182  -26.0129   18.9698 H   0  0  0  0  0  0
  -24.0033  -27.3036   19.0027 H   0  0  0  0  0  0
  -23.6845  -30.5840   19.3971 H   0  0  0  0  0  0
  -22.7295  -29.2180   19.8916 H   0  0  0  0  0  0
  -25.1277  -36.1973   25.0824 H   0  0  0  0  0  0
  -20.9941  -28.3250   24.1473 H   0  0  0  0  0  0
  -20.5744  -26.2243   23.3605 H   0  0  0  0  0  0
  -21.6635  -26.7526   22.1181 H   0  0  0  0  0  0
  -19.6947  -25.6323   21.1223 H   0  0  0  0  0  0
  -19.6730  -27.3235   20.6792 H   0  0  0  0  0  0
  -17.4213  -26.6719   21.3985 H   0  0  0  0  0  0
  -18.0322  -26.0110   22.9011 H   0  0  0  0  0  0
  -19.7924  -30.7289   24.2237 H   0  0  0  0  0  0
  -17.5011  -31.6273   24.5172 H   0  0  0  0  0  0
  -15.5342  -30.2979   23.7708 H   0  0  0  0  0  0
  -15.8665  -28.0833   22.7079 H   0  0  0  0  0  0
  -24.5943  -30.6951   25.7740 H   0  0  0  0  0  0
  -24.8817  -32.2836   26.4756 H   0  0  0  0  0  0
  -25.8045  -30.8927   27.0212 H   0  0  0  0  0  0
  -26.2791  -29.6768   24.1098 H   0  0  0  0  0  0
  -27.3989  -29.7176   25.4497 H   0  0  0  0  0  0
  -27.8630  -30.4277   23.9207 H   0  0  0  0  0  0
  -27.2751  -33.3584   26.1993 H   0  0  0  0  0  0
  -28.3920  -32.6694   25.0320 H   0  0  0  0  0  0
  -28.0627  -31.8339   26.5405 H   0  0  0  0  0  0
  -28.2609  -38.0094   24.7510 H   0  0  0  0  0  0
  -28.1039  -36.2629   24.6302 H   0  0  0  0  0  0
  -27.2295  -37.1496   25.8876 H   0  0  0  0  0  0
  -20.9255  -29.8643   21.6872 H   0  0  0  0  0  0
  -26.0187  -38.2867   24.1382 H   0  0  0  0  0  0
  -27.4651  -26.4661   25.4534 H   0  0  0  0  0  0
  -27.0282  -24.0313   25.3113 H   0  0  0  0  0  0
  -28.4873  -27.6613   23.5281 H   0  0  0  0  0  0
  -30.9431  -19.9230   21.0453 H   0  0  0  0  0  0
  -31.6581  -17.5580   20.9297 H   0  0  0  0  0  0
  -28.6603  -23.9597   21.3168 H   0  0  0  0  0  0
  -29.6507  -19.3236   25.1121 H   0  0  0  0  0  0
  -26.3972  -22.2111   23.2273 H   0  0  0  0  0  0
  -27.7785  -20.3601   23.0949 H   0  0  0  0  0  0
  -31.2169  -16.1160   27.2074 H   0  0  0  0  0  0
  -31.5942  -17.7580   26.7031 H   0  0  0  0  0  0
  -32.3256  -16.3907   25.8645 H   0  0  0  0  0  0
  -32.3727  -22.6263   25.1352 H   0  0  0  0  0  0
  -32.3822  -22.3034   23.4058 H   0  0  0  0  0  0
  -32.3384  -20.9637   24.5567 H   0  0  0  0  0  0
  -29.9743  -15.6952   25.0910 H   0  0  0  0  0  0
  -29.3388  -17.0912   25.8905 H   0  0  0  0  0  0
  -31.6715  -15.1611   23.7704 H   0  0  0  0  0  0
  -32.5105  -15.6359   22.3488 H   0  0  0  0  0  0
  -30.1586  -26.1066   20.8104 H   0  0  0  0  0  0
  -29.6025  -27.6271   21.4224 H   0  0  0  0  0  0
  -30.1371  -23.0644   24.3271 H   0  0  0  0  0  0
  -30.0638  -21.6260   25.3004 H   0  0  0  0  0  0
  -30.1096  -21.7452   22.2457 H   0  0  0  0  0  0
  -29.8236  -14.3932   22.5199 H   0  0  0  0  0  0
  1 25  1  0  0  0
  1 30  2  0  0  0
  1 92  1  0  0  0
  2  3  1  0  0  0
  2 25  1  0  0  0
  2 93  1  0  0  0
  2 94  1  0  0  0
  3  4  1  0  0  0
  3 95  1  0  0  0
  3 96  1  0  0  0
  4  5  1  0  0  0
  4 97  1  0  0  0
  4 98  1  0  0  0
  5  6  1  0  0  0
  5 26  1  0  0  0
  5 99  1  0  0  0
  6 25  1  0  0  0
  6100  1  0  0  0
  6101  1  0  0  0
  7  8  2  0  0  0
  7 26  1  0  0  0
  7 29  1  0  0  0
  8  9  1  0  0  0
  8 22  1  0  0  0
  9 10  1  0  0  0
  9 27  2  0  0  0
 10 11  2  0  0  0
 10 15  1  0  0  0
 11 12  1  0  0  0
 11102  1  0  0  0
 12 13  2  0  0  0
 12103  1  0  0  0
 13 14  1  0  0  0
 13 31  1  0  0  0
 14 15  2  0  0  0
 14104  1  0  0  0
 15105  1  0  0  0
 16 17  2  0  0  0
 16 21  1  0  0  0
 16 31  1  0  0  0
 17 18  1  0  0  0
 17106  1  0  0  0
 18 19  2  0  0  0
 18107  1  0  0  0
 19 20  1  0  0  0
 19 24  1  0  0  0
 20 21  2  0  0  0
 20108  1  0  0  0
 21 23  1  0  0  0
 22 28  1  0  0  0
 22 32  2  0  0  0
 26 27  1  0  0  0
 28109  1  0  0  0
 28110  1  0  0  0
 29111  1  0  0  0
 29112  1  0  0  0
 33 34  1  0  0  0
 33 66  1  0  0  0
 33 70  2  0  0  0
 34 36  1  0  0  0
 34 59  1  0  0  0
 34113  1  0  0  0
 35 44  2  0  0  0
 35 45  1  0  0  0
 35 68  1  0  0  0
 36 56  1  0  0  0
 36114  1  0  0  0
 37 39  1  0  0  0
 37 47  1  0  0  0
 37 66  1  0  0  0
 37115  1  0  0  0
 38 43  2  0  0  0
 38 46  1  0  0  0
 38 47  1  0  0  0
 39 64  1  0  0  0
 39 67  2  0  0  0
 40 52  1  0  0  0
 40 53  2  0  0  0
 40 58  1  0  0  0
 41116  1  0  0  0
 41117  1  0  0  0
 41118  1  0  0  0
 41 48  1  0  0  0
 42 43  1  0  0  0
 42 66  1  0  0  0
 42119  1  0  0  0
 42120  1  0  0  0
 43 44  1  0  0  0
 44121  1  0  0  0
 45 46  2  0  0  0
 45122  1  0  0  0
 46123  1  0  0  0
 47124  1  0  0  0
 47125  1  0  0  0
 48 56  1  0  0  0
 48 65  1  0  0  0
 48126  1  0  0  0
 49 50  1  0  0  0
 49 53  1  0  0  0
 49 64  1  0  0  0
 49127  1  0  0  0
 50 51  1  0  0  0
 50128  1  0  0  0
 50129  1  0  0  0
 51 52  1  0  0  0
 51130  1  0  0  0
 51131  1  0  0  0
 52132  1  0  0  0
 52133  1  0  0  0
 53 54  1  0  0  0
 54 55  2  0  0  0
 54134  1  0  0  0
 55 57  1  0  0  0
 55135  1  0  0  0
 56 69  2  0  0  0
 57 58  2  0  0  0
 57136  1  0  0  0
 58137  1  0  0  0
 59 60  1  0  0  0
 59 61  1  0  0  0
 59 62  1  0  0  0
 60138  1  0  0  0
 60139  1  0  0  0
 60140  1  0  0  0
 61141  1  0  0  0
 61142  1  0  0  0
 61143  1  0  0  0
 62144  1  0  0  0
 62145  1  0  0  0
 62146  1  0  0  0
 63 65  1  0  0  0
 63147  1  0  0  0
 63148  1  0  0  0
 63149  1  0  0  0
 64150  1  0  0  0
 65151  1  0  0  0
 68 89  1  0  0  0
 71 72  2  0  0  0
 71 73  1  0  0  0
 71152  1  0  0  0
 72 78  1  0  0  0
 72153  1  0  0  0
 73 79  2  0  0  0
 73154  1  0  0  0
 74 75  2  0  0  0
 74 80  1  0  0  0
 74155  1  0  0  0
 75 81  1  0  0  0
 75156  1  0  0  0
 76 78  2  0  0  0
 76 79  1  0  0  0
 76157  1  0  0  0
 77 80  2  0  0  0
 77 82  1  0  0  0
 77158  1  0  0  0
 78 83  1  0  0  0
 79 89  1  0  0  0
 80 91  1  0  0  0
 81 82  2  0  0  0
 81 88  1  0  0  0
 82 87  1  0  0  0
 83 84  2  0  0  0
 83159  1  0  0  0
 84 91  1  0  0  0
 84160  1  0  0  0
 85 87  1  0  0  0
 85161  1  0  0  0
 85162  1  0  0  0
 85163  1  0  0  0
 86 90  1  0  0  0
 86164  1  0  0  0
 86165  1  0  0  0
 86166  1  0  0  0
 87167  1  0  0  0
 87168  1  0  0  0
 88 92  1  0  0  0
 88169  1  0  0  0
 88170  1  0  0  0
 89171  1  0  0  0
 89172  1  0  0  0
 90173  1  0  0  0
 90174  1  0  0  0
 90 91  1  0  0  0
 91175  1  0  0  0
 92176  1  0  0  0
M  ISO  4   1 100  68 101  89 101  92 100
M  END
> <chiral flag>
0

> <version>
0

> <s_m_source_file>
/data/baiqing/PycharmProjects/Reinvent-master-3.2/result/LINK_invent/BTK/process_docking_weight1_custom_product_contain_oxygen_bond_distance_aromatic_linkinvent_7_9_3/rearranged_h_0125.sdf

> <i_m_source_file_index>
61

> <r_mmod_Potential_Energy-OPLS-2005>
-66.7452239990234

> <r_mmod_Stretch_Energy-OPLS-2005>
34.3147354125977

> <r_mmod_Bend_Energy-OPLS-2005>
98.7898635864258

> <r_mmod_Torsional_Energy-OPLS-2005>
247.140060424805

> <r_mmod_Improper_Torsional_Energy-OPLS-2005>
4.62823438644409

> <r_mmod_Van_der_Waal_Energy-OPLS-2005>
157.486999511719

> <r_mmod_Electrostatic_Energy-OPLS-2005>
-423.270904541016

> <r_mmod_Solvation_Energy-OPLS-2005>
-194.658203125

> <b_mmod_Minimization_Converged-OPLS-2005>
0

> <r_mmod_RMS_Derivative-OPLS-2005>
3.18242192268372

$$$$
61
                    3D
 Structure written by MMmdl.
157165  0  0  1  0            999 V2000
  -30.6841  -14.5015   20.5273 C   0  0  0  0  0  0
  -30.4258  -12.3050   19.4471 C   0  0  0  0  0  0
  -29.5077  -12.4897   18.2196 C   0  0  0  0  0  0
  -28.0244  -12.3637   18.6207 C   0  0  0  0  0  0
  -27.6625  -13.2100   19.8716 C   0  0  2  0  0  0
  -28.7010  -13.0108   21.0003 C   0  0  0  0  0  0
  -25.2598  -13.8167   20.5681 C   0  0  0  0  0  0
  -24.1840  -13.0442   20.9151 C   0  0  0  0  0  0
  -24.6391  -11.6909   20.8703 C   0  0  0  0  0  0
  -23.9053  -10.4294   21.0385 C   0  0  0  0  0  0
  -24.3601   -9.4212   21.9167 C   0  0  0  0  0  0
  -23.6272   -8.2251   22.0747 C   0  0  0  0  0  0
  -22.4257   -8.0279   21.3545 C   0  0  0  0  0  0
  -21.9890   -9.0249   20.4649 C   0  0  0  0  0  0
  -22.7217  -10.2127   20.3048 C   0  0  0  0  0  0
  -21.6852   -6.0723   22.5271 C   0  0  0  0  0  0
  -21.4017   -6.5629   23.8205 C   0  0  0  0  0  0
  -21.3666   -5.6780   24.9165 C   0  0  0  0  0  0
  -21.6047   -4.3043   24.7219 C   0  0  0  0  0  0
  -21.8819   -3.8138   23.4337 C   0  0  0  0  0  0
  -21.9198   -4.6952   22.3395 C   0  0  0  0  0  0
  -22.7864  -13.5245   21.1821 C   0  0  0  0  0  0
  -22.1668   -4.2143   21.0973 F   0  0  0  0  0  0
  -21.5628   -3.4532   25.7730 F   0  0  0  0  0  0
  -30.0361  -13.3062   20.4545 N   0  0  0  0  0  0
  -26.3028  -12.9341   20.3326 N   0  0  0  0  0  0
  -25.9318  -11.6498   20.5718 N   0  0  0  0  0  0
  -22.0498  -12.8251   22.0380 N   0  0  0  0  0  0
  -25.4350  -15.1882   20.4151 N   0  0  0  0  0  0
  -31.8216  -14.6729   20.0795 O   0  0  0  0  0  0
  -21.6634   -6.8865   21.4235 O   0  0  0  0  0  0
  -22.3556  -14.5558   20.6677 O   0  0  0  0  0  0
  -24.6176  -31.8667   23.2083 C   0  0  0  0  0  0
  -25.9067  -32.4812   23.8377 C   0  0  1  0  0  0
  -27.2262  -27.4046   20.0974 C   0  0  0  0  0  0
  -25.5911  -33.8610   24.2307 N   0  0  0  0  0  0
  -23.4051  -30.4918   21.5505 C   0  0  2  0  0  0
  -24.8494  -28.9578   20.1120 C   0  0  0  0  0  0
  -22.7420  -29.4661   22.4981 C   0  0  0  0  0  0
  -18.0274  -28.1378   22.8491 C   0  0  0  0  0  0
  -24.1488  -36.7308   23.2635 C   0  0  0  0  0  0
  -25.9378  -30.8241   21.3652 C   0  0  0  0  0  0
  -26.0137  -29.4578   20.7092 C   0  0  0  0  0  0
  -27.2058  -28.6905   20.6961 C   0  0  0  0  0  0
  -26.0419  -26.9354   19.4820 C   0  0  0  0  0  0
  -24.8607  -27.6975   19.4941 C   0  0  0  0  0  0
  -23.6132  -29.8276   20.1641 C   0  0  0  0  0  0
  -25.4108  -36.3100   24.0330 C   0  0  1  0  0  0
  -20.5867  -28.3671   23.1313 C   0  0  2  0  0  0
  -20.6769  -26.9406   22.5416 C   0  0  0  0  0  0
  -19.5743  -26.6389   21.5213 C   0  0  0  0  0  0
  -18.1922  -26.7926   22.1625 C   0  0  0  0  0  0
  -19.1525  -28.8838   23.2899 C   0  0  0  0  0  0
  -18.9455  -30.1447   23.8911 C   0  0  0  0  0  0
  -17.6458  -30.6588   24.0567 C   0  0  0  0  0  0
  -25.9041  -34.9468   23.5115 C   0  0  0  0  0  0
  -16.5349  -29.9092   23.6325 C   0  0  0  0  0  0
  -16.7265  -28.6506   23.0350 C   0  0  0  0  0  0
  -26.4482  -31.6596   25.0714 C   0  0  0  0  0  0
  -25.3738  -31.3725   26.1455 C   0  0  0  0  0  0
  -27.0311  -30.3031   24.6111 C   0  0  0  0  0  0
  -27.6050  -32.4318   25.7485 C   0  0  0  0  0  0
  -27.5580  -37.1807   24.8462 C   0  0  0  0  0  0
  -21.4146  -29.3041   22.3724 N   0  0  0  0  0  0
  -26.4290  -37.3788   23.9410 N   0  0  0  0  0  0
  -24.6720  -31.0747   22.0998 N   0  0  0  0  0  0
  -23.4182  -28.8204   23.3031 O   0  0  0  0  0  0
  -28.3731  -26.6242   20.1354 O   0  0  0  0  0  0
  -26.5607  -34.8926   22.4681 O   0  0  0  0  0  0
  -23.5365  -32.1437   23.7465 O   0  0  0  0  0  0
  -29.1695  -17.8039   18.0713 C   0  0  0  0  0  0
  -29.5239  -16.6663   18.8103 C   0  0  0  0  0  0
  -29.5797  -18.0215   20.8258 C   0  0  0  0  0  0
  -29.2358  -19.1986   20.0926 C   0  0  0  0  0  0
  -29.0033  -19.0590   18.6919 C   0  0  0  0  0  0
  -29.7207  -16.7498   20.2041 C   0  0  0  0  0  0
  -29.1456  -20.4931   20.8455 C   0  0  0  0  0  0
  -29.1720  -21.7819   20.4139 C   0  0  0  0  0  0
  -28.5161  -20.1933   17.8059 C   0  0  0  0  0  0
  -29.0236  -22.9903   21.3421 C   0  0  0  0  0  0
  -29.3655  -24.3999   20.7591 C   0  0  0  0  0  0
  -28.1712  -25.1891   20.1607 C   0  0  0  0  0  0
  -29.9507  -15.5505   20.9621 N   0  0  0  0  0  0
  -31.4745  -12.3880   19.1555 H   0  0  0  0  0  0
  -30.3128  -11.3015   19.8592 H   0  0  0  0  0  0
  -29.7504  -11.7501   17.4559 H   0  0  0  0  0  0
  -29.6856  -13.4634   17.7621 H   0  0  0  0  0  0
  -27.8243  -11.3093   18.8144 H   0  0  0  0  0  0
  -27.3847  -12.6407   17.7824 H   0  0  0  0  0  0
  -27.7002  -14.2548   19.5636 H   0  0  0  0  0  0
  -28.6734  -11.9821   21.3614 H   0  0  0  0  0  0
  -28.4612  -13.6324   21.8645 H   0  0  0  0  0  0
  -25.2749   -9.5688   22.4733 H   0  0  0  0  0  0
  -23.9987   -7.4646   22.7467 H   0  0  0  0  0  0
  -21.0819   -8.8757   19.8954 H   0  0  0  0  0  0
  -22.3666  -10.9654   19.6157 H   0  0  0  0  0  0
  -21.2008   -7.6136   23.9695 H   0  0  0  0  0  0
  -21.1491   -6.0518   25.9066 H   0  0  0  0  0  0
  -22.0600   -2.7598   23.2834 H   0  0  0  0  0  0
  -22.4102  -11.9916   22.4792 H   0  0  0  0  0  0
  -21.1124  -13.1301   22.2587 H   0  0  0  0  0  0
  -24.6740  -15.8484   20.5290 H   0  0  0  0  0  0
  -26.3011  -15.6276   20.1288 H   0  0  0  0  0  0
  -26.7137  -32.5508   23.1135 H   0  0  0  0  0  0
  -25.0066  -33.9767   25.0457 H   0  0  0  0  0  0
  -22.6942  -31.3092   21.4130 H   0  0  0  0  0  0
  -23.3742  -35.9650   23.3308 H   0  0  0  0  0  0
  -24.3581  -36.8917   22.2049 H   0  0  0  0  0  0
  -23.7256  -37.6520   23.6649 H   0  0  0  0  0  0
  -26.0535  -31.5896   20.5963 H   0  0  0  0  0  0
  -26.8246  -30.8749   21.9855 H   0  0  0  0  0  0
  -28.1010  -29.0702   21.1689 H   0  0  0  0  0  0
  -26.0104  -25.9740   18.9902 H   0  0  0  0  0  0
  -23.9676  -27.3068   19.0259 H   0  0  0  0  0  0
  -23.7243  -30.6046   19.4065 H   0  0  0  0  0  0
  -22.7348  -29.2513   19.8664 H   0  0  0  0  0  0
  -25.1288  -36.1954   25.0822 H   0  0  0  0  0  0
  -20.9956  -28.3241   24.1433 H   0  0  0  0  0  0
  -20.5677  -26.2279   23.3606 H   0  0  0  0  0  0
  -21.6642  -26.7455   22.1207 H   0  0  0  0  0  0
  -19.6906  -25.6303   21.1239 H   0  0  0  0  0  0
  -19.6679  -27.3204   20.6746 H   0  0  0  0  0  0
  -17.4193  -26.6675   21.4027 H   0  0  0  0  0  0
  -18.0320  -26.0068   22.9020 H   0  0  0  0  0  0
  -19.7932  -30.7256   24.2288 H   0  0  0  0  0  0
  -17.5017  -31.6270   24.5169 H   0  0  0  0  0  0
  -15.5350  -30.3001   23.7642 H   0  0  0  0  0  0
  -15.8664  -28.0833   22.7058 H   0  0  0  0  0  0
  -24.5898  -30.7085   25.7799 H   0  0  0  0  0  0
  -24.8942  -32.2890   26.4896 H   0  0  0  0  0  0
  -25.8073  -30.8897   27.0220 H   0  0  0  0  0  0
  -26.2865  -29.6794   24.1149 H   0  0  0  0  0  0
  -27.4057  -29.7266   25.4581 H   0  0  0  0  0  0
  -27.8709  -30.4341   23.9282 H   0  0  0  0  0  0
  -27.2659  -33.3606   26.2087 H   0  0  0  0  0  0
  -28.3849  -32.6899   25.0308 H   0  0  0  0  0  0
  -28.0728  -31.8426   26.5384 H   0  0  0  0  0  0
  -28.2598  -38.0103   24.7507 H   0  0  0  0  0  0
  -28.1074  -36.2634   24.6283 H   0  0  0  0  0  0
  -27.2299  -37.1459   25.8865 H   0  0  0  0  0  0
  -20.9304  -29.8764   21.6950 H   0  0  0  0  0  0
  -26.0171  -38.2865   24.1407 H   0  0  0  0  0  0
  -28.9968  -17.6930   17.0092 H   0  0  0  0  0  0
  -29.6033  -15.7235   18.2902 H   0  0  0  0  0  0
  -29.7322  -18.0960   21.8936 H   0  0  0  0  0  0
  -29.0198  -20.3644   21.9120 H   0  0  0  0  0  0
  -29.3023  -22.0252   19.3729 H   0  0  0  0  0  0
  -28.0833  -19.8111   16.8808 H   0  0  0  0  0  0
  -29.3404  -20.8499   17.5284 H   0  0  0  0  0  0
  -27.7321  -20.7704   18.2963 H   0  0  0  0  0  0
  -29.6838  -22.8051   22.1907 H   0  0  0  0  0  0
  -28.0150  -22.9885   21.7573 H   0  0  0  0  0  0
  -30.1882  -24.3410   20.0458 H   0  0  0  0  0  0
  -29.7452  -24.9965   21.5899 H   0  0  0  0  0  0
  -27.2915  -24.9687   20.7681 H   0  0  0  0  0  0
  -27.9656  -24.8216   19.1543 H   0  0  0  0  0  0
  -29.1970  -15.3011   21.5851 H   0  0  0  0  0  0
  1 25  1  0  0  0
  1 30  2  0  0  0
  1 83  1  0  0  0
  2  3  1  0  0  0
  2 25  1  0  0  0
  2 84  1  0  0  0
  2 85  1  0  0  0
  3  4  1  0  0  0
  3 86  1  0  0  0
  3 87  1  0  0  0
  4  5  1  0  0  0
  4 88  1  0  0  0
  4 89  1  0  0  0
  5  6  1  0  0  0
  5 26  1  0  0  0
  5 90  1  0  0  0
  6 25  1  0  0  0
  6 91  1  0  0  0
  6 92  1  0  0  0
  7  8  2  0  0  0
  7 26  1  0  0  0
  7 29  1  0  0  0
  8  9  1  0  0  0
  8 22  1  0  0  0
  9 10  1  0  0  0
  9 27  2  0  0  0
 10 11  2  0  0  0
 10 15  1  0  0  0
 11 12  1  0  0  0
 11 93  1  0  0  0
 12 13  2  0  0  0
 12 94  1  0  0  0
 13 14  1  0  0  0
 13 31  1  0  0  0
 14 15  2  0  0  0
 14 95  1  0  0  0
 15 96  1  0  0  0
 16 17  2  0  0  0
 16 21  1  0  0  0
 16 31  1  0  0  0
 17 18  1  0  0  0
 17 97  1  0  0  0
 18 19  2  0  0  0
 18 98  1  0  0  0
 19 20  1  0  0  0
 19 24  1  0  0  0
 20 21  2  0  0  0
 20 99  1  0  0  0
 21 23  1  0  0  0
 22 28  1  0  0  0
 22 32  2  0  0  0
 26 27  1  0  0  0
 28100  1  0  0  0
 28101  1  0  0  0
 29102  1  0  0  0
 29103  1  0  0  0
 33 34  1  0  0  0
 33 66  1  0  0  0
 33 70  2  0  0  0
 34 36  1  0  0  0
 34 59  1  0  0  0
 34104  1  0  0  0
 35 44  2  0  0  0
 35 45  1  0  0  0
 35 68  1  0  0  0
 36 56  1  0  0  0
 36105  1  0  0  0
 37 39  1  0  0  0
 37 47  1  0  0  0
 37 66  1  0  0  0
 37106  1  0  0  0
 38 43  2  0  0  0
 38 46  1  0  0  0
 38 47  1  0  0  0
 39 64  1  0  0  0
 39 67  2  0  0  0
 40 52  1  0  0  0
 40 53  2  0  0  0
 40 58  1  0  0  0
 41107  1  0  0  0
 41108  1  0  0  0
 41109  1  0  0  0
 41 48  1  0  0  0
 42 43  1  0  0  0
 42 66  1  0  0  0
 42110  1  0  0  0
 42111  1  0  0  0
 43 44  1  0  0  0
 44112  1  0  0  0
 45 46  2  0  0  0
 45113  1  0  0  0
 46114  1  0  0  0
 47115  1  0  0  0
 47116  1  0  0  0
 48 56  1  0  0  0
 48 65  1  0  0  0
 48117  1  0  0  0
 49 50  1  0  0  0
 49 53  1  0  0  0
 49 64  1  0  0  0
 49118  1  0  0  0
 50 51  1  0  0  0
 50119  1  0  0  0
 50120  1  0  0  0
 51 52  1  0  0  0
 51121  1  0  0  0
 51122  1  0  0  0
 52123  1  0  0  0
 52124  1  0  0  0
 53 54  1  0  0  0
 54 55  2  0  0  0
 54125  1  0  0  0
 55 57  1  0  0  0
 55126  1  0  0  0
 56 69  2  0  0  0
 57 58  2  0  0  0
 57127  1  0  0  0
 58128  1  0  0  0
 59 60  1  0  0  0
 59 61  1  0  0  0
 59 62  1  0  0  0
 60129  1  0  0  0
 60130  1  0  0  0
 60131  1  0  0  0
 61132  1  0  0  0
 61133  1  0  0  0
 61134  1  0  0  0
 62135  1  0  0  0
 62136  1  0  0  0
 62137  1  0  0  0
 63 65  1  0  0  0
 63138  1  0  0  0
 63139  1  0  0  0
 63140  1  0  0  0
 64141  1  0  0  0
 65142  1  0  0  0
 68 82  1  0  0  0
 71 72  2  0  0  0
 71 75  1  0  0  0
 71143  1  0  0  0
 72 76  1  0  0  0
 72144  1  0  0  0
 73 74  1  0  0  0
 73 76  2  0  0  0
 73145  1  0  0  0
 74 75  2  0  0  0
 74 77  1  0  0  0
 75 79  1  0  0  0
 76 83  1  0  0  0
 77 78  2  0  0  0
 77146  1  0  0  0
 78 80  1  0  0  0
 78147  1  0  0  0
 79148  1  0  0  0
 79149  1  0  0  0
 79150  1  0  0  0
 80 81  1  0  0  0
 80151  1  0  0  0
 80152  1  0  0  0
 81 82  1  0  0  0
 81153  1  0  0  0
 81154  1  0  0  0
 82155  1  0  0  0
 82156  1  0  0  0
 83157  1  0  0  0
M  ISO  4   1 100  68 101  82 101  83 100
M  END
> <chiral flag>
0

> <version>
0

> <s_m_source_file>
/data/baiqing/PycharmProjects/Reinvent-master-3.2/result/LINK_invent/BTK/process_docking_weight1_custom_product_contain_oxygen_bond_distance_aromatic_linkinvent_7_9_3/rearranged_h_0125.sdf

> <i_m_source_file_index>
62

> <r_mmod_Potential_Energy-OPLS-2005>
32.5816268920898

> <r_mmod_Stretch_Energy-OPLS-2005>
45.6307907104492

> <r_mmod_Bend_Energy-OPLS-2005>
105.298713684082

> <r_mmod_Torsional_Energy-OPLS-2005>
265.013458251953

> <r_mmod_Improper_Torsional_Energy-OPLS-2005>
6.46704339981079

> <r_mmod_Van_der_Waal_Energy-OPLS-2005>
156.291061401367

> <r_mmod_Electrostatic_Energy-OPLS-2005>
-360.215545654297

> <r_mmod_Solvation_Energy-OPLS-2005>
-204.573516845703

> <b_mmod_Minimization_Converged-OPLS-2005>
0

> <r_mmod_RMS_Derivative-OPLS-2005>
1.34924864768982

$$$$
62
                    3D
 Structure written by MMmdl.
150158  0  0  1  0            999 V2000
  -30.5211  -15.0717   20.3708 C   0  0  0  0  0  0
  -30.4352  -12.6637   19.5356 C   0  0  0  0  0  0
  -29.5372  -12.5555   18.2806 C   0  0  0  0  0  0
  -28.0730  -12.3201   18.6900 C   0  0  0  0  0  0
  -27.6251  -13.2666   19.8345 C   0  0  2  0  0  0
  -28.6577  -13.3647   20.9783 C   0  0  0  0  0  0
  -25.2446  -13.8249   20.5702 C   0  0  0  0  0  0
  -24.1782  -13.0450   20.9216 C   0  0  0  0  0  0
  -24.6420  -11.6944   20.8741 C   0  0  0  0  0  0
  -23.9105  -10.4309   21.0399 C   0  0  0  0  0  0
  -24.3650   -9.4227   21.9182 C   0  0  0  0  0  0
  -23.6322   -8.2260   22.0753 C   0  0  0  0  0  0
  -22.4303   -8.0295   21.3544 C   0  0  0  0  0  0
  -21.9942   -9.0269   20.4645 C   0  0  0  0  0  0
  -22.7272  -10.2151   20.3052 C   0  0  0  0  0  0
  -21.6862   -6.0753   22.5279 C   0  0  0  0  0  0
  -21.4016   -6.5648   23.8215 C   0  0  0  0  0  0
  -21.3663   -5.6796   24.9169 C   0  0  0  0  0  0
  -21.6047   -4.3056   24.7216 C   0  0  0  0  0  0
  -21.8819   -3.8156   23.4332 C   0  0  0  0  0  0
  -21.9196   -4.6979   22.3395 C   0  0  0  0  0  0
  -22.7808  -13.5216   21.1867 C   0  0  0  0  0  0
  -22.1662   -4.2166   21.0971 F   0  0  0  0  0  0
  -21.5638   -3.4535   25.7726 F   0  0  0  0  0  0
  -29.9260  -13.7970   20.3775 N   0  0  0  0  0  0
  -26.2872  -12.9514   20.3216 N   0  0  0  0  0  0
  -25.9353  -11.6626   20.5714 N   0  0  0  0  0  0
  -22.0444  -12.8217   22.0417 N   0  0  0  0  0  0
  -25.4116  -15.1977   20.4137 N   0  0  0  0  0  0
  -31.7294  -15.0740   20.1006 O   0  0  0  0  0  0
  -21.6650   -6.8900   21.4243 O   0  0  0  0  0  0
  -22.3489  -14.5524   20.6716 O   0  0  0  0  0  0
  -24.6522  -31.8361   23.1816 C   0  0  0  0  0  0
  -25.9264  -32.4649   23.8233 C   0  0  1  0  0  0
  -27.2136  -27.0472   20.1615 C   0  0  0  0  0  0
  -25.5981  -33.8459   24.2147 N   0  0  0  0  0  0
  -23.4596  -30.4524   21.5293 C   0  0  2  0  0  0
  -24.9111  -28.8657   20.1058 C   0  0  0  0  0  0
  -22.7613  -29.4507   22.4844 C   0  0  0  0  0  0
  -18.0309  -28.1396   22.8470 C   0  0  0  0  0  0
  -24.1496  -36.7237   23.2642 C   0  0  0  0  0  0
  -26.0212  -30.6805   21.3946 C   0  0  0  0  0  0
  -26.0898  -29.2828   20.7365 C   0  0  0  0  0  0
  -27.2378  -28.3887   20.7494 C   0  0  0  0  0  0
  -26.0141  -26.7628   19.4706 C   0  0  0  0  0  0
  -24.8922  -27.6241   19.4539 C   0  0  0  0  0  0
  -23.6897  -29.7767   20.1506 C   0  0  0  0  0  0
  -25.4133  -36.3007   24.0307 C   0  0  1  0  0  0
  -20.5926  -28.3734   23.1225 C   0  0  2  0  0  0
  -20.6796  -26.9433   22.5403 C   0  0  0  0  0  0
  -19.5768  -26.6382   21.5212 C   0  0  0  0  0  0
  -18.1950  -26.7934   22.1617 C   0  0  0  0  0  0
  -19.1565  -28.8883   23.2834 C   0  0  0  0  0  0
  -18.9479  -30.1479   23.8854 C   0  0  0  0  0  0
  -17.6473  -30.6588   24.0556 C   0  0  0  0  0  0
  -25.9093  -34.9383   23.5041 C   0  0  0  0  0  0
  -16.5363  -29.9075   23.6341 C   0  0  0  0  0  0
  -16.7292  -28.6498   23.0355 C   0  0  0  0  0  0
  -26.4544  -31.6542   25.0708 C   0  0  0  0  0  0
  -25.3700  -31.3760   26.1386 C   0  0  0  0  0  0
  -27.0427  -30.2924   24.6353 C   0  0  0  0  0  0
  -27.6064  -32.4312   25.7503 C   0  0  0  0  0  0
  -27.5578  -37.1776   24.8459 C   0  0  0  0  0  0
  -21.4294  -29.3043   22.3587 N   0  0  0  0  0  0
  -26.4285  -37.3734   23.9407 N   0  0  0  0  0  0
  -24.7311  -31.0133   22.0896 N   0  0  0  0  0  0
  -23.4223  -28.8076   23.3037 O   0  0  0  0  0  0
  -28.2274  -25.9956   20.2721 O   0  0  0  0  0  0
  -26.5683  -34.8899   22.4623 O   0  0  0  0  0  0
  -23.5621  -32.1283   23.6987 O   0  0  0  0  0  0
  -29.4450  -19.3187   18.0924 C   0  0  0  0  0  0
  -29.4570  -18.9773   19.4985 C   0  0  0  0  0  0
  -29.7749  -18.3596   17.1940 C   0  0  0  0  0  0
  -29.7713  -17.5021   19.6113 C   0  0  0  0  0  0
  -28.7301  -23.0854   20.5029 C   0  0  0  0  0  0
  -29.8502  -18.4796   15.7075 C   0  0  0  0  0  0
  -27.9967  -24.4724   19.8465 C   0  0  0  0  0  0
  -28.8269  -21.5755   19.7389 C   0  0  0  0  0  0
  -29.8042  -16.3350   20.4930 N   0  0  0  0  0  0
  -29.2355  -23.1846   21.6264 O   0  0  0  0  0  0
  -29.1735  -20.1306   20.3573 O   0  0  0  0  0  0
  -30.1245  -16.8932   17.9852 S   0  0  0  0  0  0
  -31.4725  -12.8117   19.2319 H   0  0  0  0  0  0
  -30.4266  -11.7284   20.0981 H   0  0  0  0  0  0
  -29.8873  -11.7509   17.6324 H   0  0  0  0  0  0
  -29.6138  -13.4743   17.6967 H   0  0  0  0  0  0
  -27.9865  -11.2836   19.0169 H   0  0  0  0  0  0
  -27.4146  -12.4236   17.8266 H   0  0  0  0  0  0
  -27.5688  -14.2562   19.3797 H   0  0  0  0  0  0
  -28.7666  -12.4125   21.5007 H   0  0  0  0  0  0
  -28.3352  -14.0926   21.7237 H   0  0  0  0  0  0
  -25.2793   -9.5715   22.4753 H   0  0  0  0  0  0
  -24.0037   -7.4663   22.7478 H   0  0  0  0  0  0
  -21.0869   -8.8799   19.8958 H   0  0  0  0  0  0
  -22.3727  -10.9695   19.6167 H   0  0  0  0  0  0
  -21.1998   -7.6155   23.9724 H   0  0  0  0  0  0
  -21.1486   -6.0515   25.9077 H   0  0  0  0  0  0
  -22.0598   -2.7618   23.2817 H   0  0  0  0  0  0
  -22.4046  -11.9883   22.4826 H   0  0  0  0  0  0
  -21.1058  -13.1257   22.2592 H   0  0  0  0  0  0
  -24.6459  -15.8537   20.5248 H   0  0  0  0  0  0
  -26.2575  -15.6332   20.0695 H   0  0  0  0  0  0
  -26.7333  -32.5227   23.0959 H   0  0  0  0  0  0
  -25.0087  -33.9550   25.0267 H   0  0  0  0  0  0
  -22.7664  -31.2809   21.3703 H   0  0  0  0  0  0
  -23.3767  -35.9558   23.3271 H   0  0  0  0  0  0
  -24.3585  -36.8905   22.2061 H   0  0  0  0  0  0
  -23.7239  -37.6419   23.6701 H   0  0  0  0  0  0
  -26.1872  -31.4307   20.6199 H   0  0  0  0  0  0
  -26.8880  -30.7335   22.0419 H   0  0  0  0  0  0
  -28.1290  -28.6981   21.2783 H   0  0  0  0  0  0
  -25.8993  -25.8206   18.9579 H   0  0  0  0  0  0
  -23.9971  -27.3051   18.9371 H   0  0  0  0  0  0
  -23.8258  -30.5485   19.3918 H   0  0  0  0  0  0
  -22.8020  -29.2205   19.8426 H   0  0  0  0  0  0
  -25.1323  -36.1820   25.0798 H   0  0  0  0  0  0
  -21.0005  -28.3321   24.1355 H   0  0  0  0  0  0
  -20.5689  -26.2346   23.3630 H   0  0  0  0  0  0
  -21.6663  -26.7438   22.1203 H   0  0  0  0  0  0
  -19.6938  -25.6290   21.1253 H   0  0  0  0  0  0
  -19.6700  -27.3180   20.6733 H   0  0  0  0  0  0
  -17.4228  -26.6678   21.4014 H   0  0  0  0  0  0
  -18.0341  -26.0075   22.9009 H   0  0  0  0  0  0
  -19.7955  -30.7309   24.2203 H   0  0  0  0  0  0
  -17.5024  -31.6262   24.5166 H   0  0  0  0  0  0
  -15.5361  -30.2963   23.7689 H   0  0  0  0  0  0
  -15.8693  -28.0805   22.7089 H   0  0  0  0  0  0
  -24.5899  -30.7084   25.7707 H   0  0  0  0  0  0
  -24.8864  -32.2947   26.4714 H   0  0  0  0  0  0
  -25.7958  -30.9001   27.0230 H   0  0  0  0  0  0
  -26.3070  -29.6622   24.1344 H   0  0  0  0  0  0
  -27.3992  -29.7252   25.4963 H   0  0  0  0  0  0
  -27.8996  -30.4138   23.9725 H   0  0  0  0  0  0
  -27.2663  -33.3649   26.1996 H   0  0  0  0  0  0
  -28.3929  -32.6808   25.0366 H   0  0  0  0  0  0
  -28.0677  -31.8485   26.5491 H   0  0  0  0  0  0
  -28.2575  -38.0093   24.7532 H   0  0  0  0  0  0
  -28.1093  -36.2625   24.6249 H   0  0  0  0  0  0
  -27.2301  -37.1379   25.8862 H   0  0  0  0  0  0
  -20.9534  -29.8729   21.6723 H   0  0  0  0  0  0
  -26.0142  -38.2799   24.1398 H   0  0  0  0  0  0
  -29.1977  -20.2942   17.7103 H   0  0  0  0  0  0
  -29.6735  -19.5049   15.3804 H   0  0  0  0  0  0
  -29.1033  -17.8468   15.2274 H   0  0  0  0  0  0
  -30.8326  -18.1791   15.3413 H   0  0  0  0  0  0
  -26.9333  -24.2753   19.9717 H   0  0  0  0  0  0
  -28.1701  -24.4263   18.7712 H   0  0  0  0  0  0
  -29.6132  -21.7707   19.0101 H   0  0  0  0  0  0
  -27.9047  -21.4657   19.1680 H   0  0  0  0  0  0
  -28.9776  -16.2556   21.0682 H   0  0  0  0  0  0
  1 25  1  0  0  0
  1 30  2  0  0  0
  1 79  1  0  0  0
  2  3  1  0  0  0
  2 25  1  0  0  0
  2 83  1  0  0  0
  2 84  1  0  0  0
  3  4  1  0  0  0
  3 85  1  0  0  0
  3 86  1  0  0  0
  4  5  1  0  0  0
  4 87  1  0  0  0
  4 88  1  0  0  0
  5  6  1  0  0  0
  5 26  1  0  0  0
  5 89  1  0  0  0
  6 25  1  0  0  0
  6 90  1  0  0  0
  6 91  1  0  0  0
  7  8  2  0  0  0
  7 26  1  0  0  0
  7 29  1  0  0  0
  8  9  1  0  0  0
  8 22  1  0  0  0
  9 10  1  0  0  0
  9 27  2  0  0  0
 10 11  2  0  0  0
 10 15  1  0  0  0
 11 12  1  0  0  0
 11 92  1  0  0  0
 12 13  2  0  0  0
 12 93  1  0  0  0
 13 14  1  0  0  0
 13 31  1  0  0  0
 14 15  2  0  0  0
 14 94  1  0  0  0
 15 95  1  0  0  0
 16 17  2  0  0  0
 16 21  1  0  0  0
 16 31  1  0  0  0
 17 18  1  0  0  0
 17 96  1  0  0  0
 18 19  2  0  0  0
 18 97  1  0  0  0
 19 20  1  0  0  0
 19 24  1  0  0  0
 20 21  2  0  0  0
 20 98  1  0  0  0
 21 23  1  0  0  0
 22 28  1  0  0  0
 22 32  2  0  0  0
 26 27  1  0  0  0
 28 99  1  0  0  0
 28100  1  0  0  0
 29101  1  0  0  0
 29102  1  0  0  0
 33 34  1  0  0  0
 33 66  1  0  0  0
 33 70  2  0  0  0
 34 36  1  0  0  0
 34 59  1  0  0  0
 34103  1  0  0  0
 35 44  2  0  0  0
 35 45  1  0  0  0
 35 68  1  0  0  0
 36 56  1  0  0  0
 36104  1  0  0  0
 37 39  1  0  0  0
 37 47  1  0  0  0
 37 66  1  0  0  0
 37105  1  0  0  0
 38 43  2  0  0  0
 38 46  1  0  0  0
 38 47  1  0  0  0
 39 64  1  0  0  0
 39 67  2  0  0  0
 40 52  1  0  0  0
 40 53  2  0  0  0
 40 58  1  0  0  0
 41106  1  0  0  0
 41107  1  0  0  0
 41108  1  0  0  0
 41 48  1  0  0  0
 42 43  1  0  0  0
 42 66  1  0  0  0
 42109  1  0  0  0
 42110  1  0  0  0
 43 44  1  0  0  0
 44111  1  0  0  0
 45 46  2  0  0  0
 45112  1  0  0  0
 46113  1  0  0  0
 47114  1  0  0  0
 47115  1  0  0  0
 48 56  1  0  0  0
 48 65  1  0  0  0
 48116  1  0  0  0
 49 50  1  0  0  0
 49 53  1  0  0  0
 49 64  1  0  0  0
 49117  1  0  0  0
 50 51  1  0  0  0
 50118  1  0  0  0
 50119  1  0  0  0
 51 52  1  0  0  0
 51120  1  0  0  0
 51121  1  0  0  0
 52122  1  0  0  0
 52123  1  0  0  0
 53 54  1  0  0  0
 54 55  2  0  0  0
 54124  1  0  0  0
 55 57  1  0  0  0
 55125  1  0  0  0
 56 69  2  0  0  0
 57 58  2  0  0  0
 57126  1  0  0  0
 58127  1  0  0  0
 59 60  1  0  0  0
 59 61  1  0  0  0
 59 62  1  0  0  0
 60128  1  0  0  0
 60129  1  0  0  0
 60130  1  0  0  0
 61131  1  0  0  0
 61132  1  0  0  0
 61133  1  0  0  0
 62134  1  0  0  0
 62135  1  0  0  0
 62136  1  0  0  0
 63 65  1  0  0  0
 63137  1  0  0  0
 63138  1  0  0  0
 63139  1  0  0  0
 64140  1  0  0  0
 65141  1  0  0  0
 68 77  1  0  0  0
 71 72  1  0  0  0
 71 73  2  0  0  0
 71142  1  0  0  0
 72 74  2  0  0  0
 72 81  1  0  0  0
 73 76  1  0  0  0
 73 82  1  0  0  0
 74 79  1  0  0  0
 74 82  1  0  0  0
 75 77  1  0  0  0
 75 78  1  0  0  0
 75 80  2  0  0  0
 76143  1  0  0  0
 76144  1  0  0  0
 76145  1  0  0  0
 77146  1  0  0  0
 77147  1  0  0  0
 78 81  1  0  0  0
 78148  1  0  0  0
 78149  1  0  0  0
 79150  1  0  0  0
M  ISO  4   1 100  68 101  77 101  79 100
M  END
> <chiral flag>
0

> <version>
0

> <s_m_source_file>
/data/baiqing/PycharmProjects/Reinvent-master-3.2/result/LINK_invent/BTK/process_docking_weight1_custom_product_contain_oxygen_bond_distance_aromatic_linkinvent_7_9_3/rearranged_h_0125.sdf

> <i_m_source_file_index>
63

> <r_mmod_Potential_Energy-OPLS-2005>
842.342712402344

> <r_mmod_Stretch_Energy-OPLS-2005>
399.799346923828

> <r_mmod_Bend_Energy-OPLS-2005>
383.558319091797

> <r_mmod_Torsional_Energy-OPLS-2005>
239.310348510742

> <r_mmod_Improper_Torsional_Energy-OPLS-2005>
5.11020374298096

> <r_mmod_Van_der_Waal_Energy-OPLS-2005>
127.597961425781

> <r_mmod_Electrostatic_Energy-OPLS-2005>
-347.797027587891

> <r_mmod_Solvation_Energy-OPLS-2005>
-253.483444213867

> <b_mmod_Minimization_Converged-OPLS-2005>
0

> <r_mmod_RMS_Derivative-OPLS-2005>
1.55931150913239

$$$$
63
                    3D
 Structure written by MMmdl.
152160  0  0  1  0            999 V2000
  -30.4088  -15.3386   20.3249 C   0  0  0  0  0  0
  -30.4396  -12.8558   19.5230 C   0  0  0  0  0  0
  -29.5384  -12.5808   18.2904 C   0  0  0  0  0  0
  -28.0907  -12.2873   18.7213 C   0  0  0  0  0  0
  -27.6025  -13.2747   19.8080 C   0  0  2  0  0  0
  -28.6329  -13.5019   20.9309 C   0  0  0  0  0  0
  -25.2390  -13.8236   20.5757 C   0  0  0  0  0  0
  -24.1734  -13.0429   20.9252 C   0  0  0  0  0  0
  -24.6386  -11.6926   20.8750 C   0  0  0  0  0  0
  -23.9080  -10.4291   21.0399 C   0  0  0  0  0  0
  -24.3625   -9.4209   21.9179 C   0  0  0  0  0  0
  -23.6295   -8.2246   22.0751 C   0  0  0  0  0  0
  -22.4278   -8.0281   21.3542 C   0  0  0  0  0  0
  -21.9916   -9.0254   20.4643 C   0  0  0  0  0  0
  -22.7249  -10.2131   20.3051 C   0  0  0  0  0  0
  -21.6859   -6.0733   22.5274 C   0  0  0  0  0  0
  -21.4017   -6.5636   23.8207 C   0  0  0  0  0  0
  -21.3662   -5.6790   24.9171 C   0  0  0  0  0  0
  -21.6045   -4.3052   24.7221 C   0  0  0  0  0  0
  -21.8819   -3.8142   23.4343 C   0  0  0  0  0  0
  -21.9194   -4.6960   22.3399 C   0  0  0  0  0  0
  -22.7758  -13.5192   21.1906 C   0  0  0  0  0  0
  -22.1662   -4.2145   21.0978 F   0  0  0  0  0  0
  -21.5631   -3.4536   25.7736 F   0  0  0  0  0  0
  -29.8622  -14.0154   20.3016 N   0  0  0  0  0  0
  -26.2789  -12.9495   20.3186 N   0  0  0  0  0  0
  -25.9319  -11.6604   20.5693 N   0  0  0  0  0  0
  -22.0419  -12.8167   22.0460 N   0  0  0  0  0  0
  -25.4065  -15.1973   20.4248 N   0  0  0  0  0  0
  -31.6468  -15.3090   20.2474 O   0  0  0  0  0  0
  -21.6643   -6.8877   21.4237 O   0  0  0  0  0  0
  -22.3439  -14.5498   20.6757 O   0  0  0  0  0  0
  -24.6676  -31.8199   23.1656 C   0  0  0  0  0  0
  -25.9336  -32.4572   23.8141 C   0  0  1  0  0  0
  -27.2209  -26.8835   20.2018 C   0  0  0  0  0  0
  -25.5986  -33.8387   24.2050 N   0  0  0  0  0  0
  -23.4846  -30.4290   21.5173 C   0  0  2  0  0  0
  -24.9382  -28.8019   20.1221 C   0  0  0  0  0  0
  -22.7688  -29.4425   22.4774 C   0  0  0  0  0  0
  -18.0328  -28.1412   22.8470 C   0  0  0  0  0  0
  -24.1489  -36.7203   23.2648 C   0  0  0  0  0  0
  -26.0564  -30.6134   21.4004 C   0  0  0  0  0  0
  -26.1252  -29.1953   20.7530 C   0  0  0  0  0  0
  -27.2641  -28.2617   20.7587 C   0  0  0  0  0  0
  -26.0002  -26.6485   19.5301 C   0  0  0  0  0  0
  -24.9030  -27.5491   19.4894 C   0  0  0  0  0  0
  -23.7277  -29.7373   20.1477 C   0  0  0  0  0  0
  -25.4129  -36.2955   24.0297 C   0  0  1  0  0  0
  -20.5954  -28.3764   23.1180 C   0  0  2  0  0  0
  -20.6805  -26.9441   22.5402 C   0  0  0  0  0  0
  -19.5777  -26.6378   21.5220 C   0  0  0  0  0  0
  -18.1958  -26.7943   22.1622 C   0  0  0  0  0  0
  -19.1589  -28.8907   23.2811 C   0  0  0  0  0  0
  -18.9498  -30.1495   23.8848 C   0  0  0  0  0  0
  -17.6490  -30.6602   24.0554 C   0  0  0  0  0  0
  -25.9101  -34.9342   23.4997 C   0  0  0  0  0  0
  -16.5381  -29.9090   23.6345 C   0  0  0  0  0  0
  -16.7307  -28.6510   23.0366 C   0  0  0  0  0  0
  -26.4568  -31.6525   25.0684 C   0  0  0  0  0  0
  -25.3674  -31.3785   26.1325 C   0  0  0  0  0  0
  -27.0476  -30.2889   24.6439 C   0  0  0  0  0  0
  -27.6049  -32.4349   25.7490 C   0  0  0  0  0  0
  -27.5568  -37.1749   24.8461 C   0  0  0  0  0  0
  -21.4353  -29.3050   22.3524 N   0  0  0  0  0  0
  -26.4266  -37.3701   23.9420 N   0  0  0  0  0  0
  -24.7584  -30.9819   22.0816 N   0  0  0  0  0  0
  -23.4214  -28.7996   23.3033 O   0  0  0  0  0  0
  -28.2302  -25.7694   20.1788 O   0  0  0  0  0  0
  -26.5717  -34.8889   22.4597 O   0  0  0  0  0  0
  -23.5734  -32.1191   23.6721 O   0  0  0  0  0  0
  -28.1079  -18.0009   18.4568 C   0  0  0  0  0  0
  -28.2598  -19.3064   18.9877 C   0  0  0  0  0  0
  -28.7417  -16.8392   18.9667 C   0  0  0  0  0  0
  -29.0510  -19.6084   20.1153 C   0  0  0  0  0  0
  -29.6240  -16.8326   20.0702 C   0  0  0  0  0  0
  -29.7538  -18.2963   20.6091 C   0  0  0  0  0  0
  -28.9266  -21.2624   20.5891 C   0  0  0  0  0  0
  -28.4758  -22.5814   20.0570 C   0  0  0  0  0  0
  -32.1035  -18.8899   21.3401 C   0  0  0  0  0  0
  -30.6963  -18.4743   21.7845 C   0  0  0  0  0  0
  -28.0585  -24.1873   20.6764 C   0  0  0  0  0  0
  -31.4524  -13.0753   19.1830 H   0  0  0  0  0  0
  -30.5255  -11.9673   20.1509 H   0  0  0  0  0  0
  -29.9331  -11.7468   17.7089 H   0  0  0  0  0  0
  -29.5522  -13.4496   17.6310 H   0  0  0  0  0  0
  -28.0631  -11.2703   19.1150 H   0  0  0  0  0  0
  -27.4224  -12.3002   17.8594 H   0  0  0  0  0  0
  -27.4917  -14.2219   19.2856 H   0  0  0  0  0  0
  -28.8154  -12.5887   21.4991 H   0  0  0  0  0  0
  -28.2575  -14.2411   21.6401 H   0  0  0  0  0  0
  -25.2764   -9.5691   22.4760 H   0  0  0  0  0  0
  -24.0000   -7.4640   22.7474 H   0  0  0  0  0  0
  -21.0846   -8.8773   19.8950 H   0  0  0  0  0  0
  -22.3696  -10.9670   19.6164 H   0  0  0  0  0  0
  -21.2008   -7.6142   23.9710 H   0  0  0  0  0  0
  -21.1488   -6.0520   25.9074 H   0  0  0  0  0  0
  -22.0595   -2.7604   23.2844 H   0  0  0  0  0  0
  -22.4050  -11.9826   22.4830 H   0  0  0  0  0  0
  -21.1037  -13.1182   22.2678 H   0  0  0  0  0  0
  -24.6431  -15.8526   20.5539 H   0  0  0  0  0  0
  -26.2680  -15.6459   20.1380 H   0  0  0  0  0  0
  -26.7410  -32.5101   23.0859 H   0  0  0  0  0  0
  -25.0088  -33.9451   25.0171 H   0  0  0  0  0  0
  -22.8002  -31.2611   21.3403 H   0  0  0  0  0  0
  -23.3768  -35.9514   23.3259 H   0  0  0  0  0  0
  -24.3569  -36.8905   22.2073 H   0  0  0  0  0  0
  -23.7228  -37.6367   23.6741 H   0  0  0  0  0  0
  -26.2350  -31.3470   20.6132 H   0  0  0  0  0  0
  -26.9178  -30.6788   22.0534 H   0  0  0  0  0  0
  -28.1710  -28.5720   21.2580 H   0  0  0  0  0  0
  -25.8741  -25.6934   19.0397 H   0  0  0  0  0  0
  -24.0030  -27.2408   18.9755 H   0  0  0  0  0  0
  -23.8892  -30.5020   19.3870 H   0  0  0  0  0  0
  -22.8360  -29.1946   19.8288 H   0  0  0  0  0  0
  -25.1322  -36.1742   25.0785 H   0  0  0  0  0  0
  -21.0039  -28.3379   24.1304 H   0  0  0  0  0  0
  -20.5696  -26.2381   23.3646 H   0  0  0  0  0  0
  -21.6665  -26.7418   22.1200 H   0  0  0  0  0  0
  -19.6936  -25.6277   21.1284 H   0  0  0  0  0  0
  -19.6716  -27.3157   20.6723 H   0  0  0  0  0  0
  -17.4229  -26.6696   21.4022 H   0  0  0  0  0  0
  -18.0341  -26.0095   22.9022 H   0  0  0  0  0  0
  -19.7973  -30.7327   24.2194 H   0  0  0  0  0  0
  -17.5044  -31.6276   24.5169 H   0  0  0  0  0  0
  -15.5381  -30.2978   23.7698 H   0  0  0  0  0  0
  -15.8706  -28.0813   22.7111 H   0  0  0  0  0  0
  -24.5881  -30.7107   25.7629 H   0  0  0  0  0  0
  -24.8825  -32.2984   26.4600 H   0  0  0  0  0  0
  -25.7884  -30.9054   27.0201 H   0  0  0  0  0  0
  -26.3151  -29.6551   24.1429 H   0  0  0  0  0  0
  -27.3985  -29.7272   25.5103 H   0  0  0  0  0  0
  -27.9093  -30.4070   23.9870 H   0  0  0  0  0  0
  -27.2617  -33.3715   26.1896 H   0  0  0  0  0  0
  -28.3942  -32.6807   25.0374 H   0  0  0  0  0  0
  -28.0616  -31.8586   26.5543 H   0  0  0  0  0  0
  -28.2538  -38.0091   24.7549 H   0  0  0  0  0  0
  -28.1113  -36.2619   24.6232 H   0  0  0  0  0  0
  -27.2292  -37.1320   25.8863 H   0  0  0  0  0  0
  -20.9618  -29.8740   21.6645 H   0  0  0  0  0  0
  -26.0110  -38.2749   24.1462 H   0  0  0  0  0  0
  -27.4698  -17.8844   17.5913 H   0  0  0  0  0  0
  -27.7085  -20.1069   18.5140 H   0  0  0  0  0  0
  -28.5823  -15.9155   18.4298 H   0  0  0  0  0  0
  -29.1767  -21.3433   21.6378 H   0  0  0  0  0  0
  -28.2266  -22.5377   19.0068 H   0  0  0  0  0  0
  -32.7665  -18.9986   22.1990 H   0  0  0  0  0  0
  -32.0853  -19.8443   20.8129 H   0  0  0  0  0  0
  -32.5438  -18.1469   20.6742 H   0  0  0  0  0  0
  -30.7477  -17.5460   22.3549 H   0  0  0  0  0  0
  -30.2867  -19.2216   22.4647 H   0  0  0  0  0  0
  -28.4694  -24.1886   21.6859 H   0  0  0  0  0  0
  -26.9839  -24.1021   20.8373 H   0  0  0  0  0  0
  1 25  1  0  0  0
  1 30  2  0  0  0
  1 75  1  0  0  0
  2  3  1  0  0  0
  2 25  1  0  0  0
  2 82  1  0  0  0
  2 83  1  0  0  0
  3  4  1  0  0  0
  3 84  1  0  0  0
  3 85  1  0  0  0
  4  5  1  0  0  0
  4 86  1  0  0  0
  4 87  1  0  0  0
  5  6  1  0  0  0
  5 26  1  0  0  0
  5 88  1  0  0  0
  6 25  1  0  0  0
  6 89  1  0  0  0
  6 90  1  0  0  0
  7  8  2  0  0  0
  7 26  1  0  0  0
  7 29  1  0  0  0
  8  9  1  0  0  0
  8 22  1  0  0  0
  9 10  1  0  0  0
  9 27  2  0  0  0
 10 11  2  0  0  0
 10 15  1  0  0  0
 11 12  1  0  0  0
 11 91  1  0  0  0
 12 13  2  0  0  0
 12 92  1  0  0  0
 13 14  1  0  0  0
 13 31  1  0  0  0
 14 15  2  0  0  0
 14 93  1  0  0  0
 15 94  1  0  0  0
 16 17  2  0  0  0
 16 21  1  0  0  0
 16 31  1  0  0  0
 17 18  1  0  0  0
 17 95  1  0  0  0
 18 19  2  0  0  0
 18 96  1  0  0  0
 19 20  1  0  0  0
 19 24  1  0  0  0
 20 21  2  0  0  0
 20 97  1  0  0  0
 21 23  1  0  0  0
 22 28  1  0  0  0
 22 32  2  0  0  0
 26 27  1  0  0  0
 28 98  1  0  0  0
 28 99  1  0  0  0
 29100  1  0  0  0
 29101  1  0  0  0
 33 34  1  0  0  0
 33 66  1  0  0  0
 33 70  2  0  0  0
 34 36  1  0  0  0
 34 59  1  0  0  0
 34102  1  0  0  0
 35 44  2  0  0  0
 35 45  1  0  0  0
 35 68  1  0  0  0
 36 56  1  0  0  0
 36103  1  0  0  0
 37 39  1  0  0  0
 37 47  1  0  0  0
 37 66  1  0  0  0
 37104  1  0  0  0
 38 43  2  0  0  0
 38 46  1  0  0  0
 38 47  1  0  0  0
 39 64  1  0  0  0
 39 67  2  0  0  0
 40 52  1  0  0  0
 40 53  2  0  0  0
 40 58  1  0  0  0
 41105  1  0  0  0
 41106  1  0  0  0
 41107  1  0  0  0
 41 48  1  0  0  0
 42 43  1  0  0  0
 42 66  1  0  0  0
 42108  1  0  0  0
 42109  1  0  0  0
 43 44  1  0  0  0
 44110  1  0  0  0
 45 46  2  0  0  0
 45111  1  0  0  0
 46112  1  0  0  0
 47113  1  0  0  0
 47114  1  0  0  0
 48 56  1  0  0  0
 48 65  1  0  0  0
 48115  1  0  0  0
 49 50  1  0  0  0
 49 53  1  0  0  0
 49 64  1  0  0  0
 49116  1  0  0  0
 50 51  1  0  0  0
 50117  1  0  0  0
 50118  1  0  0  0
 51 52  1  0  0  0
 51119  1  0  0  0
 51120  1  0  0  0
 52121  1  0  0  0
 52122  1  0  0  0
 53 54  1  0  0  0
 54 55  2  0  0  0
 54123  1  0  0  0
 55 57  1  0  0  0
 55124  1  0  0  0
 56 69  2  0  0  0
 57 58  2  0  0  0
 57125  1  0  0  0
 58126  1  0  0  0
 59 60  1  0  0  0
 59 61  1  0  0  0
 59 62  1  0  0  0
 60127  1  0  0  0
 60128  1  0  0  0
 60129  1  0  0  0
 61130  1  0  0  0
 61131  1  0  0  0
 61132  1  0  0  0
 62133  1  0  0  0
 62134  1  0  0  0
 62135  1  0  0  0
 63 65  1  0  0  0
 63136  1  0  0  0
 63137  1  0  0  0
 63138  1  0  0  0
 64139  1  0  0  0
 65140  1  0  0  0
 68 81  1  0  0  0
 71 72  2  0  0  0
 71 73  1  0  0  0
 71141  1  0  0  0
 72 74  1  0  0  0
 72142  1  0  0  0
 73 75  2  0  0  0
 73143  1  0  0  0
 74 76  2  0  0  0
 74 77  1  0  0  0
 75 76  1  0  0  0
 76 80  1  0  0  0
 77 78  2  0  0  0
 77144  1  0  0  0
 78 81  1  0  0  0
 78145  1  0  0  0
 79 80  1  0  0  0
 79146  1  0  0  0
 79147  1  0  0  0
 79148  1  0  0  0
 80149  1  0  0  0
 80150  1  0  0  0
 81151  1  0  0  0
 81152  1  0  0  0
M  ISO  4   1 100  68 101  75 100  81 101
M  END
> <chiral flag>
0

> <version>
0

> <s_m_source_file>
/data/baiqing/PycharmProjects/Reinvent-master-3.2/result/LINK_invent/BTK/process_docking_weight1_custom_product_contain_oxygen_bond_distance_aromatic_linkinvent_7_9_3/rearranged_h_0125.sdf

> <i_m_source_file_index>
64

> <r_mmod_Potential_Energy-OPLS-2005>
1486.38488769531

> <r_mmod_Stretch_Energy-OPLS-2005>
640.029418945312

> <r_mmod_Bend_Energy-OPLS-2005>
425.999816894531

> <r_mmod_Torsional_Energy-OPLS-2005>
241.573852539062

> <r_mmod_Improper_Torsional_Energy-OPLS-2005>
12.3374729156494

> <r_mmod_Van_der_Waal_Energy-OPLS-2005>
113.851860046387

> <r_mmod_Electrostatic_Energy-OPLS-2005>
-292.546997070312

> <r_mmod_Solvation_Energy-OPLS-2005>
-185.578033447266

> <b_mmod_Minimization_Converged-OPLS-2005>
0

> <r_mmod_RMS_Derivative-OPLS-2005>
0.784122884273529

$$$$
64
                    3D
 Structure written by MMmdl.
149157  0  0  1  0            999 V2000
  -30.5528  -14.9819   20.4109 C   0  0  0  0  0  0
  -30.4399  -12.6100   19.5036 C   0  0  0  0  0  0
  -29.5263  -12.5328   18.2591 C   0  0  0  0  0  0
  -28.0604  -12.3154   18.6765 C   0  0  0  0  0  0
  -27.6285  -13.2539   19.8343 C   0  0  2  0  0  0
  -28.6704  -13.3092   20.9721 C   0  0  0  0  0  0
  -25.2466  -13.8229   20.5701 C   0  0  0  0  0  0
  -24.1779  -13.0453   20.9210 C   0  0  0  0  0  0
  -24.6402  -11.6937   20.8756 C   0  0  0  0  0  0
  -23.9089  -10.4304   21.0412 C   0  0  0  0  0  0
  -24.3635   -9.4209   21.9189 C   0  0  0  0  0  0
  -23.6298   -8.2247   22.0755 C   0  0  0  0  0  0
  -22.4276   -8.0292   21.3546 C   0  0  0  0  0  0
  -21.9924   -9.0270   20.4647 C   0  0  0  0  0  0
  -22.7265  -10.2143   20.3062 C   0  0  0  0  0  0
  -21.6858   -6.0743   22.5277 C   0  0  0  0  0  0
  -21.4020   -6.5640   23.8214 C   0  0  0  0  0  0
  -21.3658   -5.6788   24.9172 C   0  0  0  0  0  0
  -21.6039   -4.3052   24.7221 C   0  0  0  0  0  0
  -21.8818   -3.8150   23.4343 C   0  0  0  0  0  0
  -21.9193   -4.6972   22.3401 C   0  0  0  0  0  0
  -22.7801  -13.5219   21.1873 C   0  0  0  0  0  0
  -22.1666   -4.2160   21.0982 F   0  0  0  0  0  0
  -21.5625   -3.4536   25.7733 F   0  0  0  0  0  0
  -29.9441  -13.7233   20.3688 N   0  0  0  0  0  0
  -26.2888  -12.9467   20.3232 N   0  0  0  0  0  0
  -25.9334  -11.6594   20.5732 N   0  0  0  0  0  0
  -22.0455  -12.8206   22.0423 N   0  0  0  0  0  0
  -25.4149  -15.1953   20.4102 N   0  0  0  0  0  0
  -31.7606  -15.0011   20.1532 O   0  0  0  0  0  0
  -21.6641   -6.8886   21.4238 O   0  0  0  0  0  0
  -22.3492  -14.5539   20.6731 O   0  0  0  0  0  0
  -24.6467  -31.8420   23.1856 C   0  0  0  0  0  0
  -25.9222  -32.4691   23.8265 C   0  0  1  0  0  0
  -27.2177  -27.1090   20.1586 C   0  0  0  0  0  0
  -25.5963  -33.8499   24.2190 N   0  0  0  0  0  0
  -23.4518  -30.4602   21.5324 C   0  0  2  0  0  0
  -24.9030  -28.8830   20.1111 C   0  0  0  0  0  0
  -22.7585  -29.4541   22.4849 C   0  0  0  0  0  0
  -18.0317  -28.1404   22.8476 C   0  0  0  0  0  0
  -24.1496  -36.7246   23.2642 C   0  0  0  0  0  0
  -26.0099  -30.7074   21.3885 C   0  0  0  0  0  0
  -26.0820  -29.3155   20.7310 C   0  0  0  0  0  0
  -27.2410  -28.4455   20.7363 C   0  0  0  0  0  0
  -26.0100  -26.7843   19.5002 C   0  0  0  0  0  0
  -24.8813  -27.6312   19.4798 C   0  0  0  0  0  0
  -23.6805  -29.7884   20.1532 C   0  0  0  0  0  0
  -25.4129  -36.3031   24.0315 C   0  0  1  0  0  0
  -20.5929  -28.3732   23.1227 C   0  0  2  0  0  0
  -20.6807  -26.9432   22.5402 C   0  0  0  0  0  0
  -19.5777  -26.6386   21.5214 C   0  0  0  0  0  0
  -18.1958  -26.7944   22.1622 C   0  0  0  0  0  0
  -19.1572  -28.8886   23.2844 C   0  0  0  0  0  0
  -18.9488  -30.1482   23.8870 C   0  0  0  0  0  0
  -17.6483  -30.6600   24.0558 C   0  0  0  0  0  0
  -25.9077  -34.9405   23.5061 C   0  0  0  0  0  0
  -16.5375  -29.9089   23.6336 C   0  0  0  0  0  0
  -16.7299  -28.6508   23.0353 C   0  0  0  0  0  0
  -26.4534  -31.6563   25.0711 C   0  0  0  0  0  0
  -25.3704  -31.3758   26.1393 C   0  0  0  0  0  0
  -27.0396  -30.2956   24.6301 C   0  0  0  0  0  0
  -27.6070  -32.4322   25.7497 C   0  0  0  0  0  0
  -27.5575  -37.1788   24.8471 C   0  0  0  0  0  0
  -21.4273  -29.3045   22.3586 N   0  0  0  0  0  0
  -26.4297  -37.3738   23.9396 N   0  0  0  0  0  0
  -24.7229  -31.0248   22.0909 N   0  0  0  0  0  0
  -23.4214  -28.8092   23.3011 O   0  0  0  0  0  0
  -28.2545  -26.0982   20.2318 O   0  0  0  0  0  0
  -26.5657  -34.8900   22.4638 O   0  0  0  0  0  0
  -23.5574  -32.1319   23.7044 O   0  0  0  0  0  0
  -29.1915  -18.8892   20.4602 C   0  0  0  0  0  0
  -30.9522  -20.5263   20.1527 C   0  0  0  0  0  0
  -31.4653  -18.0999   20.2438 C   0  0  0  0  0  0
  -29.5651  -20.3373   20.3319 C   0  0  0  0  0  0
  -30.1162  -17.7095   20.4173 C   0  0  0  0  0  0
  -31.8667  -19.4501   20.1138 C   0  0  0  0  0  0
  -28.9773  -23.3181   20.3550 C   0  0  0  0  0  0
  -28.5772  -21.6861   20.3315 C   0  0  0  0  0  0
  -27.9037  -24.5718   20.1099 C   0  0  0  0  0  0
  -29.7911  -16.1947   20.5338 N   0  0  0  0  0  0
  -30.1504  -23.6257   20.5861 O   0  0  0  0  0  0
  -33.1823  -19.7242   19.9409 F   0  0  0  0  0  0
  -31.4734  -12.7626   19.1883 H   0  0  0  0  0  0
  -30.4338  -11.6656   20.0497 H   0  0  0  0  0  0
  -29.8515  -11.7276   17.5981 H   0  0  0  0  0  0
  -29.6112  -13.4572   17.6853 H   0  0  0  0  0  0
  -27.9570  -11.2758   18.9887 H   0  0  0  0  0  0
  -27.4008  -12.4442   17.8178 H   0  0  0  0  0  0
  -27.5837  -14.2499   19.3934 H   0  0  0  0  0  0
  -28.7628  -12.3443   21.4718 H   0  0  0  0  0  0
  -28.3630  -14.0261   21.7356 H   0  0  0  0  0  0
  -25.2783   -9.5679   22.4763 H   0  0  0  0  0  0
  -24.0006   -7.4636   22.7472 H   0  0  0  0  0  0
  -21.0858   -8.8804   19.8945 H   0  0  0  0  0  0
  -22.3738  -10.9687   19.6175 H   0  0  0  0  0  0
  -21.2017   -7.6146   23.9717 H   0  0  0  0  0  0
  -21.1483   -6.0521   25.9073 H   0  0  0  0  0  0
  -22.0598   -2.7610   23.2844 H   0  0  0  0  0  0
  -22.4081  -11.9864   22.4793 H   0  0  0  0  0  0
  -21.1081  -13.1239   22.2660 H   0  0  0  0  0  0
  -24.6427  -15.8459   20.5045 H   0  0  0  0  0  0
  -26.2536  -15.6286   20.0469 H   0  0  0  0  0  0
  -26.7284  -32.5295   23.0988 H   0  0  0  0  0  0
  -25.0105  -33.9610   25.0335 H   0  0  0  0  0  0
  -22.7560  -31.2869   21.3758 H   0  0  0  0  0  0
  -23.3762  -35.9576   23.3317 H   0  0  0  0  0  0
  -24.3572  -36.8864   22.2053 H   0  0  0  0  0  0
  -23.7254  -37.6449   23.6668 H   0  0  0  0  0  0
  -26.1661  -31.4595   20.6140 H   0  0  0  0  0  0
  -26.8799  -30.7615   22.0315 H   0  0  0  0  0  0
  -28.1384  -28.7713   21.2445 H   0  0  0  0  0  0
  -25.8998  -25.8279   19.0130 H   0  0  0  0  0  0
  -23.9809  -27.2930   18.9853 H   0  0  0  0  0  0
  -23.8183  -30.5622   19.3973 H   0  0  0  0  0  0
  -22.7952  -29.2313   19.8421 H   0  0  0  0  0  0
  -25.1319  -36.1869   25.0808 H   0  0  0  0  0  0
  -21.0022  -28.3339   24.1347 H   0  0  0  0  0  0
  -20.5719  -26.2341   23.3622 H   0  0  0  0  0  0
  -21.6672  -26.7446   22.1190 H   0  0  0  0  0  0
  -19.6936  -25.6289   21.1267 H   0  0  0  0  0  0
  -19.6723  -27.3178   20.6730 H   0  0  0  0  0  0
  -17.4225  -26.6685   21.4029 H   0  0  0  0  0  0
  -18.0355  -26.0102   22.9034 H   0  0  0  0  0  0
  -19.7961  -30.7307   24.2231 H   0  0  0  0  0  0
  -17.5033  -31.6280   24.5163 H   0  0  0  0  0  0
  -15.5373  -30.2977   23.7678 H   0  0  0  0  0  0
  -15.8701  -28.0814   22.7079 H   0  0  0  0  0  0
  -24.5902  -30.7087   25.7706 H   0  0  0  0  0  0
  -24.8867  -32.2937   26.4742 H   0  0  0  0  0  0
  -25.7972  -30.8985   27.0221 H   0  0  0  0  0  0
  -26.3014  -29.6678   24.1296 H   0  0  0  0  0  0
  -27.3990  -29.7259   25.4881 H   0  0  0  0  0  0
  -27.8933  -30.4188   23.9633 H   0  0  0  0  0  0
  -27.2680  -33.3648   26.2017 H   0  0  0  0  0  0
  -28.3913  -32.6838   25.0345 H   0  0  0  0  0  0
  -28.0700  -31.8482   26.5459 H   0  0  0  0  0  0
  -28.2608  -38.0067   24.7480 H   0  0  0  0  0  0
  -28.1058  -36.2594   24.6359 H   0  0  0  0  0  0
  -27.2277  -37.1503   25.8870 H   0  0  0  0  0  0
  -20.9493  -29.8738   21.6741 H   0  0  0  0  0  0
  -26.0172  -38.2815   24.1375 H   0  0  0  0  0  0
  -28.1391  -18.6760   20.5887 H   0  0  0  0  0  0
  -31.3517  -21.5216   20.0316 H   0  0  0  0  0  0
  -32.2487  -17.3619   20.1985 H   0  0  0  0  0  0
  -27.9179  -21.5559   21.1897 H   0  0  0  0  0  0
  -27.9284  -21.5691   19.4642 H   0  0  0  0  0  0
  -27.0654  -24.3878   20.7822 H   0  0  0  0  0  0
  -27.5158  -24.4156   19.1042 H   0  0  0  0  0  0
  -28.8147  -16.0035   20.6961 H   0  0  0  0  0  0
  1 25  1  0  0  0
  1 30  2  0  0  0
  1 80  1  0  0  0
  2  3  1  0  0  0
  2 25  1  0  0  0
  2 83  1  0  0  0
  2 84  1  0  0  0
  3  4  1  0  0  0
  3 85  1  0  0  0
  3 86  1  0  0  0
  4  5  1  0  0  0
  4 87  1  0  0  0
  4 88  1  0  0  0
  5  6  1  0  0  0
  5 26  1  0  0  0
  5 89  1  0  0  0
  6 25  1  0  0  0
  6 90  1  0  0  0
  6 91  1  0  0  0
  7  8  2  0  0  0
  7 26  1  0  0  0
  7 29  1  0  0  0
  8  9  1  0  0  0
  8 22  1  0  0  0
  9 10  1  0  0  0
  9 27  2  0  0  0
 10 11  2  0  0  0
 10 15  1  0  0  0
 11 12  1  0  0  0
 11 92  1  0  0  0
 12 13  2  0  0  0
 12 93  1  0  0  0
 13 14  1  0  0  0
 13 31  1  0  0  0
 14 15  2  0  0  0
 14 94  1  0  0  0
 15 95  1  0  0  0
 16 17  2  0  0  0
 16 21  1  0  0  0
 16 31  1  0  0  0
 17 18  1  0  0  0
 17 96  1  0  0  0
 18 19  2  0  0  0
 18 97  1  0  0  0
 19 20  1  0  0  0
 19 24  1  0  0  0
 20 21  2  0  0  0
 20 98  1  0  0  0
 21 23  1  0  0  0
 22 28  1  0  0  0
 22 32  2  0  0  0
 26 27  1  0  0  0
 28 99  1  0  0  0
 28100  1  0  0  0
 29101  1  0  0  0
 29102  1  0  0  0
 33 34  1  0  0  0
 33 66  1  0  0  0
 33 70  2  0  0  0
 34 36  1  0  0  0
 34 59  1  0  0  0
 34103  1  0  0  0
 35 44  2  0  0  0
 35 45  1  0  0  0
 35 68  1  0  0  0
 36 56  1  0  0  0
 36104  1  0  0  0
 37 39  1  0  0  0
 37 47  1  0  0  0
 37 66  1  0  0  0
 37105  1  0  0  0
 38 43  2  0  0  0
 38 46  1  0  0  0
 38 47  1  0  0  0
 39 64  1  0  0  0
 39 67  2  0  0  0
 40 52  1  0  0  0
 40 53  2  0  0  0
 40 58  1  0  0  0
 41106  1  0  0  0
 41107  1  0  0  0
 41108  1  0  0  0
 41 48  1  0  0  0
 42 43  1  0  0  0
 42 66  1  0  0  0
 42109  1  0  0  0
 42110  1  0  0  0
 43 44  1  0  0  0
 44111  1  0  0  0
 45 46  2  0  0  0
 45112  1  0  0  0
 46113  1  0  0  0
 47114  1  0  0  0
 47115  1  0  0  0
 48 56  1  0  0  0
 48 65  1  0  0  0
 48116  1  0  0  0
 49 50  1  0  0  0
 49 53  1  0  0  0
 49 64  1  0  0  0
 49117  1  0  0  0
 50 51  1  0  0  0
 50118  1  0  0  0
 50119  1  0  0  0
 51 52  1  0  0  0
 51120  1  0  0  0
 51121  1  0  0  0
 52122  1  0  0  0
 52123  1  0  0  0
 53 54  1  0  0  0
 54 55  2  0  0  0
 54124  1  0  0  0
 55 57  1  0  0  0
 55125  1  0  0  0
 56 69  2  0  0  0
 57 58  2  0  0  0
 57126  1  0  0  0
 58127  1  0  0  0
 59 60  1  0  0  0
 59 61  1  0  0  0
 59 62  1  0  0  0
 60128  1  0  0  0
 60129  1  0  0  0
 60130  1  0  0  0
 61131  1  0  0  0
 61132  1  0  0  0
 61133  1  0  0  0
 62134  1  0  0  0
 62135  1  0  0  0
 62136  1  0  0  0
 63 65  1  0  0  0
 63137  1  0  0  0
 63138  1  0  0  0
 63139  1  0  0  0
 64140  1  0  0  0
 65141  1  0  0  0
 68 79  1  0  0  0
 71 74  2  0  0  0
 71 75  1  0  0  0
 71142  1  0  0  0
 72 74  1  0  0  0
 72 76  2  0  0  0
 72143  1  0  0  0
 73 75  2  0  0  0
 73 76  1  0  0  0
 73144  1  0  0  0
 74 78  1  0  0  0
 75 80  1  0  0  0
 76 82  1  0  0  0
 77 78  1  0  0  0
 77 79  1  0  0  0
 77 81  2  0  0  0
 78145  1  0  0  0
 78146  1  0  0  0
 79147  1  0  0  0
 79148  1  0  0  0
 80149  1  0  0  0
M  ISO  4   1 100  68 101  79 101  80 100
M  END
> <chiral flag>
0

> <version>
0

> <s_m_source_file>
/data/baiqing/PycharmProjects/Reinvent-master-3.2/result/LINK_invent/BTK/process_docking_weight1_custom_product_contain_oxygen_bond_distance_aromatic_linkinvent_7_9_3/rearranged_h_0125.sdf

> <i_m_source_file_index>
65

> <r_mmod_Potential_Energy-OPLS-2005>
573.182739257812

> <r_mmod_Stretch_Energy-OPLS-2005>
294.617279052734

> <r_mmod_Bend_Energy-OPLS-2005>
251.054473876953

> <r_mmod_Torsional_Energy-OPLS-2005>
209.336059570312

> <r_mmod_Improper_Torsional_Energy-OPLS-2005>
4.50213146209717

> <r_mmod_Van_der_Waal_Energy-OPLS-2005>
133.962631225586

> <r_mmod_Electrostatic_Energy-OPLS-2005>
-302.692352294922

> <r_mmod_Solvation_Energy-OPLS-2005>
-234.850982666016

> <b_mmod_Minimization_Converged-OPLS-2005>
0

> <r_mmod_RMS_Derivative-OPLS-2005>
1.55821847915649

$$$$
65
                    3D
 Structure written by MMmdl.
154162  0  0  1  0            999 V2000
  -30.6702  -14.4557   20.6439 C   0  0  0  0  0  0
  -30.4119  -12.3404   19.3850 C   0  0  0  0  0  0
  -29.4753  -12.5837   18.1829 C   0  0  0  0  0  0
  -27.9938  -12.4581   18.5810 C   0  0  0  0  0  0
  -27.6527  -13.2302   19.8857 C   0  0  2  0  0  0
  -28.6923  -12.9230   20.9827 C   0  0  0  0  0  0
  -25.2458  -13.8202   20.5635 C   0  0  0  0  0  0
  -24.1756  -13.0418   20.9165 C   0  0  0  0  0  0
  -24.6381  -11.6914   20.8738 C   0  0  0  0  0  0
  -23.9087  -10.4274   21.0420 C   0  0  0  0  0  0
  -24.3658   -9.4179   21.9175 C   0  0  0  0  0  0
  -23.6309   -8.2238   22.0745 C   0  0  0  0  0  0
  -22.4267   -8.0315   21.3557 C   0  0  0  0  0  0
  -21.9915   -9.0285   20.4662 C   0  0  0  0  0  0
  -22.7276  -10.2149   20.3078 C   0  0  0  0  0  0
  -21.6866   -6.0740   22.5271 C   0  0  0  0  0  0
  -21.4035   -6.5632   23.8210 C   0  0  0  0  0  0
  -21.3683   -5.6782   24.9156 C   0  0  0  0  0  0
  -21.6027   -4.3037   24.7190 C   0  0  0  0  0  0
  -21.8807   -3.8136   23.4333 C   0  0  0  0  0  0
  -21.9189   -4.6956   22.3377 C   0  0  0  0  0  0
  -22.7779  -13.5199   21.1845 C   0  0  0  0  0  0
  -22.1679   -4.2156   21.0978 F   0  0  0  0  0  0
  -21.5618   -3.4516   25.7713 F   0  0  0  0  0  0
  -30.0178  -13.2728   20.4566 N   0  0  0  0  0  0
  -26.2932  -12.9441   20.3375 N   0  0  0  0  0  0
  -25.9293  -11.6554   20.5733 N   0  0  0  0  0  0
  -22.0507  -12.8188   22.0452 N   0  0  0  0  0  0
  -25.4054  -15.1939   20.3978 N   0  0  0  0  0  0
  -31.7913  -14.6542   20.1577 O   0  0  0  0  0  0
  -21.6653   -6.8887   21.4249 O   0  0  0  0  0  0
  -22.3409  -14.5467   20.6673 O   0  0  0  0  0  0
  -24.6137  -31.8709   23.2074 C   0  0  0  0  0  0
  -25.9028  -32.4829   23.8389 C   0  0  1  0  0  0
  -27.2504  -27.4554   20.0885 C   0  0  0  0  0  0
  -25.5886  -33.8631   24.2336 N   0  0  0  0  0  0
  -23.4057  -30.4853   21.5499 C   0  0  2  0  0  0
  -24.8537  -28.9464   20.1248 C   0  0  0  0  0  0
  -22.7420  -29.4650   22.5027 C   0  0  0  0  0  0
  -18.0264  -28.1382   22.8498 C   0  0  0  0  0  0
  -24.1477  -36.7308   23.2639 C   0  0  0  0  0  0
  -25.9300  -30.8412   21.3565 C   0  0  0  0  0  0
  -26.0144  -29.4747   20.7061 C   0  0  0  0  0  0
  -27.2195  -28.7379   20.6795 C   0  0  0  0  0  0
  -26.0747  -26.9308   19.5132 C   0  0  0  0  0  0
  -24.8754  -27.6698   19.5318 C   0  0  0  0  0  0
  -23.6129  -29.8064   20.1702 C   0  0  0  0  0  0
  -25.4097  -36.3115   24.0340 C   0  0  1  0  0  0
  -20.5855  -28.3656   23.1339 C   0  0  2  0  0  0
  -20.6757  -26.9392   22.5423 C   0  0  0  0  0  0
  -19.5748  -26.6383   21.5223 C   0  0  0  0  0  0
  -18.1919  -26.7924   22.1626 C   0  0  0  0  0  0
  -19.1512  -28.8847   23.2909 C   0  0  0  0  0  0
  -18.9431  -30.1453   23.8921 C   0  0  0  0  0  0
  -17.6433  -30.6589   24.0572 C   0  0  0  0  0  0
  -25.9037  -34.9482   23.5146 C   0  0  0  0  0  0
  -16.5325  -29.9092   23.6319 C   0  0  0  0  0  0
  -16.7247  -28.6504   23.0342 C   0  0  0  0  0  0
  -26.4449  -31.6606   25.0716 C   0  0  0  0  0  0
  -25.3703  -31.3721   26.1450 C   0  0  0  0  0  0
  -27.0280  -30.3045   24.6086 C   0  0  0  0  0  0
  -27.6040  -32.4314   25.7471 C   0  0  0  0  0  0
  -27.5583  -37.1796   24.8463 C   0  0  0  0  0  0
  -21.4145  -29.3038   22.3759 N   0  0  0  0  0  0
  -26.4298  -37.3784   23.9409 N   0  0  0  0  0  0
  -24.6686  -31.0780   22.0987 N   0  0  0  0  0  0
  -23.4181  -28.8185   23.3085 O   0  0  0  0  0  0
  -28.4231  -26.7419   20.0423 O   0  0  0  0  0  0
  -26.5582  -34.8925   22.4700 O   0  0  0  0  0  0
  -23.5328  -32.1486   23.7438 O   0  0  0  0  0  0
  -27.9834  -19.2142   23.0553 C   0  0  0  0  0  0
  -27.9285  -20.4225   22.3376 C   0  0  0  0  0  0
  -28.5665  -18.0680   22.4839 C   0  0  0  0  0  0
  -28.9799  -19.3288   20.4455 C   0  0  0  0  0  0
  -28.4475  -20.5030   21.0287 C   0  0  0  0  0  0
  -29.0587  -18.0944   21.1532 C   0  0  0  0  0  0
  -28.4998  -21.7893   20.2932 C   0  0  0  0  0  0
  -28.2551  -23.0117   20.8233 C   0  0  0  0  0  0
  -29.6492  -16.8767   20.4956 C   0  0  0  0  0  0
  -28.3712  -24.2625   20.0488 C   0  0  0  0  0  0
  -29.9773  -15.6466   21.3812 C   0  0  0  0  0  0
  -28.4504  -25.5691   20.8658 C   0  0  0  0  0  0
  -29.8773  -16.8868   19.2456 N   0  0  0  0  0  0
  -28.4354  -24.2909   18.8130 O   0  0  0  0  0  0
  -31.4453  -12.4780   19.0668 H   0  0  0  0  0  0
  -30.3345  -11.3057   19.7213 H   0  0  0  0  0  0
  -29.7030  -11.8895   17.3728 H   0  0  0  0  0  0
  -29.6366  -13.5862   17.7871 H   0  0  0  0  0  0
  -27.7618  -11.3995   18.6940 H   0  0  0  0  0  0
  -27.3719  -12.8248   17.7595 H   0  0  0  0  0  0
  -27.7068  -14.2985   19.6702 H   0  0  0  0  0  0
  -28.6606  -11.8597   21.2145 H   0  0  0  0  0  0
  -28.4580  -13.3993   21.9322 H   0  0  0  0  0  0
  -25.2827   -9.5651   22.4723 H   0  0  0  0  0  0
  -24.0065   -7.4574   22.7393 H   0  0  0  0  0  0
  -21.0870   -8.8825   19.8916 H   0  0  0  0  0  0
  -22.3846  -10.9724   19.6198 H   0  0  0  0  0  0
  -21.2080   -7.6151   23.9764 H   0  0  0  0  0  0
  -21.1523   -6.0476   25.9092 H   0  0  0  0  0  0
  -22.0577   -2.7626   23.2802 H   0  0  0  0  0  0
  -22.4240  -11.9958   22.4943 H   0  0  0  0  0  0
  -21.1070  -13.1102   22.2598 H   0  0  0  0  0  0
  -24.6216  -15.8306   20.4737 H   0  0  0  0  0  0
  -26.2392  -15.6270   20.0272 H   0  0  0  0  0  0
  -26.7145  -32.5512   23.1197 H   0  0  0  0  0  0
  -25.0024  -33.9843   25.0466 H   0  0  0  0  0  0
  -22.6934  -31.2994   21.3999 H   0  0  0  0  0  0
  -23.3751  -35.9641   23.3309 H   0  0  0  0  0  0
  -24.3592  -36.8908   22.2067 H   0  0  0  0  0  0
  -23.7234  -37.6505   23.6649 H   0  0  0  0  0  0
  -26.0418  -31.6111   20.5900 H   0  0  0  0  0  0
  -26.8200  -30.8962   21.9730 H   0  0  0  0  0  0
  -28.1227  -29.1466   21.1121 H   0  0  0  0  0  0
  -26.0929  -25.9567   19.0452 H   0  0  0  0  0  0
  -23.9817  -27.2509   19.0896 H   0  0  0  0  0  0
  -23.7150  -30.5716   19.3985 H   0  0  0  0  0  0
  -22.7418  -29.2145   19.8824 H   0  0  0  0  0  0
  -25.1283  -36.2000   25.0841 H   0  0  0  0  0  0
  -20.9949  -28.3208   24.1461 H   0  0  0  0  0  0
  -20.5673  -26.2264   23.3601 H   0  0  0  0  0  0
  -21.6624  -26.7454   22.1209 H   0  0  0  0  0  0
  -19.6919  -25.6302   21.1246 H   0  0  0  0  0  0
  -19.6694  -27.3207   20.6769 H   0  0  0  0  0  0
  -17.4181  -26.6667   21.4015 H   0  0  0  0  0  0
  -18.0307  -26.0062   22.9029 H   0  0  0  0  0  0
  -19.7902  -30.7271   24.2287 H   0  0  0  0  0  0
  -17.4981  -31.6270   24.5176 H   0  0  0  0  0  0
  -15.5324  -30.3012   23.7645 H   0  0  0  0  0  0
  -15.8626  -28.0854   22.7050 H   0  0  0  0  0  0
  -24.5900  -30.7039   25.7771 H   0  0  0  0  0  0
  -24.8855  -32.2883   26.4839 H   0  0  0  0  0  0
  -25.8044  -30.8926   27.0236 H   0  0  0  0  0  0
  -26.2849  -29.6801   24.1097 H   0  0  0  0  0  0
  -27.4012  -29.7277   25.4560 H   0  0  0  0  0  0
  -27.8687  -30.4349   23.9265 H   0  0  0  0  0  0
  -27.2688  -33.3636   26.2023 H   0  0  0  0  0  0
  -28.3843  -32.6833   25.0280 H   0  0  0  0  0  0
  -28.0697  -31.8440   26.5393 H   0  0  0  0  0  0
  -28.2576  -38.0105   24.7516 H   0  0  0  0  0  0
  -28.1089  -36.2639   24.6277 H   0  0  0  0  0  0
  -27.2300  -37.1430   25.8858 H   0  0  0  0  0  0
  -20.9320  -29.8723   21.6932 H   0  0  0  0  0  0
  -26.0183  -38.2859   24.1408 H   0  0  0  0  0  0
  -27.5816  -19.1780   24.0608 H   0  0  0  0  0  0
  -27.4856  -21.2834   22.8157 H   0  0  0  0  0  0
  -28.6083  -17.1716   23.0868 H   0  0  0  0  0  0
  -29.3648  -19.3826   19.4359 H   0  0  0  0  0  0
  -28.7637  -21.7223   19.2455 H   0  0  0  0  0  0
  -27.9771  -23.1248   21.8617 H   0  0  0  0  0  0
  -29.0591  -15.3411   21.8698 H   0  0  0  0  0  0
  -30.6333  -15.9727   22.1853 H   0  0  0  0  0  0
  -29.3990  -25.5653   21.4007 H   0  0  0  0  0  0
  -27.6650  -25.5852   21.6220 H   0  0  0  0  0  0
  -30.3345  -16.0401   18.9213 H   0  0  0  0  0  0
  1 25  1  0  0  0
  1 30  2  0  0  0
  1 81  1  0  0  0
  2  3  1  0  0  0
  2 25  1  0  0  0
  2 85  1  0  0  0
  2 86  1  0  0  0
  3  4  1  0  0  0
  3 87  1  0  0  0
  3 88  1  0  0  0
  4  5  1  0  0  0
  4 89  1  0  0  0
  4 90  1  0  0  0
  5  6  1  0  0  0
  5 26  1  0  0  0
  5 91  1  0  0  0
  6 25  1  0  0  0
  6 92  1  0  0  0
  6 93  1  0  0  0
  7  8  2  0  0  0
  7 26  1  0  0  0
  7 29  1  0  0  0
  8  9  1  0  0  0
  8 22  1  0  0  0
  9 10  1  0  0  0
  9 27  2  0  0  0
 10 11  2  0  0  0
 10 15  1  0  0  0
 11 12  1  0  0  0
 11 94  1  0  0  0
 12 13  2  0  0  0
 12 95  1  0  0  0
 13 14  1  0  0  0
 13 31  1  0  0  0
 14 15  2  0  0  0
 14 96  1  0  0  0
 15 97  1  0  0  0
 16 17  2  0  0  0
 16 21  1  0  0  0
 16 31  1  0  0  0
 17 18  1  0  0  0
 17 98  1  0  0  0
 18 19  2  0  0  0
 18 99  1  0  0  0
 19 20  1  0  0  0
 19 24  1  0  0  0
 20 21  2  0  0  0
 20100  1  0  0  0
 21 23  1  0  0  0
 22 28  1  0  0  0
 22 32  2  0  0  0
 26 27  1  0  0  0
 28101  1  0  0  0
 28102  1  0  0  0
 29103  1  0  0  0
 29104  1  0  0  0
 33 34  1  0  0  0
 33 66  1  0  0  0
 33 70  2  0  0  0
 34 36  1  0  0  0
 34 59  1  0  0  0
 34105  1  0  0  0
 35 44  2  0  0  0
 35 45  1  0  0  0
 35 68  1  0  0  0
 36 56  1  0  0  0
 36106  1  0  0  0
 37 39  1  0  0  0
 37 47  1  0  0  0
 37 66  1  0  0  0
 37107  1  0  0  0
 38 43  2  0  0  0
 38 46  1  0  0  0
 38 47  1  0  0  0
 39 64  1  0  0  0
 39 67  2  0  0  0
 40 52  1  0  0  0
 40 53  2  0  0  0
 40 58  1  0  0  0
 41108  1  0  0  0
 41109  1  0  0  0
 41110  1  0  0  0
 41 48  1  0  0  0
 42 43  1  0  0  0
 42 66  1  0  0  0
 42111  1  0  0  0
 42112  1  0  0  0
 43 44  1  0  0  0
 44113  1  0  0  0
 45 46  2  0  0  0
 45114  1  0  0  0
 46115  1  0  0  0
 47116  1  0  0  0
 47117  1  0  0  0
 48 56  1  0  0  0
 48 65  1  0  0  0
 48118  1  0  0  0
 49 50  1  0  0  0
 49 53  1  0  0  0
 49 64  1  0  0  0
 49119  1  0  0  0
 50 51  1  0  0  0
 50120  1  0  0  0
 50121  1  0  0  0
 51 52  1  0  0  0
 51122  1  0  0  0
 51123  1  0  0  0
 52124  1  0  0  0
 52125  1  0  0  0
 53 54  1  0  0  0
 54 55  2  0  0  0
 54126  1  0  0  0
 55 57  1  0  0  0
 55127  1  0  0  0
 56 69  2  0  0  0
 57 58  2  0  0  0
 57128  1  0  0  0
 58129  1  0  0  0
 59 60  1  0  0  0
 59 61  1  0  0  0
 59 62  1  0  0  0
 60130  1  0  0  0
 60131  1  0  0  0
 60132  1  0  0  0
 61133  1  0  0  0
 61134  1  0  0  0
 61135  1  0  0  0
 62136  1  0  0  0
 62137  1  0  0  0
 62138  1  0  0  0
 63 65  1  0  0  0
 63139  1  0  0  0
 63140  1  0  0  0
 63141  1  0  0  0
 64142  1  0  0  0
 65143  1  0  0  0
 68 82  1  0  0  0
 71 72  2  0  0  0
 71 73  1  0  0  0
 71144  1  0  0  0
 72 75  1  0  0  0
 72145  1  0  0  0
 73 76  2  0  0  0
 73146  1  0  0  0
 74 75  2  0  0  0
 74 76  1  0  0  0
 74147  1  0  0  0
 75 77  1  0  0  0
 76 79  1  0  0  0
 77 78  2  0  0  0
 77148  1  0  0  0
 78 80  1  0  0  0
 78149  1  0  0  0
 79 81  1  0  0  0
 79 83  2  0  0  0
 80 82  1  0  0  0
 80 84  2  0  0  0
 81150  1  0  0  0
 81151  1  0  0  0
 82152  1  0  0  0
 82153  1  0  0  0
 83154  1  0  0  0
M  ISO  4   1 100  68 101  81 100  82 101
M  END
> <chiral flag>
0

> <version>
0

> <s_m_source_file>
/data/baiqing/PycharmProjects/Reinvent-master-3.2/result/LINK_invent/BTK/process_docking_weight1_custom_product_contain_oxygen_bond_distance_aromatic_linkinvent_7_9_3/rearranged_h_0125.sdf

> <i_m_source_file_index>
66

> <r_mmod_Potential_Energy-OPLS-2005>
-1.46103620529175

> <r_mmod_Stretch_Energy-OPLS-2005>
41.848991394043

> <r_mmod_Bend_Energy-OPLS-2005>
94.5459060668945

> <r_mmod_Torsional_Energy-OPLS-2005>
199.032257080078

> <r_mmod_Improper_Torsional_Energy-OPLS-2005>
3.14442253112793

> <r_mmod_Van_der_Waal_Energy-OPLS-2005>
160.664520263672

> <r_mmod_Electrostatic_Energy-OPLS-2005>
-289.940155029297

> <r_mmod_Solvation_Energy-OPLS-2005>
-222.755096435547

> <b_mmod_Minimization_Converged-OPLS-2005>
0

> <r_mmod_RMS_Derivative-OPLS-2005>
5.90476894378662

$$$$
66
                    3D
 Structure written by MMmdl.
160169  0  0  1  0            999 V2000
  -30.7277  -14.4816   20.4969 C   0  0  0  0  0  0
  -30.4053  -12.2900   19.4471 C   0  0  0  0  0  0
  -29.4954  -12.4793   18.2162 C   0  0  0  0  0  0
  -28.0148  -12.3441   18.6209 C   0  0  0  0  0  0
  -27.6506  -13.2116   19.8552 C   0  0  2  0  0  0
  -28.6908  -13.0576   20.9871 C   0  0  0  0  0  0
  -25.2556  -13.8170   20.5666 C   0  0  0  0  0  0
  -24.1817  -13.0442   20.9185 C   0  0  0  0  0  0
  -24.6377  -11.6911   20.8727 C   0  0  0  0  0  0
  -23.9044  -10.4297   21.0400 C   0  0  0  0  0  0
  -24.3605   -9.4215   21.9178 C   0  0  0  0  0  0
  -23.6290   -8.2244   22.0747 C   0  0  0  0  0  0
  -22.4266   -8.0280   21.3546 C   0  0  0  0  0  0
  -21.9894   -9.0252   20.4648 C   0  0  0  0  0  0
  -22.7214  -10.2135   20.3054 C   0  0  0  0  0  0
  -21.6857   -6.0737   22.5279 C   0  0  0  0  0  0
  -21.4020   -6.5639   23.8214 C   0  0  0  0  0  0
  -21.3657   -5.6789   24.9176 C   0  0  0  0  0  0
  -21.6039   -4.3051   24.7227 C   0  0  0  0  0  0
  -21.8818   -3.8147   23.4346 C   0  0  0  0  0  0
  -21.9196   -4.6963   22.3404 C   0  0  0  0  0  0
  -22.7843  -13.5239   21.1858 C   0  0  0  0  0  0
  -22.1661   -4.2153   21.0979 F   0  0  0  0  0  0
  -21.5628   -3.4529   25.7737 F   0  0  0  0  0  0
  -30.0249  -13.3175   20.4306 N   0  0  0  0  0  0
  -26.2966  -12.9346   20.3274 N   0  0  0  0  0  0
  -25.9296  -11.6502   20.5728 N   0  0  0  0  0  0
  -22.0483  -12.8243   22.0419 N   0  0  0  0  0  0
  -25.4277  -15.1890   20.4076 N   0  0  0  0  0  0
  -31.9189  -14.5205   20.1794 O   0  0  0  0  0  0
  -21.6637   -6.8872   21.4239 O   0  0  0  0  0  0
  -22.3524  -14.5548   20.6708 O   0  0  0  0  0  0
  -24.6137  -31.8706   23.2139 C   0  0  0  0  0  0
  -25.9041  -32.4837   23.8419 C   0  0  1  0  0  0
  -27.2246  -27.4472   20.0763 C   0  0  0  0  0  0
  -25.5908  -33.8637   24.2349 N   0  0  0  0  0  0
  -23.3994  -30.4981   21.5540 C   0  0  2  0  0  0
  -24.8414  -28.9680   20.1174 C   0  0  0  0  0  0
  -22.7400  -29.4682   22.4992 C   0  0  0  0  0  0
  -18.0271  -28.1378   22.8486 C   0  0  0  0  0  0
  -24.1488  -36.7320   23.2635 C   0  0  0  0  0  0
  -25.9296  -30.8361   21.3686 C   0  0  0  0  0  0
  -26.0029  -29.4708   20.7174 C   0  0  0  0  0  0
  -27.1950  -28.7115   20.7076 C   0  0  0  0  0  0
  -26.0382  -26.9525   19.4964 C   0  0  0  0  0  0
  -24.8511  -27.7025   19.5111 C   0  0  0  0  0  0
  -23.6070  -29.8370   20.1665 C   0  0  0  0  0  0
  -25.4106  -36.3121   24.0340 C   0  0  1  0  0  0
  -20.5860  -28.3668   23.1318 C   0  0  2  0  0  0
  -20.6761  -26.9402   22.5420 C   0  0  0  0  0  0
  -19.5745  -26.6389   21.5208 C   0  0  0  0  0  0
  -18.1920  -26.7927   22.1611 C   0  0  0  0  0  0
  -19.1521  -28.8835   23.2902 C   0  0  0  0  0  0
  -18.9450  -30.1440   23.8918 C   0  0  0  0  0  0
  -17.6454  -30.6585   24.0567 C   0  0  0  0  0  0
  -25.9034  -34.9484   23.5137 C   0  0  0  0  0  0
  -16.5344  -29.9090   23.6323 C   0  0  0  0  0  0
  -16.7263  -28.6506   23.0344 C   0  0  0  0  0  0
  -26.4469  -31.6612   25.0742 C   0  0  0  0  0  0
  -25.3744  -31.3737   26.1504 C   0  0  0  0  0  0
  -27.0282  -30.3046   24.6115 C   0  0  0  0  0  0
  -27.6060  -32.4324   25.7487 C   0  0  0  0  0  0
  -27.5588  -37.1808   24.8456 C   0  0  0  0  0  0
  -21.4131  -29.3042   22.3729 N   0  0  0  0  0  0
  -26.4292  -37.3803   23.9413 N   0  0  0  0  0  0
  -24.6656  -31.0822   22.1035 N   0  0  0  0  0  0
  -23.4180  -28.8212   23.3021 O   0  0  0  0  0  0
  -28.3924  -26.7160   20.0539 O   0  0  0  0  0  0
  -26.5587  -34.8928   22.4694 O   0  0  0  0  0  0
  -23.5336  -32.1458   23.7544 O   0  0  0  0  0  0
  -28.7273  -18.5889   20.2298 C   0  0  0  0  0  0
  -31.0387  -19.3192   20.2974 C   0  0  0  0  0  0
  -28.3366  -19.8894   19.8275 C   0  0  0  0  0  0
  -30.6517  -20.6098   19.8931 C   0  0  0  0  0  0
  -30.0936  -18.2779   20.4115 C   0  0  0  0  0  0
  -29.3029  -20.9024   19.6045 C   0  0  0  0  0  0
  -28.4876  -24.5127   18.8541 C   0  0  0  0  0  0
  -29.2672  -23.5864   19.4347 C   0  0  0  0  0  0
  -30.6172  -16.9033   20.5532 C   0  0  0  0  0  0
  -29.9556  -15.7228   20.6410 C   0  0  0  0  0  0
  -27.4776  -23.8723   17.9195 C   0  0  0  0  0  0
  -27.5716  -22.3691   18.2439 C   0  0  0  0  0  0
  -28.9708  -22.2072   18.8625 C   0  0  2  0  0  0
  -30.4581  -23.8503   20.3347 C   0  0  0  0  0  0
  -28.7098  -26.0281   18.8371 C   0  0  0  0  0  0
  -31.4544  -12.3463   19.1509 H   0  0  0  0  0  0
  -30.2723  -11.2953   19.8744 H   0  0  0  0  0  0
  -29.7407  -11.7421   17.4503 H   0  0  0  0  0  0
  -29.6705  -13.4589   17.7687 H   0  0  0  0  0  0
  -27.8284  -11.2922   18.8396 H   0  0  0  0  0  0
  -27.3690  -12.5962   17.7794 H   0  0  0  0  0  0
  -27.6728  -14.2454   19.5131 H   0  0  0  0  0  0
  -28.6586  -12.0492   21.4017 H   0  0  0  0  0  0
  -28.4658  -13.7274   21.8181 H   0  0  0  0  0  0
  -25.2752   -9.5708   22.4746 H   0  0  0  0  0  0
  -24.0018   -7.4632   22.7454 H   0  0  0  0  0  0
  -21.0832   -8.8756   19.8953 H   0  0  0  0  0  0
  -22.3658  -10.9670   19.6167 H   0  0  0  0  0  0
  -21.2010   -7.6146   23.9718 H   0  0  0  0  0  0
  -21.1479   -6.0518   25.9077 H   0  0  0  0  0  0
  -22.0599   -2.7612   23.2841 H   0  0  0  0  0  0
  -22.4089  -11.9913   22.4836 H   0  0  0  0  0  0
  -21.1101  -13.1278   22.2607 H   0  0  0  0  0  0
  -24.6633  -15.8465   20.5168 H   0  0  0  0  0  0
  -26.2817  -15.6248   20.0837 H   0  0  0  0  0  0
  -26.7112  -32.5549   23.1186 H   0  0  0  0  0  0
  -25.0083  -33.9804   25.0510 H   0  0  0  0  0  0
  -22.6876  -31.3153   21.4196 H   0  0  0  0  0  0
  -23.3752  -35.9649   23.3296 H   0  0  0  0  0  0
  -24.3590  -36.8934   22.2051 H   0  0  0  0  0  0
  -23.7235  -37.6524   23.6646 H   0  0  0  0  0  0
  -26.0450  -31.6025   20.6006 H   0  0  0  0  0  0
  -26.8173  -30.8863   21.9876 H   0  0  0  0  0  0
  -28.0927  -29.0982   21.1696 H   0  0  0  0  0  0
  -26.0119  -25.9807   19.0414 H   0  0  0  0  0  0
  -23.9550  -27.3010   19.0590 H   0  0  0  0  0  0
  -23.7204  -30.6155   19.4110 H   0  0  0  0  0  0
  -22.7295  -29.2614   19.8667 H   0  0  0  0  0  0
  -25.1279  -36.1986   25.0833 H   0  0  0  0  0  0
  -20.9952  -28.3233   24.1438 H   0  0  0  0  0  0
  -20.5651  -26.2275   23.3607 H   0  0  0  0  0  0
  -21.6636  -26.7439   22.1226 H   0  0  0  0  0  0
  -19.6905  -25.6303   21.1232 H   0  0  0  0  0  0
  -19.6689  -27.3207   20.6744 H   0  0  0  0  0  0
  -17.4192  -26.6685   21.4007 H   0  0  0  0  0  0
  -18.0310  -26.0062   22.9000 H   0  0  0  0  0  0
  -19.7929  -30.7243   24.2299 H   0  0  0  0  0  0
  -17.5016  -31.6264   24.5169 H   0  0  0  0  0  0
  -15.5346  -30.3001   23.7636 H   0  0  0  0  0  0
  -15.8661  -28.0834   22.7047 H   0  0  0  0  0  0
  -24.5917  -30.7064   25.7874 H   0  0  0  0  0  0
  -24.8928  -32.2899   26.4935 H   0  0  0  0  0  0
  -25.8113  -30.8942   27.0273 H   0  0  0  0  0  0
  -26.2816  -29.6828   24.1157 H   0  0  0  0  0  0
  -27.4030  -29.7267   25.4575 H   0  0  0  0  0  0
  -27.8670  -30.4356   23.9274 H   0  0  0  0  0  0
  -27.2688  -33.3612   26.2102 H   0  0  0  0  0  0
  -28.3841  -32.6904   25.0289 H   0  0  0  0  0  0
  -28.0760  -31.8424   26.5368 H   0  0  0  0  0  0
  -28.2605  -38.0107   24.7518 H   0  0  0  0  0  0
  -28.1082  -36.2643   24.6250 H   0  0  0  0  0  0
  -27.2316  -37.1433   25.8861 H   0  0  0  0  0  0
  -20.9278  -29.8784   21.6979 H   0  0  0  0  0  0
  -26.0184  -38.2880   24.1428 H   0  0  0  0  0  0
  -27.9757  -17.8167   20.3062 H   0  0  0  0  0  0
  -32.0922  -19.1162   20.4308 H   0  0  0  0  0  0
  -27.2931  -20.0619   19.6095 H   0  0  0  0  0  0
  -31.4201  -21.3488   19.7183 H   0  0  0  0  0  0
  -31.6979  -16.8683   20.5074 H   0  0  0  0  0  0
  -28.8829  -15.7120   20.7410 H   0  0  0  0  0  0
  -27.7763  -24.0687   16.8889 H   0  0  0  0  0  0
  -26.4593  -24.2301   18.0472 H   0  0  0  0  0  0
  -27.4109  -21.7312   17.3740 H   0  0  0  0  0  0
  -26.8029  -22.1329   18.9805 H   0  0  0  0  0  0
  -29.6511  -22.1609   18.0095 H   0  0  0  0  0  0
  -30.4499  -24.8736   20.7102 H   0  0  0  0  0  0
  -31.3879  -23.6975   19.7873 H   0  0  0  0  0  0
  -30.4417  -23.1828   21.1960 H   0  0  0  0  0  0
  -28.2036  -26.4653   17.9744 H   0  0  0  0  0  0
  -29.7706  -26.1966   18.6491 H   0  0  0  0  0  0
  1 25  1  0  0  0
  1 30  2  0  0  0
  1 80  1  0  0  0
  2  3  1  0  0  0
  2 25  1  0  0  0
  2 86  1  0  0  0
  2 87  1  0  0  0
  3  4  1  0  0  0
  3 88  1  0  0  0
  3 89  1  0  0  0
  4  5  1  0  0  0
  4 90  1  0  0  0
  4 91  1  0  0  0
  5  6  1  0  0  0
  5 26  1  0  0  0
  5 92  1  0  0  0
  6 25  1  0  0  0
  6 93  1  0  0  0
  6 94  1  0  0  0
  7  8  2  0  0  0
  7 26  1  0  0  0
  7 29  1  0  0  0
  8  9  1  0  0  0
  8 22  1  0  0  0
  9 10  1  0  0  0
  9 27  2  0  0  0
 10 11  2  0  0  0
 10 15  1  0  0  0
 11 12  1  0  0  0
 11 95  1  0  0  0
 12 13  2  0  0  0
 12 96  1  0  0  0
 13 14  1  0  0  0
 13 31  1  0  0  0
 14 15  2  0  0  0
 14 97  1  0  0  0
 15 98  1  0  0  0
 16 17  2  0  0  0
 16 21  1  0  0  0
 16 31  1  0  0  0
 17 18  1  0  0  0
 17 99  1  0  0  0
 18 19  2  0  0  0
 18100  1  0  0  0
 19 20  1  0  0  0
 19 24  1  0  0  0
 20 21  2  0  0  0
 20101  1  0  0  0
 21 23  1  0  0  0
 22 28  1  0  0  0
 22 32  2  0  0  0
 26 27  1  0  0  0
 28102  1  0  0  0
 28103  1  0  0  0
 29104  1  0  0  0
 29105  1  0  0  0
 33 34  1  0  0  0
 33 66  1  0  0  0
 33 70  2  0  0  0
 34 36  1  0  0  0
 34 59  1  0  0  0
 34106  1  0  0  0
 35 44  2  0  0  0
 35 45  1  0  0  0
 35 68  1  0  0  0
 36 56  1  0  0  0
 36107  1  0  0  0
 37 39  1  0  0  0
 37 47  1  0  0  0
 37 66  1  0  0  0
 37108  1  0  0  0
 38 43  2  0  0  0
 38 46  1  0  0  0
 38 47  1  0  0  0
 39 64  1  0  0  0
 39 67  2  0  0  0
 40 52  1  0  0  0
 40 53  2  0  0  0
 40 58  1  0  0  0
 41109  1  0  0  0
 41110  1  0  0  0
 41111  1  0  0  0
 41 48  1  0  0  0
 42 43  1  0  0  0
 42 66  1  0  0  0
 42112  1  0  0  0
 42113  1  0  0  0
 43 44  1  0  0  0
 44114  1  0  0  0
 45 46  2  0  0  0
 45115  1  0  0  0
 46116  1  0  0  0
 47117  1  0  0  0
 47118  1  0  0  0
 48 56  1  0  0  0
 48 65  1  0  0  0
 48119  1  0  0  0
 49 50  1  0  0  0
 49 53  1  0  0  0
 49 64  1  0  0  0
 49120  1  0  0  0
 50 51  1  0  0  0
 50121  1  0  0  0
 50122  1  0  0  0
 51 52  1  0  0  0
 51123  1  0  0  0
 51124  1  0  0  0
 52125  1  0  0  0
 52126  1  0  0  0
 53 54  1  0  0  0
 54 55  2  0  0  0
 54127  1  0  0  0
 55 57  1  0  0  0
 55128  1  0  0  0
 56 69  2  0  0  0
 57 58  2  0  0  0
 57129  1  0  0  0
 58130  1  0  0  0
 59 60  1  0  0  0
 59 61  1  0  0  0
 59 62  1  0  0  0
 60131  1  0  0  0
 60132  1  0  0  0
 60133  1  0  0  0
 61134  1  0  0  0
 61135  1  0  0  0
 61136  1  0  0  0
 62137  1  0  0  0
 62138  1  0  0  0
 62139  1  0  0  0
 63 65  1  0  0  0
 63140  1  0  0  0
 63141  1  0  0  0
 63142  1  0  0  0
 64143  1  0  0  0
 65144  1  0  0  0
 68 85  1  0  0  0
 71 73  2  0  0  0
 71 75  1  0  0  0
 71145  1  0  0  0
 72 74  1  0  0  0
 72 75  2  0  0  0
 72146  1  0  0  0
 73 76  1  0  0  0
 73147  1  0  0  0
 74 76  2  0  0  0
 74148  1  0  0  0
 75 79  1  0  0  0
 76 83  1  0  0  0
 77 78  2  0  0  0
 77 81  1  0  0  0
 77 85  1  0  0  0
 78 83  1  0  0  0
 78 84  1  0  0  0
 79 80  2  0  0  0
 79149  1  0  0  0
 80150  1  0  0  0
 81 82  1  0  0  0
 81151  1  0  0  0
 81152  1  0  0  0
 82 83  1  0  0  0
 82153  1  0  0  0
 82154  1  0  0  0
 83155  1  0  0  0
 84156  1  0  0  0
 84157  1  0  0  0
 84158  1  0  0  0
 85159  1  0  0  0
 85160  1  0  0  0
M  ISO  4   1 100  68 101  80 100  85 101
M  END
> <chiral flag>
0

> <version>
0

> <s_m_source_file>
/data/baiqing/PycharmProjects/Reinvent-master-3.2/result/LINK_invent/BTK/process_docking_weight1_custom_product_contain_oxygen_bond_distance_aromatic_linkinvent_7_9_3/rearranged_h_0125.sdf

> <i_m_source_file_index>
67

> <r_mmod_Potential_Energy-OPLS-2005>
117.855880737305

> <r_mmod_Stretch_Energy-OPLS-2005>
35.8162803649902

> <r_mmod_Bend_Energy-OPLS-2005>
171.462005615234

> <r_mmod_Torsional_Energy-OPLS-2005>
228.243667602539

> <r_mmod_Improper_Torsional_Energy-OPLS-2005>
11.5563793182373

> <r_mmod_Van_der_Waal_Energy-OPLS-2005>
158.531799316406

> <r_mmod_Electrostatic_Energy-OPLS-2005>
-322.170532226562

> <r_mmod_Solvation_Energy-OPLS-2005>
-186.872009277344

> <b_mmod_Minimization_Converged-OPLS-2005>
0

> <r_mmod_RMS_Derivative-OPLS-2005>
1.02659749984741

$$$$
67
                    3D
 Structure written by MMmdl.
153161  0  0  1  0            999 V2000
  -30.5312  -14.7115   20.5686 C   0  0  0  0  0  0
  -30.4409  -12.4628   19.4427 C   0  0  0  0  0  0
  -29.4922  -12.5375   18.2202 C   0  0  0  0  0  0
  -28.0171  -12.3366   18.6365 C   0  0  0  0  0  0
  -27.6409  -13.1942   19.8693 C   0  0  2  0  0  0
  -28.6906  -12.9913   20.9824 C   0  0  0  0  0  0
  -25.2494  -13.8090   20.5602 C   0  0  0  0  0  0
  -24.1800  -13.0441   20.9151 C   0  0  0  0  0  0
  -24.6312  -11.6866   20.8709 C   0  0  0  0  0  0
  -23.8947  -10.4292   21.0380 C   0  0  0  0  0  0
  -24.3534   -9.4218   21.9142 C   0  0  0  0  0  0
  -23.6248   -8.2223   22.0737 C   0  0  0  0  0  0
  -22.4206   -8.0241   21.3510 C   0  0  0  0  0  0
  -21.9814   -9.0211   20.4601 C   0  0  0  0  0  0
  -22.7124  -10.2119   20.3018 C   0  0  0  0  0  0
  -21.6874   -6.0651   22.5242 C   0  0  0  0  0  0
  -21.4012   -6.5599   23.8159 C   0  0  0  0  0  0
  -21.3664   -5.6779   24.9133 C   0  0  0  0  0  0
  -21.6075   -4.3035   24.7227 C   0  0  0  0  0  0
  -21.8833   -3.8100   23.4356 C   0  0  0  0  0  0
  -21.9214   -4.6879   22.3398 C   0  0  0  0  0  0
  -22.7808  -13.5194   21.1845 C   0  0  0  0  0  0
  -22.1673   -4.2071   21.0966 F   0  0  0  0  0  0
  -21.5644   -3.4531   25.7745 F   0  0  0  0  0  0
  -29.9842  -13.4459   20.4565 N   0  0  0  0  0  0
  -26.2901  -12.9239   20.3336 N   0  0  0  0  0  0
  -25.9235  -11.6424   20.5800 N   0  0  0  0  0  0
  -22.0476  -12.8205   22.0433 N   0  0  0  0  0  0
  -25.4240  -15.1808   20.3735 N   0  0  0  0  0  0
  -31.6685  -14.8960   20.1183 O   0  0  0  0  0  0
  -21.6657   -6.8773   21.4177 O   0  0  0  0  0  0
  -22.3486  -14.5509   20.6692 O   0  0  0  0  0  0
  -24.6330  -31.8498   23.1924 C   0  0  0  0  0  0
  -25.9149  -32.4702   23.8301 C   0  0  1  0  0  0
  -27.1867  -27.1995   20.2062 C   0  0  0  0  0  0
  -25.5914  -33.8509   24.2205 N   0  0  0  0  0  0
  -23.4314  -30.4800   21.5331 C   0  0  2  0  0  0
  -24.8715  -28.9053   20.1083 C   0  0  0  0  0  0
  -22.7504  -29.4655   22.4875 C   0  0  0  0  0  0
  -18.0331  -28.1368   22.8471 C   0  0  0  0  0  0
  -24.1493  -36.7280   23.2648 C   0  0  0  0  0  0
  -25.9771  -30.7451   21.3773 C   0  0  0  0  0  0
  -26.0411  -29.3619   20.7287 C   0  0  0  0  0  0
  -27.2017  -28.5230   20.7599 C   0  0  0  0  0  0
  -26.0130  -26.8195   19.5219 C   0  0  0  0  0  0
  -24.8667  -27.6476   19.4824 C   0  0  0  0  0  0
  -23.6462  -29.8014   20.1525 C   0  0  0  0  0  0
  -25.4115  -36.3026   24.0311 C   0  0  1  0  0  0
  -20.5913  -28.3681   23.1197 C   0  0  2  0  0  0
  -20.6768  -26.9417   22.5321 C   0  0  0  0  0  0
  -19.5784  -26.6368   21.5100 C   0  0  0  0  0  0
  -18.1938  -26.7924   22.1573 C   0  0  0  0  0  0
  -19.1588  -28.8843   23.2840 C   0  0  0  0  0  0
  -18.9474  -30.1434   23.8860 C   0  0  0  0  0  0
  -17.6455  -30.6535   24.0537 C   0  0  0  0  0  0
  -25.9043  -34.9406   23.5058 C   0  0  0  0  0  0
  -16.5349  -29.9028   23.6314 C   0  0  0  0  0  0
  -16.7317  -28.6447   23.0343 C   0  0  0  0  0  0
  -26.4486  -31.6591   25.0759 C   0  0  0  0  0  0
  -25.3682  -31.3769   26.1475 C   0  0  0  0  0  0
  -27.0340  -30.2984   24.6341 C   0  0  0  0  0  0
  -27.5988  -32.4383   25.7525 C   0  0  0  0  0  0
  -27.5562  -37.1798   24.8469 C   0  0  0  0  0  0
  -21.4219  -29.3045   22.3570 N   0  0  0  0  0  0
  -26.4293  -37.3720   23.9381 N   0  0  0  0  0  0
  -24.7002  -31.0435   22.0900 N   0  0  0  0  0  0
  -23.4192  -28.8220   23.3027 O   0  0  0  0  0  0
  -28.2599  -26.2837   20.3180 O   0  0  0  0  0  0
  -26.5635  -34.8876   22.4646 O   0  0  0  0  0  0
  -23.5477  -32.1361   23.7215 O   0  0  0  0  0  0
  -29.6475  -19.8459   20.8761 C   0  0  0  0  0  0
  -27.6951  -18.5057   21.3591 C   0  0  0  0  0  0
  -27.5373  -20.9859   21.2023 C   0  0  0  0  0  0
  -29.0812  -18.5182   21.0596 C   0  0  0  0  0  0
  -28.9037  -21.0966   20.9476 C   0  0  0  0  0  0
  -26.9421  -19.7195   21.3624 C   0  0  0  0  0  0
  -29.8894  -17.2034   20.8388 C   0  0  0  0  0  0
  -29.5245  -22.4787   20.6908 C   0  0  0  0  0  0
  -29.6475  -15.8495   21.0683 C   0  0  0  0  0  0
  -29.2228  -23.8459   20.6287 C   0  0  0  0  0  0
  -25.4416  -19.7407   21.3758 C   0  0  0  0  0  0
  -28.0092  -24.8589   20.7960 C   0  0  0  0  0  0
  -31.4759  -12.6014   19.1386 H   0  0  0  0  0  0
  -30.4155  -11.4494   19.8565 H   0  0  0  0  0  0
  -29.7648  -11.7702   17.4970 H   0  0  0  0  0  0
  -29.6075  -13.4919   17.7122 H   0  0  0  0  0  0
  -27.8707  -11.2795   18.8790 H   0  0  0  0  0  0
  -27.3431  -12.5397   17.8073 H   0  0  0  0  0  0
  -27.6751  -14.2328   19.5577 H   0  0  0  0  0  0
  -28.7527  -11.9272   21.2202 H   0  0  0  0  0  0
  -28.4267  -13.4659   21.9237 H   0  0  0  0  0  0
  -25.2663   -9.5802   22.4676 H   0  0  0  0  0  0
  -24.0017   -7.4655   22.7492 H   0  0  0  0  0  0
  -21.0711   -8.8673   19.8912 H   0  0  0  0  0  0
  -22.3496  -10.9628   19.6139 H   0  0  0  0  0  0
  -21.1968   -7.6101   23.9621 H   0  0  0  0  0  0
  -21.1486   -6.0512   25.9039 H   0  0  0  0  0  0
  -22.0618   -2.7550   23.2900 H   0  0  0  0  0  0
  -22.4161  -11.9882   22.4773 H   0  0  0  0  0  0
  -21.1088  -13.1187   22.2632 H   0  0  0  0  0  0
  -24.6343  -15.8166   20.3708 H   0  0  0  0  0  0
  -26.2570  -15.5728   19.9572 H   0  0  0  0  0  0
  -26.7221  -32.5300   23.1029 H   0  0  0  0  0  0
  -24.9979  -33.9651   25.0294 H   0  0  0  0  0  0
  -22.7340  -31.3079   21.3820 H   0  0  0  0  0  0
  -23.3710  -35.9666   23.3345 H   0  0  0  0  0  0
  -24.3555  -36.8868   22.2054 H   0  0  0  0  0  0
  -23.7319  -37.6514   23.6663 H   0  0  0  0  0  0
  -26.1380  -31.5006   20.6081 H   0  0  0  0  0  0
  -26.8482  -30.7831   22.0226 H   0  0  0  0  0  0
  -28.0947  -28.8566   21.2653 H   0  0  0  0  0  0
  -25.9684  -25.8608   19.0227 H   0  0  0  0  0  0
  -23.9675  -27.3105   18.9818 H   0  0  0  0  0  0
  -23.7695  -30.5662   19.3842 H   0  0  0  0  0  0
  -22.7530  -29.2411   19.8590 H   0  0  0  0  0  0
  -25.1321  -36.1868   25.0806 H   0  0  0  0  0  0
  -21.0076  -28.3228   24.1293 H   0  0  0  0  0  0
  -20.5626  -26.2380   23.3551 H   0  0  0  0  0  0
  -21.6668  -26.7432   22.1168 H   0  0  0  0  0  0
  -19.6900  -25.6246   21.1225 H   0  0  0  0  0  0
  -19.6745  -27.3084   20.6564 H   0  0  0  0  0  0
  -17.4198  -26.6672   21.3996 H   0  0  0  0  0  0
  -18.0352  -26.0044   22.8943 H   0  0  0  0  0  0
  -19.7950  -30.7280   24.2181 H   0  0  0  0  0  0
  -17.4984  -31.6197   24.5159 H   0  0  0  0  0  0
  -15.5326  -30.2916   23.7609 H   0  0  0  0  0  0
  -15.8727  -28.0725   22.7084 H   0  0  0  0  0  0
  -24.5834  -30.7136   25.7831 H   0  0  0  0  0  0
  -24.8915  -32.2953   26.4913 H   0  0  0  0  0  0
  -25.8005  -30.8948   27.0266 H   0  0  0  0  0  0
  -26.2961  -29.6701   24.1338 H   0  0  0  0  0  0
  -27.3919  -29.7299   25.4947 H   0  0  0  0  0  0
  -27.8894  -30.4211   23.9682 H   0  0  0  0  0  0
  -27.2536  -33.3671   26.2092 H   0  0  0  0  0  0
  -28.3800  -32.6983   25.0367 H   0  0  0  0  0  0
  -28.0681  -31.8549   26.5469 H   0  0  0  0  0  0
  -28.2618  -38.0044   24.7391 H   0  0  0  0  0  0
  -28.1008  -36.2561   24.6453 H   0  0  0  0  0  0
  -27.2254  -37.1641   25.8865 H   0  0  0  0  0  0
  -20.9421  -29.8644   21.6652 H   0  0  0  0  0  0
  -26.0162  -38.2803   24.1316 H   0  0  0  0  0  0
  -30.6990  -19.9041   20.6189 H   0  0  0  0  0  0
  -27.1938  -17.5565   21.5114 H   0  0  0  0  0  0
  -26.9190  -21.8724   21.2122 H   0  0  0  0  0  0
  -30.8279  -17.3997   20.3463 H   0  0  0  0  0  0
  -30.5807  -22.3177   20.5027 H   0  0  0  0  0  0
  -28.7497  -15.5844   21.6150 H   0  0  0  0  0  0
  -30.1088  -24.4217   20.4212 H   0  0  0  0  0  0
  -25.0843  -20.3583   22.2046 H   0  0  0  0  0  0
  -24.9843  -18.7527   21.4266 H   0  0  0  0  0  0
  -25.1343  -20.2011   20.4303 H   0  0  0  0  0  0
  -27.8174  -24.9167   21.8773 H   0  0  0  0  0  0
  -27.1020  -24.4301   20.3773 H   0  0  0  0  0  0
  1 25  1  0  0  0
  1 30  2  0  0  0
  1 79  1  0  0  0
  2  3  1  0  0  0
  2 25  1  0  0  0
  2 83  1  0  0  0
  2 84  1  0  0  0
  3  4  1  0  0  0
  3 85  1  0  0  0
  3 86  1  0  0  0
  4  5  1  0  0  0
  4 87  1  0  0  0
  4 88  1  0  0  0
  5  6  1  0  0  0
  5 26  1  0  0  0
  5 89  1  0  0  0
  6 25  1  0  0  0
  6 90  1  0  0  0
  6 91  1  0  0  0
  7  8  2  0  0  0
  7 26  1  0  0  0
  7 29  1  0  0  0
  8  9  1  0  0  0
  8 22  1  0  0  0
  9 10  1  0  0  0
  9 27  2  0  0  0
 10 11  2  0  0  0
 10 15  1  0  0  0
 11 12  1  0  0  0
 11 92  1  0  0  0
 12 13  2  0  0  0
 12 93  1  0  0  0
 13 14  1  0  0  0
 13 31  1  0  0  0
 14 15  2  0  0  0
 14 94  1  0  0  0
 15 95  1  0  0  0
 16 17  2  0  0  0
 16 21  1  0  0  0
 16 31  1  0  0  0
 17 18  1  0  0  0
 17 96  1  0  0  0
 18 19  2  0  0  0
 18 97  1  0  0  0
 19 20  1  0  0  0
 19 24  1  0  0  0
 20 21  2  0  0  0
 20 98  1  0  0  0
 21 23  1  0  0  0
 22 28  1  0  0  0
 22 32  2  0  0  0
 26 27  1  0  0  0
 28 99  1  0  0  0
 28100  1  0  0  0
 29101  1  0  0  0
 29102  1  0  0  0
 33 34  1  0  0  0
 33 66  1  0  0  0
 33 70  2  0  0  0
 34 36  1  0  0  0
 34 59  1  0  0  0
 34103  1  0  0  0
 35 44  2  0  0  0
 35 45  1  0  0  0
 35 68  1  0  0  0
 36 56  1  0  0  0
 36104  1  0  0  0
 37 39  1  0  0  0
 37 47  1  0  0  0
 37 66  1  0  0  0
 37105  1  0  0  0
 38 43  2  0  0  0
 38 46  1  0  0  0
 38 47  1  0  0  0
 39 64  1  0  0  0
 39 67  2  0  0  0
 40 52  1  0  0  0
 40 53  2  0  0  0
 40 58  1  0  0  0
 41106  1  0  0  0
 41107  1  0  0  0
 41108  1  0  0  0
 41 48  1  0  0  0
 42 43  1  0  0  0
 42 66  1  0  0  0
 42109  1  0  0  0
 42110  1  0  0  0
 43 44  1  0  0  0
 44111  1  0  0  0
 45 46  2  0  0  0
 45112  1  0  0  0
 46113  1  0  0  0
 47114  1  0  0  0
 47115  1  0  0  0
 48 56  1  0  0  0
 48 65  1  0  0  0
 48116  1  0  0  0
 49 50  1  0  0  0
 49 53  1  0  0  0
 49 64  1  0  0  0
 49117  1  0  0  0
 50 51  1  0  0  0
 50118  1  0  0  0
 50119  1  0  0  0
 51 52  1  0  0  0
 51120  1  0  0  0
 51121  1  0  0  0
 52122  1  0  0  0
 52123  1  0  0  0
 53 54  1  0  0  0
 54 55  2  0  0  0
 54124  1  0  0  0
 55 57  1  0  0  0
 55125  1  0  0  0
 56 69  2  0  0  0
 57 58  2  0  0  0
 57126  1  0  0  0
 58127  1  0  0  0
 59 60  1  0  0  0
 59 61  1  0  0  0
 59 62  1  0  0  0
 60128  1  0  0  0
 60129  1  0  0  0
 60130  1  0  0  0
 61131  1  0  0  0
 61132  1  0  0  0
 61133  1  0  0  0
 62134  1  0  0  0
 62135  1  0  0  0
 62136  1  0  0  0
 63 65  1  0  0  0
 63137  1  0  0  0
 63138  1  0  0  0
 63139  1  0  0  0
 64140  1  0  0  0
 65141  1  0  0  0
 68 82  1  0  0  0
 71 74  2  0  0  0
 71 75  1  0  0  0
 71142  1  0  0  0
 72 74  1  0  0  0
 72 76  2  0  0  0
 72143  1  0  0  0
 73 75  2  0  0  0
 73 76  1  0  0  0
 73144  1  0  0  0
 74 77  1  0  0  0
 75 78  1  0  0  0
 76 81  1  0  0  0
 77 79  2  0  0  0
 77145  1  0  0  0
 78 80  2  0  0  0
 78146  1  0  0  0
 79147  1  0  0  0
 80 82  1  0  0  0
 80148  1  0  0  0
 81149  1  0  0  0
 81150  1  0  0  0
 81151  1  0  0  0
 82152  1  0  0  0
 82153  1  0  0  0
M  ISO  4   1 100  68 101  79 100  82 101
M  END
> <chiral flag>
0

> <version>
0

> <s_m_source_file>
/data/baiqing/PycharmProjects/Reinvent-master-3.2/result/LINK_invent/BTK/process_docking_weight1_custom_product_contain_oxygen_bond_distance_aromatic_linkinvent_7_9_3/rearranged_h_0125.sdf

> <i_m_source_file_index>
68

> <r_mmod_Potential_Energy-OPLS-2005>
269.074645996094

> <r_mmod_Stretch_Energy-OPLS-2005>
133.761642456055

> <r_mmod_Bend_Energy-OPLS-2005>
209.25830078125

> <r_mmod_Torsional_Energy-OPLS-2005>
206.779708862305

> <r_mmod_Improper_Torsional_Energy-OPLS-2005>
6.45785236358643

> <r_mmod_Van_der_Waal_Energy-OPLS-2005>
134.520614624023

> <r_mmod_Electrostatic_Energy-OPLS-2005>
-333.863708496094

> <r_mmod_Solvation_Energy-OPLS-2005>
-189.597351074219

> <b_mmod_Minimization_Converged-OPLS-2005>
0

> <r_mmod_RMS_Derivative-OPLS-2005>
12.407431602478

$$$$
68
                    3D
 Structure written by MMmdl.
151159  0  0  1  0            999 V2000
  -30.5370  -15.0184   20.4093 C   0  0  0  0  0  0
  -30.4386  -12.6376   19.5013 C   0  0  0  0  0  0
  -29.5224  -12.5355   18.2603 C   0  0  0  0  0  0
  -28.0589  -12.3096   18.6825 C   0  0  0  0  0  0
  -27.6242  -13.2567   19.8312 C   0  0  2  0  0  0
  -28.6674  -13.3263   20.9665 C   0  0  0  0  0  0
  -25.2434  -13.8235   20.5699 C   0  0  0  0  0  0
  -24.1770  -13.0442   20.9244 C   0  0  0  0  0  0
  -24.6411  -11.6938   20.8777 C   0  0  0  0  0  0
  -23.9104  -10.4300   21.0425 C   0  0  0  0  0  0
  -24.3640   -9.4202   21.9196 C   0  0  0  0  0  0
  -23.6300   -8.2243   22.0763 C   0  0  0  0  0  0
  -22.4277   -8.0294   21.3554 C   0  0  0  0  0  0
  -21.9931   -9.0273   20.4649 C   0  0  0  0  0  0
  -22.7280  -10.2143   20.3063 C   0  0  0  0  0  0
  -21.6850   -6.0743   22.5279 C   0  0  0  0  0  0
  -21.4010   -6.5643   23.8212 C   0  0  0  0  0  0
  -21.3658   -5.6795   24.9171 C   0  0  0  0  0  0
  -21.6043   -4.3059   24.7221 C   0  0  0  0  0  0
  -21.8819   -3.8154   23.4341 C   0  0  0  0  0  0
  -21.9187   -4.6972   22.3397 C   0  0  0  0  0  0
  -22.7784  -13.5202   21.1890 C   0  0  0  0  0  0
  -22.1657   -4.2160   21.0973 F   0  0  0  0  0  0
  -21.5629   -3.4541   25.7733 F   0  0  0  0  0  0
  -29.9322  -13.7559   20.3551 N   0  0  0  0  0  0
  -26.2867  -12.9484   20.3228 N   0  0  0  0  0  0
  -25.9342  -11.6609   20.5757 N   0  0  0  0  0  0
  -22.0428  -12.8186   22.0439 N   0  0  0  0  0  0
  -25.4056  -15.1962   20.4083 N   0  0  0  0  0  0
  -31.7505  -15.0343   20.1730 O   0  0  0  0  0  0
  -21.6636   -6.8890   21.4243 O   0  0  0  0  0  0
  -22.3466  -14.5500   20.6729 O   0  0  0  0  0  0
  -24.6490  -31.8382   23.1823 C   0  0  0  0  0  0
  -25.9240  -32.4659   23.8234 C   0  0  1  0  0  0
  -27.2213  -27.0835   20.1544 C   0  0  0  0  0  0
  -25.5957  -33.8468   24.2146 N   0  0  0  0  0  0
  -23.4553  -30.4533   21.5297 C   0  0  2  0  0  0
  -24.9077  -28.8722   20.1095 C   0  0  0  0  0  0
  -22.7597  -29.4500   22.4851 C   0  0  0  0  0  0
  -18.0298  -28.1383   22.8457 C   0  0  0  0  0  0
  -24.1493  -36.7253   23.2638 C   0  0  0  0  0  0
  -26.0151  -30.6937   21.3895 C   0  0  0  0  0  0
  -26.0870  -29.2997   20.7325 C   0  0  0  0  0  0
  -27.2431  -28.4232   20.7369 C   0  0  0  0  0  0
  -26.0152  -26.7733   19.4870 C   0  0  0  0  0  0
  -24.8883  -27.6245   19.4691 C   0  0  0  0  0  0
  -23.6855  -29.7787   20.1509 C   0  0  0  0  0  0
  -25.4124  -36.3012   24.0307 C   0  0  1  0  0  0
  -20.5915  -28.3710   23.1230 C   0  0  2  0  0  0
  -20.6784  -26.9408   22.5407 C   0  0  0  0  0  0
  -19.5764  -26.6363   21.5208 C   0  0  0  0  0  0
  -18.1936  -26.7913   22.1613 C   0  0  0  0  0  0
  -19.1557  -28.8865   23.2822 C   0  0  0  0  0  0
  -18.9479  -30.1451   23.8866 C   0  0  0  0  0  0
  -17.6482  -30.6585   24.0539 C   0  0  0  0  0  0
  -25.9080  -34.9390   23.5040 C   0  0  0  0  0  0
  -16.5367  -29.9078   23.6332 C   0  0  0  0  0  0
  -16.7283  -28.6488   23.0364 C   0  0  0  0  0  0
  -26.4537  -31.6549   25.0707 C   0  0  0  0  0  0
  -25.3696  -31.3795   26.1395 C   0  0  0  0  0  0
  -27.0397  -30.2926   24.6333 C   0  0  0  0  0  0
  -27.6054  -32.4330   25.7506 C   0  0  0  0  0  0
  -27.5578  -37.1767   24.8453 C   0  0  0  0  0  0
  -21.4282  -29.3036   22.3614 N   0  0  0  0  0  0
  -26.4277  -37.3735   23.9416 N   0  0  0  0  0  0
  -24.7267  -31.0179   22.0889 N   0  0  0  0  0  0
  -23.4209  -28.8047   23.3026 O   0  0  0  0  0  0
  -28.2527  -26.0582   20.2336 O   0  0  0  0  0  0
  -26.5672  -34.8900   22.4625 O   0  0  0  0  0  0
  -23.5600  -32.1300   23.7005 O   0  0  0  0  0  0
  -31.8892  -19.4219   20.9931 C   0  0  0  0  0  0
  -31.4550  -18.0888   20.8583 C   0  0  0  0  0  0
  -29.2671  -18.9875   20.3570 C   0  0  0  0  0  0
  -29.6749  -20.4388   20.4706 C   0  0  0  0  0  0
  -31.0552  -20.5559   20.8215 C   0  0  0  0  0  0
  -30.1238  -17.7587   20.5416 C   0  0  0  0  0  0
  -28.7759  -21.7959   20.2461 C   0  0  0  0  0  0
  -28.9506  -23.2274   20.3104 C   0  0  0  0  0  0
  -31.7280  -21.8992   21.0460 C   0  0  0  0  0  0
  -27.9441  -24.5243   20.0086 C   0  0  0  0  0  0
  -29.7736  -16.2405   20.4852 N   0  0  0  0  0  0
  -31.4687  -12.7997   19.1812 H   0  0  0  0  0  0
  -30.4481  -11.6989   20.0570 H   0  0  0  0  0  0
  -29.8541  -11.7272   17.6071 H   0  0  0  0  0  0
  -29.5980  -13.4536   17.6761 H   0  0  0  0  0  0
  -27.9691  -11.2726   19.0090 H   0  0  0  0  0  0
  -27.3939  -12.4163   17.8245 H   0  0  0  0  0  0
  -27.5741  -14.2495   19.3834 H   0  0  0  0  0  0
  -28.7731  -12.3632   21.4677 H   0  0  0  0  0  0
  -28.3561  -14.0412   21.7292 H   0  0  0  0  0  0
  -25.2779   -9.5661   22.4784 H   0  0  0  0  0  0
  -23.9994   -7.4631   22.7485 H   0  0  0  0  0  0
  -21.0864   -8.8810   19.8950 H   0  0  0  0  0  0
  -22.3754  -10.9690   19.6176 H   0  0  0  0  0  0
  -21.2005   -7.6153   23.9717 H   0  0  0  0  0  0
  -21.1478   -6.0525   25.9075 H   0  0  0  0  0  0
  -22.0599   -2.7619   23.2836 H   0  0  0  0  0  0
  -22.4045  -11.9852   22.4841 H   0  0  0  0  0  0
  -21.1047  -13.1214   22.2635 H   0  0  0  0  0  0
  -24.6296  -15.8417   20.5084 H   0  0  0  0  0  0
  -26.2352  -15.6351   20.0315 H   0  0  0  0  0  0
  -26.7297  -32.5245   23.0945 H   0  0  0  0  0  0
  -25.0078  -33.9574   25.0276 H   0  0  0  0  0  0
  -22.7603  -31.2799   21.3679 H   0  0  0  0  0  0
  -23.3763  -35.9573   23.3258 H   0  0  0  0  0  0
  -24.3576  -36.8946   22.2061 H   0  0  0  0  0  0
  -23.7247  -37.6430   23.6717 H   0  0  0  0  0  0
  -26.1744  -31.4411   20.6113 H   0  0  0  0  0  0
  -26.8839  -30.7472   22.0338 H   0  0  0  0  0  0
  -28.1375  -28.7430   21.2535 H   0  0  0  0  0  0
  -25.9046  -25.8200   18.9929 H   0  0  0  0  0  0
  -23.9911  -27.2925   18.9662 H   0  0  0  0  0  0
  -23.8257  -30.5506   19.3935 H   0  0  0  0  0  0
  -22.8002  -29.2207   19.8390 H   0  0  0  0  0  0
  -25.1309  -36.1822   25.0795 H   0  0  0  0  0  0
  -20.9974  -28.3289   24.1365 H   0  0  0  0  0  0
  -20.5669  -26.2316   23.3623 H   0  0  0  0  0  0
  -21.6650  -26.7406   22.1210 H   0  0  0  0  0  0
  -19.6939  -25.6267   21.1255 H   0  0  0  0  0  0
  -19.6723  -27.3159   20.6724 H   0  0  0  0  0  0
  -17.4210  -26.6648   21.4009 H   0  0  0  0  0  0
  -18.0333  -26.0062   22.9021 H   0  0  0  0  0  0
  -19.7961  -30.7244   24.2252 H   0  0  0  0  0  0
  -17.5043  -31.6268   24.5135 H   0  0  0  0  0  0
  -15.5367  -30.2975   23.7673 H   0  0  0  0  0  0
  -15.8674  -28.0782   22.7145 H   0  0  0  0  0  0
  -24.5868  -30.7151   25.7721 H   0  0  0  0  0  0
  -24.8904  -32.3007   26.4726 H   0  0  0  0  0  0
  -25.7950  -30.9029   27.0235 H   0  0  0  0  0  0
  -26.3019  -29.6641   24.1325 H   0  0  0  0  0  0
  -27.3964  -29.7251   25.4939 H   0  0  0  0  0  0
  -27.8953  -30.4141   23.9683 H   0  0  0  0  0  0
  -27.2648  -33.3688   26.1951 H   0  0  0  0  0  0
  -28.3937  -32.6790   25.0380 H   0  0  0  0  0  0
  -28.0617  -31.8531   26.5536 H   0  0  0  0  0  0
  -28.2538  -38.0113   24.7524 H   0  0  0  0  0  0
  -28.1124  -36.2637   24.6232 H   0  0  0  0  0  0
  -27.2290  -37.1354   25.8850 H   0  0  0  0  0  0
  -20.9512  -29.8781   21.6809 H   0  0  0  0  0  0
  -26.0137  -38.2794   24.1448 H   0  0  0  0  0  0
  -32.9286  -19.5703   21.2532 H   0  0  0  0  0  0
  -32.1855  -17.3120   21.0301 H   0  0  0  0  0  0
  -28.2303  -18.8110   20.1089 H   0  0  0  0  0  0
  -27.7689  -21.5300   19.9558 H   0  0  0  0  0  0
  -29.9177  -23.6022   20.5889 H   0  0  0  0  0  0
  -32.7686  -21.7889   21.3532 H   0  0  0  0  0  0
  -31.2299  -22.4482   21.8449 H   0  0  0  0  0  0
  -31.7337  -22.4876   20.1290 H   0  0  0  0  0  0
  -27.0124  -24.3005   20.5289 H   0  0  0  0  0  0
  -27.7077  -24.4338   18.9476 H   0  0  0  0  0  0
  -28.7824  -16.0557   20.5157 H   0  0  0  0  0  0
  1 25  1  0  0  0
  1 30  2  0  0  0
  1 81  1  0  0  0
  2  3  1  0  0  0
  2 25  1  0  0  0
  2 82  1  0  0  0
  2 83  1  0  0  0
  3  4  1  0  0  0
  3 84  1  0  0  0
  3 85  1  0  0  0
  4  5  1  0  0  0
  4 86  1  0  0  0
  4 87  1  0  0  0
  5  6  1  0  0  0
  5 26  1  0  0  0
  5 88  1  0  0  0
  6 25  1  0  0  0
  6 89  1  0  0  0
  6 90  1  0  0  0
  7  8  2  0  0  0
  7 26  1  0  0  0
  7 29  1  0  0  0
  8  9  1  0  0  0
  8 22  1  0  0  0
  9 10  1  0  0  0
  9 27  2  0  0  0
 10 11  2  0  0  0
 10 15  1  0  0  0
 11 12  1  0  0  0
 11 91  1  0  0  0
 12 13  2  0  0  0
 12 92  1  0  0  0
 13 14  1  0  0  0
 13 31  1  0  0  0
 14 15  2  0  0  0
 14 93  1  0  0  0
 15 94  1  0  0  0
 16 17  2  0  0  0
 16 21  1  0  0  0
 16 31  1  0  0  0
 17 18  1  0  0  0
 17 95  1  0  0  0
 18 19  2  0  0  0
 18 96  1  0  0  0
 19 20  1  0  0  0
 19 24  1  0  0  0
 20 21  2  0  0  0
 20 97  1  0  0  0
 21 23  1  0  0  0
 22 28  1  0  0  0
 22 32  2  0  0  0
 26 27  1  0  0  0
 28 98  1  0  0  0
 28 99  1  0  0  0
 29100  1  0  0  0
 29101  1  0  0  0
 33 34  1  0  0  0
 33 66  1  0  0  0
 33 70  2  0  0  0
 34 36  1  0  0  0
 34 59  1  0  0  0
 34102  1  0  0  0
 35 44  2  0  0  0
 35 45  1  0  0  0
 35 68  1  0  0  0
 36 56  1  0  0  0
 36103  1  0  0  0
 37 39  1  0  0  0
 37 47  1  0  0  0
 37 66  1  0  0  0
 37104  1  0  0  0
 38 43  2  0  0  0
 38 46  1  0  0  0
 38 47  1  0  0  0
 39 64  1  0  0  0
 39 67  2  0  0  0
 40 52  1  0  0  0
 40 53  2  0  0  0
 40 58  1  0  0  0
 41105  1  0  0  0
 41106  1  0  0  0
 41107  1  0  0  0
 41 48  1  0  0  0
 42 43  1  0  0  0
 42 66  1  0  0  0
 42108  1  0  0  0
 42109  1  0  0  0
 43 44  1  0  0  0
 44110  1  0  0  0
 45 46  2  0  0  0
 45111  1  0  0  0
 46112  1  0  0  0
 47113  1  0  0  0
 47114  1  0  0  0
 48 56  1  0  0  0
 48 65  1  0  0  0
 48115  1  0  0  0
 49 50  1  0  0  0
 49 53  1  0  0  0
 49 64  1  0  0  0
 49116  1  0  0  0
 50 51  1  0  0  0
 50117  1  0  0  0
 50118  1  0  0  0
 51 52  1  0  0  0
 51119  1  0  0  0
 51120  1  0  0  0
 52121  1  0  0  0
 52122  1  0  0  0
 53 54  1  0  0  0
 54 55  2  0  0  0
 54123  1  0  0  0
 55 57  1  0  0  0
 55124  1  0  0  0
 56 69  2  0  0  0
 57 58  2  0  0  0
 57125  1  0  0  0
 58126  1  0  0  0
 59 60  1  0  0  0
 59 61  1  0  0  0
 59 62  1  0  0  0
 60127  1  0  0  0
 60128  1  0  0  0
 60129  1  0  0  0
 61130  1  0  0  0
 61131  1  0  0  0
 61132  1  0  0  0
 62133  1  0  0  0
 62134  1  0  0  0
 62135  1  0  0  0
 63 65  1  0  0  0
 63136  1  0  0  0
 63137  1  0  0  0
 63138  1  0  0  0
 64139  1  0  0  0
 65140  1  0  0  0
 68 80  1  0  0  0
 71 72  2  0  0  0
 71 75  1  0  0  0
 71141  1  0  0  0
 72 76  1  0  0  0
 72142  1  0  0  0
 73 74  1  0  0  0
 73 76  2  0  0  0
 73143  1  0  0  0
 74 75  2  0  0  0
 74 77  1  0  0  0
 75 79  1  0  0  0
 76 81  1  0  0  0
 77 78  2  0  0  0
 77144  1  0  0  0
 78 80  1  0  0  0
 78145  1  0  0  0
 79146  1  0  0  0
 79147  1  0  0  0
 79148  1  0  0  0
 80149  1  0  0  0
 80150  1  0  0  0
 81151  1  0  0  0
M  ISO  4   1 100  68 101  80 101  81 100
M  END
> <chiral flag>
0

> <version>
0

> <s_m_source_file>
/data/baiqing/PycharmProjects/Reinvent-master-3.2/result/LINK_invent/BTK/process_docking_weight1_custom_product_contain_oxygen_bond_distance_aromatic_linkinvent_7_9_3/rearranged_h_0125.sdf

> <i_m_source_file_index>
69

> <r_mmod_Potential_Energy-OPLS-2005>
620.478393554688

> <r_mmod_Stretch_Energy-OPLS-2005>
325.230133056641

> <r_mmod_Bend_Energy-OPLS-2005>
258.226379394531

> <r_mmod_Torsional_Energy-OPLS-2005>
217.329711914062

> <r_mmod_Improper_Torsional_Energy-OPLS-2005>
5.47576284408569

> <r_mmod_Van_der_Waal_Energy-OPLS-2005>
142.140701293945

> <r_mmod_Electrostatic_Energy-OPLS-2005>
-364.485565185547

> <r_mmod_Solvation_Energy-OPLS-2005>
-208.264221191406

> <b_mmod_Minimization_Converged-OPLS-2005>
0

> <r_mmod_RMS_Derivative-OPLS-2005>
1.50626087188721

$$$$
69
                    3D
 Structure written by MMmdl.
158166  0  0  1  0            999 V2000
  -30.5921  -14.7123   20.4557 C   0  0  0  0  0  0
  -30.4404  -12.4308   19.4700 C   0  0  0  0  0  0
  -29.5138  -12.5055   18.2342 C   0  0  0  0  0  0
  -28.0363  -12.3322   18.6405 C   0  0  0  0  0  0
  -27.6448  -13.2197   19.8516 C   0  0  2  0  0  0
  -28.6875  -13.1049   20.9839 C   0  0  0  0  0  0
  -25.2525  -13.8162   20.5674 C   0  0  0  0  0  0
  -24.1804  -13.0426   20.9197 C   0  0  0  0  0  0
  -24.6374  -11.6900   20.8730 C   0  0  0  0  0  0
  -23.9044  -10.4285   21.0401 C   0  0  0  0  0  0
  -24.3604   -9.4203   21.9177 C   0  0  0  0  0  0
  -23.6282   -8.2234   22.0750 C   0  0  0  0  0  0
  -22.4265   -8.0270   21.3536 C   0  0  0  0  0  0
  -21.9895   -9.0245   20.4646 C   0  0  0  0  0  0
  -22.7218  -10.2124   20.3055 C   0  0  0  0  0  0
  -21.6853   -6.0726   22.5272 C   0  0  0  0  0  0
  -21.4016   -6.5631   23.8203 C   0  0  0  0  0  0
  -21.3659   -5.6783   24.9166 C   0  0  0  0  0  0
  -21.6049   -4.3044   24.7224 C   0  0  0  0  0  0
  -21.8818   -3.8139   23.4342 C   0  0  0  0  0  0
  -21.9191   -4.6955   22.3398 C   0  0  0  0  0  0
  -22.7828  -13.5222   21.1855 C   0  0  0  0  0  0
  -22.1660   -4.2140   21.0977 F   0  0  0  0  0  0
  -21.5626   -3.4528   25.7737 F   0  0  0  0  0  0
  -29.9959  -13.4706   20.4246 N   0  0  0  0  0  0
  -26.2936  -12.9347   20.3252 N   0  0  0  0  0  0
  -25.9298  -11.6502   20.5725 N   0  0  0  0  0  0
  -22.0467  -12.8236   22.0425 N   0  0  0  0  0  0
  -25.4219  -15.1881   20.4064 N   0  0  0  0  0  0
  -31.7795  -14.8189   20.1339 O   0  0  0  0  0  0
  -21.6630   -6.8866   21.4234 O   0  0  0  0  0  0
  -22.3513  -14.5518   20.6683 O   0  0  0  0  0  0
  -24.6259  -31.8585   23.2000 C   0  0  0  0  0  0
  -25.9093  -32.4781   23.8341 C   0  0  1  0  0  0
  -27.2285  -27.3099   20.1359 C   0  0  0  0  0  0
  -25.5891  -33.8583   24.2266 N   0  0  0  0  0  0
  -23.4212  -30.4773   21.5434 C   0  0  2  0  0  0
  -24.8701  -28.9215   20.1199 C   0  0  0  0  0  0
  -22.7476  -29.4604   22.4947 C   0  0  0  0  0  0
  -18.0285  -28.1380   22.8489 C   0  0  0  0  0  0
  -24.1478  -36.7303   23.2641 C   0  0  0  0  0  0
  -25.9604  -30.7888   21.3682 C   0  0  0  0  0  0
  -26.0379  -29.4106   20.7194 C   0  0  0  0  0  0
  -27.2241  -28.6176   20.7117 C   0  0  0  0  0  0
  -26.0400  -26.8620   19.5261 C   0  0  0  0  0  0
  -24.8727  -27.6533   19.5137 C   0  0  0  0  0  0
  -23.6376  -29.8033   20.1621 C   0  0  0  0  0  0
  -25.4100  -36.3087   24.0334 C   0  0  1  0  0  0
  -20.5881  -28.3679   23.1293 C   0  0  2  0  0  0
  -20.6767  -26.9402   22.5420 C   0  0  0  0  0  0
  -19.5744  -26.6380   21.5216 C   0  0  0  0  0  0
  -18.1925  -26.7924   22.1624 C   0  0  0  0  0  0
  -19.1537  -28.8848   23.2883 C   0  0  0  0  0  0
  -18.9456  -30.1448   23.8902 C   0  0  0  0  0  0
  -17.6457  -30.6586   24.0566 C   0  0  0  0  0  0
  -25.9045  -34.9460   23.5114 C   0  0  0  0  0  0
  -16.5351  -29.9085   23.6327 C   0  0  0  0  0  0
  -16.7270  -28.6497   23.0361 C   0  0  0  0  0  0
  -26.4483  -31.6604   25.0720 C   0  0  0  0  0  0
  -25.3714  -31.3740   26.1451 C   0  0  0  0  0  0
  -27.0345  -30.3038   24.6170 C   0  0  0  0  0  0
  -27.6047  -32.4352   25.7471 C   0  0  0  0  0  0
  -27.5589  -37.1779   24.8448 C   0  0  0  0  0  0
  -21.4187  -29.3030   22.3688 N   0  0  0  0  0  0
  -26.4274  -37.3789   23.9434 N   0  0  0  0  0  0
  -24.6883  -31.0578   22.0956 N   0  0  0  0  0  0
  -23.4194  -28.8160   23.3042 O   0  0  0  0  0  0
  -28.3547  -26.4789   20.1087 O   0  0  0  0  0  0
  -26.5633  -34.8931   22.4692 O   0  0  0  0  0  0
  -23.5417  -32.1391   23.7312 O   0  0  0  0  0  0
  -26.9617  -19.4757   20.9149 C   0  0  0  0  0  0
  -27.8247  -18.3711   20.7865 C   0  0  0  0  0  0
  -27.4485  -20.7919   20.8508 C   0  0  0  0  0  0
  -29.2118  -18.5229   20.5572 C   0  0  0  0  0  0
  -28.8133  -21.0554   20.6308 C   0  0  0  0  0  0
  -29.6906  -19.9000   20.4531 C   0  0  0  0  0  0
  -30.0615  -17.2330   20.4508 C   0  0  0  0  0  0
  -29.7045  -15.9116   20.6713 C   0  0  0  0  0  0
  -32.0223  -20.2053   21.4175 C   0  0  0  0  0  0
  -29.2549  -22.5743   20.7743 C   0  0  0  0  0  0
  -31.1654  -20.1391   20.1494 C   0  0  0  0  0  0
  -28.4913  -23.7746   20.0197 C   0  0  0  0  0  0
  -28.3084  -25.1670   20.7987 C   0  0  0  0  0  0
  -31.4797  -12.5636   19.1659 H   0  0  0  0  0  0
  -30.3934  -11.4449   19.9343 H   0  0  0  0  0  0
  -29.7952  -11.7426   17.5077 H   0  0  0  0  0  0
  -29.6447  -13.4664   17.7341 H   0  0  0  0  0  0
  -27.8858  -11.2819   18.8909 H   0  0  0  0  0  0
  -27.3822  -12.5372   17.7922 H   0  0  0  0  0  0
  -27.6509  -14.2474   19.4891 H   0  0  0  0  0  0
  -28.7157  -12.0862   21.3728 H   0  0  0  0  0  0
  -28.4233  -13.7324   21.8352 H   0  0  0  0  0  0
  -25.2750   -9.5679   22.4745 H   0  0  0  0  0  0
  -23.9989   -7.4630   22.7475 H   0  0  0  0  0  0
  -21.0815   -8.8764   19.8963 H   0  0  0  0  0  0
  -22.3670  -10.9660   19.6163 H   0  0  0  0  0  0
  -21.2011   -7.6140   23.9704 H   0  0  0  0  0  0
  -21.1483   -6.0512   25.9066 H   0  0  0  0  0  0
  -22.0602   -2.7602   23.2841 H   0  0  0  0  0  0
  -22.4079  -11.9915   22.4858 H   0  0  0  0  0  0
  -21.1084  -13.1275   22.2607 H   0  0  0  0  0  0
  -24.6492  -15.8376   20.5031 H   0  0  0  0  0  0
  -26.2563  -15.6175   20.0293 H   0  0  0  0  0  0
  -26.7163  -32.5460   23.1094 H   0  0  0  0  0  0
  -24.9981  -33.9720   25.0373 H   0  0  0  0  0  0
  -22.7151  -31.2968   21.3958 H   0  0  0  0  0  0
  -23.3760  -35.9610   23.3241 H   0  0  0  0  0  0
  -24.3581  -36.8995   22.2068 H   0  0  0  0  0  0
  -23.7198  -37.6471   23.6711 H   0  0  0  0  0  0
  -26.0847  -31.5464   20.5927 H   0  0  0  0  0  0
  -26.8429  -30.8475   21.9939 H   0  0  0  0  0  0
  -28.1265  -28.9927   21.1736 H   0  0  0  0  0  0
  -26.0151  -25.8869   19.0608 H   0  0  0  0  0  0
  -23.9769  -27.2720   19.0440 H   0  0  0  0  0  0
  -23.7577  -30.5759   19.4020 H   0  0  0  0  0  0
  -22.7579  -29.2308   19.8630 H   0  0  0  0  0  0
  -25.1269  -36.1933   25.0822 H   0  0  0  0  0  0
  -20.9969  -28.3254   24.1416 H   0  0  0  0  0  0
  -20.5665  -26.2286   23.3615 H   0  0  0  0  0  0
  -21.6635  -26.7440   22.1212 H   0  0  0  0  0  0
  -19.6905  -25.6293   21.1242 H   0  0  0  0  0  0
  -19.6684  -27.3190   20.6744 H   0  0  0  0  0  0
  -17.4198  -26.6684   21.4025 H   0  0  0  0  0  0
  -18.0321  -26.0063   22.9013 H   0  0  0  0  0  0
  -19.7934  -30.7258   24.2282 H   0  0  0  0  0  0
  -17.5016  -31.6266   24.5164 H   0  0  0  0  0  0
  -15.5350  -30.2994   23.7641 H   0  0  0  0  0  0
  -15.8668  -28.0811   22.7089 H   0  0  0  0  0  0
  -24.5873  -30.7114   25.7771 H   0  0  0  0  0  0
  -24.8925  -32.2911   26.4896 H   0  0  0  0  0  0
  -25.8029  -30.8897   27.0222 H   0  0  0  0  0  0
  -26.2928  -29.6761   24.1222 H   0  0  0  0  0  0
  -27.4094  -29.7317   25.4666 H   0  0  0  0  0  0
  -27.8762  -30.4340   23.9361 H   0  0  0  0  0  0
  -27.2668  -33.3663   26.2024 H   0  0  0  0  0  0
  -28.3847  -32.6900   25.0287 H   0  0  0  0  0  0
  -28.0729  -31.8507   26.5397 H   0  0  0  0  0  0
  -28.2543  -38.0139   24.7602 H   0  0  0  0  0  0
  -28.1148  -36.2685   24.6128 H   0  0  0  0  0  0
  -27.2335  -37.1248   25.8852 H   0  0  0  0  0  0
  -20.9375  -29.8733   21.6876 H   0  0  0  0  0  0
  -26.0155  -38.2851   24.1504 H   0  0  0  0  0  0
  -25.9082  -19.3091   21.0914 H   0  0  0  0  0  0
  -27.3846  -17.3896   20.8660 H   0  0  0  0  0  0
  -26.7606  -21.6116   21.0100 H   0  0  0  0  0  0
  -31.0821  -17.3835   20.1337 H   0  0  0  0  0  0
  -28.6984  -15.7271   21.0035 H   0  0  0  0  0  0
  -33.0709  -20.3688   21.1685 H   0  0  0  0  0  0
  -31.9548  -19.2767   21.9849 H   0  0  0  0  0  0
  -31.7063  -21.0193   22.0696 H   0  0  0  0  0  0
  -30.3202  -22.6864   20.5813 H   0  0  0  0  0  0
  -29.1679  -22.7757   21.8429 H   0  0  0  0  0  0
  -31.2869  -21.0494   19.5641 H   0  0  0  0  0  0
  -31.5399  -19.3610   19.4863 H   0  0  0  0  0  0
  -27.4976  -23.4385   19.7250 H   0  0  0  0  0  0
  -29.0104  -23.9605   19.0801 H   0  0  0  0  0  0
  -29.1101  -25.2277   21.5350 H   0  0  0  0  0  0
  -27.4011  -25.1047   21.4017 H   0  0  0  0  0  0
  1 25  1  0  0  0
  1 30  2  0  0  0
  1 78  1  0  0  0
  2  3  1  0  0  0
  2 25  1  0  0  0
  2 84  1  0  0  0
  2 85  1  0  0  0
  3  4  1  0  0  0
  3 86  1  0  0  0
  3 87  1  0  0  0
  4  5  1  0  0  0
  4 88  1  0  0  0
  4 89  1  0  0  0
  5  6  1  0  0  0
  5 26  1  0  0  0
  5 90  1  0  0  0
  6 25  1  0  0  0
  6 91  1  0  0  0
  6 92  1  0  0  0
  7  8  2  0  0  0
  7 26  1  0  0  0
  7 29  1  0  0  0
  8  9  1  0  0  0
  8 22  1  0  0  0
  9 10  1  0  0  0
  9 27  2  0  0  0
 10 11  2  0  0  0
 10 15  1  0  0  0
 11 12  1  0  0  0
 11 93  1  0  0  0
 12 13  2  0  0  0
 12 94  1  0  0  0
 13 14  1  0  0  0
 13 31  1  0  0  0
 14 15  2  0  0  0
 14 95  1  0  0  0
 15 96  1  0  0  0
 16 17  2  0  0  0
 16 21  1  0  0  0
 16 31  1  0  0  0
 17 18  1  0  0  0
 17 97  1  0  0  0
 18 19  2  0  0  0
 18 98  1  0  0  0
 19 20  1  0  0  0
 19 24  1  0  0  0
 20 21  2  0  0  0
 20 99  1  0  0  0
 21 23  1  0  0  0
 22 28  1  0  0  0
 22 32  2  0  0  0
 26 27  1  0  0  0
 28100  1  0  0  0
 28101  1  0  0  0
 29102  1  0  0  0
 29103  1  0  0  0
 33 34  1  0  0  0
 33 66  1  0  0  0
 33 70  2  0  0  0
 34 36  1  0  0  0
 34 59  1  0  0  0
 34104  1  0  0  0
 35 44  2  0  0  0
 35 45  1  0  0  0
 35 68  1  0  0  0
 36 56  1  0  0  0
 36105  1  0  0  0
 37 39  1  0  0  0
 37 47  1  0  0  0
 37 66  1  0  0  0
 37106  1  0  0  0
 38 43  2  0  0  0
 38 46  1  0  0  0
 38 47  1  0  0  0
 39 64  1  0  0  0
 39 67  2  0  0  0
 40 52  1  0  0  0
 40 53  2  0  0  0
 40 58  1  0  0  0
 41107  1  0  0  0
 41108  1  0  0  0
 41109  1  0  0  0
 41 48  1  0  0  0
 42 43  1  0  0  0
 42 66  1  0  0  0
 42110  1  0  0  0
 42111  1  0  0  0
 43 44  1  0  0  0
 44112  1  0  0  0
 45 46  2  0  0  0
 45113  1  0  0  0
 46114  1  0  0  0
 47115  1  0  0  0
 47116  1  0  0  0
 48 56  1  0  0  0
 48 65  1  0  0  0
 48117  1  0  0  0
 49 50  1  0  0  0
 49 53  1  0  0  0
 49 64  1  0  0  0
 49118  1  0  0  0
 50 51  1  0  0  0
 50119  1  0  0  0
 50120  1  0  0  0
 51 52  1  0  0  0
 51121  1  0  0  0
 51122  1  0  0  0
 52123  1  0  0  0
 52124  1  0  0  0
 53 54  1  0  0  0
 54 55  2  0  0  0
 54125  1  0  0  0
 55 57  1  0  0  0
 55126  1  0  0  0
 56 69  2  0  0  0
 57 58  2  0  0  0
 57127  1  0  0  0
 58128  1  0  0  0
 59 60  1  0  0  0
 59 61  1  0  0  0
 59 62  1  0  0  0
 60129  1  0  0  0
 60130  1  0  0  0
 60131  1  0  0  0
 61132  1  0  0  0
 61133  1  0  0  0
 61134  1  0  0  0
 62135  1  0  0  0
 62136  1  0  0  0
 62137  1  0  0  0
 63 65  1  0  0  0
 63138  1  0  0  0
 63139  1  0  0  0
 63140  1  0  0  0
 64141  1  0  0  0
 65142  1  0  0  0
 68 83  1  0  0  0
 71 72  2  0  0  0
 71 73  1  0  0  0
 71143  1  0  0  0
 72 74  1  0  0  0
 72144  1  0  0  0
 73 75  2  0  0  0
 73145  1  0  0  0
 74 76  2  0  0  0
 74 77  1  0  0  0
 75 76  1  0  0  0
 75 80  1  0  0  0
 76 81  1  0  0  0
 77 78  2  0  0  0
 77146  1  0  0  0
 78147  1  0  0  0
 79 81  1  0  0  0
 79148  1  0  0  0
 79149  1  0  0  0
 79150  1  0  0  0
 80 82  1  0  0  0
 80151  1  0  0  0
 80152  1  0  0  0
 81153  1  0  0  0
 81154  1  0  0  0
 82 83  1  0  0  0
 82155  1  0  0  0
 82156  1  0  0  0
 83157  1  0  0  0
 83158  1  0  0  0
M  ISO  4   1 100  68 101  78 100  83 101
M  END
> <chiral flag>
0

> <version>
0

> <s_m_source_file>
/data/baiqing/PycharmProjects/Reinvent-master-3.2/result/LINK_invent/BTK/process_docking_weight1_custom_product_contain_oxygen_bond_distance_aromatic_linkinvent_7_9_3/rearranged_h_0125.sdf

> <i_m_source_file_index>
70

> <r_mmod_Potential_Energy-OPLS-2005>
143.584808349609

> <r_mmod_Stretch_Energy-OPLS-2005>
105.665901184082

> <r_mmod_Bend_Energy-OPLS-2005>
146.491409301758

> <r_mmod_Torsional_Energy-OPLS-2005>
219.194854736328

> <r_mmod_Improper_Torsional_Energy-OPLS-2005>
5.64661884307861

> <r_mmod_Van_der_Waal_Energy-OPLS-2005>
139.741622924805

> <r_mmod_Electrostatic_Energy-OPLS-2005>
-346.965240478516

> <r_mmod_Solvation_Energy-OPLS-2005>
-187.793914794922

> <b_mmod_Minimization_Converged-OPLS-2005>
0

> <r_mmod_RMS_Derivative-OPLS-2005>
1.43562376499176

$$$$
70
                    3D
 Structure written by MMmdl.
157165  0  0  1  0            999 V2000
  -30.6438  -14.6408   20.4919 C   0  0  0  0  0  0
  -30.4363  -12.3915   19.4507 C   0  0  0  0  0  0
  -29.5010  -12.4922   18.2248 C   0  0  0  0  0  0
  -28.0265  -12.3298   18.6428 C   0  0  0  0  0  0
  -27.6505  -13.2154   19.8600 C   0  0  2  0  0  0
  -28.7011  -13.0872   20.9890 C   0  0  0  0  0  0
  -25.2447  -13.8069   20.5561 C   0  0  0  0  0  0
  -24.1779  -13.0353   20.9222 C   0  0  0  0  0  0
  -24.6399  -11.6852   20.8801 C   0  0  0  0  0  0
  -23.9077  -10.4244   21.0435 C   0  0  0  0  0  0
  -24.3619   -9.4160   21.9217 C   0  0  0  0  0  0
  -23.6279   -8.2201   22.0778 C   0  0  0  0  0  0
  -22.4272   -8.0255   21.3541 C   0  0  0  0  0  0
  -21.9912   -9.0237   20.4657 C   0  0  0  0  0  0
  -22.7250  -10.2107   20.3074 C   0  0  0  0  0  0
  -21.6839   -6.0734   22.5275 C   0  0  0  0  0  0
  -21.4002   -6.5641   23.8209 C   0  0  0  0  0  0
  -21.3647   -5.6794   24.9175 C   0  0  0  0  0  0
  -21.6049   -4.3057   24.7219 C   0  0  0  0  0  0
  -21.8817   -3.8149   23.4337 C   0  0  0  0  0  0
  -21.9185   -4.6966   22.3397 C   0  0  0  0  0  0
  -22.7797  -13.5147   21.1857 C   0  0  0  0  0  0
  -22.1658   -4.2155   21.0966 F   0  0  0  0  0  0
  -21.5629   -3.4538   25.7729 F   0  0  0  0  0  0
  -30.0169  -13.4230   20.4200 N   0  0  0  0  0  0
  -26.2965  -12.9325   20.3324 N   0  0  0  0  0  0
  -25.9343  -11.6490   20.5856 N   0  0  0  0  0  0
  -22.0439  -12.8185   22.0452 N   0  0  0  0  0  0
  -25.3919  -15.1722   20.3618 N   0  0  0  0  0  0
  -31.8091  -14.7823   20.1127 O   0  0  0  0  0  0
  -21.6612   -6.8873   21.4240 O   0  0  0  0  0  0
  -22.3486  -14.5448   20.6689 O   0  0  0  0  0  0
  -24.6255  -31.8590   23.2066 C   0  0  0  0  0  0
  -25.9126  -32.4759   23.8367 C   0  0  1  0  0  0
  -27.2325  -27.3349   20.1130 C   0  0  0  0  0  0
  -25.5966  -33.8558   24.2299 N   0  0  0  0  0  0
  -23.4173  -30.4818   21.5470 C   0  0  2  0  0  0
  -24.8640  -28.9410   20.1080 C   0  0  0  0  0  0
  -22.7477  -29.4589   22.4940 C   0  0  0  0  0  0
  -18.0292  -28.1345   22.8416 C   0  0  0  0  0  0
  -24.1514  -36.7257   23.2642 C   0  0  0  0  0  0
  -25.9572  -30.7922   21.3771 C   0  0  0  0  0  0
  -26.0329  -29.4240   20.7106 C   0  0  0  0  0  0
  -27.2173  -28.6348   20.7019 C   0  0  0  0  0  0
  -26.0391  -26.8964   19.4909 C   0  0  0  0  0  0
  -24.8688  -27.6789   19.4904 C   0  0  0  0  0  0
  -23.6297  -29.8171   20.1616 C   0  0  0  0  0  0
  -25.4129  -36.3052   24.0342 C   0  0  1  0  0  0
  -20.5891  -28.3634   23.1262 C   0  0  2  0  0  0
  -20.6784  -26.9362   22.5374 C   0  0  0  0  0  0
  -19.5765  -26.6341   21.5166 C   0  0  0  0  0  0
  -18.1936  -26.7868   22.1575 C   0  0  0  0  0  0
  -19.1550  -28.8810   23.2800 C   0  0  0  0  0  0
  -18.9481  -30.1405   23.8818 C   0  0  0  0  0  0
  -17.6486  -30.6538   24.0523 C   0  0  0  0  0  0
  -25.9059  -34.9427   23.5091 C   0  0  0  0  0  0
  -16.5367  -29.9011   23.6345 C   0  0  0  0  0  0
  -16.7281  -28.6449   23.0315 C   0  0  0  0  0  0
  -26.4525  -31.6584   25.0748 C   0  0  0  0  0  0
  -25.3771  -31.3711   26.1494 C   0  0  0  0  0  0
  -27.0417  -30.3034   24.6203 C   0  0  0  0  0  0
  -27.6082  -32.4336   25.7513 C   0  0  0  0  0  0
  -27.5573  -37.1783   24.8466 C   0  0  0  0  0  0
  -21.4201  -29.2988   22.3678 N   0  0  0  0  0  0
  -26.4298  -37.3752   23.9417 N   0  0  0  0  0  0
  -24.6847  -31.0605   22.1004 N   0  0  0  0  0  0
  -23.4202  -28.8147   23.3019 O   0  0  0  0  0  0
  -28.3682  -26.5130   20.1555 O   0  0  0  0  0  0
  -26.5584  -34.8893   22.4635 O   0  0  0  0  0  0
  -23.5430  -32.1421   23.7398 O   0  0  0  0  0  0
  -28.9037  -19.4072   20.8551 C   0  0  0  0  0  0
  -31.1514  -17.8394   20.3028 C   0  0  0  0  0  0
  -30.0720  -20.0957   20.4547 C   0  0  0  0  0  0
  -28.8508  -17.9887   20.9882 C   0  0  0  0  0  0
  -31.2061  -19.2646   20.1839 C   0  0  0  0  0  0
  -29.9754  -17.1551   20.7099 C   0  0  0  0  0  0
  -30.1292  -21.6155   20.3304 C   0  0  0  0  0  0
  -29.1772  -22.5810   20.5233 C   0  0  0  0  0  0
  -27.5206  -17.3871   21.3975 C   0  0  0  0  0  0
  -32.5226  -19.8893   19.7508 C   0  0  0  0  0  0
  -29.4094  -24.1280   20.4344 C   0  0  0  0  0  0
  -28.1807  -25.0529   20.0583 C   0  0  0  0  0  0
  -29.8490  -15.6992   20.8425 N   0  0  0  0  0  0
  -31.4762  -12.5119   19.1434 H   0  0  0  0  0  0
  -30.3715  -11.4016   19.9059 H   0  0  0  0  0  0
  -29.7626  -11.7291   17.4908 H   0  0  0  0  0  0
  -29.6388  -13.4522   17.7264 H   0  0  0  0  0  0
  -27.8728  -11.2798   18.8953 H   0  0  0  0  0  0
  -27.3656  -12.5379   17.7991 H   0  0  0  0  0  0
  -27.6630  -14.2459   19.5060 H   0  0  0  0  0  0
  -28.7169  -12.0707   21.3853 H   0  0  0  0  0  0
  -28.4492  -13.7296   21.8344 H   0  0  0  0  0  0
  -25.2768   -9.5623   22.4803 H   0  0  0  0  0  0
  -23.9974   -7.4589   22.7506 H   0  0  0  0  0  0
  -21.0846   -8.8761   19.8966 H   0  0  0  0  0  0
  -22.3725  -10.9655   19.6180 H   0  0  0  0  0  0
  -21.2002   -7.6145   23.9712 H   0  0  0  0  0  0
  -21.1470   -6.0524   25.9074 H   0  0  0  0  0  0
  -22.0614   -2.7611   23.2829 H   0  0  0  0  0  0
  -22.4032  -11.9849   22.4868 H   0  0  0  0  0  0
  -21.1072  -13.1258   22.2667 H   0  0  0  0  0  0
  -24.5871  -15.7888   20.3902 H   0  0  0  0  0  0
  -26.1793  -15.5781   19.8743 H   0  0  0  0  0  0
  -26.7184  -32.5448   23.1106 H   0  0  0  0  0  0
  -25.0278  -33.9712   25.0541 H   0  0  0  0  0  0
  -22.7085  -31.2995   21.4054 H   0  0  0  0  0  0
  -23.3776  -35.9589   23.3303 H   0  0  0  0  0  0
  -24.3602  -36.8878   22.2053 H   0  0  0  0  0  0
  -23.7259  -37.6458   23.6667 H   0  0  0  0  0  0
  -26.0971  -31.5656   20.6205 H   0  0  0  0  0  0
  -26.8326  -30.8274   22.0154 H   0  0  0  0  0  0
  -28.1114  -29.0037   21.1844 H   0  0  0  0  0  0
  -25.9845  -25.9354   19.0038 H   0  0  0  0  0  0
  -23.9746  -27.2956   19.0172 H   0  0  0  0  0  0
  -23.7341  -30.5958   19.4045 H   0  0  0  0  0  0
  -22.7542  -29.2374   19.8688 H   0  0  0  0  0  0
  -25.1295  -36.1902   25.0835 H   0  0  0  0  0  0
  -20.9948  -28.3225   24.1392 H   0  0  0  0  0  0
  -20.5696  -26.2249   23.3571 H   0  0  0  0  0  0
  -21.6646  -26.7382   22.1167 H   0  0  0  0  0  0
  -19.6956  -25.6254   21.1185 H   0  0  0  0  0  0
  -19.6741  -27.3160   20.6709 H   0  0  0  0  0  0
  -17.4211  -26.6590   21.3971 H   0  0  0  0  0  0
  -18.0332  -26.0018   22.8995 H   0  0  0  0  0  0
  -19.7981  -30.7206   24.2166 H   0  0  0  0  0  0
  -17.5056  -31.6236   24.5094 H   0  0  0  0  0  0
  -15.5355  -30.2864   23.7747 H   0  0  0  0  0  0
  -15.8684  -28.0766   22.7021 H   0  0  0  0  0  0
  -24.5927  -30.7074   25.7823 H   0  0  0  0  0  0
  -24.8996  -32.2888   26.4946 H   0  0  0  0  0  0
  -25.8109  -30.8863   27.0253 H   0  0  0  0  0  0
  -26.3020  -29.6721   24.1277 H   0  0  0  0  0  0
  -27.4210  -29.7325   25.4692 H   0  0  0  0  0  0
  -27.8841  -30.4344   23.9395 H   0  0  0  0  0  0
  -27.2685  -33.3637   26.2064 H   0  0  0  0  0  0
  -28.3906  -32.6887   25.0345 H   0  0  0  0  0  0
  -28.0761  -31.8489   26.5453 H   0  0  0  0  0  0
  -28.2556  -38.0107   24.7496 H   0  0  0  0  0  0
  -28.1078  -36.2617   24.6296 H   0  0  0  0  0  0
  -27.2266  -37.1424   25.8861 H   0  0  0  0  0  0
  -20.9405  -29.8694   21.6867 H   0  0  0  0  0  0
  -26.0166  -38.2815   24.1437 H   0  0  0  0  0  0
  -28.0114  -19.9788   21.0677 H   0  0  0  0  0  0
  -32.0392  -17.2681   20.0721 H   0  0  0  0  0  0
  -31.0991  -22.0044   20.0621 H   0  0  0  0  0  0
  -28.1772  -22.2803   20.7992 H   0  0  0  0  0  0
  -26.9593  -18.0610   22.0470 H   0  0  0  0  0  0
  -27.6245  -16.4400   21.9283 H   0  0  0  0  0  0
  -26.9316  -17.2302   20.4956 H   0  0  0  0  0  0
  -33.3055  -19.1404   19.6271 H   0  0  0  0  0  0
  -32.8720  -20.6064   20.4956 H   0  0  0  0  0  0
  -32.4035  -20.4092   18.7989 H   0  0  0  0  0  0
  -30.2303  -24.3157   19.7396 H   0  0  0  0  0  0
  -29.7693  -24.4417   21.4147 H   0  0  0  0  0  0
  -27.3516  -24.7757   20.7103 H   0  0  0  0  0  0
  -27.8779  -24.8062   19.0406 H   0  0  0  0  0  0
  -28.9396  -15.3982   21.1539 H   0  0  0  0  0  0
  1 25  1  0  0  0
  1 30  2  0  0  0
  1 83  1  0  0  0
  2  3  1  0  0  0
  2 25  1  0  0  0
  2 84  1  0  0  0
  2 85  1  0  0  0
  3  4  1  0  0  0
  3 86  1  0  0  0
  3 87  1  0  0  0
  4  5  1  0  0  0
  4 88  1  0  0  0
  4 89  1  0  0  0
  5  6  1  0  0  0
  5 26  1  0  0  0
  5 90  1  0  0  0
  6 25  1  0  0  0
  6 91  1  0  0  0
  6 92  1  0  0  0
  7  8  2  0  0  0
  7 26  1  0  0  0
  7 29  1  0  0  0
  8  9  1  0  0  0
  8 22  1  0  0  0
  9 10  1  0  0  0
  9 27  2  0  0  0
 10 11  2  0  0  0
 10 15  1  0  0  0
 11 12  1  0  0  0
 11 93  1  0  0  0
 12 13  2  0  0  0
 12 94  1  0  0  0
 13 14  1  0  0  0
 13 31  1  0  0  0
 14 15  2  0  0  0
 14 95  1  0  0  0
 15 96  1  0  0  0
 16 17  2  0  0  0
 16 21  1  0  0  0
 16 31  1  0  0  0
 17 18  1  0  0  0
 17 97  1  0  0  0
 18 19  2  0  0  0
 18 98  1  0  0  0
 19 20  1  0  0  0
 19 24  1  0  0  0
 20 21  2  0  0  0
 20 99  1  0  0  0
 21 23  1  0  0  0
 22 28  1  0  0  0
 22 32  2  0  0  0
 26 27  1  0  0  0
 28100  1  0  0  0
 28101  1  0  0  0
 29102  1  0  0  0
 29103  1  0  0  0
 33 34  1  0  0  0
 33 66  1  0  0  0
 33 70  2  0  0  0
 34 36  1  0  0  0
 34 59  1  0  0  0
 34104  1  0  0  0
 35 44  2  0  0  0
 35 45  1  0  0  0
 35 68  1  0  0  0
 36 56  1  0  0  0
 36105  1  0  0  0
 37 39  1  0  0  0
 37 47  1  0  0  0
 37 66  1  0  0  0
 37106  1  0  0  0
 38 43  2  0  0  0
 38 46  1  0  0  0
 38 47  1  0  0  0
 39 64  1  0  0  0
 39 67  2  0  0  0
 40 52  1  0  0  0
 40 53  2  0  0  0
 40 58  1  0  0  0
 41107  1  0  0  0
 41108  1  0  0  0
 41109  1  0  0  0
 41 48  1  0  0  0
 42 43  1  0  0  0
 42 66  1  0  0  0
 42110  1  0  0  0
 42111  1  0  0  0
 43 44  1  0  0  0
 44112  1  0  0  0
 45 46  2  0  0  0
 45113  1  0  0  0
 46114  1  0  0  0
 47115  1  0  0  0
 47116  1  0  0  0
 48 56  1  0  0  0
 48 65  1  0  0  0
 48117  1  0  0  0
 49 50  1  0  0  0
 49 53  1  0  0  0
 49 64  1  0  0  0
 49118  1  0  0  0
 50 51  1  0  0  0
 50119  1  0  0  0
 50120  1  0  0  0
 51 52  1  0  0  0
 51121  1  0  0  0
 51122  1  0  0  0
 52123  1  0  0  0
 52124  1  0  0  0
 53 54  1  0  0  0
 54 55  2  0  0  0
 54125  1  0  0  0
 55 57  1  0  0  0
 55126  1  0  0  0
 56 69  2  0  0  0
 57 58  2  0  0  0
 57127  1  0  0  0
 58128  1  0  0  0
 59 60  1  0  0  0
 59 61  1  0  0  0
 59 62  1  0  0  0
 60129  1  0  0  0
 60130  1  0  0  0
 60131  1  0  0  0
 61132  1  0  0  0
 61133  1  0  0  0
 61134  1  0  0  0
 62135  1  0  0  0
 62136  1  0  0  0
 62137  1  0  0  0
 63 65  1  0  0  0
 63138  1  0  0  0
 63139  1  0  0  0
 63140  1  0  0  0
 64141  1  0  0  0
 65142  1  0  0  0
 68 82  1  0  0  0
 71 73  2  0  0  0
 71 74  1  0  0  0
 71143  1  0  0  0
 72 75  2  0  0  0
 72 76  1  0  0  0
 72144  1  0  0  0
 73 75  1  0  0  0
 73 77  1  0  0  0
 74 76  2  0  0  0
 74 79  1  0  0  0
 75 80  1  0  0  0
 76 83  1  0  0  0
 77 78  2  0  0  0
 77145  1  0  0  0
 78 81  1  0  0  0
 78146  1  0  0  0
 79147  1  0  0  0
 79148  1  0  0  0
 79149  1  0  0  0
 80150  1  0  0  0
 80151  1  0  0  0
 80152  1  0  0  0
 81 82  1  0  0  0
 81153  1  0  0  0
 81154  1  0  0  0
 82155  1  0  0  0
 82156  1  0  0  0
 83157  1  0  0  0
M  ISO  4   1 100  68 101  82 101  83 100
M  END
> <chiral flag>
0

> <version>
0

> <s_m_source_file>
/data/baiqing/PycharmProjects/Reinvent-master-3.2/result/LINK_invent/BTK/process_docking_weight1_custom_product_contain_oxygen_bond_distance_aromatic_linkinvent_7_9_3/rearranged_h_0125.sdf

> <i_m_source_file_index>
71

> <r_mmod_Potential_Energy-OPLS-2005>
26.0015239715576

> <r_mmod_Stretch_Energy-OPLS-2005>
74.2763519287109

> <r_mmod_Bend_Energy-OPLS-2005>
128.627258300781

> <r_mmod_Torsional_Energy-OPLS-2005>
211.235977172852

> <r_mmod_Improper_Torsional_Energy-OPLS-2005>
5.41119766235352

> <r_mmod_Van_der_Waal_Energy-OPLS-2005>
150.989349365234

> <r_mmod_Electrostatic_Energy-OPLS-2005>
-390.564575195312

> <r_mmod_Solvation_Energy-OPLS-2005>
-199.563674926758

> <b_mmod_Minimization_Converged-OPLS-2005>
0

> <r_mmod_RMS_Derivative-OPLS-2005>
3.06903076171875

$$$$
71
                    3D
 Structure written by MMmdl.
160168  0  0  1  0            999 V2000
  -30.6799  -14.4685   20.6030 C   0  0  0  0  0  0
  -30.4081  -12.3070   19.4492 C   0  0  0  0  0  0
  -29.4980  -12.4953   18.2199 C   0  0  0  0  0  0
  -28.0150  -12.3548   18.6171 C   0  0  0  0  0  0
  -27.6504  -13.1970   19.8676 C   0  0  2  0  0  0
  -28.6758  -12.9755   20.9982 C   0  0  0  0  0  0
  -25.2523  -13.8161   20.5580 C   0  0  0  0  0  0
  -24.1788  -13.0448   20.9131 C   0  0  0  0  0  0
  -24.6339  -11.6916   20.8720 C   0  0  0  0  0  0
  -23.9027  -10.4324   21.0423 C   0  0  0  0  0  0
  -24.3591   -9.4243   21.9196 C   0  0  0  0  0  0
  -23.6287   -8.2267   22.0749 C   0  0  0  0  0  0
  -22.4257   -8.0292   21.3556 C   0  0  0  0  0  0
  -21.9884   -9.0256   20.4650 C   0  0  0  0  0  0
  -22.7194  -10.2156   20.3074 C   0  0  0  0  0  0
  -21.6840   -6.0738   22.5274 C   0  0  0  0  0  0
  -21.4015   -6.5633   23.8216 C   0  0  0  0  0  0
  -21.3664   -5.6784   24.9171 C   0  0  0  0  0  0
  -21.6060   -4.3052   24.7223 C   0  0  0  0  0  0
  -21.8821   -3.8142   23.4342 C   0  0  0  0  0  0
  -21.9200   -4.6969   22.3394 C   0  0  0  0  0  0
  -22.7841  -13.5270   21.1833 C   0  0  0  0  0  0
  -22.1670   -4.2150   21.0980 F   0  0  0  0  0  0
  -21.5630   -3.4525   25.7743 F   0  0  0  0  0  0
  -29.9965  -13.3024   20.4540 N   0  0  0  0  0  0
  -26.2926  -12.9296   20.3243 N   0  0  0  0  0  0
  -25.9258  -11.6481   20.5758 N   0  0  0  0  0  0
  -22.0498  -12.8255   22.0395 N   0  0  0  0  0  0
  -25.4278  -15.1853   20.3986 N   0  0  0  0  0  0
  -31.8402  -14.5996   20.2106 O   0  0  0  0  0  0
  -21.6624   -6.8863   21.4235 O   0  0  0  0  0  0
  -22.3559  -14.5574   20.6677 O   0  0  0  0  0  0
  -24.6196  -31.8743   23.2204 C   0  0  0  0  0  0
  -25.9080  -32.4847   23.8465 C   0  0  1  0  0  0
  -27.1937  -27.3999   20.0732 C   0  0  0  0  0  0
  -25.5921  -33.8651   24.2382 N   0  0  0  0  0  0
  -23.4071  -30.5117   21.5636 C   0  0  2  0  0  0
  -24.8450  -29.0074   20.1021 C   0  0  0  0  0  0
  -22.7503  -29.4667   22.5009 C   0  0  0  0  0  0
  -18.0333  -28.1415   22.8491 C   0  0  0  0  0  0
  -24.1494  -36.7302   23.2625 C   0  0  0  0  0  0
  -25.9498  -30.8236   21.3918 C   0  0  0  0  0  0
  -26.0173  -29.4677   20.7151 C   0  0  0  0  0  0
  -27.1961  -28.6716   20.7065 C   0  0  0  0  0  0
  -25.9966  -27.0107   19.4105 C   0  0  0  0  0  0
  -24.8313  -27.7759   19.4473 C   0  0  0  0  0  0
  -23.6168  -29.8789   20.1678 C   0  0  0  0  0  0
  -25.4120  -36.3110   24.0341 C   0  0  1  0  0  0
  -20.5931  -28.3680   23.1394 C   0  0  2  0  0  0
  -20.6851  -26.9468   22.5423 C   0  0  0  0  0  0
  -19.5824  -26.6437   21.5198 C   0  0  0  0  0  0
  -18.1992  -26.7973   22.1596 C   0  0  0  0  0  0
  -19.1575  -28.8856   23.2940 C   0  0  0  0  0  0
  -18.9486  -30.1457   23.8960 C   0  0  0  0  0  0
  -17.6487  -30.6612   24.0522 C   0  0  0  0  0  0
  -25.9056  -34.9469   23.5125 C   0  0  0  0  0  0
  -16.5381  -29.9084   23.6342 C   0  0  0  0  0  0
  -16.7306  -28.6507   23.0379 C   0  0  0  0  0  0
  -26.4498  -31.6596   25.0787 C   0  0  0  0  0  0
  -25.3760  -31.3706   26.1541 C   0  0  0  0  0  0
  -27.0335  -30.3013   24.6213 C   0  0  0  0  0  0
  -27.6081  -32.4319   25.7537 C   0  0  0  0  0  0
  -27.5579  -37.1812   24.8461 C   0  0  0  0  0  0
  -21.4194  -29.3142   22.3919 N   0  0  0  0  0  0
  -26.4290  -37.3799   23.9407 N   0  0  0  0  0  0
  -24.6752  -31.0827   22.1132 N   0  0  0  0  0  0
  -23.4320  -28.8093   23.2867 O   0  0  0  0  0  0
  -28.2884  -26.5304   20.1409 O   0  0  0  0  0  0
  -26.5597  -34.8916   22.4668 O   0  0  0  0  0  0
  -23.5364  -32.1480   23.7573 O   0  0  0  0  0  0
  -29.3716  -19.7407   20.2824 C   0  0  0  0  0  0
  -29.6441  -18.4063   20.6340 C   0  0  0  0  0  0
  -27.4910  -19.7379   21.8062 C   0  0  0  0  0  0
  -28.2374  -20.3901   20.7994 C   0  0  0  0  0  0
  -28.8082  -17.6828   21.5257 C   0  0  0  0  0  0
  -27.7725  -18.4030   22.1957 C   0  0  0  0  0  0
  -27.5776  -21.4210   19.9876 C   0  0  0  0  0  0
  -27.7603  -22.7268   19.6912 C   0  0  0  0  0  0
  -25.3906  -17.9033   23.0331 C   0  0  0  0  0  0
  -26.9033  -17.7822   23.2947 C   0  0  0  0  0  0
  -28.9756  -16.1436   21.6424 C   0  0  0  0  0  0
  -28.6993  -23.8514   20.1594 C   0  0  0  0  0  0
  -27.9186  -25.1562   19.8353 C   0  0  0  0  0  0
  -29.9724  -15.6066   20.7024 N   0  0  0  0  0  0
  -31.4555  -12.4051   19.1648 H   0  0  0  0  0  0
  -30.3066  -11.2985   19.8552 H   0  0  0  0  0  0
  -29.7524  -11.7707   17.4471 H   0  0  0  0  0  0
  -29.6733  -13.4811   17.7851 H   0  0  0  0  0  0
  -27.8226  -11.2988   18.8147 H   0  0  0  0  0  0
  -27.3731  -12.6317   17.7802 H   0  0  0  0  0  0
  -27.7018  -14.2396   19.5582 H   0  0  0  0  0  0
  -28.6496  -11.9310   21.3147 H   0  0  0  0  0  0
  -28.4333  -13.5463   21.8923 H   0  0  0  0  0  0
  -25.2752   -9.5737   22.4737 H   0  0  0  0  0  0
  -24.0030   -7.4628   22.7440 H   0  0  0  0  0  0
  -21.0824   -8.8761   19.8917 H   0  0  0  0  0  0
  -22.3640  -10.9682   19.6170 H   0  0  0  0  0  0
  -21.1996   -7.6136   23.9706 H   0  0  0  0  0  0
  -21.1481   -6.0521   25.9078 H   0  0  0  0  0  0
  -22.0596   -2.7601   23.2844 H   0  0  0  0  0  0
  -22.4093  -11.9863   22.4734 H   0  0  0  0  0  0
  -21.1132  -13.1234   22.2620 H   0  0  0  0  0  0
  -24.6774  -15.8529   20.5405 H   0  0  0  0  0  0
  -26.2832  -15.6106   20.0627 H   0  0  0  0  0  0
  -26.7140  -32.5535   23.1209 H   0  0  0  0  0  0
  -25.0142  -33.9831   25.0584 H   0  0  0  0  0  0
  -22.6934  -31.3279   21.4409 H   0  0  0  0  0  0
  -23.3764  -35.9616   23.3319 H   0  0  0  0  0  0
  -24.3575  -36.8900   22.2020 H   0  0  0  0  0  0
  -23.7237  -37.6515   23.6634 H   0  0  0  0  0  0
  -26.0866  -31.6034   20.6426 H   0  0  0  0  0  0
  -26.8262  -30.8512   22.0273 H   0  0  0  0  0  0
  -28.0859  -29.0046   21.2203 H   0  0  0  0  0  0
  -25.8849  -26.0926   18.8546 H   0  0  0  0  0  0
  -23.9381  -27.4213   18.9512 H   0  0  0  0  0  0
  -23.7284  -30.6746   19.4302 H   0  0  0  0  0  0
  -22.7358  -29.3158   19.8541 H   0  0  0  0  0  0
  -25.1294  -36.1991   25.0840 H   0  0  0  0  0  0
  -21.0053  -28.3168   24.1484 H   0  0  0  0  0  0
  -20.5696  -26.2222   23.3455 H   0  0  0  0  0  0
  -21.6764  -26.7588   22.1330 H   0  0  0  0  0  0
  -19.6733  -27.3213   20.6704 H   0  0  0  0  0  0
  -19.7024  -25.6355   21.1236 H   0  0  0  0  0  0
  -17.4344  -26.6921   21.3904 H   0  0  0  0  0  0
  -18.0288  -26.0073   22.8931 H   0  0  0  0  0  0
  -19.7991  -30.7248   24.2287 H   0  0  0  0  0  0
  -17.5014  -31.6367   24.4972 H   0  0  0  0  0  0
  -15.5375  -30.2952   23.7614 H   0  0  0  0  0  0
  -15.8687  -28.0803   22.7176 H   0  0  0  0  0  0
  -24.5958  -30.7023   25.7870 H   0  0  0  0  0  0
  -24.8961  -32.2879   26.4967 H   0  0  0  0  0  0
  -25.8145  -30.8892   27.0300 H   0  0  0  0  0  0
  -26.2894  -29.6769   24.1255 H   0  0  0  0  0  0
  -27.4033  -29.7266   25.4721 H   0  0  0  0  0  0
  -27.8776  -30.4302   23.9432 H   0  0  0  0  0  0
  -27.2701  -33.3609   26.2138 H   0  0  0  0  0  0
  -28.3871  -32.6892   25.0339 H   0  0  0  0  0  0
  -28.0769  -31.8435   26.5444 H   0  0  0  0  0  0
  -28.2612  -38.0093   24.7519 H   0  0  0  0  0  0
  -28.1071  -36.2639   24.6306 H   0  0  0  0  0  0
  -27.2290  -37.1464   25.8858 H   0  0  0  0  0  0
  -20.9233  -29.9173   21.7506 H   0  0  0  0  0  0
  -26.0193  -38.2878   24.1426 H   0  0  0  0  0  0
  -29.9647  -20.2167   19.5138 H   0  0  0  0  0  0
  -30.4719  -17.9430   20.1205 H   0  0  0  0  0  0
  -26.6161  -20.2338   22.1988 H   0  0  0  0  0  0
  -26.7556  -20.9815   19.4381 H   0  0  0  0  0  0
  -27.0541  -23.0613   18.9397 H   0  0  0  0  0  0
  -24.8206  -17.2941   23.7390 H   0  0  0  0  0  0
  -25.1365  -17.5740   22.0280 H   0  0  0  0  0  0
  -25.0520  -18.9327   23.1494 H   0  0  0  0  0  0
  -27.1288  -18.2887   24.2366 H   0  0  0  0  0  0
  -27.1495  -16.7344   23.4490 H   0  0  0  0  0  0
  -29.1956  -15.8449   22.6694 H   0  0  0  0  0  0
  -28.0077  -15.7193   21.3821 H   0  0  0  0  0  0
  -29.6364  -23.7923   19.6049 H   0  0  0  0  0  0
  -28.9191  -23.7614   21.2240 H   0  0  0  0  0  0
  -26.9729  -24.9697   20.3448 H   0  0  0  0  0  0
  -27.7490  -25.1379   18.7551 H   0  0  0  0  0  0
  -30.5352  -16.3561   20.3391 H   0  0  0  0  0  0
  1 25  1  0  0  0
  1 30  2  0  0  0
  1 84  1  0  0  0
  2  3  1  0  0  0
  2 25  1  0  0  0
  2 85  1  0  0  0
  2 86  1  0  0  0
  3  4  1  0  0  0
  3 87  1  0  0  0
  3 88  1  0  0  0
  4  5  1  0  0  0
  4 89  1  0  0  0
  4 90  1  0  0  0
  5  6  1  0  0  0
  5 26  1  0  0  0
  5 91  1  0  0  0
  6 25  1  0  0  0
  6 92  1  0  0  0
  6 93  1  0  0  0
  7  8  2  0  0  0
  7 26  1  0  0  0
  7 29  1  0  0  0
  8  9  1  0  0  0
  8 22  1  0  0  0
  9 10  1  0  0  0
  9 27  2  0  0  0
 10 11  2  0  0  0
 10 15  1  0  0  0
 11 12  1  0  0  0
 11 94  1  0  0  0
 12 13  2  0  0  0
 12 95  1  0  0  0
 13 14  1  0  0  0
 13 31  1  0  0  0
 14 15  2  0  0  0
 14 96  1  0  0  0
 15 97  1  0  0  0
 16 17  2  0  0  0
 16 21  1  0  0  0
 16 31  1  0  0  0
 17 18  1  0  0  0
 17 98  1  0  0  0
 18 19  2  0  0  0
 18 99  1  0  0  0
 19 20  1  0  0  0
 19 24  1  0  0  0
 20 21  2  0  0  0
 20100  1  0  0  0
 21 23  1  0  0  0
 22 28  1  0  0  0
 22 32  2  0  0  0
 26 27  1  0  0  0
 28101  1  0  0  0
 28102  1  0  0  0
 29103  1  0  0  0
 29104  1  0  0  0
 33 34  1  0  0  0
 33 66  1  0  0  0
 33 70  2  0  0  0
 34 36  1  0  0  0
 34 59  1  0  0  0
 34105  1  0  0  0
 35 44  2  0  0  0
 35 45  1  0  0  0
 35 68  1  0  0  0
 36 56  1  0  0  0
 36106  1  0  0  0
 37 39  1  0  0  0
 37 47  1  0  0  0
 37 66  1  0  0  0
 37107  1  0  0  0
 38 43  2  0  0  0
 38 46  1  0  0  0
 38 47  1  0  0  0
 39 64  1  0  0  0
 39 67  2  0  0  0
 40 52  1  0  0  0
 40 53  2  0  0  0
 40 58  1  0  0  0
 41108  1  0  0  0
 41109  1  0  0  0
 41110  1  0  0  0
 41 48  1  0  0  0
 42 43  1  0  0  0
 42 66  1  0  0  0
 42111  1  0  0  0
 42112  1  0  0  0
 43 44  1  0  0  0
 44113  1  0  0  0
 45 46  2  0  0  0
 45114  1  0  0  0
 46115  1  0  0  0
 47116  1  0  0  0
 47117  1  0  0  0
 48 56  1  0  0  0
 48 65  1  0  0  0
 48118  1  0  0  0
 49 50  1  0  0  0
 49 53  1  0  0  0
 49 64  1  0  0  0
 49119  1  0  0  0
 50 51  1  0  0  0
 50120  1  0  0  0
 50121  1  0  0  0
 51 52  1  0  0  0
 51122  1  0  0  0
 51123  1  0  0  0
 52124  1  0  0  0
 52125  1  0  0  0
 53 54  1  0  0  0
 54 55  2  0  0  0
 54126  1  0  0  0
 55 57  1  0  0  0
 55127  1  0  0  0
 56 69  2  0  0  0
 57 58  2  0  0  0
 57128  1  0  0  0
 58129  1  0  0  0
 59 60  1  0  0  0
 59 61  1  0  0  0
 59 62  1  0  0  0
 60130  1  0  0  0
 60131  1  0  0  0
 60132  1  0  0  0
 61133  1  0  0  0
 61134  1  0  0  0
 61135  1  0  0  0
 62136  1  0  0  0
 62137  1  0  0  0
 62138  1  0  0  0
 63 65  1  0  0  0
 63139  1  0  0  0
 63140  1  0  0  0
 63141  1  0  0  0
 64142  1  0  0  0
 65143  1  0  0  0
 68 83  1  0  0  0
 71 72  2  0  0  0
 71 74  1  0  0  0
 71144  1  0  0  0
 72 75  1  0  0  0
 72145  1  0  0  0
 73 74  2  0  0  0
 73 76  1  0  0  0
 73146  1  0  0  0
 74 77  1  0  0  0
 75 76  2  0  0  0
 75 81  1  0  0  0
 76 80  1  0  0  0
 77 78  2  0  0  0
 77147  1  0  0  0
 78 82  1  0  0  0
 78148  1  0  0  0
 79 80  1  0  0  0
 79149  1  0  0  0
 79150  1  0  0  0
 79151  1  0  0  0
 80152  1  0  0  0
 80153  1  0  0  0
 81 84  1  0  0  0
 81154  1  0  0  0
 81155  1  0  0  0
 82 83  1  0  0  0
 82156  1  0  0  0
 82157  1  0  0  0
 83158  1  0  0  0
 83159  1  0  0  0
 84160  1  0  0  0
M  ISO  4   1 100  68 101  83 101  84 100
M  END
> <chiral flag>
0

> <version>
0

> <s_m_source_file>
/data/baiqing/PycharmProjects/Reinvent-master-3.2/result/LINK_invent/BTK/process_docking_weight1_custom_product_contain_oxygen_bond_distance_aromatic_linkinvent_7_9_3/rearranged_h_0125.sdf

> <i_m_source_file_index>
72

> <r_mmod_Potential_Energy-OPLS-2005>
155.06575012207

> <r_mmod_Stretch_Energy-OPLS-2005>
44.7906684875488

> <r_mmod_Bend_Energy-OPLS-2005>
193.791381835938

> <r_mmod_Torsional_Energy-OPLS-2005>
303.159149169922

> <r_mmod_Improper_Torsional_Energy-OPLS-2005>
24.2296314239502

> <r_mmod_Van_der_Waal_Energy-OPLS-2005>
173.120239257812

> <r_mmod_Electrostatic_Energy-OPLS-2005>
-418.062957763672

> <r_mmod_Solvation_Energy-OPLS-2005>
-194.924209594727

> <b_mmod_Minimization_Converged-OPLS-2005>
0

> <r_mmod_RMS_Derivative-OPLS-2005>
7.14417362213135

$$$$
72
                    3D
 Structure written by MMmdl.
155164  0  0  1  0            999 V2000
  -30.5252  -15.0542   20.3880 C   0  0  0  0  0  0
  -30.4449  -12.6615   19.5004 C   0  0  0  0  0  0
  -29.5272  -12.5344   18.2618 C   0  0  0  0  0  0
  -28.0678  -12.2942   18.6921 C   0  0  0  0  0  0
  -27.6231  -13.2556   19.8248 C   0  0  2  0  0  0
  -28.6662  -13.3500   20.9588 C   0  0  0  0  0  0
  -25.2445  -13.8221   20.5706 C   0  0  0  0  0  0
  -24.1778  -13.0435   20.9237 C   0  0  0  0  0  0
  -24.6403  -11.6930   20.8755 C   0  0  0  0  0  0
  -23.9087  -10.4294   21.0411 C   0  0  0  0  0  0
  -24.3633   -9.4208   21.9192 C   0  0  0  0  0  0
  -23.6298   -8.2247   22.0762 C   0  0  0  0  0  0
  -22.4282   -8.0285   21.3545 C   0  0  0  0  0  0
  -21.9927   -9.0259   20.4645 C   0  0  0  0  0  0
  -22.7263  -10.2132   20.3053 C   0  0  0  0  0  0
  -21.6846   -6.0739   22.5278 C   0  0  0  0  0  0
  -21.4015   -6.5645   23.8210 C   0  0  0  0  0  0
  -21.3657   -5.6791   24.9174 C   0  0  0  0  0  0
  -21.6041   -4.3053   24.7217 C   0  0  0  0  0  0
  -21.8819   -3.8149   23.4335 C   0  0  0  0  0  0
  -21.9194   -4.6967   22.3398 C   0  0  0  0  0  0
  -22.7798  -13.5201   21.1890 C   0  0  0  0  0  0
  -22.1657   -4.2156   21.0971 F   0  0  0  0  0  0
  -21.5632   -3.4530   25.7727 F   0  0  0  0  0  0
  -29.9298  -13.7836   20.3451 N   0  0  0  0  0  0
  -26.2867  -12.9467   20.3204 N   0  0  0  0  0  0
  -25.9332  -11.6584   20.5717 N   0  0  0  0  0  0
  -22.0431  -12.8189   22.0430 N   0  0  0  0  0  0
  -25.4088  -15.1950   20.4118 N   0  0  0  0  0  0
  -31.7417  -15.0776   20.1679 O   0  0  0  0  0  0
  -21.6641   -6.8884   21.4243 O   0  0  0  0  0  0
  -22.3478  -14.5502   20.6727 O   0  0  0  0  0  0
  -24.6528  -31.8378   23.1828 C   0  0  0  0  0  0
  -25.9271  -32.4668   23.8239 C   0  0  1  0  0  0
  -27.2130  -27.0653   20.1523 C   0  0  0  0  0  0
  -25.6011  -33.8479   24.2159 N   0  0  0  0  0  0
  -23.4591  -30.4566   21.5299 C   0  0  2  0  0  0
  -24.9077  -28.8739   20.1095 C   0  0  0  0  0  0
  -22.7613  -29.4535   22.4832 C   0  0  0  0  0  0
  -18.0306  -28.1426   22.8481 C   0  0  0  0  0  0
  -24.1475  -36.7210   23.2642 C   0  0  0  0  0  0
  -26.0215  -30.6888   21.3919 C   0  0  0  0  0  0
  -26.0900  -29.2944   20.7309 C   0  0  0  0  0  0
  -27.2436  -28.4085   20.7307 C   0  0  0  0  0  0
  -25.9970  -26.7663   19.4932 C   0  0  0  0  0  0
  -24.8782  -27.6256   19.4742 C   0  0  0  0  0  0
  -23.6885  -29.7854   20.1508 C   0  0  0  0  0  0
  -25.4122  -36.3004   24.0308 C   0  0  1  0  0  0
  -20.5930  -28.3754   23.1215 C   0  0  2  0  0  0
  -20.6798  -26.9451   22.5396 C   0  0  0  0  0  0
  -19.5766  -26.6398   21.5214 C   0  0  0  0  0  0
  -18.1945  -26.7978   22.1610 C   0  0  0  0  0  0
  -19.1570  -28.8907   23.2836 C   0  0  0  0  0  0
  -18.9489  -30.1506   23.8861 C   0  0  0  0  0  0
  -17.6487  -30.6621   24.0565 C   0  0  0  0  0  0
  -25.9085  -34.9391   23.5026 C   0  0  0  0  0  0
  -16.5369  -29.9115   23.6366 C   0  0  0  0  0  0
  -16.7290  -28.6530   23.0381 C   0  0  0  0  0  0
  -26.4569  -31.6577   25.0712 C   0  0  0  0  0  0
  -25.3729  -31.3812   26.1385 C   0  0  0  0  0  0
  -27.0466  -30.2972   24.6351 C   0  0  0  0  0  0
  -27.6077  -32.4376   25.7509 C   0  0  0  0  0  0
  -27.5558  -37.1757   24.8469 C   0  0  0  0  0  0
  -21.4289  -29.3066   22.3583 N   0  0  0  0  0  0
  -26.4261  -37.3737   23.9427 N   0  0  0  0  0  0
  -24.7319  -31.0176   22.0892 N   0  0  0  0  0  0
  -23.4220  -28.8077   23.3006 O   0  0  0  0  0  0
  -28.2349  -26.0224   20.2181 O   0  0  0  0  0  0
  -26.5636  -34.8903   22.4584 O   0  0  0  0  0  0
  -23.5630  -32.1279   23.7007 O   0  0  0  0  0  0
  -31.6987  -19.6556   20.4599 C   0  0  0  0  0  0
  -31.3571  -18.2740   20.4818 C   0  0  0  0  0  0
  -29.0594  -18.9564   20.2995 C   0  0  0  0  0  0
  -29.3785  -20.4285   20.2692 C   0  0  0  0  0  0
  -30.7557  -20.7159   20.3577 C   0  0  0  0  0  0
  -30.0226  -17.8079   20.4011 C   0  0  0  0  0  0
  -28.4476  -21.7322   20.1262 C   0  0  0  0  0  0
  -28.8177  -23.1087   20.2266 C   0  0  0  0  0  0
  -31.2662  -22.1688   20.2664 C   0  0  0  0  0  0
  -30.2811  -23.3543   20.5570 C   0  0  0  0  0  0
  -27.0168  -21.3655   19.7840 C   0  0  0  0  0  0
  -27.8718  -24.4885   20.0381 C   0  0  0  0  0  0
  -29.7419  -16.2683   20.4485 N   0  0  0  0  0  0
  -31.4723  -12.8349   19.1775 H   0  0  0  0  0  0
  -30.4667  -11.7294   20.0669 H   0  0  0  0  0  0
  -29.8691  -11.7201   17.6210 H   0  0  0  0  0  0
  -29.5889  -13.4433   17.6615 H   0  0  0  0  0  0
  -27.9989  -11.2642   19.0431 H   0  0  0  0  0  0
  -27.3966  -12.3686   17.8355 H   0  0  0  0  0  0
  -27.5635  -14.2392   19.3568 H   0  0  0  0  0  0
  -28.7814  -12.3967   21.4756 H   0  0  0  0  0  0
  -28.3445  -14.0750   21.7084 H   0  0  0  0  0  0
  -25.2785   -9.5681   22.4759 H   0  0  0  0  0  0
  -24.0002   -7.4633   22.7486 H   0  0  0  0  0  0
  -21.0860   -8.8778   19.8939 H   0  0  0  0  0  0
  -22.3737  -10.9666   19.6148 H   0  0  0  0  0  0
  -21.2001   -7.6152   23.9717 H   0  0  0  0  0  0
  -21.1477   -6.0520   25.9074 H   0  0  0  0  0  0
  -22.0595   -2.7614   23.2827 H   0  0  0  0  0  0
  -22.4024  -11.9847   22.4831 H   0  0  0  0  0  0
  -21.1052  -13.1229   22.2612 H   0  0  0  0  0  0
  -24.6356  -15.8432   20.5147 H   0  0  0  0  0  0
  -26.2476  -15.6373   20.0606 H   0  0  0  0  0  0
  -26.7337  -32.5233   23.0962 H   0  0  0  0  0  0
  -25.0274  -33.9611   25.0382 H   0  0  0  0  0  0
  -22.7673  -31.2867   21.3738 H   0  0  0  0  0  0
  -23.3763  -35.9513   23.3291 H   0  0  0  0  0  0
  -24.3566  -36.8848   22.2059 H   0  0  0  0  0  0
  -23.7183  -37.6384   23.6683 H   0  0  0  0  0  0
  -26.1915  -31.4410   20.6208 H   0  0  0  0  0  0
  -26.8868  -30.7371   22.0415 H   0  0  0  0  0  0
  -28.1435  -28.7277   21.2370 H   0  0  0  0  0  0
  -25.8634  -25.8141   19.0040 H   0  0  0  0  0  0
  -23.9750  -27.2996   18.9769 H   0  0  0  0  0  0
  -23.8335  -30.5594   19.3963 H   0  0  0  0  0  0
  -22.7995  -29.2364   19.8354 H   0  0  0  0  0  0
  -25.1306  -36.1801   25.0797 H   0  0  0  0  0  0
  -21.0017  -28.3336   24.1334 H   0  0  0  0  0  0
  -20.5716  -26.2368   23.3626 H   0  0  0  0  0  0
  -21.6659  -26.7479   22.1166 H   0  0  0  0  0  0
  -19.6928  -25.6296   21.1278 H   0  0  0  0  0  0
  -19.6711  -27.3181   20.6726 H   0  0  0  0  0  0
  -17.4227  -26.6750   21.3993 H   0  0  0  0  0  0
  -18.0303  -26.0133   22.9004 H   0  0  0  0  0  0
  -19.7961  -30.7333   24.2201 H   0  0  0  0  0  0
  -17.5048  -31.6299   24.5164 H   0  0  0  0  0  0
  -15.5373  -30.3006   23.7744 H   0  0  0  0  0  0
  -15.8682  -28.0843   22.7125 H   0  0  0  0  0  0
  -24.5913  -30.7158   25.7696 H   0  0  0  0  0  0
  -24.8920  -32.3025   26.4685 H   0  0  0  0  0  0
  -25.7989  -30.9060   27.0230 H   0  0  0  0  0  0
  -26.3118  -29.6676   24.1328 H   0  0  0  0  0  0
  -27.4041  -29.7287   25.4945 H   0  0  0  0  0  0
  -27.9034  -30.4216   23.9729 H   0  0  0  0  0  0
  -27.2650  -33.3728   26.1954 H   0  0  0  0  0  0
  -28.3966  -32.6858   25.0393 H   0  0  0  0  0  0
  -28.0668  -31.8588   26.5534 H   0  0  0  0  0  0
  -28.2550  -38.0076   24.7546 H   0  0  0  0  0  0
  -28.1069  -36.2607   24.6252 H   0  0  0  0  0  0
  -27.2297  -37.1344   25.8874 H   0  0  0  0  0  0
  -20.9513  -29.8780   21.6753 H   0  0  0  0  0  0
  -26.0105  -38.2778   24.1486 H   0  0  0  0  0  0
  -32.7481  -19.9109   20.5093 H   0  0  0  0  0  0
  -32.1660  -17.5625   20.5632 H   0  0  0  0  0  0
  -28.0129  -18.6953   20.2343 H   0  0  0  0  0  0
  -31.6321  -22.2910   19.2459 H   0  0  0  0  0  0
  -32.1451  -22.2799   20.9023 H   0  0  0  0  0  0
  -30.3138  -23.5913   21.6209 H   0  0  0  0  0  0
  -30.6271  -24.2502   20.0397 H   0  0  0  0  0  0
  -26.9897  -20.7970   18.8541 H   0  0  0  0  0  0
  -26.3754  -22.2369   19.6592 H   0  0  0  0  0  0
  -26.5905  -20.7456   20.5729 H   0  0  0  0  0  0
  -26.9987  -24.3176   20.6684 H   0  0  0  0  0  0
  -27.5099  -24.3978   19.0143 H   0  0  0  0  0  0
  -28.7593  -16.0530   20.5220 H   0  0  0  0  0  0
  1 25  1  0  0  0
  1 30  2  0  0  0
  1 83  1  0  0  0
  2  3  1  0  0  0
  2 25  1  0  0  0
  2 84  1  0  0  0
  2 85  1  0  0  0
  3  4  1  0  0  0
  3 86  1  0  0  0
  3 87  1  0  0  0
  4  5  1  0  0  0
  4 88  1  0  0  0
  4 89  1  0  0  0
  5  6  1  0  0  0
  5 26  1  0  0  0
  5 90  1  0  0  0
  6 25  1  0  0  0
  6 91  1  0  0  0
  6 92  1  0  0  0
  7  8  2  0  0  0
  7 26  1  0  0  0
  7 29  1  0  0  0
  8  9  1  0  0  0
  8 22  1  0  0  0
  9 10  1  0  0  0
  9 27  2  0  0  0
 10 11  2  0  0  0
 10 15  1  0  0  0
 11 12  1  0  0  0
 11 93  1  0  0  0
 12 13  2  0  0  0
 12 94  1  0  0  0
 13 14  1  0  0  0
 13 31  1  0  0  0
 14 15  2  0  0  0
 14 95  1  0  0  0
 15 96  1  0  0  0
 16 17  2  0  0  0
 16 21  1  0  0  0
 16 31  1  0  0  0
 17 18  1  0  0  0
 17 97  1  0  0  0
 18 19  2  0  0  0
 18 98  1  0  0  0
 19 20  1  0  0  0
 19 24  1  0  0  0
 20 21  2  0  0  0
 20 99  1  0  0  0
 21 23  1  0  0  0
 22 28  1  0  0  0
 22 32  2  0  0  0
 26 27  1  0  0  0
 28100  1  0  0  0
 28101  1  0  0  0
 29102  1  0  0  0
 29103  1  0  0  0
 33 34  1  0  0  0
 33 66  1  0  0  0
 33 70  2  0  0  0
 34 36  1  0  0  0
 34 59  1  0  0  0
 34104  1  0  0  0
 35 44  2  0  0  0
 35 45  1  0  0  0
 35 68  1  0  0  0
 36 56  1  0  0  0
 36105  1  0  0  0
 37 39  1  0  0  0
 37 47  1  0  0  0
 37 66  1  0  0  0
 37106  1  0  0  0
 38 43  2  0  0  0
 38 46  1  0  0  0
 38 47  1  0  0  0
 39 64  1  0  0  0
 39 67  2  0  0  0
 40 52  1  0  0  0
 40 53  2  0  0  0
 40 58  1  0  0  0
 41107  1  0  0  0
 41108  1  0  0  0
 41109  1  0  0  0
 41 48  1  0  0  0
 42 43  1  0  0  0
 42 66  1  0  0  0
 42110  1  0  0  0
 42111  1  0  0  0
 43 44  1  0  0  0
 44112  1  0  0  0
 45 46  2  0  0  0
 45113  1  0  0  0
 46114  1  0  0  0
 47115  1  0  0  0
 47116  1  0  0  0
 48 56  1  0  0  0
 48 65  1  0  0  0
 48117  1  0  0  0
 49 50  1  0  0  0
 49 53  1  0  0  0
 49 64  1  0  0  0
 49118  1  0  0  0
 50 51  1  0  0  0
 50119  1  0  0  0
 50120  1  0  0  0
 51 52  1  0  0  0
 51121  1  0  0  0
 51122  1  0  0  0
 52123  1  0  0  0
 52124  1  0  0  0
 53 54  1  0  0  0
 54 55  2  0  0  0
 54125  1  0  0  0
 55 57  1  0  0  0
 55126  1  0  0  0
 56 69  2  0  0  0
 57 58  2  0  0  0
 57127  1  0  0  0
 58128  1  0  0  0
 59 60  1  0  0  0
 59 61  1  0  0  0
 59 62  1  0  0  0
 60129  1  0  0  0
 60130  1  0  0  0
 60131  1  0  0  0
 61132  1  0  0  0
 61133  1  0  0  0
 61134  1  0  0  0
 62135  1  0  0  0
 62136  1  0  0  0
 62137  1  0  0  0
 63 65  1  0  0  0
 63138  1  0  0  0
 63139  1  0  0  0
 63140  1  0  0  0
 64141  1  0  0  0
 65142  1  0  0  0
 68 82  1  0  0  0
 71 72  2  0  0  0
 71 75  1  0  0  0
 71143  1  0  0  0
 72 76  1  0  0  0
 72144  1  0  0  0
 73 74  1  0  0  0
 73 76  2  0  0  0
 73145  1  0  0  0
 74 75  2  0  0  0
 74 77  1  0  0  0
 75 79  1  0  0  0
 76 83  1  0  0  0
 77 78  2  0  0  0
 77 81  1  0  0  0
 78 80  1  0  0  0
 78 82  1  0  0  0
 79 80  1  0  0  0
 79146  1  0  0  0
 79147  1  0  0  0
 80148  1  0  0  0
 80149  1  0  0  0
 81150  1  0  0  0
 81151  1  0  0  0
 81152  1  0  0  0
 82153  1  0  0  0
 82154  1  0  0  0
 83155  1  0  0  0
M  ISO  4   1 100  68 101  82 101  83 100
M  END
> <chiral flag>
0

> <version>
0

> <s_m_source_file>
/data/baiqing/PycharmProjects/Reinvent-master-3.2/result/LINK_invent/BTK/process_docking_weight1_custom_product_contain_oxygen_bond_distance_aromatic_linkinvent_7_9_3/rearranged_h_0125.sdf

> <i_m_source_file_index>
73

> <r_mmod_Potential_Energy-OPLS-2005>
644.727416992188

> <r_mmod_Stretch_Energy-OPLS-2005>
319.349822998047

> <r_mmod_Bend_Energy-OPLS-2005>
266.651611328125

> <r_mmod_Torsional_Energy-OPLS-2005>
212.51399230957

> <r_mmod_Improper_Torsional_Energy-OPLS-2005>
5.00001287460327

> <r_mmod_Van_der_Waal_Energy-OPLS-2005>
135.938247680664

> <r_mmod_Electrostatic_Energy-OPLS-2005>
-360.334625244141

> <r_mmod_Solvation_Energy-OPLS-2005>
-205.924728393555

> <b_mmod_Minimization_Converged-OPLS-2005>
0

> <r_mmod_RMS_Derivative-OPLS-2005>
1.95023083686829

$$$$
73
                    3D
 Structure written by MMmdl.
160168  0  0  1  0            999 V2000
  -30.7426  -14.4585   20.6073 C   0  0  0  0  0  0
  -30.4165  -12.3120   19.4293 C   0  0  0  0  0  0
  -29.4928  -12.5096   18.2111 C   0  0  0  0  0  0
  -28.0169  -12.3644   18.6263 C   0  0  0  0  0  0
  -27.6617  -13.2131   19.8767 C   0  0  2  0  0  0
  -28.7037  -13.0111   21.0020 C   0  0  0  0  0  0
  -25.2578  -13.8166   20.5688 C   0  0  0  0  0  0
  -24.1840  -13.0434   20.9188 C   0  0  0  0  0  0
  -24.6399  -11.6904   20.8740 C   0  0  0  0  0  0
  -23.9064  -10.4291   21.0401 C   0  0  0  0  0  0
  -24.3611   -9.4208   21.9184 C   0  0  0  0  0  0
  -23.6288   -8.2241   22.0753 C   0  0  0  0  0  0
  -22.4271   -8.0282   21.3543 C   0  0  0  0  0  0
  -21.9909   -9.0254   20.4644 C   0  0  0  0  0  0
  -22.7232  -10.2133   20.3056 C   0  0  0  0  0  0
  -21.6856   -6.0735   22.5278 C   0  0  0  0  0  0
  -21.4010   -6.5638   23.8212 C   0  0  0  0  0  0
  -21.3657   -5.6789   24.9177 C   0  0  0  0  0  0
  -21.6049   -4.3053   24.7226 C   0  0  0  0  0  0
  -21.8819   -3.8145   23.4346 C   0  0  0  0  0  0
  -21.9188   -4.6961   22.3403 C   0  0  0  0  0  0
  -22.7860  -13.5234   21.1842 C   0  0  0  0  0  0
  -22.1662   -4.2145   21.0981 F   0  0  0  0  0  0
  -21.5628   -3.4539   25.7739 F   0  0  0  0  0  0
  -30.0370  -13.3039   20.4493 N   0  0  0  0  0  0
  -26.3024  -12.9354   20.3377 N   0  0  0  0  0  0
  -25.9336  -11.6505   20.5781 N   0  0  0  0  0  0
  -22.0499  -12.8230   22.0398 N   0  0  0  0  0  0
  -25.4288  -15.1873   20.4072 N   0  0  0  0  0  0
  -31.8457  -14.6276   20.0801 O   0  0  0  0  0  0
  -21.6635   -6.8875   21.4239 O   0  0  0  0  0  0
  -22.3546  -14.5541   20.6693 O   0  0  0  0  0  0
  -24.6155  -31.8719   23.2125 C   0  0  0  0  0  0
  -25.9035  -32.4855   23.8433 C   0  0  1  0  0  0
  -27.2222  -27.4224   20.0973 C   0  0  0  0  0  0
  -25.5884  -33.8646   24.2375 N   0  0  0  0  0  0
  -23.4036  -30.4975   21.5558 C   0  0  2  0  0  0
  -24.8469  -28.9742   20.1087 C   0  0  0  0  0  0
  -22.7434  -29.4670   22.5003 C   0  0  0  0  0  0
  -18.0275  -28.1360   22.8490 C   0  0  0  0  0  0
  -24.1481  -36.7323   23.2645 C   0  0  0  0  0  0
  -25.9353  -30.8382   21.3628 C   0  0  0  0  0  0
  -26.0119  -29.4725   20.7064 C   0  0  0  0  0  0
  -27.2032  -28.7069   20.6921 C   0  0  0  0  0  0
  -26.0366  -26.9576   19.4746 C   0  0  0  0  0  0
  -24.8566  -27.7180   19.4861 C   0  0  0  0  0  0
  -23.6092  -29.8397   20.1675 C   0  0  0  0  0  0
  -25.4099  -36.3145   24.0367 C   0  0  1  0  0  0
  -20.5867  -28.3656   23.1316 C   0  0  2  0  0  0
  -20.6758  -26.9387   22.5408 C   0  0  0  0  0  0
  -19.5735  -26.6380   21.5203 C   0  0  0  0  0  0
  -18.1918  -26.7910   22.1620 C   0  0  0  0  0  0
  -19.1526  -28.8827   23.2900 C   0  0  0  0  0  0
  -18.9454  -30.1437   23.8912 C   0  0  0  0  0  0
  -17.6453  -30.6571   24.0567 C   0  0  0  0  0  0
  -25.9021  -34.9498   23.5177 C   0  0  0  0  0  0
  -16.5348  -29.9077   23.6307 C   0  0  0  0  0  0
  -16.7265  -28.6486   23.0343 C   0  0  0  0  0  0
  -26.4450  -31.6606   25.0739 C   0  0  0  0  0  0
  -25.3714  -31.3675   26.1487 C   0  0  0  0  0  0
  -27.0271  -30.3072   24.6050 C   0  0  0  0  0  0
  -27.6062  -32.4294   25.7470 C   0  0  0  0  0  0
  -27.5591  -37.1812   24.8479 C   0  0  0  0  0  0
  -21.4161  -29.3037   22.3745 N   0  0  0  0  0  0
  -26.4301  -37.3818   23.9418 N   0  0  0  0  0  0
  -24.6711  -31.0822   22.1022 N   0  0  0  0  0  0
  -23.4212  -28.8205   23.3031 O   0  0  0  0  0  0
  -28.3622  -26.6336   20.1582 O   0  0  0  0  0  0
  -26.5586  -34.8949   22.4742 O   0  0  0  0  0  0
  -23.5345  -32.1463   23.7513 O   0  0  0  0  0  0
  -31.5829  -19.4555   21.6456 C   0  0  0  0  0  0
  -31.9382  -17.0530   21.8001 C   0  0  0  0  0  0
  -30.2304  -19.2623   21.2850 C   0  0  0  0  0  0
  -29.7265  -17.9220   21.2109 C   0  0  0  0  0  0
  -30.5976  -16.8080   21.4211 C   0  0  0  0  0  0
  -32.4264  -18.3646   21.9080 C   0  0  0  0  0  0
  -29.3743  -20.4533   21.0137 C   0  0  0  0  0  0
  -29.6194  -21.7538   21.3004 C   0  0  0  0  0  0
  -27.9845  -17.6397   19.3777 C   0  0  0  0  0  0
  -28.2540  -17.6695   20.8873 C   0  0  0  0  0  0
  -28.6338  -22.8671   20.9575 C   0  0  0  0  0  0
  -29.2150  -24.2884   20.7222 C   0  0  0  0  0  0
  -28.1047  -25.2142   20.1748 C   0  0  0  0  0  0
  -30.1284  -15.4554   21.2804 N   0  0  0  0  0  0
  -33.7179  -18.5785   22.2552 F   0  0  0  0  0  0
  -31.4626  -12.3950   19.1295 H   0  0  0  0  0  0
  -30.3067  -11.3049   19.8339 H   0  0  0  0  0  0
  -29.7353  -11.7832   17.4341 H   0  0  0  0  0  0
  -29.6601  -13.4947   17.7733 H   0  0  0  0  0  0
  -27.8365  -11.3093   18.8338 H   0  0  0  0  0  0
  -27.3628  -12.6261   17.7938 H   0  0  0  0  0  0
  -27.7020  -14.2583   19.5700 H   0  0  0  0  0  0
  -28.6791  -11.9816   21.3617 H   0  0  0  0  0  0
  -28.4599  -13.6267   21.8685 H   0  0  0  0  0  0
  -25.2759   -9.5683   22.4758 H   0  0  0  0  0  0
  -23.9995   -7.4634   22.7478 H   0  0  0  0  0  0
  -21.0840   -8.8771   19.8956 H   0  0  0  0  0  0
  -22.3693  -10.9669   19.6164 H   0  0  0  0  0  0
  -21.2004   -7.6144   23.9713 H   0  0  0  0  0  0
  -21.1482   -6.0522   25.9076 H   0  0  0  0  0  0
  -22.0600   -2.7606   23.2849 H   0  0  0  0  0  0
  -22.4104  -11.9887   22.4782 H   0  0  0  0  0  0
  -21.1119  -13.1266   22.2602 H   0  0  0  0  0  0
  -24.6574  -15.8391   20.4996 H   0  0  0  0  0  0
  -26.2733  -15.6179   20.0553 H   0  0  0  0  0  0
  -26.7121  -32.5577   23.1212 H   0  0  0  0  0  0
  -25.0021  -33.9811   25.0521 H   0  0  0  0  0  0
  -22.6903  -31.3135   21.4219 H   0  0  0  0  0  0
  -23.3764  -35.9637   23.3322 H   0  0  0  0  0  0
  -24.3591  -36.8910   22.2058 H   0  0  0  0  0  0
  -23.7194  -37.6527   23.6624 H   0  0  0  0  0  0
  -26.0401  -31.6062   20.5939 H   0  0  0  0  0  0
  -26.8287  -30.8975   21.9724 H   0  0  0  0  0  0
  -28.0981  -29.0842   21.1650 H   0  0  0  0  0  0
  -25.9912  -25.9973   18.9816 H   0  0  0  0  0  0
  -23.9629  -27.3322   19.0134 H   0  0  0  0  0  0
  -23.7159  -30.6196   19.4128 H   0  0  0  0  0  0
  -22.7307  -29.2630   19.8716 H   0  0  0  0  0  0
  -25.1254  -36.2051   25.0861 H   0  0  0  0  0  0
  -20.9966  -28.3218   24.1437 H   0  0  0  0  0  0
  -20.5643  -26.2269   23.3604 H   0  0  0  0  0  0
  -21.6631  -26.7414   22.1210 H   0  0  0  0  0  0
  -19.6892  -25.6300   21.1213 H   0  0  0  0  0  0
  -19.6667  -27.3212   20.6750 H   0  0  0  0  0  0
  -17.4184  -26.6675   21.4025 H   0  0  0  0  0  0
  -18.0314  -26.0046   22.9007 H   0  0  0  0  0  0
  -19.7937  -30.7244   24.2299 H   0  0  0  0  0  0
  -17.5008  -31.6253   24.5167 H   0  0  0  0  0  0
  -15.5344  -30.2983   23.7619 H   0  0  0  0  0  0
  -15.8669  -28.0817   22.7041 H   0  0  0  0  0  0
  -24.5912  -30.6990   25.7816 H   0  0  0  0  0  0
  -24.8857  -32.2802   26.4948 H   0  0  0  0  0  0
  -25.8075  -30.8843   27.0240 H   0  0  0  0  0  0
  -26.2795  -29.6847   24.1112 H   0  0  0  0  0  0
  -27.4104  -29.7272   25.4454 H   0  0  0  0  0  0
  -27.8597  -30.4447   23.9148 H   0  0  0  0  0  0
  -27.2739  -33.3611   26.2060 H   0  0  0  0  0  0
  -28.3839  -32.6818   25.0247 H   0  0  0  0  0  0
  -28.0751  -31.8389   26.5351 H   0  0  0  0  0  0
  -28.2625  -38.0097   24.7529 H   0  0  0  0  0  0
  -28.1070  -36.2627   24.6293 H   0  0  0  0  0  0
  -27.2318  -37.1461   25.8889 H   0  0  0  0  0  0
  -20.9325  -29.8802   21.7008 H   0  0  0  0  0  0
  -26.0219  -38.2920   24.1398 H   0  0  0  0  0  0
  -32.0034  -20.4467   21.7190 H   0  0  0  0  0  0
  -32.6134  -16.2340   22.0027 H   0  0  0  0  0  0
  -28.4410  -20.2587   20.5067 H   0  0  0  0  0  0
  -30.5212  -22.0548   21.8141 H   0  0  0  0  0  0
  -26.9290  -17.4618   19.1740 H   0  0  0  0  0  0
  -28.5591  -16.8516   18.8906 H   0  0  0  0  0  0
  -28.2527  -18.5856   18.9075 H   0  0  0  0  0  0
  -27.6329  -18.4232   21.3709 H   0  0  0  0  0  0
  -27.9215  -16.7348   21.3368 H   0  0  0  0  0  0
  -27.9100  -22.9191   21.7721 H   0  0  0  0  0  0
  -28.0689  -22.5565   20.0775 H   0  0  0  0  0  0
  -30.0474  -24.2570   20.0188 H   0  0  0  0  0  0
  -29.6027  -24.6838   21.6621 H   0  0  0  0  0  0
  -27.8656  -24.8843   19.1636 H   0  0  0  0  0  0
  -27.2195  -25.0281   20.7879 H   0  0  0  0  0  0
  -29.1814  -15.2644   21.5674 H   0  0  0  0  0  0
  1 25  1  0  0  0
  1 30  2  0  0  0
  1 84  1  0  0  0
  2  3  1  0  0  0
  2 25  1  0  0  0
  2 86  1  0  0  0
  2 87  1  0  0  0
  3  4  1  0  0  0
  3 88  1  0  0  0
  3 89  1  0  0  0
  4  5  1  0  0  0
  4 90  1  0  0  0
  4 91  1  0  0  0
  5  6  1  0  0  0
  5 26  1  0  0  0
  5 92  1  0  0  0
  6 25  1  0  0  0
  6 93  1  0  0  0
  6 94  1  0  0  0
  7  8  2  0  0  0
  7 26  1  0  0  0
  7 29  1  0  0  0
  8  9  1  0  0  0
  8 22  1  0  0  0
  9 10  1  0  0  0
  9 27  2  0  0  0
 10 11  2  0  0  0
 10 15  1  0  0  0
 11 12  1  0  0  0
 11 95  1  0  0  0
 12 13  2  0  0  0
 12 96  1  0  0  0
 13 14  1  0  0  0
 13 31  1  0  0  0
 14 15  2  0  0  0
 14 97  1  0  0  0
 15 98  1  0  0  0
 16 17  2  0  0  0
 16 21  1  0  0  0
 16 31  1  0  0  0
 17 18  1  0  0  0
 17 99  1  0  0  0
 18 19  2  0  0  0
 18100  1  0  0  0
 19 20  1  0  0  0
 19 24  1  0  0  0
 20 21  2  0  0  0
 20101  1  0  0  0
 21 23  1  0  0  0
 22 28  1  0  0  0
 22 32  2  0  0  0
 26 27  1  0  0  0
 28102  1  0  0  0
 28103  1  0  0  0
 29104  1  0  0  0
 29105  1  0  0  0
 33 34  1  0  0  0
 33 66  1  0  0  0
 33 70  2  0  0  0
 34 36  1  0  0  0
 34 59  1  0  0  0
 34106  1  0  0  0
 35 44  2  0  0  0
 35 45  1  0  0  0
 35 68  1  0  0  0
 36 56  1  0  0  0
 36107  1  0  0  0
 37 39  1  0  0  0
 37 47  1  0  0  0
 37 66  1  0  0  0
 37108  1  0  0  0
 38 43  2  0  0  0
 38 46  1  0  0  0
 38 47  1  0  0  0
 39 64  1  0  0  0
 39 67  2  0  0  0
 40 52  1  0  0  0
 40 53  2  0  0  0
 40 58  1  0  0  0
 41109  1  0  0  0
 41110  1  0  0  0
 41111  1  0  0  0
 41 48  1  0  0  0
 42 43  1  0  0  0
 42 66  1  0  0  0
 42112  1  0  0  0
 42113  1  0  0  0
 43 44  1  0  0  0
 44114  1  0  0  0
 45 46  2  0  0  0
 45115  1  0  0  0
 46116  1  0  0  0
 47117  1  0  0  0
 47118  1  0  0  0
 48 56  1  0  0  0
 48 65  1  0  0  0
 48119  1  0  0  0
 49 50  1  0  0  0
 49 53  1  0  0  0
 49 64  1  0  0  0
 49120  1  0  0  0
 50 51  1  0  0  0
 50121  1  0  0  0
 50122  1  0  0  0
 51 52  1  0  0  0
 51123  1  0  0  0
 51124  1  0  0  0
 52125  1  0  0  0
 52126  1  0  0  0
 53 54  1  0  0  0
 54 55  2  0  0  0
 54127  1  0  0  0
 55 57  1  0  0  0
 55128  1  0  0  0
 56 69  2  0  0  0
 57 58  2  0  0  0
 57129  1  0  0  0
 58130  1  0  0  0
 59 60  1  0  0  0
 59 61  1  0  0  0
 59 62  1  0  0  0
 60131  1  0  0  0
 60132  1  0  0  0
 60133  1  0  0  0
 61134  1  0  0  0
 61135  1  0  0  0
 61136  1  0  0  0
 62137  1  0  0  0
 62138  1  0  0  0
 62139  1  0  0  0
 63 65  1  0  0  0
 63140  1  0  0  0
 63141  1  0  0  0
 63142  1  0  0  0
 64143  1  0  0  0
 65144  1  0  0  0
 68 83  1  0  0  0
 71 73  2  0  0  0
 71 76  1  0  0  0
 71145  1  0  0  0
 72 75  1  0  0  0
 72 76  2  0  0  0
 72146  1  0  0  0
 73 74  1  0  0  0
 73 77  1  0  0  0
 74 75  2  0  0  0
 74 80  1  0  0  0
 75 84  1  0  0  0
 76 85  1  0  0  0
 77 78  2  0  0  0
 77147  1  0  0  0
 78 81  1  0  0  0
 78148  1  0  0  0
 79 80  1  0  0  0
 79149  1  0  0  0
 79150  1  0  0  0
 79151  1  0  0  0
 80152  1  0  0  0
 80153  1  0  0  0
 81 82  1  0  0  0
 81154  1  0  0  0
 81155  1  0  0  0
 82 83  1  0  0  0
 82156  1  0  0  0
 82157  1  0  0  0
 83158  1  0  0  0
 83159  1  0  0  0
 84160  1  0  0  0
M  ISO  4   1 100  68 101  83 101  84 100
M  END
> <chiral flag>
0

> <version>
0

> <s_m_source_file>
/data/baiqing/PycharmProjects/Reinvent-master-3.2/result/LINK_invent/BTK/process_docking_weight1_custom_product_contain_oxygen_bond_distance_aromatic_linkinvent_7_9_3/rearranged_h_0125.sdf

> <i_m_source_file_index>
74

> <r_mmod_Potential_Energy-OPLS-2005>
-1.74508774280548

> <r_mmod_Stretch_Energy-OPLS-2005>
43.1454696655273

> <r_mmod_Bend_Energy-OPLS-2005>
98.32958984375

> <r_mmod_Torsional_Energy-OPLS-2005>
223.055923461914

> <r_mmod_Improper_Torsional_Energy-OPLS-2005>
3.10374212265015

> <r_mmod_Van_der_Waal_Energy-OPLS-2005>
162.274444580078

> <r_mmod_Electrostatic_Energy-OPLS-2005>
-349.624847412109

> <r_mmod_Solvation_Energy-OPLS-2005>
-197.327911376953

> <b_mmod_Minimization_Converged-OPLS-2005>
0

> <r_mmod_RMS_Derivative-OPLS-2005>
1.98934376239777

$$$$
74
                    3D
 Structure written by MMmdl.
155163  0  0  1  0            999 V2000
  -30.4655  -15.1961   20.3597 C   0  0  0  0  0  0
  -30.4407  -12.7480   19.5352 C   0  0  0  0  0  0
  -29.5398  -12.5691   18.2869 C   0  0  0  0  0  0
  -28.0807  -12.3099   18.7021 C   0  0  0  0  0  0
  -27.6153  -13.2756   19.8196 C   0  0  2  0  0  0
  -28.6471  -13.4219   20.9563 C   0  0  0  0  0  0
  -25.2414  -13.8260   20.5731 C   0  0  0  0  0  0
  -24.1760  -13.0446   20.9236 C   0  0  0  0  0  0
  -24.6409  -11.6942   20.8740 C   0  0  0  0  0  0
  -23.9097  -10.4296   21.0392 C   0  0  0  0  0  0
  -24.3641   -9.4208   21.9174 C   0  0  0  0  0  0
  -23.6303   -8.2251   22.0751 C   0  0  0  0  0  0
  -22.4283   -8.0288   21.3541 C   0  0  0  0  0  0
  -21.9920   -9.0265   20.4645 C   0  0  0  0  0  0
  -22.7263  -10.2136   20.3048 C   0  0  0  0  0  0
  -21.6859   -6.0742   22.5274 C   0  0  0  0  0  0
  -21.4024   -6.5638   23.8210 C   0  0  0  0  0  0
  -21.3662   -5.6788   24.9171 C   0  0  0  0  0  0
  -21.6045   -4.3051   24.7217 C   0  0  0  0  0  0
  -21.8819   -3.8144   23.4339 C   0  0  0  0  0  0
  -21.9195   -4.6966   22.3399 C   0  0  0  0  0  0
  -22.7776  -13.5202   21.1893 C   0  0  0  0  0  0
  -22.1662   -4.2155   21.0978 F   0  0  0  0  0  0
  -21.5624   -3.4533   25.7727 F   0  0  0  0  0  0
  -29.9029  -13.8934   20.3524 N   0  0  0  0  0  0
  -26.2836  -12.9537   20.3178 N   0  0  0  0  0  0
  -25.9346  -11.6639   20.5687 N   0  0  0  0  0  0
  -22.0441  -12.8187   22.0454 N   0  0  0  0  0  0
  -25.4055  -15.1997   20.4199 N   0  0  0  0  0  0
  -31.6856  -15.1832   20.1432 O   0  0  0  0  0  0
  -21.6646   -6.8887   21.4236 O   0  0  0  0  0  0
  -22.3450  -14.5498   20.6730 O   0  0  0  0  0  0
  -24.6599  -31.8288   23.1750 C   0  0  0  0  0  0
  -25.9294  -32.4620   23.8205 C   0  0  1  0  0  0
  -27.2171  -26.9672   20.1719 C   0  0  0  0  0  0
  -25.5970  -33.8432   24.2111 N   0  0  0  0  0  0
  -23.4733  -30.4436   21.5244 C   0  0  2  0  0  0
  -24.9262  -28.8427   20.1119 C   0  0  0  0  0  0
  -22.7654  -29.4469   22.4795 C   0  0  0  0  0  0
  -18.0327  -28.1411   22.8470 C   0  0  0  0  0  0
  -24.1495  -36.7221   23.2644 C   0  0  0  0  0  0
  -26.0422  -30.6477   21.4013 C   0  0  0  0  0  0
  -26.1113  -29.2425   20.7424 C   0  0  0  0  0  0
  -27.2528  -28.3256   20.7502 C   0  0  0  0  0  0
  -26.0014  -26.7172   19.4932 C   0  0  0  0  0  0
  -24.8948  -27.5987   19.4678 C   0  0  0  0  0  0
  -23.7110  -29.7663   20.1485 C   0  0  0  0  0  0
  -25.4134  -36.2989   24.0304 C   0  0  1  0  0  0
  -20.5949  -28.3757   23.1192 C   0  0  2  0  0  0
  -20.6808  -26.9441   22.5399 C   0  0  0  0  0  0
  -19.5777  -26.6381   21.5218 C   0  0  0  0  0  0
  -18.1961  -26.7944   22.1631 C   0  0  0  0  0  0
  -19.1585  -28.8903   23.2823 C   0  0  0  0  0  0
  -18.9493  -30.1491   23.8862 C   0  0  0  0  0  0
  -17.6484  -30.6600   24.0559 C   0  0  0  0  0  0
  -25.9096  -34.9368   23.5031 C   0  0  0  0  0  0
  -16.5377  -29.9087   23.6339 C   0  0  0  0  0  0
  -16.7307  -28.6507   23.0362 C   0  0  0  0  0  0
  -26.4545  -31.6549   25.0720 C   0  0  0  0  0  0
  -25.3673  -31.3789   26.1376 C   0  0  0  0  0  0
  -27.0427  -30.2918   24.6429 C   0  0  0  0  0  0
  -27.6057  -32.4336   25.7512 C   0  0  0  0  0  0
  -27.5580  -37.1765   24.8463 C   0  0  0  0  0  0
  -21.4328  -29.3053   22.3540 N   0  0  0  0  0  0
  -26.4284  -37.3721   23.9407 N   0  0  0  0  0  0
  -24.7467  -30.9983   22.0876 N   0  0  0  0  0  0
  -23.4220  -28.8029   23.3017 O   0  0  0  0  0  0
  -28.2080  -25.8613   20.2456 O   0  0  0  0  0  0
  -26.5703  -34.8890   22.4625 O   0  0  0  0  0  0
  -23.5676  -32.1237   23.6864 O   0  0  0  0  0  0
  -29.6525  -20.6149   21.2981 C   0  0  0  0  0  0
  -29.2598  -22.0518   21.2436 C   0  0  0  0  0  0
  -28.3266  -21.6728   19.1846 C   0  0  0  0  0  0
  -29.3972  -19.5527   20.3235 C   0  0  0  0  0  0
  -28.5586  -22.7297   20.1637 C   0  0  0  0  0  0
  -28.7084  -20.2364   19.2341 C   0  0  0  0  0  0
  -30.0138  -17.9790   20.3587 C   0  0  0  0  0  0
  -29.6236  -16.5718   20.4302 C   0  0  0  0  0  0
  -26.5765  -18.0100   16.8319 C   0  0  0  0  0  0
  -28.3581  -19.4078   18.0068 C   0  0  0  0  0  0
  -27.8018  -24.2953   20.0687 C   0  0  0  0  0  0
  -26.9101  -18.8968   18.0381 C   0  0  0  0  0  0
  -31.4693  -12.9230   19.2184 H   0  0  0  0  0  0
  -30.4690  -11.8307   20.1253 H   0  0  0  0  0  0
  -29.9046  -11.7500   17.6658 H   0  0  0  0  0  0
  -29.5911  -13.4694   17.6721 H   0  0  0  0  0  0
  -28.0174  -11.2811   19.0578 H   0  0  0  0  0  0
  -27.4206  -12.3771   17.8367 H   0  0  0  0  0  0
  -27.5408  -14.2499   19.3351 H   0  0  0  0  0  0
  -28.7873  -12.4806   21.4896 H   0  0  0  0  0  0
  -28.3010  -14.1465   21.6945 H   0  0  0  0  0  0
  -25.2782   -9.5682   22.4755 H   0  0  0  0  0  0
  -24.0006   -7.4643   22.7473 H   0  0  0  0  0  0
  -21.0847   -8.8787   19.8958 H   0  0  0  0  0  0
  -22.3713  -10.9676   19.6161 H   0  0  0  0  0  0
  -21.2019   -7.6143   23.9714 H   0  0  0  0  0  0
  -21.1487   -6.0518   25.9076 H   0  0  0  0  0  0
  -22.0594   -2.7604   23.2837 H   0  0  0  0  0  0
  -22.4068  -11.9854   22.4846 H   0  0  0  0  0  0
  -21.1059  -13.1205   22.2674 H   0  0  0  0  0  0
  -24.6344  -15.8477   20.5334 H   0  0  0  0  0  0
  -26.2512  -15.6437   20.0870 H   0  0  0  0  0  0
  -26.7369  -32.5175   23.0932 H   0  0  0  0  0  0
  -25.0052  -33.9517   25.0213 H   0  0  0  0  0  0
  -22.7858  -31.2757   21.3586 H   0  0  0  0  0  0
  -23.3772  -35.9537   23.3277 H   0  0  0  0  0  0
  -24.3579  -36.8893   22.2067 H   0  0  0  0  0  0
  -23.7231  -37.6396   23.6709 H   0  0  0  0  0  0
  -26.2191  -31.3935   20.6250 H   0  0  0  0  0  0
  -26.9036  -30.7022   22.0553 H   0  0  0  0  0  0
  -28.1491  -28.6276   21.2736 H   0  0  0  0  0  0
  -25.8570  -25.7726   18.9931 H   0  0  0  0  0  0
  -23.9934  -27.2866   18.9576 H   0  0  0  0  0  0
  -23.8647  -30.5384   19.3937 H   0  0  0  0  0  0
  -22.8213  -29.2206   19.8294 H   0  0  0  0  0  0
  -25.1326  -36.1804   25.0794 H   0  0  0  0  0  0
  -21.0044  -28.3368   24.1315 H   0  0  0  0  0  0
  -20.5707  -26.2372   23.3638 H   0  0  0  0  0  0
  -21.6671  -26.7430   22.1197 H   0  0  0  0  0  0
  -19.6937  -25.6281   21.1280 H   0  0  0  0  0  0
  -19.6713  -27.3168   20.6730 H   0  0  0  0  0  0
  -17.4225  -26.6680   21.4043 H   0  0  0  0  0  0
  -18.0362  -26.0102   22.9044 H   0  0  0  0  0  0
  -19.7965  -30.7322   24.2221 H   0  0  0  0  0  0
  -17.5032  -31.6279   24.5165 H   0  0  0  0  0  0
  -15.5373  -30.2980   23.7678 H   0  0  0  0  0  0
  -15.8709  -28.0811   22.7101 H   0  0  0  0  0  0
  -24.5844  -30.7165   25.7659 H   0  0  0  0  0  0
  -24.8879  -32.2994   26.4721 H   0  0  0  0  0  0
  -25.7892  -30.8981   27.0211 H   0  0  0  0  0  0
  -26.3081  -29.6609   24.1413 H   0  0  0  0  0  0
  -27.3940  -29.7266   25.5071 H   0  0  0  0  0  0
  -27.9036  -30.4101   23.9847 H   0  0  0  0  0  0
  -27.2643  -33.3665   26.2009 H   0  0  0  0  0  0
  -28.3909  -32.6851   25.0367 H   0  0  0  0  0  0
  -28.0685  -31.8519   26.5495 H   0  0  0  0  0  0
  -28.2566  -38.0089   24.7532 H   0  0  0  0  0  0
  -28.1103  -36.2619   24.6259 H   0  0  0  0  0  0
  -27.2298  -37.1374   25.8863 H   0  0  0  0  0  0
  -20.9569  -29.8746   21.6677 H   0  0  0  0  0  0
  -26.0144  -38.2779   24.1423 H   0  0  0  0  0  0
  -30.2000  -20.3154   22.1804 H   0  0  0  0  0  0
  -29.5031  -22.6508   22.1094 H   0  0  0  0  0  0
  -27.7783  -21.9810   18.3053 H   0  0  0  0  0  0
  -31.0880  -18.0405   20.2547 H   0  0  0  0  0  0
  -28.5600  -16.4197   20.5293 H   0  0  0  0  0  0
  -25.5493  -17.6486   16.8869 H   0  0  0  0  0  0
  -27.2316  -17.1389   16.7877 H   0  0  0  0  0  0
  -26.6836  -18.5587   15.8953 H   0  0  0  0  0  0
  -29.0462  -18.5667   17.9171 H   0  0  0  0  0  0
  -28.5197  -20.0136   17.1137 H   0  0  0  0  0  0
  -26.9345  -24.1835   20.7197 H   0  0  0  0  0  0
  -27.3934  -24.2649   19.0597 H   0  0  0  0  0  0
  -26.7439  -18.3302   18.9555 H   0  0  0  0  0  0
  -26.2223  -19.7433   18.0676 H   0  0  0  0  0  0
  1 25  1  0  0  0
  1 30  2  0  0  0
  1 78  1  0  0  0
  2  3  1  0  0  0
  2 25  1  0  0  0
  2 83  1  0  0  0
  2 84  1  0  0  0
  3  4  1  0  0  0
  3 85  1  0  0  0
  3 86  1  0  0  0
  4  5  1  0  0  0
  4 87  1  0  0  0
  4 88  1  0  0  0
  5  6  1  0  0  0
  5 26  1  0  0  0
  5 89  1  0  0  0
  6 25  1  0  0  0
  6 90  1  0  0  0
  6 91  1  0  0  0
  7  8  2  0  0  0
  7 26  1  0  0  0
  7 29  1  0  0  0
  8  9  1  0  0  0
  8 22  1  0  0  0
  9 10  1  0  0  0
  9 27  2  0  0  0
 10 11  2  0  0  0
 10 15  1  0  0  0
 11 12  1  0  0  0
 11 92  1  0  0  0
 12 13  2  0  0  0
 12 93  1  0  0  0
 13 14  1  0  0  0
 13 31  1  0  0  0
 14 15  2  0  0  0
 14 94  1  0  0  0
 15 95  1  0  0  0
 16 17  2  0  0  0
 16 21  1  0  0  0
 16 31  1  0  0  0
 17 18  1  0  0  0
 17 96  1  0  0  0
 18 19  2  0  0  0
 18 97  1  0  0  0
 19 20  1  0  0  0
 19 24  1  0  0  0
 20 21  2  0  0  0
 20 98  1  0  0  0
 21 23  1  0  0  0
 22 28  1  0  0  0
 22 32  2  0  0  0
 26 27  1  0  0  0
 28 99  1  0  0  0
 28100  1  0  0  0
 29101  1  0  0  0
 29102  1  0  0  0
 33 34  1  0  0  0
 33 66  1  0  0  0
 33 70  2  0  0  0
 34 36  1  0  0  0
 34 59  1  0  0  0
 34103  1  0  0  0
 35 44  2  0  0  0
 35 45  1  0  0  0
 35 68  1  0  0  0
 36 56  1  0  0  0
 36104  1  0  0  0
 37 39  1  0  0  0
 37 47  1  0  0  0
 37 66  1  0  0  0
 37105  1  0  0  0
 38 43  2  0  0  0
 38 46  1  0  0  0
 38 47  1  0  0  0
 39 64  1  0  0  0
 39 67  2  0  0  0
 40 52  1  0  0  0
 40 53  2  0  0  0
 40 58  1  0  0  0
 41106  1  0  0  0
 41107  1  0  0  0
 41108  1  0  0  0
 41 48  1  0  0  0
 42 43  1  0  0  0
 42 66  1  0  0  0
 42109  1  0  0  0
 42110  1  0  0  0
 43 44  1  0  0  0
 44111  1  0  0  0
 45 46  2  0  0  0
 45112  1  0  0  0
 46113  1  0  0  0
 47114  1  0  0  0
 47115  1  0  0  0
 48 56  1  0  0  0
 48 65  1  0  0  0
 48116  1  0  0  0
 49 50  1  0  0  0
 49 53  1  0  0  0
 49 64  1  0  0  0
 49117  1  0  0  0
 50 51  1  0  0  0
 50118  1  0  0  0
 50119  1  0  0  0
 51 52  1  0  0  0
 51120  1  0  0  0
 51121  1  0  0  0
 52122  1  0  0  0
 52123  1  0  0  0
 53 54  1  0  0  0
 54 55  2  0  0  0
 54124  1  0  0  0
 55 57  1  0  0  0
 55125  1  0  0  0
 56 69  2  0  0  0
 57 58  2  0  0  0
 57126  1  0  0  0
 58127  1  0  0  0
 59 60  1  0  0  0
 59 61  1  0  0  0
 59 62  1  0  0  0
 60128  1  0  0  0
 60129  1  0  0  0
 60130  1  0  0  0
 61131  1  0  0  0
 61132  1  0  0  0
 61133  1  0  0  0
 62134  1  0  0  0
 62135  1  0  0  0
 62136  1  0  0  0
 63 65  1  0  0  0
 63137  1  0  0  0
 63138  1  0  0  0
 63139  1  0  0  0
 64140  1  0  0  0
 65141  1  0  0  0
 68 81  1  0  0  0
 71 72  2  0  0  0
 71 74  1  0  0  0
 71142  1  0  0  0
 72 75  1  0  0  0
 72143  1  0  0  0
 73 75  2  0  0  0
 73 76  1  0  0  0
 73144  1  0  0  0
 74 76  2  0  0  0
 74 77  1  0  0  0
 75 81  1  0  0  0
 76 80  1  0  0  0
 77 78  2  0  0  0
 77145  1  0  0  0
 78146  1  0  0  0
 79 82  1  0  0  0
 79147  1  0  0  0
 79148  1  0  0  0
 79149  1  0  0  0
 80 82  1  0  0  0
 80150  1  0  0  0
 80151  1  0  0  0
 81152  1  0  0  0
 81153  1  0  0  0
 82154  1  0  0  0
 82155  1  0  0  0
M  ISO  4   1 100  68 101  78 100  81 101
M  END
> <chiral flag>
0

> <version>
0

> <s_m_source_file>
/data/baiqing/PycharmProjects/Reinvent-master-3.2/result/LINK_invent/BTK/process_docking_weight1_custom_product_contain_oxygen_bond_distance_aromatic_linkinvent_7_9_3/rearranged_h_0125.sdf

> <i_m_source_file_index>
75

> <r_mmod_Potential_Energy-OPLS-2005>
1091.81018066406

> <r_mmod_Stretch_Energy-OPLS-2005>
450.738891601562

> <r_mmod_Bend_Energy-OPLS-2005>
394.631225585938

> <r_mmod_Torsional_Energy-OPLS-2005>
223.873138427734

> <r_mmod_Improper_Torsional_Energy-OPLS-2005>
7.62687921524048

> <r_mmod_Van_der_Waal_Energy-OPLS-2005>
128.034927368164

> <r_mmod_Electrostatic_Energy-OPLS-2005>
-317.746154785156

> <r_mmod_Solvation_Energy-OPLS-2005>
-189.551467895508

> <b_mmod_Minimization_Converged-OPLS-2005>
0

> <r_mmod_RMS_Derivative-OPLS-2005>
1.25270760059357

$$$$
75
                    3D
 Structure written by MMmdl.
153161  0  0  1  0            999 V2000
  -30.6489  -14.6697   20.4435 C   0  0  0  0  0  0
  -30.4286  -12.3966   19.4750 C   0  0  0  0  0  0
  -29.5124  -12.4785   18.2357 C   0  0  0  0  0  0
  -28.0345  -12.3279   18.6452 C   0  0  0  0  0  0
  -27.6492  -13.2273   19.8528 C   0  0  2  0  0  0
  -28.6940  -13.1409   20.9886 C   0  0  0  0  0  0
  -25.2519  -13.8193   20.5659 C   0  0  0  0  0  0
  -24.1806  -13.0440   20.9206 C   0  0  0  0  0  0
  -24.6409  -11.6926   20.8765 C   0  0  0  0  0  0
  -23.9077  -10.4298   21.0410 C   0  0  0  0  0  0
  -24.3625   -9.4187   21.9171 C   0  0  0  0  0  0
  -23.6291   -8.2225   22.0744 C   0  0  0  0  0  0
  -22.4270   -8.0274   21.3541 C   0  0  0  0  0  0
  -21.9907   -9.0257   20.4648 C   0  0  0  0  0  0
  -22.7246  -10.2134   20.3053 C   0  0  0  0  0  0
  -21.6853   -6.0717   22.5277 C   0  0  0  0  0  0
  -21.4024   -6.5620   23.8214 C   0  0  0  0  0  0
  -21.3674   -5.6777   24.9177 C   0  0  0  0  0  0
  -21.6055   -4.3037   24.7225 C   0  0  0  0  0  0
  -21.8821   -3.8124   23.4344 C   0  0  0  0  0  0
  -21.9185   -4.6942   22.3400 C   0  0  0  0  0  0
  -22.7817  -13.5205   21.1840 C   0  0  0  0  0  0
  -22.1635   -4.2128   21.0973 F   0  0  0  0  0  0
  -21.5631   -3.4522   25.7738 F   0  0  0  0  0  0
  -30.0099  -13.4566   20.4159 N   0  0  0  0  0  0
  -26.2976  -12.9407   20.3287 N   0  0  0  0  0  0
  -25.9341  -11.6557   20.5771 N   0  0  0  0  0  0
  -22.0446  -12.8252   22.0430 N   0  0  0  0  0  0
  -25.4183  -15.1920   20.4062 N   0  0  0  0  0  0
  -31.8242  -14.7680   20.0831 O   0  0  0  0  0  0
  -21.6637   -6.8863   21.4239 O   0  0  0  0  0  0
  -22.3484  -14.5478   20.6622 O   0  0  0  0  0  0
  -24.6281  -31.8580   23.2003 C   0  0  0  0  0  0
  -25.9105  -32.4769   23.8364 C   0  0  1  0  0  0
  -27.2281  -27.2908   20.1081 C   0  0  0  0  0  0
  -25.5897  -33.8578   24.2254 N   0  0  0  0  0  0
  -23.4259  -30.4835   21.5401 C   0  0  2  0  0  0
  -24.8752  -28.9380   20.1069 C   0  0  0  0  0  0
  -22.7488  -29.4623   22.4860 C   0  0  0  0  0  0
  -18.0305  -28.1372   22.8484 C   0  0  0  0  0  0
  -24.1482  -36.7305   23.2640 C   0  0  0  0  0  0
  -25.9730  -30.7733   21.3868 C   0  0  0  0  0  0
  -26.0456  -29.4027   20.7199 C   0  0  0  0  0  0
  -27.2239  -28.5911   20.7123 C   0  0  0  0  0  0
  -26.0337  -26.8956   19.4607 C   0  0  0  0  0  0
  -24.8724  -27.6882   19.4718 C   0  0  0  0  0  0
  -23.6457  -29.8237   20.1539 C   0  0  0  0  0  0
  -25.4104  -36.3072   24.0322 C   0  0  1  0  0  0
  -20.5907  -28.3694   23.1236 C   0  0  2  0  0  0
  -20.6785  -26.9405   22.5382 C   0  0  0  0  0  0
  -19.5762  -26.6362   21.5182 C   0  0  0  0  0  0
  -18.1947  -26.7923   22.1611 C   0  0  0  0  0  0
  -19.1559  -28.8848   23.2872 C   0  0  0  0  0  0
  -18.9481  -30.1441   23.8902 C   0  0  0  0  0  0
  -17.6483  -30.6580   24.0555 C   0  0  0  0  0  0
  -25.9046  -34.9450   23.5096 C   0  0  0  0  0  0
  -16.5373  -29.9082   23.6317 C   0  0  0  0  0  0
  -16.7298  -28.6493   23.0353 C   0  0  0  0  0  0
  -26.4455  -31.6634   25.0787 C   0  0  0  0  0  0
  -25.3661  -31.3875   26.1506 C   0  0  0  0  0  0
  -27.0286  -30.3022   24.6362 C   0  0  0  0  0  0
  -27.5996  -32.4413   25.7569 C   0  0  0  0  0  0
  -27.5583  -37.1788   24.8444 C   0  0  0  0  0  0
  -21.4196  -29.3059   22.3617 N   0  0  0  0  0  0
  -26.4273  -37.3768   23.9415 N   0  0  0  0  0  0
  -24.6935  -31.0569   22.0973 N   0  0  0  0  0  0
  -23.4195  -28.8147   23.2936 O   0  0  0  0  0  0
  -28.3300  -26.4073   20.1744 O   0  0  0  0  0  0
  -26.5635  -34.8926   22.4674 O   0  0  0  0  0  0
  -23.5431  -32.1401   23.7287 O   0  0  0  0  0  0
  -29.4203  -19.6984   19.9475 C   0  0  0  0  0  0
  -29.9221  -21.0770   21.8814 C   0  0  0  0  0  0
  -30.4530  -18.6712   21.8959 C   0  0  0  0  0  0
  -29.3953  -21.0032   20.5734 C   0  0  0  0  0  0
  -29.9359  -18.5097   20.5947 C   0  0  0  0  0  0
  -30.4486  -19.9355   22.5257 C   0  0  0  0  0  0
  -28.7650  -22.2860   19.8905 C   0  0  0  0  0  0
  -30.0497  -17.1122   19.8746 C   0  0  0  0  0  0
  -29.0755  -23.7865   20.3951 C   0  0  0  0  0  0
  -28.1229  -24.9604   19.8526 C   0  0  0  0  0  0
  -29.8775  -15.7943   20.6035 N   0  0  0  0  0  0
  -30.9641  -20.0568   23.7713 F   0  0  0  0  0  0
  -31.4734  -12.4938   19.1734 H   0  0  0  0  0  0
  -30.3451  -11.4215   19.9556 H   0  0  0  0  0  0
  -29.7800  -11.6952   17.5252 H   0  0  0  0  0  0
  -29.6642  -13.4286   17.7211 H   0  0  0  0  0  0
  -27.8771  -11.2795   18.9015 H   0  0  0  0  0  0
  -27.3836  -12.5283   17.7943 H   0  0  0  0  0  0
  -27.6495  -14.2520   19.4805 H   0  0  0  0  0  0
  -28.7063  -12.1441   21.4330 H   0  0  0  0  0  0
  -28.4420  -13.8316   21.7951 H   0  0  0  0  0  0
  -25.2772   -9.5642   22.4725 H   0  0  0  0  0  0
  -23.9992   -7.4617   22.7470 H   0  0  0  0  0  0
  -21.0818   -8.8803   19.8976 H   0  0  0  0  0  0
  -22.3714  -10.9666   19.6155 H   0  0  0  0  0  0
  -21.2030   -7.6131   23.9715 H   0  0  0  0  0  0
  -21.1487   -6.0497   25.9082 H   0  0  0  0  0  0
  -22.0587   -2.7580   23.2856 H   0  0  0  0  0  0
  -22.4063  -11.9972   22.4931 H   0  0  0  0  0  0
  -21.1057  -13.1303   22.2580 H   0  0  0  0  0  0
  -24.6493  -15.8431   20.5215 H   0  0  0  0  0  0
  -26.2596  -15.6366   20.0598 H   0  0  0  0  0  0
  -26.7188  -32.5402   23.1120 H   0  0  0  0  0  0
  -24.9948  -33.9710   25.0333 H   0  0  0  0  0  0
  -22.7224  -31.3060   21.3947 H   0  0  0  0  0  0
  -23.3731  -35.9645   23.3273 H   0  0  0  0  0  0
  -24.3587  -36.8964   22.2062 H   0  0  0  0  0  0
  -23.7243  -37.6502   23.6690 H   0  0  0  0  0  0
  -26.1266  -31.5409   20.6276 H   0  0  0  0  0  0
  -26.8434  -30.8060   22.0313 H   0  0  0  0  0  0
  -28.1196  -28.9436   21.2050 H   0  0  0  0  0  0
  -25.9623  -25.9510   18.9432 H   0  0  0  0  0  0
  -23.9783  -27.3247   18.9846 H   0  0  0  0  0  0
  -23.7775  -30.6041   19.4031 H   0  0  0  0  0  0
  -22.7649  -29.2606   19.8428 H   0  0  0  0  0  0
  -25.1276  -36.1909   25.0810 H   0  0  0  0  0  0
  -21.0042  -28.3277   24.1338 H   0  0  0  0  0  0
  -20.5630  -26.2321   23.3593 H   0  0  0  0  0  0
  -21.6656  -26.7386   22.1200 H   0  0  0  0  0  0
  -19.6907  -25.6259   21.1245 H   0  0  0  0  0  0
  -19.6697  -27.3141   20.6681 H   0  0  0  0  0  0
  -17.4203  -26.6654   21.4029 H   0  0  0  0  0  0
  -18.0379  -26.0058   22.9013 H   0  0  0  0  0  0
  -19.7959  -30.7243   24.2288 H   0  0  0  0  0  0
  -17.5044  -31.6265   24.5145 H   0  0  0  0  0  0
  -15.5380  -30.2989   23.7617 H   0  0  0  0  0  0
  -15.8700  -28.0800   22.7074 H   0  0  0  0  0  0
  -24.5714  -30.7381   25.7823 H   0  0  0  0  0  0
  -24.9007  -32.3106   26.4983 H   0  0  0  0  0  0
  -25.7914  -30.8957   27.0261 H   0  0  0  0  0  0
  -26.2904  -29.6820   24.1264 H   0  0  0  0  0  0
  -27.3742  -29.7273   25.4962 H   0  0  0  0  0  0
  -27.8891  -30.4241   23.9780 H   0  0  0  0  0  0
  -27.2525  -33.3637   26.2258 H   0  0  0  0  0  0
  -28.3749  -32.7134   25.0392 H   0  0  0  0  0  0
  -28.0754  -31.8516   26.5413 H   0  0  0  0  0  0
  -28.2543  -38.0134   24.7507 H   0  0  0  0  0  0
  -28.1122  -36.2653   24.6211 H   0  0  0  0  0  0
  -27.2321  -37.1395   25.8852 H   0  0  0  0  0  0
  -20.9343  -29.8878   21.6919 H   0  0  0  0  0  0
  -26.0143  -38.2832   24.1438 H   0  0  0  0  0  0
  -29.0356  -19.6042   18.9412 H   0  0  0  0  0  0
  -29.9261  -22.0133   22.4206 H   0  0  0  0  0  0
  -30.8865  -17.8268   22.4125 H   0  0  0  0  0  0
  -27.6854  -22.1395   19.9365 H   0  0  0  0  0  0
  -29.0128  -22.2331   18.8285 H   0  0  0  0  0  0
  -31.0213  -17.1076   19.3770 H   0  0  0  0  0  0
  -29.3281  -17.1045   19.0564 H   0  0  0  0  0  0
  -30.1124  -24.0243   20.1586 H   0  0  0  0  0  0
  -29.0053  -23.8115   21.4820 H   0  0  0  0  0  0
  -27.1359  -24.6699   20.2113 H   0  0  0  0  0  0
  -28.0906  -24.8817   18.7651 H   0  0  0  0  0  0
  -28.9469  -15.6173   20.9514 H   0  0  0  0  0  0
  1 25  1  0  0  0
  1 30  2  0  0  0
  1 81  1  0  0  0
  2  3  1  0  0  0
  2 25  1  0  0  0
  2 83  1  0  0  0
  2 84  1  0  0  0
  3  4  1  0  0  0
  3 85  1  0  0  0
  3 86  1  0  0  0
  4  5  1  0  0  0
  4 87  1  0  0  0
  4 88  1  0  0  0
  5  6  1  0  0  0
  5 26  1  0  0  0
  5 89  1  0  0  0
  6 25  1  0  0  0
  6 90  1  0  0  0
  6 91  1  0  0  0
  7  8  2  0  0  0
  7 26  1  0  0  0
  7 29  1  0  0  0
  8  9  1  0  0  0
  8 22  1  0  0  0
  9 10  1  0  0  0
  9 27  2  0  0  0
 10 11  2  0  0  0
 10 15  1  0  0  0
 11 12  1  0  0  0
 11 92  1  0  0  0
 12 13  2  0  0  0
 12 93  1  0  0  0
 13 14  1  0  0  0
 13 31  1  0  0  0
 14 15  2  0  0  0
 14 94  1  0  0  0
 15 95  1  0  0  0
 16 17  2  0  0  0
 16 21  1  0  0  0
 16 31  1  0  0  0
 17 18  1  0  0  0
 17 96  1  0  0  0
 18 19  2  0  0  0
 18 97  1  0  0  0
 19 20  1  0  0  0
 19 24  1  0  0  0
 20 21  2  0  0  0
 20 98  1  0  0  0
 21 23  1  0  0  0
 22 28  1  0  0  0
 22 32  2  0  0  0
 26 27  1  0  0  0
 28 99  1  0  0  0
 28100  1  0  0  0
 29101  1  0  0  0
 29102  1  0  0  0
 33 34  1  0  0  0
 33 66  1  0  0  0
 33 70  2  0  0  0
 34 36  1  0  0  0
 34 59  1  0  0  0
 34103  1  0  0  0
 35 44  2  0  0  0
 35 45  1  0  0  0
 35 68  1  0  0  0
 36 56  1  0  0  0
 36104  1  0  0  0
 37 39  1  0  0  0
 37 47  1  0  0  0
 37 66  1  0  0  0
 37105  1  0  0  0
 38 43  2  0  0  0
 38 46  1  0  0  0
 38 47  1  0  0  0
 39 64  1  0  0  0
 39 67  2  0  0  0
 40 52  1  0  0  0
 40 53  2  0  0  0
 40 58  1  0  0  0
 41106  1  0  0  0
 41107  1  0  0  0
 41108  1  0  0  0
 41 48  1  0  0  0
 42 43  1  0  0  0
 42 66  1  0  0  0
 42109  1  0  0  0
 42110  1  0  0  0
 43 44  1  0  0  0
 44111  1  0  0  0
 45 46  2  0  0  0
 45112  1  0  0  0
 46113  1  0  0  0
 47114  1  0  0  0
 47115  1  0  0  0
 48 56  1  0  0  0
 48 65  1  0  0  0
 48116  1  0  0  0
 49 50  1  0  0  0
 49 53  1  0  0  0
 49 64  1  0  0  0
 49117  1  0  0  0
 50 51  1  0  0  0
 50118  1  0  0  0
 50119  1  0  0  0
 51 52  1  0  0  0
 51120  1  0  0  0
 51121  1  0  0  0
 52122  1  0  0  0
 52123  1  0  0  0
 53 54  1  0  0  0
 54 55  2  0  0  0
 54124  1  0  0  0
 55 57  1  0  0  0
 55125  1  0  0  0
 56 69  2  0  0  0
 57 58  2  0  0  0
 57126  1  0  0  0
 58127  1  0  0  0
 59 60  1  0  0  0
 59 61  1  0  0  0
 59 62  1  0  0  0
 60128  1  0  0  0
 60129  1  0  0  0
 60130  1  0  0  0
 61131  1  0  0  0
 61132  1  0  0  0
 61133  1  0  0  0
 62134  1  0  0  0
 62135  1  0  0  0
 62136  1  0  0  0
 63 65  1  0  0  0
 63137  1  0  0  0
 63138  1  0  0  0
 63139  1  0  0  0
 64140  1  0  0  0
 65141  1  0  0  0
 68 80  1  0  0  0
 71 74  2  0  0  0
 71 75  1  0  0  0
 71142  1  0  0  0
 72 74  1  0  0  0
 72 76  2  0  0  0
 72143  1  0  0  0
 73 75  2  0  0  0
 73 76  1  0  0  0
 73144  1  0  0  0
 74 77  1  0  0  0
 75 78  1  0  0  0
 76 82  1  0  0  0
 77 79  1  0  0  0
 77145  1  0  0  0
 77146  1  0  0  0
 78 81  1  0  0  0
 78147  1  0  0  0
 78148  1  0  0  0
 79 80  1  0  0  0
 79149  1  0  0  0
 79150  1  0  0  0
 80151  1  0  0  0
 80152  1  0  0  0
 81153  1  0  0  0
M  ISO  4   1 100  68 101  80 101  81 100
M  END
> <chiral flag>
0

> <version>
0

> <s_m_source_file>
/data/baiqing/PycharmProjects/Reinvent-master-3.2/result/LINK_invent/BTK/process_docking_weight1_custom_product_contain_oxygen_bond_distance_aromatic_linkinvent_7_9_3/rearranged_h_0125.sdf

> <i_m_source_file_index>
76

> <r_mmod_Potential_Energy-OPLS-2005>
54.7952842712402

> <r_mmod_Stretch_Energy-OPLS-2005>
97.7068786621094

> <r_mmod_Bend_Energy-OPLS-2005>
144.373245239258

> <r_mmod_Torsional_Energy-OPLS-2005>
210.028198242188

> <r_mmod_Improper_Torsional_Energy-OPLS-2005>
8.69361114501953

> <r_mmod_Van_der_Waal_Energy-OPLS-2005>
142.223220825195

> <r_mmod_Electrostatic_Energy-OPLS-2005>
-405.726837158203

> <r_mmod_Solvation_Energy-OPLS-2005>
-207.350570678711

> <b_mmod_Minimization_Converged-OPLS-2005>
0

> <r_mmod_RMS_Derivative-OPLS-2005>
3.07244968414307

$$$$
76
                    3D
 Structure written by MMmdl.
157165  0  0  1  0            999 V2000
  -30.7604  -14.4236   20.5595 C   0  0  0  0  0  0
  -30.3975  -12.2738   19.4313 C   0  0  0  0  0  0
  -29.4903  -12.5003   18.2071 C   0  0  0  0  0  0
  -28.0095  -12.3719   18.6110 C   0  0  0  0  0  0
  -27.6549  -13.2160   19.8662 C   0  0  2  0  0  0
  -28.6955  -13.0302   20.9933 C   0  0  0  0  0  0
  -25.2565  -13.8173   20.5660 C   0  0  0  0  0  0
  -24.1824  -13.0446   20.9170 C   0  0  0  0  0  0
  -24.6377  -11.6916   20.8714 C   0  0  0  0  0  0
  -23.9043  -10.4292   21.0382 C   0  0  0  0  0  0
  -24.3597   -9.4214   21.9172 C   0  0  0  0  0  0
  -23.6289   -8.2240   22.0748 C   0  0  0  0  0  0
  -22.4271   -8.0264   21.3541 C   0  0  0  0  0  0
  -21.9885   -9.0227   20.4643 C   0  0  0  0  0  0
  -22.7206  -10.2114   20.3037 C   0  0  0  0  0  0
  -21.6849   -6.0741   22.5284 C   0  0  0  0  0  0
  -21.4018   -6.5649   23.8217 C   0  0  0  0  0  0
  -21.3655   -5.6794   24.9180 C   0  0  0  0  0  0
  -21.6035   -4.3060   24.7228 C   0  0  0  0  0  0
  -21.8825   -3.8148   23.4350 C   0  0  0  0  0  0
  -21.9196   -4.6964   22.3410 C   0  0  0  0  0  0
  -22.7851  -13.5248   21.1854 C   0  0  0  0  0  0
  -22.1664   -4.2149   21.0989 F   0  0  0  0  0  0
  -21.5620   -3.4543   25.7743 F   0  0  0  0  0  0
  -30.0306  -13.2830   20.4363 N   0  0  0  0  0  0
  -26.2998  -12.9362   20.3329 N   0  0  0  0  0  0
  -25.9316  -11.6512   20.5755 N   0  0  0  0  0  0
  -22.0495  -12.8224   22.0401 N   0  0  0  0  0  0
  -25.4271  -15.1893   20.4061 N   0  0  0  0  0  0
  -31.9174  -14.4974   20.1380 O   0  0  0  0  0  0
  -21.6635   -6.8868   21.4241 O   0  0  0  0  0  0
  -22.3538  -14.5566   20.6724 O   0  0  0  0  0  0
  -24.6133  -31.8704   23.2118 C   0  0  0  0  0  0
  -25.9038  -32.4830   23.8414 C   0  0  1  0  0  0
  -27.2219  -27.4516   20.1013 C   0  0  0  0  0  0
  -25.5919  -33.8631   24.2345 N   0  0  0  0  0  0
  -23.3986  -30.4971   21.5518 C   0  0  2  0  0  0
  -24.8417  -28.9672   20.1118 C   0  0  0  0  0  0
  -22.7406  -29.4679   22.4992 C   0  0  0  0  0  0
  -18.0267  -28.1378   22.8487 C   0  0  0  0  0  0
  -24.1479  -36.7313   23.2638 C   0  0  0  0  0  0
  -25.9260  -30.8423   21.3604 C   0  0  0  0  0  0
  -26.0018  -29.4797   20.7068 C   0  0  0  0  0  0
  -27.1973  -28.7305   20.6951 C   0  0  0  0  0  0
  -26.0479  -26.9526   19.4924 C   0  0  0  0  0  0
  -24.8594  -27.7032   19.4990 C   0  0  0  0  0  0
  -23.6044  -29.8327   20.1643 C   0  0  0  0  0  0
  -25.4102  -36.3125   24.0344 C   0  0  1  0  0  0
  -20.5862  -28.3655   23.1330 C   0  0  2  0  0  0
  -20.6752  -26.9397   22.5423 C   0  0  0  0  0  0
  -19.5740  -26.6386   21.5213 C   0  0  0  0  0  0
  -18.1916  -26.7929   22.1615 C   0  0  0  0  0  0
  -19.1519  -28.8824   23.2911 C   0  0  0  0  0  0
  -18.9445  -30.1426   23.8914 C   0  0  0  0  0  0
  -17.6450  -30.6580   24.0554 C   0  0  0  0  0  0
  -25.9038  -34.9490   23.5140 C   0  0  0  0  0  0
  -16.5334  -29.9083   23.6331 C   0  0  0  0  0  0
  -16.7255  -28.6507   23.0337 C   0  0  0  0  0  0
  -26.4472  -31.6602   25.0732 C   0  0  0  0  0  0
  -25.3761  -31.3724   26.1511 C   0  0  0  0  0  0
  -27.0263  -30.3034   24.6088 C   0  0  0  0  0  0
  -27.6081  -32.4293   25.7470 C   0  0  0  0  0  0
  -27.5589  -37.1805   24.8455 C   0  0  0  0  0  0
  -21.4135  -29.3034   22.3739 N   0  0  0  0  0  0
  -26.4280  -37.3818   23.9431 N   0  0  0  0  0  0
  -24.6646  -31.0832   22.1001 N   0  0  0  0  0  0
  -23.4196  -28.8226   23.3027 O   0  0  0  0  0  0
  -28.3773  -26.7084   20.1457 O   0  0  0  0  0  0
  -26.5589  -34.8944   22.4693 O   0  0  0  0  0  0
  -23.5332  -32.1449   23.7528 O   0  0  0  0  0  0
  -31.0991  -18.8583   22.5596 C   0  0  0  0  0  0
  -31.0025  -20.2618   22.4969 C   0  0  0  0  0  0
  -29.5532  -18.6730   20.6925 C   0  0  0  0  0  0
  -30.4291  -18.0601   21.6131 C   0  0  0  0  0  0
  -30.2476  -20.8848   21.4799 C   0  0  0  0  0  0
  -29.4800  -20.0809   20.5965 C   0  0  0  0  0  0
  -30.7924  -16.6430   21.4816 C   0  0  0  0  0  0
  -30.0588  -15.6399   20.9509 C   0  0  0  0  0  0
  -29.3310  -24.6856   21.1368 C   0  0  0  0  0  0
  -28.6352  -20.6864   19.4868 C   0  0  0  0  0  0
  -30.4006  -22.3910   21.2840 C   0  0  0  0  0  0
  -29.1538  -23.2343   21.5943 C   0  0  0  0  0  0
  -28.1605  -25.3111   20.3757 C   0  0  0  0  0  0
  -30.3705  -25.3132   21.3712 O   0  0  0  0  0  0
  -31.4486  -12.3169   19.1389 H   0  0  0  0  0  0
  -30.2458  -11.2710   19.8348 H   0  0  0  0  0  0
  -29.7299  -11.7837   17.4206 H   0  0  0  0  0  0
  -29.6741  -13.4900   17.7858 H   0  0  0  0  0  0
  -27.8093  -11.3177   18.8033 H   0  0  0  0  0  0
  -27.3649  -12.6532   17.7772 H   0  0  0  0  0  0
  -27.6889  -14.2595   19.5549 H   0  0  0  0  0  0
  -28.6549  -12.0161   21.3906 H   0  0  0  0  0  0
  -28.4750  -13.6882   21.8358 H   0  0  0  0  0  0
  -25.2742   -9.5708   22.4745 H   0  0  0  0  0  0
  -24.0009   -7.4628   22.7462 H   0  0  0  0  0  0
  -21.0816   -8.8721   19.8959 H   0  0  0  0  0  0
  -22.3647  -10.9630   19.6136 H   0  0  0  0  0  0
  -21.2009   -7.6158   23.9724 H   0  0  0  0  0  0
  -21.1478   -6.0529   25.9084 H   0  0  0  0  0  0
  -22.0605   -2.7611   23.2842 H   0  0  0  0  0  0
  -22.4096  -11.9878   22.4782 H   0  0  0  0  0  0
  -21.1111  -13.1237   22.2613 H   0  0  0  0  0  0
  -24.6598  -15.8429   20.5125 H   0  0  0  0  0  0
  -26.2879  -15.6302   20.1067 H   0  0  0  0  0  0
  -26.7113  -32.5545   23.1188 H   0  0  0  0  0  0
  -25.0095  -33.9791   25.0501 H   0  0  0  0  0  0
  -22.6866  -31.3142   21.4171 H   0  0  0  0  0  0
  -23.3764  -35.9621   23.3265 H   0  0  0  0  0  0
  -24.3579  -36.8954   22.2060 H   0  0  0  0  0  0
  -23.7190  -37.6493   23.6657 H   0  0  0  0  0  0
  -26.0370  -31.6084   20.5914 H   0  0  0  0  0  0
  -26.8148  -30.8938   21.9776 H   0  0  0  0  0  0
  -28.0904  -29.1174   21.1653 H   0  0  0  0  0  0
  -26.0383  -25.9855   19.0102 H   0  0  0  0  0  0
  -23.9692  -27.3063   19.0308 H   0  0  0  0  0  0
  -23.7112  -30.6101   19.4070 H   0  0  0  0  0  0
  -22.7276  -29.2540   19.8687 H   0  0  0  0  0  0
  -25.1271  -36.1983   25.0833 H   0  0  0  0  0  0
  -20.9950  -28.3198   24.1453 H   0  0  0  0  0  0
  -20.5640  -26.2264   23.3602 H   0  0  0  0  0  0
  -21.6617  -26.7425   22.1217 H   0  0  0  0  0  0
  -19.6889  -25.6299   21.1240 H   0  0  0  0  0  0
  -19.6704  -27.3206   20.6757 H   0  0  0  0  0  0
  -17.4200  -26.6674   21.4005 H   0  0  0  0  0  0
  -18.0302  -26.0062   22.8997 H   0  0  0  0  0  0
  -19.7920  -30.7231   24.2296 H   0  0  0  0  0  0
  -17.5010  -31.6262   24.5147 H   0  0  0  0  0  0
  -15.5333  -30.2980   23.7673 H   0  0  0  0  0  0
  -15.8654  -28.0845   22.7032 H   0  0  0  0  0  0
  -24.5851  -30.7173   25.7845 H   0  0  0  0  0  0
  -24.9069  -32.2900   26.5075 H   0  0  0  0  0  0
  -25.8119  -30.8778   27.0198 H   0  0  0  0  0  0
  -26.2768  -29.6808   24.1190 H   0  0  0  0  0  0
  -27.4075  -29.7272   25.4525 H   0  0  0  0  0  0
  -27.8603  -30.4336   23.9187 H   0  0  0  0  0  0
  -27.2748  -33.3616   26.2042 H   0  0  0  0  0  0
  -28.3898  -32.6801   25.0283 H   0  0  0  0  0  0
  -28.0736  -31.8406   26.5382 H   0  0  0  0  0  0
  -28.2588  -38.0126   24.7559 H   0  0  0  0  0  0
  -28.1111  -36.2669   24.6195 H   0  0  0  0  0  0
  -27.2329  -37.1341   25.8862 H   0  0  0  0  0  0
  -20.9278  -29.8770   21.6982 H   0  0  0  0  0  0
  -26.0172  -38.2891   24.1471 H   0  0  0  0  0  0
  -31.7631  -18.4037   23.2827 H   0  0  0  0  0  0
  -31.5894  -20.8548   23.1847 H   0  0  0  0  0  0
  -29.0299  -18.0664   19.9670 H   0  0  0  0  0  0
  -31.8215  -16.4365   21.7475 H   0  0  0  0  0  0
  -29.0117  -15.7734   20.7278 H   0  0  0  0  0  0
  -28.3590  -19.9324   18.7492 H   0  0  0  0  0  0
  -29.1678  -21.4743   18.9539 H   0  0  0  0  0  0
  -27.7117  -21.0983   19.8927 H   0  0  0  0  0  0
  -30.7337  -22.5693   20.2611 H   0  0  0  0  0  0
  -31.2214  -22.7447   21.9098 H   0  0  0  0  0  0
  -28.2784  -22.8296   21.0913 H   0  0  0  0  0  0
  -28.9353  -23.2159   22.6625 H   0  0  0  0  0  0
  -27.2637  -25.1517   20.9773 H   0  0  0  0  0  0
  -28.0218  -24.7887   19.4285 H   0  0  0  0  0  0
  1 25  1  0  0  0
  1 30  2  0  0  0
  1 78  1  0  0  0
  2  3  1  0  0  0
  2 25  1  0  0  0
  2 85  1  0  0  0
  2 86  1  0  0  0
  3  4  1  0  0  0
  3 87  1  0  0  0
  3 88  1  0  0  0
  4  5  1  0  0  0
  4 89  1  0  0  0
  4 90  1  0  0  0
  5  6  1  0  0  0
  5 26  1  0  0  0
  5 91  1  0  0  0
  6 25  1  0  0  0
  6 92  1  0  0  0
  6 93  1  0  0  0
  7  8  2  0  0  0
  7 26  1  0  0  0
  7 29  1  0  0  0
  8  9  1  0  0  0
  8 22  1  0  0  0
  9 10  1  0  0  0
  9 27  2  0  0  0
 10 11  2  0  0  0
 10 15  1  0  0  0
 11 12  1  0  0  0
 11 94  1  0  0  0
 12 13  2  0  0  0
 12 95  1  0  0  0
 13 14  1  0  0  0
 13 31  1  0  0  0
 14 15  2  0  0  0
 14 96  1  0  0  0
 15 97  1  0  0  0
 16 17  2  0  0  0
 16 21  1  0  0  0
 16 31  1  0  0  0
 17 18  1  0  0  0
 17 98  1  0  0  0
 18 19  2  0  0  0
 18 99  1  0  0  0
 19 20  1  0  0  0
 19 24  1  0  0  0
 20 21  2  0  0  0
 20100  1  0  0  0
 21 23  1  0  0  0
 22 28  1  0  0  0
 22 32  2  0  0  0
 26 27  1  0  0  0
 28101  1  0  0  0
 28102  1  0  0  0
 29103  1  0  0  0
 29104  1  0  0  0
 33 34  1  0  0  0
 33 66  1  0  0  0
 33 70  2  0  0  0
 34 36  1  0  0  0
 34 59  1  0  0  0
 34105  1  0  0  0
 35 44  2  0  0  0
 35 45  1  0  0  0
 35 68  1  0  0  0
 36 56  1  0  0  0
 36106  1  0  0  0
 37 39  1  0  0  0
 37 47  1  0  0  0
 37 66  1  0  0  0
 37107  1  0  0  0
 38 43  2  0  0  0
 38 46  1  0  0  0
 38 47  1  0  0  0
 39 64  1  0  0  0
 39 67  2  0  0  0
 40 52  1  0  0  0
 40 53  2  0  0  0
 40 58  1  0  0  0
 41108  1  0  0  0
 41109  1  0  0  0
 41110  1  0  0  0
 41 48  1  0  0  0
 42 43  1  0  0  0
 42 66  1  0  0  0
 42111  1  0  0  0
 42112  1  0  0  0
 43 44  1  0  0  0
 44113  1  0  0  0
 45 46  2  0  0  0
 45114  1  0  0  0
 46115  1  0  0  0
 47116  1  0  0  0
 47117  1  0  0  0
 48 56  1  0  0  0
 48 65  1  0  0  0
 48118  1  0  0  0
 49 50  1  0  0  0
 49 53  1  0  0  0
 49 64  1  0  0  0
 49119  1  0  0  0
 50 51  1  0  0  0
 50120  1  0  0  0
 50121  1  0  0  0
 51 52  1  0  0  0
 51122  1  0  0  0
 51123  1  0  0  0
 52124  1  0  0  0
 52125  1  0  0  0
 53 54  1  0  0  0
 54 55  2  0  0  0
 54126  1  0  0  0
 55 57  1  0  0  0
 55127  1  0  0  0
 56 69  2  0  0  0
 57 58  2  0  0  0
 57128  1  0  0  0
 58129  1  0  0  0
 59 60  1  0  0  0
 59 61  1  0  0  0
 59 62  1  0  0  0
 60130  1  0  0  0
 60131  1  0  0  0
 60132  1  0  0  0
 61133  1  0  0  0
 61134  1  0  0  0
 61135  1  0  0  0
 62136  1  0  0  0
 62137  1  0  0  0
 62138  1  0  0  0
 63 65  1  0  0  0
 63139  1  0  0  0
 63140  1  0  0  0
 63141  1  0  0  0
 64142  1  0  0  0
 65143  1  0  0  0
 68 83  1  0  0  0
 71 72  2  0  0  0
 71 74  1  0  0  0
 71144  1  0  0  0
 72 75  1  0  0  0
 72145  1  0  0  0
 73 74  2  0  0  0
 73 76  1  0  0  0
 73146  1  0  0  0
 74 77  1  0  0  0
 75 76  2  0  0  0
 75 81  1  0  0  0
 76 80  1  0  0  0
 77 78  2  0  0  0
 77147  1  0  0  0
 78148  1  0  0  0
 79 82  1  0  0  0
 79 83  1  0  0  0
 79 84  2  0  0  0
 80149  1  0  0  0
 80150  1  0  0  0
 80151  1  0  0  0
 81 82  1  0  0  0
 81152  1  0  0  0
 81153  1  0  0  0
 82154  1  0  0  0
 82155  1  0  0  0
 83156  1  0  0  0
 83157  1  0  0  0
M  ISO  4   1 100  68 101  78 100  83 101
M  END
> <chiral flag>
0

> <version>
0

> <s_m_source_file>
/data/baiqing/PycharmProjects/Reinvent-master-3.2/result/LINK_invent/BTK/process_docking_weight1_custom_product_contain_oxygen_bond_distance_aromatic_linkinvent_7_9_3/rearranged_h_0125.sdf

> <i_m_source_file_index>
77

> <r_mmod_Potential_Energy-OPLS-2005>
-15.5651731491089

> <r_mmod_Stretch_Energy-OPLS-2005>
32.6843223571777

> <r_mmod_Bend_Energy-OPLS-2005>
92.1823654174805

> <r_mmod_Torsional_Energy-OPLS-2005>
220.451293945312

> <r_mmod_Improper_Torsional_Energy-OPLS-2005>
10.6034965515137

> <r_mmod_Van_der_Waal_Energy-OPLS-2005>
161.186584472656

> <r_mmod_Electrostatic_Energy-OPLS-2005>
-334.656555175781

> <r_mmod_Solvation_Energy-OPLS-2005>
-215.396774291992

> <b_mmod_Minimization_Converged-OPLS-2005>
0

> <r_mmod_RMS_Derivative-OPLS-2005>
2.08839511871338

$$$$
77
                    3D
 Structure written by MMmdl.
156164  0  0  1  0            999 V2000
  -30.6070  -14.6936   20.4976 C   0  0  0  0  0  0
  -30.4410  -12.4318   19.4588 C   0  0  0  0  0  0
  -29.5230  -12.5497   18.2241 C   0  0  0  0  0  0
  -28.0394  -12.3833   18.6116 C   0  0  0  0  0  0
  -27.6601  -13.2296   19.8602 C   0  0  2  0  0  0
  -28.7000  -13.0771   20.9900 C   0  0  0  0  0  0
  -25.2631  -13.8207   20.5665 C   0  0  0  0  0  0
  -24.1910  -13.0430   20.9139 C   0  0  0  0  0  0
  -24.6501  -11.6936   20.8723 C   0  0  0  0  0  0
  -23.9198  -10.4296   21.0387 C   0  0  0  0  0  0
  -24.3755   -9.4221   21.9180 C   0  0  0  0  0  0
  -23.6390   -8.2269   22.0768 C   0  0  0  0  0  0
  -22.4371   -8.0304   21.3565 C   0  0  0  0  0  0
  -22.0033   -9.0270   20.4655 C   0  0  0  0  0  0
  -22.7376  -10.2131   20.3033 C   0  0  0  0  0  0
  -21.6888   -6.0791   22.5315 C   0  0  0  0  0  0
  -21.3996   -6.5695   23.8249 C   0  0  0  0  0  0
  -21.3639   -5.6836   24.9202 C   0  0  0  0  0  0
  -21.6046   -4.3100   24.7264 C   0  0  0  0  0  0
  -21.8825   -3.8209   23.4383 C   0  0  0  0  0  0
  -21.9202   -4.7018   22.3415 C   0  0  0  0  0  0
  -22.7919  -13.5221   21.1791 C   0  0  0  0  0  0
  -22.1671   -4.2218   21.0997 F   0  0  0  0  0  0
  -21.5632   -3.4580   25.7767 F   0  0  0  0  0  0
  -30.0039  -13.4565   20.4356 N   0  0  0  0  0  0
  -26.3074  -12.9378   20.3294 N   0  0  0  0  0  0
  -25.9448  -11.6530   20.5742 N   0  0  0  0  0  0
  -22.0550  -12.8201   22.0336 N   0  0  0  0  0  0
  -25.4401  -15.1899   20.4146 N   0  0  0  0  0  0
  -31.7415  -14.8181   20.0245 O   0  0  0  0  0  0
  -21.6689   -6.8945   21.4296 O   0  0  0  0  0  0
  -22.3592  -14.5500   20.6594 O   0  0  0  0  0  0
  -24.6313  -31.8582   23.2110 C   0  0  0  0  0  0
  -25.9178  -32.4736   23.8419 C   0  0  1  0  0  0
  -27.1837  -27.2455   20.1627 C   0  0  0  0  0  0
  -25.5997  -33.8559   24.2301 N   0  0  0  0  0  0
  -23.4229  -30.4875   21.5502 C   0  0  2  0  0  0
  -24.8713  -28.9528   20.0999 C   0  0  0  0  0  0
  -22.7465  -29.4627   22.4937 C   0  0  0  0  0  0
  -18.0276  -28.1414   22.8534 C   0  0  0  0  0  0
  -24.1499  -36.7218   23.2665 C   0  0  0  0  0  0
  -25.9734  -30.7552   21.4111 C   0  0  0  0  0  0
  -26.0374  -29.3871   20.7440 C   0  0  0  0  0  0
  -27.1926  -28.5413   20.7803 C   0  0  0  0  0  0
  -26.0183  -26.9127   19.4342 C   0  0  0  0  0  0
  -24.8729  -27.7254   19.4265 C   0  0  0  0  0  0
  -23.6390  -29.8353   20.1614 C   0  0  0  0  0  0
  -25.4142  -36.3021   24.0334 C   0  0  1  0  0  0
  -20.5881  -28.3685   23.1322 C   0  0  2  0  0  0
  -20.6791  -26.9410   22.5416 C   0  0  0  0  0  0
  -19.5727  -26.6389   21.5266 C   0  0  0  0  0  0
  -18.1903  -26.7982   22.1629 C   0  0  0  0  0  0
  -19.1534  -28.8873   23.2923 C   0  0  0  0  0  0
  -18.9455  -30.1482   23.8938 C   0  0  0  0  0  0
  -17.6450  -30.6641   24.0550 C   0  0  0  0  0  0
  -25.9094  -34.9408   23.5097 C   0  0  0  0  0  0
  -16.5333  -29.9112   23.6392 C   0  0  0  0  0  0
  -16.7255  -28.6513   23.0453 C   0  0  0  0  0  0
  -26.4577  -31.6609   25.0831 C   0  0  0  0  0  0
  -25.3759  -31.3712   26.1490 C   0  0  0  0  0  0
  -27.0515  -30.3016   24.6473 C   0  0  0  0  0  0
  -27.6130  -32.4404   25.7559 C   0  0  0  0  0  0
  -27.5581  -37.1768   24.8470 C   0  0  0  0  0  0
  -21.4170  -29.3027   22.3698 N   0  0  0  0  0  0
  -26.4279  -37.3746   23.9442 N   0  0  0  0  0  0
  -24.6924  -31.0543   22.1099 N   0  0  0  0  0  0
  -23.4150  -28.8180   23.3055 O   0  0  0  0  0  0
  -28.2180  -26.2867   20.3004 O   0  0  0  0  0  0
  -26.5618  -34.8876   22.4637 O   0  0  0  0  0  0
  -23.5476  -32.1437   23.7412 O   0  0  0  0  0  0
  -29.1696  -19.7460   20.6719 C   0  0  0  0  0  0
  -29.7896  -18.5588   22.6889 C   0  0  0  0  0  0
  -29.5745  -18.4976   21.2996 C   0  0  0  0  0  0
  -29.1758  -21.0465   21.3309 C   0  0  0  0  0  0
  -29.6885  -21.0271   22.6683 C   0  0  0  0  0  0
  -29.8825  -19.7944   23.3488 C   0  0  0  0  0  0
  -29.9316  -17.1630   20.6190 C   0  0  0  0  0  0
  -28.6794  -22.3378   20.6066 C   0  0  0  0  0  0
  -29.8852  -15.8665   21.1070 C   0  0  0  0  0  0
  -28.4906  -23.6672   20.9729 C   0  0  0  0  0  0
  -31.3398  -22.9744   22.6569 C   0  0  0  0  0  0
  -30.1625  -22.2875   23.3874 C   0  0  0  0  0  0
  -27.8530  -24.8330   20.1081 C   0  0  0  0  0  0
  -30.2448  -19.7844   24.6562 F   0  0  0  0  0  0
  -31.4824  -12.5549   19.1608 H   0  0  0  0  0  0
  -30.3874  -11.4308   19.8897 H   0  0  0  0  0  0
  -29.8040  -11.8201   17.4636 H   0  0  0  0  0  0
  -29.6692  -13.5275   17.7629 H   0  0  0  0  0  0
  -27.8588  -11.3267   18.8032 H   0  0  0  0  0  0
  -27.4028  -12.6523   17.7667 H   0  0  0  0  0  0
  -27.6811  -14.2710   19.5370 H   0  0  0  0  0  0
  -28.7269  -12.0421   21.3349 H   0  0  0  0  0  0
  -28.4407  -13.6774   21.8592 H   0  0  0  0  0  0
  -25.2904   -9.5691   22.4758 H   0  0  0  0  0  0
  -24.0105   -7.4702   22.7528 H   0  0  0  0  0  0
  -21.0959   -8.8813   19.8977 H   0  0  0  0  0  0
  -22.3871  -10.9680   19.6139 H   0  0  0  0  0  0
  -21.1949   -7.6194   23.9777 H   0  0  0  0  0  0
  -21.1448   -6.0559   25.9107 H   0  0  0  0  0  0
  -22.0612   -2.7681   23.2892 H   0  0  0  0  0  0
  -22.4192  -11.9872   22.4708 H   0  0  0  0  0  0
  -21.1148  -13.1197   22.2478 H   0  0  0  0  0  0
  -24.6952  -15.8640   20.5514 H   0  0  0  0  0  0
  -26.3161  -15.6229   20.1368 H   0  0  0  0  0  0
  -26.7237  -32.5356   23.1160 H   0  0  0  0  0  0
  -25.0187  -33.9729   25.0472 H   0  0  0  0  0  0
  -22.7156  -31.3112   21.4198 H   0  0  0  0  0  0
  -23.3785  -35.9508   23.3270 H   0  0  0  0  0  0
  -24.3592  -36.8922   22.2084 H   0  0  0  0  0  0
  -23.7222  -37.6386   23.6751 H   0  0  0  0  0  0
  -26.1483  -31.5235   20.6587 H   0  0  0  0  0  0
  -26.8351  -30.7776   22.0659 H   0  0  0  0  0  0
  -28.0557  -28.8428   21.3561 H   0  0  0  0  0  0
  -25.9377  -25.9888   18.8810 H   0  0  0  0  0  0
  -23.9986  -27.3926   18.8851 H   0  0  0  0  0  0
  -23.7436  -30.6207   19.4128 H   0  0  0  0  0  0
  -22.7558  -29.2673   19.8587 H   0  0  0  0  0  0
  -25.1342  -36.1845   25.0828 H   0  0  0  0  0  0
  -20.9984  -28.3264   24.1435 H   0  0  0  0  0  0
  -20.5797  -26.2263   23.3600 H   0  0  0  0  0  0
  -21.6638  -26.7535   22.1137 H   0  0  0  0  0  0
  -19.6883  -25.6299   21.1292 H   0  0  0  0  0  0
  -19.6714  -27.3209   20.6810 H   0  0  0  0  0  0
  -17.4198  -26.6816   21.3985 H   0  0  0  0  0  0
  -18.0215  -26.0107   22.8996 H   0  0  0  0  0  0
  -19.7905  -30.7310   24.2319 H   0  0  0  0  0  0
  -17.4986  -31.6357   24.5059 H   0  0  0  0  0  0
  -15.5337  -30.2995   23.7771 H   0  0  0  0  0  0
  -15.8627  -28.0811   22.7269 H   0  0  0  0  0  0
  -24.6022  -30.7010   25.7738 H   0  0  0  0  0  0
  -24.8850  -32.2826   26.4902 H   0  0  0  0  0  0
  -25.8027  -30.8863   27.0274 H   0  0  0  0  0  0
  -26.3182  -29.6636   24.1524 H   0  0  0  0  0  0
  -27.4157  -29.7459   25.5136 H   0  0  0  0  0  0
  -27.9063  -30.4267   23.9822 H   0  0  0  0  0  0
  -27.2820  -33.3796   26.2015 H   0  0  0  0  0  0
  -28.3977  -32.6835   25.0372 H   0  0  0  0  0  0
  -28.0758  -31.8611   26.5565 H   0  0  0  0  0  0
  -28.2543  -38.0121   24.7609 H   0  0  0  0  0  0
  -28.1156  -36.2670   24.6199 H   0  0  0  0  0  0
  -27.2291  -37.1261   25.8865 H   0  0  0  0  0  0
  -20.9361  -29.8603   21.6786 H   0  0  0  0  0  0
  -26.0125  -38.2786   24.1533 H   0  0  0  0  0  0
  -28.8865  -19.7217   19.6299 H   0  0  0  0  0  0
  -30.0310  -17.6667   23.2474 H   0  0  0  0  0  0
  -30.4128  -17.2944   19.6555 H   0  0  0  0  0  0
  -28.3897  -22.1370   19.5857 H   0  0  0  0  0  0
  -29.3627  -15.6933   22.0372 H   0  0  0  0  0  0
  -28.7187  -23.9915   21.9708 H   0  0  0  0  0  0
  -31.7187  -23.8253   23.2262 H   0  0  0  0  0  0
  -31.0741  -23.3298   21.6606 H   0  0  0  0  0  0
  -32.1727  -22.2840   22.5153 H   0  0  0  0  0  0
  -30.5372  -22.0348   24.3774 H   0  0  0  0  0  0
  -29.3262  -22.9488   23.5965 H   0  0  0  0  0  0
  -26.8005  -24.7065   20.3662 H   0  0  0  0  0  0
  -27.9470  -24.5722   19.0536 H   0  0  0  0  0  0
  1 25  1  0  0  0
  1 30  2  0  0  0
  1 79  1  0  0  0
  2  3  1  0  0  0
  2 25  1  0  0  0
  2 85  1  0  0  0
  2 86  1  0  0  0
  3  4  1  0  0  0
  3 87  1  0  0  0
  3 88  1  0  0  0
  4  5  1  0  0  0
  4 89  1  0  0  0
  4 90  1  0  0  0
  5  6  1  0  0  0
  5 26  1  0  0  0
  5 91  1  0  0  0
  6 25  1  0  0  0
  6 92  1  0  0  0
  6 93  1  0  0  0
  7  8  2  0  0  0
  7 26  1  0  0  0
  7 29  1  0  0  0
  8  9  1  0  0  0
  8 22  1  0  0  0
  9 10  1  0  0  0
  9 27  2  0  0  0
 10 11  2  0  0  0
 10 15  1  0  0  0
 11 12  1  0  0  0
 11 94  1  0  0  0
 12 13  2  0  0  0
 12 95  1  0  0  0
 13 14  1  0  0  0
 13 31  1  0  0  0
 14 15  2  0  0  0
 14 96  1  0  0  0
 15 97  1  0  0  0
 16 17  2  0  0  0
 16 21  1  0  0  0
 16 31  1  0  0  0
 17 18  1  0  0  0
 17 98  1  0  0  0
 18 19  2  0  0  0
 18 99  1  0  0  0
 19 20  1  0  0  0
 19 24  1  0  0  0
 20 21  2  0  0  0
 20100  1  0  0  0
 21 23  1  0  0  0
 22 28  1  0  0  0
 22 32  2  0  0  0
 26 27  1  0  0  0
 28101  1  0  0  0
 28102  1  0  0  0
 29103  1  0  0  0
 29104  1  0  0  0
 33 34  1  0  0  0
 33 66  1  0  0  0
 33 70  2  0  0  0
 34 36  1  0  0  0
 34 59  1  0  0  0
 34105  1  0  0  0
 35 44  2  0  0  0
 35 45  1  0  0  0
 35 68  1  0  0  0
 36 56  1  0  0  0
 36106  1  0  0  0
 37 39  1  0  0  0
 37 47  1  0  0  0
 37 66  1  0  0  0
 37107  1  0  0  0
 38 43  2  0  0  0
 38 46  1  0  0  0
 38 47  1  0  0  0
 39 64  1  0  0  0
 39 67  2  0  0  0
 40 52  1  0  0  0
 40 53  2  0  0  0
 40 58  1  0  0  0
 41108  1  0  0  0
 41109  1  0  0  0
 41110  1  0  0  0
 41 48  1  0  0  0
 42 43  1  0  0  0
 42 66  1  0  0  0
 42111  1  0  0  0
 42112  1  0  0  0
 43 44  1  0  0  0
 44113  1  0  0  0
 45 46  2  0  0  0
 45114  1  0  0  0
 46115  1  0  0  0
 47116  1  0  0  0
 47117  1  0  0  0
 48 56  1  0  0  0
 48 65  1  0  0  0
 48118  1  0  0  0
 49 50  1  0  0  0
 49 53  1  0  0  0
 49 64  1  0  0  0
 49119  1  0  0  0
 50 51  1  0  0  0
 50120  1  0  0  0
 50121  1  0  0  0
 51 52  1  0  0  0
 51122  1  0  0  0
 51123  1  0  0  0
 52124  1  0  0  0
 52125  1  0  0  0
 53 54  1  0  0  0
 54 55  2  0  0  0
 54126  1  0  0  0
 55 57  1  0  0  0
 55127  1  0  0  0
 56 69  2  0  0  0
 57 58  2  0  0  0
 57128  1  0  0  0
 58129  1  0  0  0
 59 60  1  0  0  0
 59 61  1  0  0  0
 59 62  1  0  0  0
 60130  1  0  0  0
 60131  1  0  0  0
 60132  1  0  0  0
 61133  1  0  0  0
 61134  1  0  0  0
 61135  1  0  0  0
 62136  1  0  0  0
 62137  1  0  0  0
 62138  1  0  0  0
 63 65  1  0  0  0
 63139  1  0  0  0
 63140  1  0  0  0
 63141  1  0  0  0
 64142  1  0  0  0
 65143  1  0  0  0
 68 83  1  0  0  0
 71 73  2  0  0  0
 71 74  1  0  0  0
 71144  1  0  0  0
 72 73  1  0  0  0
 72 76  2  0  0  0
 72145  1  0  0  0
 73 77  1  0  0  0
 74 75  2  0  0  0
 74 78  1  0  0  0
 75 76  1  0  0  0
 75 82  1  0  0  0
 76 84  1  0  0  0
 77 79  2  0  0  0
 77146  1  0  0  0
 78 80  2  0  0  0
 78147  1  0  0  0
 79148  1  0  0  0
 80 83  1  0  0  0
 80149  1  0  0  0
 81 82  1  0  0  0
 81150  1  0  0  0
 81151  1  0  0  0
 81152  1  0  0  0
 82153  1  0  0  0
 82154  1  0  0  0
 83155  1  0  0  0
 83156  1  0  0  0
M  ISO  4   1 100  68 101  79 100  83 101
M  END
> <chiral flag>
0

> <version>
0

> <s_m_source_file>
/data/baiqing/PycharmProjects/Reinvent-master-3.2/result/LINK_invent/BTK/process_docking_weight1_custom_product_contain_oxygen_bond_distance_aromatic_linkinvent_7_9_3/rearranged_h_0125.sdf

> <i_m_source_file_index>
78

> <r_mmod_Potential_Energy-OPLS-2005>
253.463287353516

> <r_mmod_Stretch_Energy-OPLS-2005>
120.361053466797

> <r_mmod_Bend_Energy-OPLS-2005>
164.103378295898

> <r_mmod_Torsional_Energy-OPLS-2005>
230.275863647461

> <r_mmod_Improper_Torsional_Energy-OPLS-2005>
6.98736476898193

> <r_mmod_Van_der_Waal_Energy-OPLS-2005>
158.249923706055

> <r_mmod_Electrostatic_Energy-OPLS-2005>
-327.628051757812

> <r_mmod_Solvation_Energy-OPLS-2005>
-188.076889038086

> <b_mmod_Minimization_Converged-OPLS-2005>
0

> <r_mmod_RMS_Derivative-OPLS-2005>
6.65972137451172

$$$$
78
                    3D
 Structure written by MMmdl.
161169  0  0  1  0            999 V2000
  -30.6700  -14.5891   20.4522 C   0  0  0  0  0  0
  -30.4125  -12.3499   19.4566 C   0  0  0  0  0  0
  -29.5040  -12.5175   18.2201 C   0  0  0  0  0  0
  -28.0243  -12.3505   18.6145 C   0  0  0  0  0  0
  -27.6446  -13.2149   19.8454 C   0  0  2  0  0  0
  -28.6876  -13.0930   20.9797 C   0  0  0  0  0  0
  -25.2547  -13.8138   20.5629 C   0  0  0  0  0  0
  -24.1829  -13.0411   20.9155 C   0  0  0  0  0  0
  -24.6406  -11.6870   20.8735 C   0  0  0  0  0  0
  -23.9068  -10.4265   21.0399 C   0  0  0  0  0  0
  -24.3603   -9.4167   21.9179 C   0  0  0  0  0  0
  -23.6271   -8.2222   22.0770 C   0  0  0  0  0  0
  -22.4275   -8.0264   21.3548 C   0  0  0  0  0  0
  -21.9894   -9.0217   20.4643 C   0  0  0  0  0  0
  -22.7225  -10.2101   20.3061 C   0  0  0  0  0  0
  -21.6858   -6.0697   22.5263 C   0  0  0  0  0  0
  -21.4019   -6.5615   23.8189 C   0  0  0  0  0  0
  -21.3680   -5.6779   24.9169 C   0  0  0  0  0  0
  -21.6063   -4.3043   24.7230 C   0  0  0  0  0  0
  -21.8821   -3.8114   23.4361 C   0  0  0  0  0  0
  -21.9188   -4.6913   22.3398 C   0  0  0  0  0  0
  -22.7842  -13.5180   21.1824 C   0  0  0  0  0  0
  -22.1645   -4.2090   21.0966 F   0  0  0  0  0  0
  -21.5651   -3.4546   25.7761 F   0  0  0  0  0  0
  -30.0160  -13.3886   20.4249 N   0  0  0  0  0  0
  -26.2966  -12.9311   20.3225 N   0  0  0  0  0  0
  -25.9336  -11.6467   20.5717 N   0  0  0  0  0  0
  -22.0510  -12.8160   22.0392 N   0  0  0  0  0  0
  -25.4294  -15.1854   20.4070 N   0  0  0  0  0  0
  -31.8683  -14.6590   20.1735 O   0  0  0  0  0  0
  -21.6659   -6.8852   21.4238 O   0  0  0  0  0  0
  -22.3491  -14.5478   20.6688 O   0  0  0  0  0  0
  -24.6203  -31.8675   23.2100 C   0  0  0  0  0  0
  -25.9102  -32.4813   23.8395 C   0  0  1  0  0  0
  -27.2451  -27.4107   20.1246 C   0  0  0  0  0  0
  -25.5963  -33.8617   24.2351 N   0  0  0  0  0  0
  -23.4102  -30.4896   21.5489 C   0  0  2  0  0  0
  -24.8611  -28.9453   20.1228 C   0  0  0  0  0  0
  -22.7442  -29.4694   22.5012 C   0  0  0  0  0  0
  -18.0282  -28.1383   22.8504 C   0  0  0  0  0  0
  -24.1487  -36.7294   23.2632 C   0  0  0  0  0  0
  -25.9395  -30.8282   21.3640 C   0  0  0  0  0  0
  -26.0220  -29.4562   20.7187 C   0  0  0  0  0  0
  -27.2193  -28.6997   20.7131 C   0  0  0  0  0  0
  -26.0709  -26.9169   19.5189 C   0  0  0  0  0  0
  -24.8808  -27.6746   19.5178 C   0  0  0  0  0  0
  -23.6215  -29.8156   20.1661 C   0  0  0  0  0  0
  -25.4113  -36.3104   24.0338 C   0  0  1  0  0  0
  -20.5863  -28.3703   23.1301 C   0  0  2  0  0  0
  -20.6780  -26.9444   22.5420 C   0  0  0  0  0  0
  -19.5749  -26.6397   21.5225 C   0  0  0  0  0  0
  -18.1918  -26.7935   22.1605 C   0  0  0  0  0  0
  -19.1525  -28.8863   23.2893 C   0  0  0  0  0  0
  -18.9455  -30.1463   23.8915 C   0  0  0  0  0  0
  -17.6466  -30.6598   24.0583 C   0  0  0  0  0  0
  -25.9056  -34.9463   23.5129 C   0  0  0  0  0  0
  -16.5361  -29.9106   23.6340 C   0  0  0  0  0  0
  -16.7272  -28.6511   23.0371 C   0  0  0  0  0  0
  -26.4518  -31.6576   25.0728 C   0  0  0  0  0  0
  -25.3779  -31.3639   26.1463 C   0  0  0  0  0  0
  -27.0371  -30.3035   24.6089 C   0  0  0  0  0  0
  -27.6104  -32.4267   25.7498 C   0  0  0  0  0  0
  -27.5615  -37.1758   24.8432 C   0  0  0  0  0  0
  -21.4158  -29.3053   22.3715 N   0  0  0  0  0  0
  -26.4277  -37.3814   23.9459 N   0  0  0  0  0  0
  -24.6758  -31.0742   22.1020 N   0  0  0  0  0  0
  -23.4200  -28.8268   23.3094 O   0  0  0  0  0  0
  -28.3769  -26.6211   20.1428 O   0  0  0  0  0  0
  -26.5610  -34.8935   22.4686 O   0  0  0  0  0  0
  -23.5386  -32.1481   23.7466 O   0  0  0  0  0  0
  -27.8969  -19.7004   18.8661 C   0  0  0  0  0  0
  -28.2067  -20.8217   19.6456 C   0  0  0  0  0  0
  -29.8479  -19.4933   20.8486 C   0  0  0  0  0  0
  -29.5335  -18.3282   20.0815 C   0  0  0  0  0  0
  -28.5545  -18.4587   19.0427 C   0  0  0  0  0  0
  -29.2011  -20.7479   20.6406 C   0  0  0  0  0  0
  -30.3110  -17.0575   20.2948 C   0  0  0  0  0  0
  -29.8180  -15.8022   20.4979 C   0  0  0  0  0  0
  -29.0572  -24.2600   20.7444 C   0  0  0  0  0  0
  -26.8877  -16.3467   16.1322 C   0  0  0  0  0  0
  -28.3088  -17.3498   18.0044 C   0  0  0  0  0  0
  -28.6611  -22.9770   21.5323 C   0  0  0  0  0  0
  -28.3113  -25.5675   21.1351 C   0  0  0  0  0  0
  -26.9549  -17.3817   17.2585 C   0  0  0  0  0  0
  -29.9402  -24.2465   19.8780 O   0  0  0  0  0  0
  -29.5831  -21.8656   21.3748 O   0  0  0  0  0  0
  -31.4611  -12.4224   19.1653 H   0  0  0  0  0  0
  -30.2839  -11.3562   19.8903 H   0  0  0  0  0  0
  -29.7699  -11.7938   17.4514 H   0  0  0  0  0  0
  -29.6597  -13.5027   17.7756 H   0  0  0  0  0  0
  -27.8579  -11.2972   18.8353 H   0  0  0  0  0  0
  -27.3773  -12.5928   17.7738 H   0  0  0  0  0  0
  -27.6462  -14.2411   19.4866 H   0  0  0  0  0  0
  -28.6759  -12.0916   21.4079 H   0  0  0  0  0  0
  -28.4450  -13.7732   21.7982 H   0  0  0  0  0  0
  -25.2766   -9.5606   22.4739 H   0  0  0  0  0  0
  -23.9960   -7.4615   22.7502 H   0  0  0  0  0  0
  -21.0836   -8.8725   19.8935 H   0  0  0  0  0  0
  -22.3699  -10.9623   19.6160 H   0  0  0  0  0  0
  -21.2029   -7.6135   23.9665 H   0  0  0  0  0  0
  -21.1512   -6.0544   25.9062 H   0  0  0  0  0  0
  -22.0595   -2.7577   23.2915 H   0  0  0  0  0  0
  -22.4175  -11.9826   22.4738 H   0  0  0  0  0  0
  -21.1141  -13.1161   22.2646 H   0  0  0  0  0  0
  -24.6760  -15.8547   20.5246 H   0  0  0  0  0  0
  -26.2871  -15.6077   20.0779 H   0  0  0  0  0  0
  -26.7196  -32.5520   23.1166 H   0  0  0  0  0  0
  -25.0189  -33.9794   25.0547 H   0  0  0  0  0  0
  -22.6994  -31.3071   21.4054 H   0  0  0  0  0  0
  -23.3804  -35.9553   23.3166 H   0  0  0  0  0  0
  -24.3612  -36.9069   22.2079 H   0  0  0  0  0  0
  -23.7152  -37.6408   23.6756 H   0  0  0  0  0  0
  -26.0491  -31.5877   20.5894 H   0  0  0  0  0  0
  -26.8266  -30.8897   21.9819 H   0  0  0  0  0  0
  -28.1130  -29.0942   21.1756 H   0  0  0  0  0  0
  -26.0725  -25.9380   19.0602 H   0  0  0  0  0  0
  -23.9914  -27.2693   19.0566 H   0  0  0  0  0  0
  -23.7405  -30.5879   19.4064 H   0  0  0  0  0  0
  -22.7451  -29.2393   19.8649 H   0  0  0  0  0  0
  -25.1272  -36.1938   25.0825 H   0  0  0  0  0  0
  -20.9956  -28.3285   24.1418 H   0  0  0  0  0  0
  -20.5683  -26.2353   23.3629 H   0  0  0  0  0  0
  -21.6653  -26.7492   22.1211 H   0  0  0  0  0  0
  -19.6932  -25.6303   21.1273 H   0  0  0  0  0  0
  -19.6682  -27.3189   20.6734 H   0  0  0  0  0  0
  -17.4225  -26.6748   21.3977 H   0  0  0  0  0  0
  -18.0280  -26.0053   22.8954 H   0  0  0  0  0  0
  -19.7924  -30.7275   24.2298 H   0  0  0  0  0  0
  -17.5015  -31.6271   24.5171 H   0  0  0  0  0  0
  -15.5353  -30.3016   23.7643 H   0  0  0  0  0  0
  -15.8662  -28.0826   22.7097 H   0  0  0  0  0  0
  -24.5981  -30.6972   25.7755 H   0  0  0  0  0  0
  -24.8940  -32.2765   26.4929 H   0  0  0  0  0  0
  -25.8124  -30.8775   27.0198 H   0  0  0  0  0  0
  -26.2897  -29.6752   24.1238 H   0  0  0  0  0  0
  -27.4279  -29.7316   25.4504 H   0  0  0  0  0  0
  -27.8665  -30.4387   23.9155 H   0  0  0  0  0  0
  -27.2784  -33.3602   26.2041 H   0  0  0  0  0  0
  -28.3943  -32.6745   25.0332 H   0  0  0  0  0  0
  -28.0740  -31.8400   26.5437 H   0  0  0  0  0  0
  -28.2459  -38.0225   24.7740 H   0  0  0  0  0  0
  -28.1292  -36.2781   24.5911 H   0  0  0  0  0  0
  -27.2389  -37.0981   25.8831 H   0  0  0  0  0  0
  -20.9392  -29.8739   21.6858 H   0  0  0  0  0  0
  -26.0150  -38.2854   24.1582 H   0  0  0  0  0  0
  -27.1649  -19.8556   18.0897 H   0  0  0  0  0  0
  -27.6876  -21.7399   19.4163 H   0  0  0  0  0  0
  -30.6198  -19.4298   21.6061 H   0  0  0  0  0  0
  -31.3844  -17.1746   20.2012 H   0  0  0  0  0  0
  -28.7544  -15.7083   20.6345 H   0  0  0  0  0  0
  -25.9177  -16.3679   15.6344 H   0  0  0  0  0  0
  -27.0510  -15.3359   16.5044 H   0  0  0  0  0  0
  -27.6453  -16.5513   15.3726 H   0  0  0  0  0  0
  -28.4025  -16.3650   18.4484 H   0  0  0  0  0  0
  -29.1137  -17.4272   17.2710 H   0  0  0  0  0  0
  -27.6340  -22.7037   21.2912 H   0  0  0  0  0  0
  -28.6445  -23.2390   22.5926 H   0  0  0  0  0  0
  -28.7636  -25.9441   22.0540 H   0  0  0  0  0  0
  -27.2763  -25.3192   21.3752 H   0  0  0  0  0  0
  -26.1381  -17.2208   17.9641 H   0  0  0  0  0  0
  -26.7781  -18.3426   16.7835 H   0  0  0  0  0  0
  1 25  1  0  0  0
  1 30  2  0  0  0
  1 78  1  0  0  0
  2  3  1  0  0  0
  2 25  1  0  0  0
  2 87  1  0  0  0
  2 88  1  0  0  0
  3  4  1  0  0  0
  3 89  1  0  0  0
  3 90  1  0  0  0
  4  5  1  0  0  0
  4 91  1  0  0  0
  4 92  1  0  0  0
  5  6  1  0  0  0
  5 26  1  0  0  0
  5 93  1  0  0  0
  6 25  1  0  0  0
  6 94  1  0  0  0
  6 95  1  0  0  0
  7  8  2  0  0  0
  7 26  1  0  0  0
  7 29  1  0  0  0
  8  9  1  0  0  0
  8 22  1  0  0  0
  9 10  1  0  0  0
  9 27  2  0  0  0
 10 11  2  0  0  0
 10 15  1  0  0  0
 11 12  1  0  0  0
 11 96  1  0  0  0
 12 13  2  0  0  0
 12 97  1  0  0  0
 13 14  1  0  0  0
 13 31  1  0  0  0
 14 15  2  0  0  0
 14 98  1  0  0  0
 15 99  1  0  0  0
 16 17  2  0  0  0
 16 21  1  0  0  0
 16 31  1  0  0  0
 17 18  1  0  0  0
 17100  1  0  0  0
 18 19  2  0  0  0
 18101  1  0  0  0
 19 20  1  0  0  0
 19 24  1  0  0  0
 20 21  2  0  0  0
 20102  1  0  0  0
 21 23  1  0  0  0
 22 28  1  0  0  0
 22 32  2  0  0  0
 26 27  1  0  0  0
 28103  1  0  0  0
 28104  1  0  0  0
 29105  1  0  0  0
 29106  1  0  0  0
 33 34  1  0  0  0
 33 66  1  0  0  0
 33 70  2  0  0  0
 34 36  1  0  0  0
 34 59  1  0  0  0
 34107  1  0  0  0
 35 44  2  0  0  0
 35 45  1  0  0  0
 35 68  1  0  0  0
 36 56  1  0  0  0
 36108  1  0  0  0
 37 39  1  0  0  0
 37 47  1  0  0  0
 37 66  1  0  0  0
 37109  1  0  0  0
 38 43  2  0  0  0
 38 46  1  0  0  0
 38 47  1  0  0  0
 39 64  1  0  0  0
 39 67  2  0  0  0
 40 52  1  0  0  0
 40 53  2  0  0  0
 40 58  1  0  0  0
 41110  1  0  0  0
 41111  1  0  0  0
 41112  1  0  0  0
 41 48  1  0  0  0
 42 43  1  0  0  0
 42 66  1  0  0  0
 42113  1  0  0  0
 42114  1  0  0  0
 43 44  1  0  0  0
 44115  1  0  0  0
 45 46  2  0  0  0
 45116  1  0  0  0
 46117  1  0  0  0
 47118  1  0  0  0
 47119  1  0  0  0
 48 56  1  0  0  0
 48 65  1  0  0  0
 48120  1  0  0  0
 49 50  1  0  0  0
 49 53  1  0  0  0
 49 64  1  0  0  0
 49121  1  0  0  0
 50 51  1  0  0  0
 50122  1  0  0  0
 50123  1  0  0  0
 51 52  1  0  0  0
 51124  1  0  0  0
 51125  1  0  0  0
 52126  1  0  0  0
 52127  1  0  0  0
 53 54  1  0  0  0
 54 55  2  0  0  0
 54128  1  0  0  0
 55 57  1  0  0  0
 55129  1  0  0  0
 56 69  2  0  0  0
 57 58  2  0  0  0
 57130  1  0  0  0
 58131  1  0  0  0
 59 60  1  0  0  0
 59 61  1  0  0  0
 59 62  1  0  0  0
 60132  1  0  0  0
 60133  1  0  0  0
 60134  1  0  0  0
 61135  1  0  0  0
 61136  1  0  0  0
 61137  1  0  0  0
 62138  1  0  0  0
 62139  1  0  0  0
 62140  1  0  0  0
 63 65  1  0  0  0
 63141  1  0  0  0
 63142  1  0  0  0
 63143  1  0  0  0
 64144  1  0  0  0
 65145  1  0  0  0
 68 83  1  0  0  0
 71 72  2  0  0  0
 71 75  1  0  0  0
 71146  1  0  0  0
 72 76  1  0  0  0
 72147  1  0  0  0
 73 74  1  0  0  0
 73 76  2  0  0  0
 73148  1  0  0  0
 74 75  2  0  0  0
 74 77  1  0  0  0
 75 81  1  0  0  0
 76 86  1  0  0  0
 77 78  2  0  0  0
 77149  1  0  0  0
 78150  1  0  0  0
 79 82  1  0  0  0
 79 83  1  0  0  0
 79 85  2  0  0  0
 80 84  1  0  0  0
 80151  1  0  0  0
 80152  1  0  0  0
 80153  1  0  0  0
 81 84  1  0  0  0
 81154  1  0  0  0
 81155  1  0  0  0
 82 86  1  0  0  0
 82156  1  0  0  0
 82157  1  0  0  0
 83158  1  0  0  0
 83159  1  0  0  0
 84160  1  0  0  0
 84161  1  0  0  0
M  ISO  4   1 100  68 101  78 100  83 101
M  END
> <chiral flag>
0

> <version>
0

> <s_m_source_file>
/data/baiqing/PycharmProjects/Reinvent-master-3.2/result/LINK_invent/BTK/process_docking_weight1_custom_product_contain_oxygen_bond_distance_aromatic_linkinvent_7_9_3/rearranged_h_0125.sdf

> <i_m_source_file_index>
79

> <r_mmod_Potential_Energy-OPLS-2005>
82.7094879150391

> <r_mmod_Stretch_Energy-OPLS-2005>
54.4858741760254

> <r_mmod_Bend_Energy-OPLS-2005>
111.899368286133

> <r_mmod_Torsional_Energy-OPLS-2005>
243.062591552734

> <r_mmod_Improper_Torsional_Energy-OPLS-2005>
10.0087242126465

> <r_mmod_Van_der_Waal_Energy-OPLS-2005>
148.338562011719

> <r_mmod_Electrostatic_Energy-OPLS-2005>
-294.156616210938

> <r_mmod_Solvation_Energy-OPLS-2005>
-222.532974243164

> <b_mmod_Minimization_Converged-OPLS-2005>
0

> <r_mmod_RMS_Derivative-OPLS-2005>
4.95343160629272

$$$$
79
                    3D
 Structure written by MMmdl.
160168  0  0  1  0            999 V2000
  -30.6945  -14.4636   20.5765 C   0  0  0  0  0  0
  -30.4262  -12.3006   19.4233 C   0  0  0  0  0  0
  -29.4962  -12.5082   18.2096 C   0  0  0  0  0  0
  -28.0176  -12.3663   18.6225 C   0  0  0  0  0  0
  -27.6646  -13.2011   19.8814 C   0  0  2  0  0  0
  -28.7060  -12.9703   21.0006 C   0  0  0  0  0  0
  -25.2593  -13.8145   20.5671 C   0  0  0  0  0  0
  -24.1839  -13.0437   20.9165 C   0  0  0  0  0  0
  -24.6388  -11.6900   20.8744 C   0  0  0  0  0  0
  -23.9047  -10.4292   21.0408 C   0  0  0  0  0  0
  -24.3595   -9.4205   21.9189 C   0  0  0  0  0  0
  -23.6269   -8.2244   22.0760 C   0  0  0  0  0  0
  -22.4263   -8.0283   21.3540 C   0  0  0  0  0  0
  -21.9894   -9.0256   20.4645 C   0  0  0  0  0  0
  -22.7220  -10.2136   20.3054 C   0  0  0  0  0  0
  -21.6843   -6.0734   22.5270 C   0  0  0  0  0  0
  -21.4016   -6.5636   23.8205 C   0  0  0  0  0  0
  -21.3658   -5.6788   24.9166 C   0  0  0  0  0  0
  -21.6050   -4.3051   24.7216 C   0  0  0  0  0  0
  -21.8819   -3.8145   23.4334 C   0  0  0  0  0  0
  -21.9186   -4.6962   22.3391 C   0  0  0  0  0  0
  -22.7865  -13.5248   21.1811 C   0  0  0  0  0  0
  -22.1656   -4.2148   21.0966 F   0  0  0  0  0  0
  -21.5626   -3.4532   25.7728 F   0  0  0  0  0  0
  -30.0404  -13.2765   20.4541 N   0  0  0  0  0  0
  -26.3036  -12.9310   20.3393 N   0  0  0  0  0  0
  -25.9319  -11.6477   20.5794 N   0  0  0  0  0  0
  -22.0488  -12.8265   22.0370 N   0  0  0  0  0  0
  -25.4308  -15.1860   20.4045 N   0  0  0  0  0  0
  -31.8144  -14.6709   20.0991 O   0  0  0  0  0  0
  -21.6631   -6.8882   21.4238 O   0  0  0  0  0  0
  -22.3570  -14.5558   20.6649 O   0  0  0  0  0  0
  -24.6161  -31.8668   23.2100 C   0  0  0  0  0  0
  -25.9054  -32.4811   23.8392 C   0  0  1  0  0  0
  -27.2331  -27.4257   20.0917 C   0  0  0  0  0  0
  -25.5917  -33.8608   24.2327 N   0  0  0  0  0  0
  -23.4025  -30.4922   21.5510 C   0  0  2  0  0  0
  -24.8469  -28.9575   20.1147 C   0  0  0  0  0  0
  -22.7403  -29.4655   22.4982 C   0  0  0  0  0  0
  -18.0270  -28.1374   22.8489 C   0  0  0  0  0  0
  -24.1483  -36.7312   23.2623 C   0  0  0  0  0  0
  -25.9318  -30.8321   21.3604 C   0  0  0  0  0  0
  -26.0082  -29.4649   20.7095 C   0  0  0  0  0  0
  -27.2022  -28.7067   20.6938 C   0  0  0  0  0  0
  -26.0467  -26.9342   19.4957 C   0  0  0  0  0  0
  -24.8613  -27.6917   19.5062 C   0  0  0  0  0  0
  -23.6103  -29.8263   20.1650 C   0  0  0  0  0  0
  -25.4093  -36.3101   24.0337 C   0  0  1  0  0  0
  -20.5860  -28.3664   23.1320 C   0  0  2  0  0  0
  -20.6754  -26.9401   22.5422 C   0  0  0  0  0  0
  -19.5738  -26.6388   21.5207 C   0  0  0  0  0  0
  -18.1912  -26.7923   22.1615 C   0  0  0  0  0  0
  -19.1519  -28.8833   23.2902 C   0  0  0  0  0  0
  -18.9448  -30.1438   23.8912 C   0  0  0  0  0  0
  -17.6451  -30.6581   24.0569 C   0  0  0  0  0  0
  -25.9043  -34.9470   23.5128 C   0  0  0  0  0  0
  -16.5340  -29.9087   23.6324 C   0  0  0  0  0  0
  -16.7260  -28.6505   23.0341 C   0  0  0  0  0  0
  -26.4483  -31.6577   25.0709 C   0  0  0  0  0  0
  -25.3764  -31.3668   26.1471 C   0  0  0  0  0  0
  -27.0290  -30.3019   24.6058 C   0  0  0  0  0  0
  -27.6073  -32.4271   25.7476 C   0  0  0  0  0  0
  -27.5609  -37.1760   24.8424 C   0  0  0  0  0  0
  -21.4129  -29.3036   22.3729 N   0  0  0  0  0  0
  -26.4254  -37.3818   23.9469 N   0  0  0  0  0  0
  -24.6692  -31.0773   22.0999 N   0  0  0  0  0  0
  -23.4173  -28.8189   23.3019 O   0  0  0  0  0  0
  -28.4137  -26.7037   20.1097 O   0  0  0  0  0  0
  -26.5597  -34.8928   22.4684 O   0  0  0  0  0  0
  -23.5352  -32.1426   23.7497 O   0  0  0  0  0  0
  -29.0069  -17.2768   19.8821 C   0  0  0  0  0  0
  -30.9641  -17.7194   21.2577 C   0  0  0  0  0  0
  -28.9773  -18.6251   19.4616 C   0  0  0  0  0  0
  -30.0060  -16.8077   20.7606 C   0  0  0  0  0  0
  -29.9450  -19.5373   19.9556 C   0  0  0  0  0  0
  -30.9349  -19.0747   20.8567 C   0  0  0  0  0  0
  -29.6917  -22.0112   20.0658 C   0  0  0  0  0  0
  -26.5820  -19.3961   19.2141 C   0  0  0  0  0  0
  -27.8869  -19.0526   18.4879 C   0  0  0  0  0  0
  -29.9480  -23.2904   19.2457 C   0  0  0  0  0  0
  -29.7541  -24.6599   19.9559 C   0  0  0  0  0  0
  -28.3742  -25.3161   19.7396 C   0  0  0  0  0  0
  -30.0120  -20.8639   19.4435 N   0  0  0  0  0  0
  -29.9828  -15.4421   21.1644 N   0  0  0  0  0  0
  -29.2154  -22.0615   21.2022 O   0  0  0  0  0  0
  -31.8881  -19.9238   21.3130 F   0  0  0  0  0  0
  -31.4712  -12.4012   19.1236 H   0  0  0  0  0  0
  -30.3244  -11.2865   19.8130 H   0  0  0  0  0  0
  -29.7337  -11.7896   17.4242 H   0  0  0  0  0  0
  -29.6644  -13.4972   17.7810 H   0  0  0  0  0  0
  -27.8287  -11.3100   18.8170 H   0  0  0  0  0  0
  -27.3649  -12.6426   17.7934 H   0  0  0  0  0  0
  -27.7116  -14.2489   19.5886 H   0  0  0  0  0  0
  -28.6808  -11.9312   21.3327 H   0  0  0  0  0  0
  -28.4663  -13.5571   21.8882 H   0  0  0  0  0  0
  -25.2740   -9.5689   22.4762 H   0  0  0  0  0  0
  -23.9972   -7.4646   22.7487 H   0  0  0  0  0  0
  -21.0827   -8.8784   19.8948 H   0  0  0  0  0  0
  -22.3684  -10.9678   19.6164 H   0  0  0  0  0  0
  -21.2020   -7.6147   23.9710 H   0  0  0  0  0  0
  -21.1477   -6.0516   25.9069 H   0  0  0  0  0  0
  -22.0599   -2.7606   23.2827 H   0  0  0  0  0  0
  -22.4069  -11.9910   22.4757 H   0  0  0  0  0  0
  -21.1115  -13.1329   22.2562 H   0  0  0  0  0  0
  -24.6599  -15.8379   20.5005 H   0  0  0  0  0  0
  -26.2779  -15.6230   20.0681 H   0  0  0  0  0  0
  -26.7120  -32.5526   23.1157 H   0  0  0  0  0  0
  -25.0070  -33.9764   25.0474 H   0  0  0  0  0  0
  -22.6919  -31.3100   21.4137 H   0  0  0  0  0  0
  -23.3796  -35.9584   23.3133 H   0  0  0  0  0  0
  -24.3626  -36.9096   22.2075 H   0  0  0  0  0  0
  -23.7142  -37.6427   23.6740 H   0  0  0  0  0  0
  -26.0368  -31.5942   20.5864 H   0  0  0  0  0  0
  -26.8234  -30.8921   21.9731 H   0  0  0  0  0  0
  -28.1007  -29.0954   21.1536 H   0  0  0  0  0  0
  -26.0100  -25.9676   19.0159 H   0  0  0  0  0  0
  -23.9678  -27.2948   19.0439 H   0  0  0  0  0  0
  -23.7200  -30.6021   19.4060 H   0  0  0  0  0  0
  -22.7325  -29.2492   19.8683 H   0  0  0  0  0  0
  -25.1237  -36.1939   25.0820 H   0  0  0  0  0  0
  -20.9949  -28.3238   24.1440 H   0  0  0  0  0  0
  -20.5653  -26.2266   23.3601 H   0  0  0  0  0  0
  -21.6628  -26.7435   22.1233 H   0  0  0  0  0  0
  -19.6898  -25.6309   21.1211 H   0  0  0  0  0  0
  -19.6675  -27.3213   20.6751 H   0  0  0  0  0  0
  -17.4184  -26.6681   21.4009 H   0  0  0  0  0  0
  -18.0306  -26.0058   22.9006 H   0  0  0  0  0  0
  -19.7923  -30.7245   24.2291 H   0  0  0  0  0  0
  -17.5008  -31.6257   24.5183 H   0  0  0  0  0  0
  -15.5343  -30.2995   23.7639 H   0  0  0  0  0  0
  -15.8660  -28.0834   22.7038 H   0  0  0  0  0  0
  -24.5957  -30.6980   25.7832 H   0  0  0  0  0  0
  -24.8922  -32.2806   26.4925 H   0  0  0  0  0  0
  -25.8149  -30.8856   27.0226 H   0  0  0  0  0  0
  -26.2804  -29.6779   24.1157 H   0  0  0  0  0  0
  -27.4123  -29.7252   25.4486 H   0  0  0  0  0  0
  -27.8617  -30.4344   23.9147 H   0  0  0  0  0  0
  -27.2746  -33.3622   26.1993 H   0  0  0  0  0  0
  -28.3927  -32.6722   25.0316 H   0  0  0  0  0  0
  -28.0668  -31.8397   26.5438 H   0  0  0  0  0  0
  -28.2455  -38.0228   24.7749 H   0  0  0  0  0  0
  -28.1280  -36.2786   24.5889 H   0  0  0  0  0  0
  -27.2379  -37.0973   25.8821 H   0  0  0  0  0  0
  -20.9276  -29.8796   21.6991 H   0  0  0  0  0  0
  -26.0126  -38.2848   24.1660 H   0  0  0  0  0  0
  -28.2621  -16.5929   19.5028 H   0  0  0  0  0  0
  -31.7323  -17.3862   21.9398 H   0  0  0  0  0  0
  -25.8060  -19.6813   18.5039 H   0  0  0  0  0  0
  -26.7237  -20.2266   19.9060 H   0  0  0  0  0  0
  -26.2126  -18.5436   19.7851 H   0  0  0  0  0  0
  -27.7066  -18.2414   17.7806 H   0  0  0  0  0  0
  -28.2098  -19.8990   17.8809 H   0  0  0  0  0  0
  -29.3489  -23.2514   18.3351 H   0  0  0  0  0  0
  -30.9857  -23.2358   18.9131 H   0  0  0  0  0  0
  -30.5084  -25.3403   19.5594 H   0  0  0  0  0  0
  -29.9678  -24.5812   21.0228 H   0  0  0  0  0  0
  -27.6210  -24.7814   20.3216 H   0  0  0  0  0  0
  -28.1017  -25.2380   18.6862 H   0  0  0  0  0  0
  -30.3309  -20.9503   18.4892 H   0  0  0  0  0  0
  -29.0998  -15.1134   21.5244 H   0  0  0  0  0  0
  1 25  1  0  0  0
  1 30  2  0  0  0
  1 84  1  0  0  0
  2  3  1  0  0  0
  2 25  1  0  0  0
  2 87  1  0  0  0
  2 88  1  0  0  0
  3  4  1  0  0  0
  3 89  1  0  0  0
  3 90  1  0  0  0
  4  5  1  0  0  0
  4 91  1  0  0  0
  4 92  1  0  0  0
  5  6  1  0  0  0
  5 26  1  0  0  0
  5 93  1  0  0  0
  6 25  1  0  0  0
  6 94  1  0  0  0
  6 95  1  0  0  0
  7  8  2  0  0  0
  7 26  1  0  0  0
  7 29  1  0  0  0
  8  9  1  0  0  0
  8 22  1  0  0  0
  9 10  1  0  0  0
  9 27  2  0  0  0
 10 11  2  0  0  0
 10 15  1  0  0  0
 11 12  1  0  0  0
 11 96  1  0  0  0
 12 13  2  0  0  0
 12 97  1  0  0  0
 13 14  1  0  0  0
 13 31  1  0  0  0
 14 15  2  0  0  0
 14 98  1  0  0  0
 15 99  1  0  0  0
 16 17  2  0  0  0
 16 21  1  0  0  0
 16 31  1  0  0  0
 17 18  1  0  0  0
 17100  1  0  0  0
 18 19  2  0  0  0
 18101  1  0  0  0
 19 20  1  0  0  0
 19 24  1  0  0  0
 20 21  2  0  0  0
 20102  1  0  0  0
 21 23  1  0  0  0
 22 28  1  0  0  0
 22 32  2  0  0  0
 26 27  1  0  0  0
 28103  1  0  0  0
 28104  1  0  0  0
 29105  1  0  0  0
 29106  1  0  0  0
 33 34  1  0  0  0
 33 66  1  0  0  0
 33 70  2  0  0  0
 34 36  1  0  0  0
 34 59  1  0  0  0
 34107  1  0  0  0
 35 44  2  0  0  0
 35 45  1  0  0  0
 35 68  1  0  0  0
 36 56  1  0  0  0
 36108  1  0  0  0
 37 39  1  0  0  0
 37 47  1  0  0  0
 37 66  1  0  0  0
 37109  1  0  0  0
 38 43  2  0  0  0
 38 46  1  0  0  0
 38 47  1  0  0  0
 39 64  1  0  0  0
 39 67  2  0  0  0
 40 52  1  0  0  0
 40 53  2  0  0  0
 40 58  1  0  0  0
 41110  1  0  0  0
 41111  1  0  0  0
 41112  1  0  0  0
 41 48  1  0  0  0
 42 43  1  0  0  0
 42 66  1  0  0  0
 42113  1  0  0  0
 42114  1  0  0  0
 43 44  1  0  0  0
 44115  1  0  0  0
 45 46  2  0  0  0
 45116  1  0  0  0
 46117  1  0  0  0
 47118  1  0  0  0
 47119  1  0  0  0
 48 56  1  0  0  0
 48 65  1  0  0  0
 48120  1  0  0  0
 49 50  1  0  0  0
 49 53  1  0  0  0
 49 64  1  0  0  0
 49121  1  0  0  0
 50 51  1  0  0  0
 50122  1  0  0  0
 50123  1  0  0  0
 51 52  1  0  0  0
 51124  1  0  0  0
 51125  1  0  0  0
 52126  1  0  0  0
 52127  1  0  0  0
 53 54  1  0  0  0
 54 55  2  0  0  0
 54128  1  0  0  0
 55 57  1  0  0  0
 55129  1  0  0  0
 56 69  2  0  0  0
 57 58  2  0  0  0
 57130  1  0  0  0
 58131  1  0  0  0
 59 60  1  0  0  0
 59 61  1  0  0  0
 59 62  1  0  0  0
 60132  1  0  0  0
 60133  1  0  0  0
 60134  1  0  0  0
 61135  1  0  0  0
 61136  1  0  0  0
 61137  1  0  0  0
 62138  1  0  0  0
 62139  1  0  0  0
 62140  1  0  0  0
 63 65  1  0  0  0
 63141  1  0  0  0
 63142  1  0  0  0
 63143  1  0  0  0
 64144  1  0  0  0
 65145  1  0  0  0
 68 82  1  0  0  0
 71 73  2  0  0  0
 71 74  1  0  0  0
 71146  1  0  0  0
 72 74  2  0  0  0
 72 76  1  0  0  0
 72147  1  0  0  0
 73 75  1  0  0  0
 73 79  1  0  0  0
 74 84  1  0  0  0
 75 76  2  0  0  0
 75 83  1  0  0  0
 76 86  1  0  0  0
 77 80  1  0  0  0
 77 83  1  0  0  0
 77 85  2  0  0  0
 78 79  1  0  0  0
 78148  1  0  0  0
 78149  1  0  0  0
 78150  1  0  0  0
 79151  1  0  0  0
 79152  1  0  0  0
 80 81  1  0  0  0
 80153  1  0  0  0
 80154  1  0  0  0
 81 82  1  0  0  0
 81155  1  0  0  0
 81156  1  0  0  0
 82157  1  0  0  0
 82158  1  0  0  0
 83159  1  0  0  0
 84160  1  0  0  0
M  ISO  4   1 100  68 101  82 101  84 100
M  END
> <chiral flag>
0

> <version>
0

> <s_m_source_file>
/data/baiqing/PycharmProjects/Reinvent-master-3.2/result/LINK_invent/BTK/process_docking_weight1_custom_product_contain_oxygen_bond_distance_aromatic_linkinvent_7_9_3/rearranged_h_0125.sdf

> <i_m_source_file_index>
80

> <r_mmod_Potential_Energy-OPLS-2005>
-106.280601501465

> <r_mmod_Stretch_Energy-OPLS-2005>
37.016185760498

> <r_mmod_Bend_Energy-OPLS-2005>
99.6531372070312

> <r_mmod_Torsional_Energy-OPLS-2005>
264.401153564453

> <r_mmod_Improper_Torsional_Energy-OPLS-2005>
5.83934831619263

> <r_mmod_Van_der_Waal_Energy-OPLS-2005>
145.759582519531

> <r_mmod_Electrostatic_Energy-OPLS-2005>
-436.79248046875

> <r_mmod_Solvation_Energy-OPLS-2005>
-234.534027099609

> <b_mmod_Minimization_Converged-OPLS-2005>
0

> <r_mmod_RMS_Derivative-OPLS-2005>
1.18684637546539

$$$$
80
                    3D
 Structure written by MMmdl.
155163  0  0  1  0            999 V2000
  -30.6612  -14.5423   20.5286 C   0  0  0  0  0  0
  -30.4242  -12.3395   19.4234 C   0  0  0  0  0  0
  -29.4975  -12.5074   18.2018 C   0  0  0  0  0  0
  -28.0191  -12.3491   18.6157 C   0  0  0  0  0  0
  -27.6515  -13.2070   19.8579 C   0  0  2  0  0  0
  -28.6952  -13.0292   20.9838 C   0  0  0  0  0  0
  -25.2543  -13.8154   20.5660 C   0  0  0  0  0  0
  -24.1799  -13.0442   20.9173 C   0  0  0  0  0  0
  -24.6351  -11.6908   20.8709 C   0  0  0  0  0  0
  -23.9020  -10.4299   21.0392 C   0  0  0  0  0  0
  -24.3580   -9.4215   21.9170 C   0  0  0  0  0  0
  -23.6278   -8.2241   22.0738 C   0  0  0  0  0  0
  -22.4247   -8.0277   21.3550 C   0  0  0  0  0  0
  -21.9880   -9.0241   20.4644 C   0  0  0  0  0  0
  -22.7190  -10.2132   20.3043 C   0  0  0  0  0  0
  -21.6863   -6.0726   22.5282 C   0  0  0  0  0  0
  -21.4024   -6.5629   23.8216 C   0  0  0  0  0  0
  -21.3658   -5.6773   24.9172 C   0  0  0  0  0  0
  -21.6043   -4.3038   24.7217 C   0  0  0  0  0  0
  -21.8818   -3.8136   23.4343 C   0  0  0  0  0  0
  -21.9201   -4.6957   22.3400 C   0  0  0  0  0  0
  -22.7831  -13.5261   21.1854 C   0  0  0  0  0  0
  -22.1667   -4.2148   21.0984 F   0  0  0  0  0  0
  -21.5628   -3.4521   25.7733 F   0  0  0  0  0  0
  -30.0148  -13.3476   20.4145 N   0  0  0  0  0  0
  -26.2963  -12.9316   20.3277 N   0  0  0  0  0  0
  -25.9267  -11.6485   20.5685 N   0  0  0  0  0  0
  -22.0453  -12.8264   22.0411 N   0  0  0  0  0  0
  -25.4249  -15.1868   20.4056 N   0  0  0  0  0  0
  -31.8190  -14.7039   20.1278 O   0  0  0  0  0  0
  -21.6635   -6.8864   21.4238 O   0  0  0  0  0  0
  -22.3531  -14.5587   20.6722 O   0  0  0  0  0  0
  -24.6187  -31.8626   23.2045 C   0  0  0  0  0  0
  -25.9061  -32.4797   23.8360 C   0  0  1  0  0  0
  -27.2406  -27.3832   20.1111 C   0  0  0  0  0  0
  -25.5897  -33.8597   24.2278 N   0  0  0  0  0  0
  -23.4087  -30.4842   21.5452 C   0  0  2  0  0  0
  -24.8571  -28.9437   20.1138 C   0  0  0  0  0  0
  -22.7432  -29.4617   22.4967 C   0  0  0  0  0  0
  -18.0277  -28.1379   22.8490 C   0  0  0  0  0  0
  -24.1482  -36.7315   23.2627 C   0  0  0  0  0  0
  -25.9408  -30.8177   21.3611 C   0  0  0  0  0  0
  -26.0186  -29.4459   20.7110 C   0  0  0  0  0  0
  -27.2078  -28.6751   20.7029 C   0  0  0  0  0  0
  -26.0506  -26.9032   19.5158 C   0  0  0  0  0  0
  -24.8716  -27.6750   19.5111 C   0  0  0  0  0  0
  -23.6196  -29.8129   20.1614 C   0  0  0  0  0  0
  -25.4089  -36.3091   24.0335 C   0  0  1  0  0  0
  -20.5867  -28.3664   23.1323 C   0  0  2  0  0  0
  -20.6756  -26.9391   22.5432 C   0  0  0  0  0  0
  -19.5741  -26.6375   21.5221 C   0  0  0  0  0  0
  -18.1916  -26.7927   22.1619 C   0  0  0  0  0  0
  -19.1523  -28.8842   23.2903 C   0  0  0  0  0  0
  -18.9444  -30.1438   23.8927 C   0  0  0  0  0  0
  -17.6445  -30.6582   24.0560 C   0  0  0  0  0  0
  -25.9033  -34.9468   23.5109 C   0  0  0  0  0  0
  -16.5337  -29.9079   23.6324 C   0  0  0  0  0  0
  -16.7266  -28.6492   23.0357 C   0  0  0  0  0  0
  -26.4471  -31.6596   25.0709 C   0  0  0  0  0  0
  -25.3734  -31.3743   26.1472 C   0  0  0  0  0  0
  -27.0279  -30.3023   24.6107 C   0  0  0  0  0  0
  -27.6027  -32.4342   25.7484 C   0  0  0  0  0  0
  -27.5609  -37.1742   24.8408 C   0  0  0  0  0  0
  -21.4154  -29.3022   22.3713 N   0  0  0  0  0  0
  -26.4243  -37.3808   23.9473 N   0  0  0  0  0  0
  -24.6749  -31.0702   22.0959 N   0  0  0  0  0  0
  -23.4182  -28.8169   23.3031 O   0  0  0  0  0  0
  -28.4228  -26.6488   20.1635 O   0  0  0  0  0  0
  -26.5587  -34.8936   22.4663 O   0  0  0  0  0  0
  -23.5373  -32.1390   23.7427 O   0  0  0  0  0  0
  -31.4494  -18.3427   22.9442 C   0  0  0  0  0  0
  -30.8726  -19.4921   22.3755 C   0  0  0  0  0  0
  -29.6972  -18.0833   20.7887 C   0  0  0  0  0  0
  -31.1496  -17.0534   22.4683 C   0  0  0  0  0  0
  -30.2781  -16.9035   21.3580 C   0  0  0  0  0  0
  -29.9728  -19.3972   21.2859 C   0  0  0  0  0  0
  -28.4984  -24.1329   20.5281 C   0  0  0  0  0  0
  -29.2767  -23.0179   20.4330 C   0  0  0  0  0  0
  -31.7441  -15.8608   23.2050 C   0  0  0  0  0  0
  -28.5561  -25.3336   19.5582 C   0  0  0  0  0  0
  -29.2924  -21.7937   21.3710 C   0  0  0  0  0  0
  -29.8848  -15.5917   20.9055 N   0  0  0  0  0  0
  -29.3859  -20.5163   20.6763 O   0  0  0  0  0  0
  -31.4708  -12.4427   19.1291 H   0  0  0  0  0  0
  -30.3287  -11.3359   19.8434 H   0  0  0  0  0  0
  -29.7537  -11.7816   17.4288 H   0  0  0  0  0  0
  -29.6541  -13.4918   17.7568 H   0  0  0  0  0  0
  -27.8462  -11.2939   18.8324 H   0  0  0  0  0  0
  -27.3690  -12.6008   17.7770 H   0  0  0  0  0  0
  -27.6801  -14.2466   19.5316 H   0  0  0  0  0  0
  -28.6862  -12.0017   21.3548 H   0  0  0  0  0  0
  -28.4528  -13.6541   21.8443 H   0  0  0  0  0  0
  -25.2731   -9.5716   22.4720 H   0  0  0  0  0  0
  -24.0019   -7.4633   22.7438 H   0  0  0  0  0  0
  -21.0826   -8.8738   19.8941 H   0  0  0  0  0  0
  -22.3647  -10.9650   19.6132 H   0  0  0  0  0  0
  -21.2015   -7.6131   23.9721 H   0  0  0  0  0  0
  -21.1480   -6.0498   25.9082 H   0  0  0  0  0  0
  -22.0600   -2.7597   23.2833 H   0  0  0  0  0  0
  -22.4073  -11.9955   22.4844 H   0  0  0  0  0  0
  -21.1059  -13.1284   22.2582 H   0  0  0  0  0  0
  -24.6478  -15.8321   20.4997 H   0  0  0  0  0  0
  -26.2657  -15.6293   20.0587 H   0  0  0  0  0  0
  -26.7141  -32.5495   23.1130 H   0  0  0  0  0  0
  -25.0016  -33.9738   25.0406 H   0  0  0  0  0  0
  -22.6978  -31.3013   21.4027 H   0  0  0  0  0  0
  -23.3783  -35.9598   23.3139 H   0  0  0  0  0  0
  -24.3632  -36.9087   22.2080 H   0  0  0  0  0  0
  -23.7164  -37.6444   23.6740 H   0  0  0  0  0  0
  -26.0542  -31.5799   20.5889 H   0  0  0  0  0  0
  -26.8298  -30.8769   21.9781 H   0  0  0  0  0  0
  -28.1048  -29.0618   21.1677 H   0  0  0  0  0  0
  -25.9904  -25.9241   19.0683 H   0  0  0  0  0  0
  -23.9769  -27.2780   19.0537 H   0  0  0  0  0  0
  -23.7299  -30.5868   19.4002 H   0  0  0  0  0  0
  -22.7441  -29.2310   19.8656 H   0  0  0  0  0  0
  -25.1240  -36.1906   25.0816 H   0  0  0  0  0  0
  -20.9961  -28.3249   24.1446 H   0  0  0  0  0  0
  -20.5665  -26.2265   23.3621 H   0  0  0  0  0  0
  -21.6628  -26.7432   22.1226 H   0  0  0  0  0  0
  -19.6887  -25.6288   21.1244 H   0  0  0  0  0  0
  -19.6691  -27.3196   20.6761 H   0  0  0  0  0  0
  -17.4190  -26.6714   21.4006 H   0  0  0  0  0  0
  -18.0284  -26.0067   22.9014 H   0  0  0  0  0  0
  -19.7925  -30.7231   24.2333 H   0  0  0  0  0  0
  -17.5006  -31.6272   24.5142 H   0  0  0  0  0  0
  -15.5332  -30.2978   23.7635 H   0  0  0  0  0  0
  -15.8676  -28.0794   22.7082 H   0  0  0  0  0  0
  -24.5874  -30.7116   25.7826 H   0  0  0  0  0  0
  -24.8973  -32.2930   26.4923 H   0  0  0  0  0  0
  -25.8098  -30.8909   27.0226 H   0  0  0  0  0  0
  -26.2809  -29.6810   24.1157 H   0  0  0  0  0  0
  -27.4012  -29.7244   25.4567 H   0  0  0  0  0  0
  -27.8668  -30.4303   23.9266 H   0  0  0  0  0  0
  -27.2596  -33.3615   26.2093 H   0  0  0  0  0  0
  -28.3820  -32.6963   25.0313 H   0  0  0  0  0  0
  -28.0723  -31.8468   26.5382 H   0  0  0  0  0  0
  -28.2424  -38.0234   24.7757 H   0  0  0  0  0  0
  -28.1298  -36.2795   24.5818 H   0  0  0  0  0  0
  -27.2407  -37.0911   25.8809 H   0  0  0  0  0  0
  -20.9313  -29.8722   21.6922 H   0  0  0  0  0  0
  -26.0108  -38.2831   24.1667 H   0  0  0  0  0  0
  -32.1254  -18.4601   23.7795 H   0  0  0  0  0  0
  -31.1664  -20.4328   22.8104 H   0  0  0  0  0  0
  -29.0194  -17.9834   19.9520 H   0  0  0  0  0  0
  -27.7707  -24.2061   21.3239 H   0  0  0  0  0  0
  -29.9975  -22.9642   19.6298 H   0  0  0  0  0  0
  -32.1856  -16.1586   24.1566 H   0  0  0  0  0  0
  -32.5312  -15.3924   22.6144 H   0  0  0  0  0  0
  -30.9784  -15.1147   23.4224 H   0  0  0  0  0  0
  -27.8771  -25.1696   18.7256 H   0  0  0  0  0  0
  -29.5437  -25.3198   19.0957 H   0  0  0  0  0  0
  -28.3975  -21.7936   21.9946 H   0  0  0  0  0  0
  -30.1295  -21.9836   22.0390 H   0  0  0  0  0  0
  -28.8962  -15.3947   20.9466 H   0  0  0  0  0  0
  1 25  1  0  0  0
  1 30  2  0  0  0
  1 82  1  0  0  0
  2  3  1  0  0  0
  2 25  1  0  0  0
  2 84  1  0  0  0
  2 85  1  0  0  0
  3  4  1  0  0  0
  3 86  1  0  0  0
  3 87  1  0  0  0
  4  5  1  0  0  0
  4 88  1  0  0  0
  4 89  1  0  0  0
  5  6  1  0  0  0
  5 26  1  0  0  0
  5 90  1  0  0  0
  6 25  1  0  0  0
  6 91  1  0  0  0
  6 92  1  0  0  0
  7  8  2  0  0  0
  7 26  1  0  0  0
  7 29  1  0  0  0
  8  9  1  0  0  0
  8 22  1  0  0  0
  9 10  1  0  0  0
  9 27  2  0  0  0
 10 11  2  0  0  0
 10 15  1  0  0  0
 11 12  1  0  0  0
 11 93  1  0  0  0
 12 13  2  0  0  0
 12 94  1  0  0  0
 13 14  1  0  0  0
 13 31  1  0  0  0
 14 15  2  0  0  0
 14 95  1  0  0  0
 15 96  1  0  0  0
 16 17  2  0  0  0
 16 21  1  0  0  0
 16 31  1  0  0  0
 17 18  1  0  0  0
 17 97  1  0  0  0
 18 19  2  0  0  0
 18 98  1  0  0  0
 19 20  1  0  0  0
 19 24  1  0  0  0
 20 21  2  0  0  0
 20 99  1  0  0  0
 21 23  1  0  0  0
 22 28  1  0  0  0
 22 32  2  0  0  0
 26 27  1  0  0  0
 28100  1  0  0  0
 28101  1  0  0  0
 29102  1  0  0  0
 29103  1  0  0  0
 33 34  1  0  0  0
 33 66  1  0  0  0
 33 70  2  0  0  0
 34 36  1  0  0  0
 34 59  1  0  0  0
 34104  1  0  0  0
 35 44  2  0  0  0
 35 45  1  0  0  0
 35 68  1  0  0  0
 36 56  1  0  0  0
 36105  1  0  0  0
 37 39  1  0  0  0
 37 47  1  0  0  0
 37 66  1  0  0  0
 37106  1  0  0  0
 38 43  2  0  0  0
 38 46  1  0  0  0
 38 47  1  0  0  0
 39 64  1  0  0  0
 39 67  2  0  0  0
 40 52  1  0  0  0
 40 53  2  0  0  0
 40 58  1  0  0  0
 41107  1  0  0  0
 41108  1  0  0  0
 41109  1  0  0  0
 41 48  1  0  0  0
 42 43  1  0  0  0
 42 66  1  0  0  0
 42110  1  0  0  0
 42111  1  0  0  0
 43 44  1  0  0  0
 44112  1  0  0  0
 45 46  2  0  0  0
 45113  1  0  0  0
 46114  1  0  0  0
 47115  1  0  0  0
 47116  1  0  0  0
 48 56  1  0  0  0
 48 65  1  0  0  0
 48117  1  0  0  0
 49 50  1  0  0  0
 49 53  1  0  0  0
 49 64  1  0  0  0
 49118  1  0  0  0
 50 51  1  0  0  0
 50119  1  0  0  0
 50120  1  0  0  0
 51 52  1  0  0  0
 51121  1  0  0  0
 51122  1  0  0  0
 52123  1  0  0  0
 52124  1  0  0  0
 53 54  1  0  0  0
 54 55  2  0  0  0
 54125  1  0  0  0
 55 57  1  0  0  0
 55126  1  0  0  0
 56 69  2  0  0  0
 57 58  2  0  0  0
 57127  1  0  0  0
 58128  1  0  0  0
 59 60  1  0  0  0
 59 61  1  0  0  0
 59 62  1  0  0  0
 60129  1  0  0  0
 60130  1  0  0  0
 60131  1  0  0  0
 61132  1  0  0  0
 61133  1  0  0  0
 61134  1  0  0  0
 62135  1  0  0  0
 62136  1  0  0  0
 62137  1  0  0  0
 63 65  1  0  0  0
 63138  1  0  0  0
 63139  1  0  0  0
 63140  1  0  0  0
 64141  1  0  0  0
 65142  1  0  0  0
 68 80  1  0  0  0
 71 72  2  0  0  0
 71 74  1  0  0  0
 71143  1  0  0  0
 72 76  1  0  0  0
 72144  1  0  0  0
 73 75  1  0  0  0
 73 76  2  0  0  0
 73145  1  0  0  0
 74 75  2  0  0  0
 74 79  1  0  0  0
 75 82  1  0  0  0
 76 83  1  0  0  0
 77 78  2  0  0  0
 77 80  1  0  0  0
 77146  1  0  0  0
 78 81  1  0  0  0
 78147  1  0  0  0
 79148  1  0  0  0
 79149  1  0  0  0
 79150  1  0  0  0
 80151  1  0  0  0
 80152  1  0  0  0
 81 83  1  0  0  0
 81153  1  0  0  0
 81154  1  0  0  0
 82155  1  0  0  0
M  ISO  4   1 100  68 101  80 101  82 100
M  END
> <chiral flag>
0

> <version>
0

> <s_m_source_file>
/data/baiqing/PycharmProjects/Reinvent-master-3.2/result/LINK_invent/BTK/process_docking_weight1_custom_product_contain_oxygen_bond_distance_aromatic_linkinvent_7_9_3/rearranged_h_0125.sdf

> <i_m_source_file_index>
81

> <r_mmod_Potential_Energy-OPLS-2005>
4.89749002456665

> <r_mmod_Stretch_Energy-OPLS-2005>
54.3610877990723

> <r_mmod_Bend_Energy-OPLS-2005>
123.990272521973

> <r_mmod_Torsional_Energy-OPLS-2005>
220.552673339844

> <r_mmod_Improper_Torsional_Energy-OPLS-2005>
5.43504667282104

> <r_mmod_Van_der_Waal_Energy-OPLS-2005>
156.55793762207

> <r_mmod_Electrostatic_Energy-OPLS-2005>
-373.081665039062

> <r_mmod_Solvation_Energy-OPLS-2005>
-207.138931274414

> <b_mmod_Minimization_Converged-OPLS-2005>
0

> <r_mmod_RMS_Derivative-OPLS-2005>
2.81720066070557

$$$$
81
                    3D
 Structure written by MMmdl.
154162  0  0  1  0            999 V2000
  -30.5314  -14.8969   20.4630 C   0  0  0  0  0  0
  -30.4497  -12.5556   19.4800 C   0  0  0  0  0  0
  -29.5243  -12.5392   18.2398 C   0  0  0  0  0  0
  -28.0501  -12.3287   18.6517 C   0  0  0  0  0  0
  -27.6393  -13.2352   19.8432 C   0  0  2  0  0  0
  -28.6922  -13.1991   20.9740 C   0  0  0  0  0  0
  -25.2549  -13.8145   20.5706 C   0  0  0  0  0  0
  -24.1852  -13.0429   20.9200 C   0  0  0  0  0  0
  -24.6401  -11.6868   20.8674 C   0  0  0  0  0  0
  -23.9072  -10.4271   21.0346 C   0  0  0  0  0  0
  -24.3643   -9.4193   21.9120 C   0  0  0  0  0  0
  -23.6322   -8.2234   22.0727 C   0  0  0  0  0  0
  -22.4287   -8.0271   21.3549 C   0  0  0  0  0  0
  -21.9933   -9.0217   20.4626 C   0  0  0  0  0  0
  -22.7252  -10.2094   20.2998 C   0  0  0  0  0  0
  -21.6853   -6.0739   22.5266 C   0  0  0  0  0  0
  -21.3992   -6.5638   23.8196 C   0  0  0  0  0  0
  -21.3655   -5.6784   24.9157 C   0  0  0  0  0  0
  -21.6059   -4.3049   24.7198 C   0  0  0  0  0  0
  -21.8829   -3.8159   23.4314 C   0  0  0  0  0  0
  -21.9204   -4.6979   22.3383 C   0  0  0  0  0  0
  -22.7856  -13.5168   21.1902 C   0  0  0  0  0  0
  -22.1674   -4.2163   21.0958 F   0  0  0  0  0  0
  -21.5658   -3.4535   25.7717 F   0  0  0  0  0  0
  -29.9661  -13.6296   20.3884 N   0  0  0  0  0  0
  -26.2947  -12.9357   20.3228 N   0  0  0  0  0  0
  -25.9326  -11.6475   20.5631 N   0  0  0  0  0  0
  -22.0557  -12.8107   22.0409 N   0  0  0  0  0  0
  -25.4294  -15.1888   20.4222 N   0  0  0  0  0  0
  -31.7302  -15.0217   20.1943 O   0  0  0  0  0  0
  -21.6654   -6.8877   21.4226 O   0  0  0  0  0  0
  -22.3516  -14.5483   20.6779 O   0  0  0  0  0  0
  -24.6335  -31.8482   23.1991 C   0  0  0  0  0  0
  -25.9136  -32.4692   23.8362 C   0  0  1  0  0  0
  -27.2140  -27.1898   20.1735 C   0  0  0  0  0  0
  -25.6005  -33.8484   24.2296 N   0  0  0  0  0  0
  -23.4366  -30.4681   21.5419 C   0  0  2  0  0  0
  -24.8860  -28.8907   20.1279 C   0  0  0  0  0  0
  -22.7505  -29.4586   22.4923 C   0  0  0  0  0  0
  -18.0302  -28.1402   22.8419 C   0  0  0  0  0  0
  -24.1528  -36.7165   23.2676 C   0  0  0  0  0  0
  -25.9854  -30.7364   21.3931 C   0  0  0  0  0  0
  -26.0618  -29.3570   20.7265 C   0  0  0  0  0  0
  -27.2324  -28.5205   20.7258 C   0  0  0  0  0  0
  -26.0026  -26.7817   19.5759 C   0  0  0  0  0  0
  -24.8590  -27.6116   19.5477 C   0  0  0  0  0  0
  -23.6658  -29.7958   20.1625 C   0  0  0  0  0  0
  -25.4159  -36.2970   24.0374 C   0  0  1  0  0  0
  -20.5930  -28.3633   23.1235 C   0  0  2  0  0  0
  -20.6778  -26.9345   22.5380 C   0  0  0  0  0  0
  -19.5781  -26.6359   21.5167 C   0  0  0  0  0  0
  -18.1971  -26.7959   22.1578 C   0  0  0  0  0  0
  -19.1567  -28.8840   23.2843 C   0  0  0  0  0  0
  -18.9524  -30.1413   23.8881 C   0  0  0  0  0  0
  -17.6552  -30.6612   24.0492 C   0  0  0  0  0  0
  -25.9062  -34.9367   23.5096 C   0  0  0  0  0  0
  -16.5410  -29.9111   23.6313 C   0  0  0  0  0  0
  -16.7308  -28.6531   23.0356 C   0  0  0  0  0  0
  -26.4549  -31.6583   25.0773 C   0  0  0  0  0  0
  -25.3743  -31.3765   26.1455 C   0  0  0  0  0  0
  -27.0470  -30.3045   24.6310 C   0  0  0  0  0  0
  -27.6110  -32.4355   25.7514 C   0  0  0  0  0  0
  -27.5597  -37.1764   24.8478 C   0  0  0  0  0  0
  -21.4209  -29.3001   22.3576 N   0  0  0  0  0  0
  -26.4316  -37.3692   23.9390 N   0  0  0  0  0  0
  -24.7032  -31.0384   22.0990 N   0  0  0  0  0  0
  -23.4110  -28.8172   23.3135 O   0  0  0  0  0  0
  -28.3084  -26.2761   20.1539 O   0  0  0  0  0  0
  -26.5496  -34.8832   22.4561 O   0  0  0  0  0  0
  -23.5468  -32.1435   23.7215 O   0  0  0  0  0  0
  -30.0768  -19.7709   21.7316 C   0  0  0  0  0  0
  -30.2573  -18.3336   21.6545 C   0  0  0  0  0  0
  -29.0347  -18.3383   19.6357 C   0  0  0  0  0  0
  -28.8431  -19.7807   19.7043 C   0  0  0  0  0  0
  -29.3590  -20.5788   20.7801 C   0  0  0  0  0  0
  -29.7386  -17.5242   20.5936 C   0  0  0  0  0  0
  -26.8379  -20.7374   18.5930 C   0  0  0  0  0  0
  -28.1463  -20.4239   18.5841 C   0  0  0  0  0  0
  -29.1834  -22.1908   21.0591 C   0  0  0  0  0  0
  -28.5774  -23.4093   20.0944 C   0  0  0  0  0  0
  -28.2029  -24.8793   20.7669 C   0  0  0  0  0  0
  -29.6622  -16.0016   20.6067 N   0  0  0  0  0  0
  -31.4833  -12.7173   19.1767 H   0  0  0  0  0  0
  -30.4343  -11.5852   19.9780 H   0  0  0  0  0  0
  -29.8310  -11.7517   17.5498 H   0  0  0  0  0  0
  -29.6265  -13.4812   17.6971 H   0  0  0  0  0  0
  -27.9366  -11.2810   18.9372 H   0  0  0  0  0  0
  -27.3889  -12.4815   17.7979 H   0  0  0  0  0  0
  -27.6128  -14.2472   19.4400 H   0  0  0  0  0  0
  -28.7837  -12.1903   21.3803 H   0  0  0  0  0  0
  -28.4121  -13.8412   21.8073 H   0  0  0  0  0  0
  -25.2789   -9.5681   22.4706 H   0  0  0  0  0  0
  -24.0065   -7.4604   22.7413 H   0  0  0  0  0  0
  -21.0888   -8.8673   19.8911 H   0  0  0  0  0  0
  -22.3667  -10.9625   19.6117 H   0  0  0  0  0  0
  -21.1934   -7.6131   23.9688 H   0  0  0  0  0  0
  -21.1492   -6.0513   25.9053 H   0  0  0  0  0  0
  -22.0625   -2.7625   23.2789 H   0  0  0  0  0  0
  -22.4235  -11.9740   22.4723 H   0  0  0  0  0  0
  -21.1136  -13.1011   22.2578 H   0  0  0  0  0  0
  -24.6694  -15.8458   20.5614 H   0  0  0  0  0  0
  -26.2713  -15.6315   20.0849 H   0  0  0  0  0  0
  -26.7135  -32.5343   23.1040 H   0  0  0  0  0  0
  -25.0226  -33.9679   25.0489 H   0  0  0  0  0  0
  -22.7382  -31.2943   21.3904 H   0  0  0  0  0  0
  -23.3815  -35.9465   23.3305 H   0  0  0  0  0  0
  -24.3634  -36.8746   22.2093 H   0  0  0  0  0  0
  -23.7275  -37.6382   23.6621 H   0  0  0  0  0  0
  -26.1554  -31.5112   20.6460 H   0  0  0  0  0  0
  -26.8466  -30.7623   22.0523 H   0  0  0  0  0  0
  -28.1381  -28.8743   21.1993 H   0  0  0  0  0  0
  -25.9275  -25.7870   19.1651 H   0  0  0  0  0  0
  -23.9421  -27.2363   19.1123 H   0  0  0  0  0  0
  -23.8118  -30.5691   19.4090 H   0  0  0  0  0  0
  -22.7829  -29.2381   19.8483 H   0  0  0  0  0  0
  -25.1376  -36.1812   25.0887 H   0  0  0  0  0  0
  -20.9968  -28.3256   24.1383 H   0  0  0  0  0  0
  -20.5617  -26.2273   23.3594 H   0  0  0  0  0  0
  -21.6669  -26.7351   22.1217 H   0  0  0  0  0  0
  -19.6877  -25.6251   21.1238 H   0  0  0  0  0  0
  -19.6797  -27.3117   20.6650 H   0  0  0  0  0  0
  -17.4202  -26.6596   21.4021 H   0  0  0  0  0  0
  -18.0359  -26.0234   22.9114 H   0  0  0  0  0  0
  -19.8029  -30.7143   24.2362 H   0  0  0  0  0  0
  -17.5150  -31.6330   24.5018 H   0  0  0  0  0  0
  -15.5417  -30.2989   23.7721 H   0  0  0  0  0  0
  -15.8716  -28.0781   22.7169 H   0  0  0  0  0  0
  -24.5894  -30.7191   25.7724 H   0  0  0  0  0  0
  -24.8996  -32.2961   26.4895 H   0  0  0  0  0  0
  -25.8049  -30.8885   27.0216 H   0  0  0  0  0  0
  -26.3176  -29.6778   24.1209 H   0  0  0  0  0  0
  -27.4053  -29.7396   25.4946 H   0  0  0  0  0  0
  -27.9028  -30.4388   23.9679 H   0  0  0  0  0  0
  -27.2708  -33.3638   26.2142 H   0  0  0  0  0  0
  -28.3849  -32.6984   25.0279 H   0  0  0  0  0  0
  -28.0831  -31.8432   26.5376 H   0  0  0  0  0  0
  -28.2632  -38.0061   24.7457 H   0  0  0  0  0  0
  -28.1087  -36.2574   24.6370 H   0  0  0  0  0  0
  -27.2235  -37.1473   25.8869 H   0  0  0  0  0  0
  -20.9362  -29.8747   21.6824 H   0  0  0  0  0  0
  -26.0169  -38.2750   24.1421 H   0  0  0  0  0  0
  -30.4900  -20.2667   22.5977 H   0  0  0  0  0  0
  -30.7820  -17.8571   22.4698 H   0  0  0  0  0  0
  -28.5729  -17.8246   18.8082 H   0  0  0  0  0  0
  -26.3664  -21.1983   17.7376 H   0  0  0  0  0  0
  -26.2085  -20.5428   19.4521 H   0  0  0  0  0  0
  -28.7551  -20.6434   17.7146 H   0  0  0  0  0  0
  -30.1978  -22.5163   21.3252 H   0  0  0  0  0  0
  -28.6548  -22.2502   22.0170 H   0  0  0  0  0  0
  -29.2736  -23.5629   19.2615 H   0  0  0  0  0  0
  -27.6524  -23.0775   19.6104 H   0  0  0  0  0  0
  -28.8724  -24.9429   21.6257 H   0  0  0  0  0  0
  -27.2110  -24.7884   21.2190 H   0  0  0  0  0  0
  -28.7088  -15.6776   20.6163 H   0  0  0  0  0  0
  1 25  1  0  0  0
  1 30  2  0  0  0
  1 82  1  0  0  0
  2  3  1  0  0  0
  2 25  1  0  0  0
  2 83  1  0  0  0
  2 84  1  0  0  0
  3  4  1  0  0  0
  3 85  1  0  0  0
  3 86  1  0  0  0
  4  5  1  0  0  0
  4 87  1  0  0  0
  4 88  1  0  0  0
  5  6  1  0  0  0
  5 26  1  0  0  0
  5 89  1  0  0  0
  6 25  1  0  0  0
  6 90  1  0  0  0
  6 91  1  0  0  0
  7  8  2  0  0  0
  7 26  1  0  0  0
  7 29  1  0  0  0
  8  9  1  0  0  0
  8 22  1  0  0  0
  9 10  1  0  0  0
  9 27  2  0  0  0
 10 11  2  0  0  0
 10 15  1  0  0  0
 11 12  1  0  0  0
 11 92  1  0  0  0
 12 13  2  0  0  0
 12 93  1  0  0  0
 13 14  1  0  0  0
 13 31  1  0  0  0
 14 15  2  0  0  0
 14 94  1  0  0  0
 15 95  1  0  0  0
 16 17  2  0  0  0
 16 21  1  0  0  0
 16 31  1  0  0  0
 17 18  1  0  0  0
 17 96  1  0  0  0
 18 19  2  0  0  0
 18 97  1  0  0  0
 19 20  1  0  0  0
 19 24  1  0  0  0
 20 21  2  0  0  0
 20 98  1  0  0  0
 21 23  1  0  0  0
 22 28  1  0  0  0
 22 32  2  0  0  0
 26 27  1  0  0  0
 28 99  1  0  0  0
 28100  1  0  0  0
 29101  1  0  0  0
 29102  1  0  0  0
 33 34  1  0  0  0
 33 66  1  0  0  0
 33 70  2  0  0  0
 34 36  1  0  0  0
 34 59  1  0  0  0
 34103  1  0  0  0
 35 44  2  0  0  0
 35 45  1  0  0  0
 35 68  1  0  0  0
 36 56  1  0  0  0
 36104  1  0  0  0
 37 39  1  0  0  0
 37 47  1  0  0  0
 37 66  1  0  0  0
 37105  1  0  0  0
 38 43  2  0  0  0
 38 46  1  0  0  0
 38 47  1  0  0  0
 39 64  1  0  0  0
 39 67  2  0  0  0
 40 52  1  0  0  0
 40 53  2  0  0  0
 40 58  1  0  0  0
 41106  1  0  0  0
 41107  1  0  0  0
 41108  1  0  0  0
 41 48  1  0  0  0
 42 43  1  0  0  0
 42 66  1  0  0  0
 42109  1  0  0  0
 42110  1  0  0  0
 43 44  1  0  0  0
 44111  1  0  0  0
 45 46  2  0  0  0
 45112  1  0  0  0
 46113  1  0  0  0
 47114  1  0  0  0
 47115  1  0  0  0
 48 56  1  0  0  0
 48 65  1  0  0  0
 48116  1  0  0  0
 49 50  1  0  0  0
 49 53  1  0  0  0
 49 64  1  0  0  0
 49117  1  0  0  0
 50 51  1  0  0  0
 50118  1  0  0  0
 50119  1  0  0  0
 51 52  1  0  0  0
 51120  1  0  0  0
 51121  1  0  0  0
 52122  1  0  0  0
 52123  1  0  0  0
 53 54  1  0  0  0
 54 55  2  0  0  0
 54124  1  0  0  0
 55 57  1  0  0  0
 55125  1  0  0  0
 56 69  2  0  0  0
 57 58  2  0  0  0
 57126  1  0  0  0
 58127  1  0  0  0
 59 60  1  0  0  0
 59 61  1  0  0  0
 59 62  1  0  0  0
 60128  1  0  0  0
 60129  1  0  0  0
 60130  1  0  0  0
 61131  1  0  0  0
 61132  1  0  0  0
 61133  1  0  0  0
 62134  1  0  0  0
 62135  1  0  0  0
 62136  1  0  0  0
 63 65  1  0  0  0
 63137  1  0  0  0
 63138  1  0  0  0
 63139  1  0  0  0
 64140  1  0  0  0
 65141  1  0  0  0
 68 81  1  0  0  0
 71 72  2  0  0  0
 71 75  1  0  0  0
 71142  1  0  0  0
 72 76  1  0  0  0
 72143  1  0  0  0
 73 74  1  0  0  0
 73 76  2  0  0  0
 73144  1  0  0  0
 74 75  2  0  0  0
 74 78  1  0  0  0
 75 79  1  0  0  0
 76 82  1  0  0  0
 77 78  2  0  0  0
 77145  1  0  0  0
 77146  1  0  0  0
 78147  1  0  0  0
 79 80  1  0  0  0
 79148  1  0  0  0
 79149  1  0  0  0
 80 81  1  0  0  0
 80150  1  0  0  0
 80151  1  0  0  0
 81152  1  0  0  0
 81153  1  0  0  0
 82154  1  0  0  0
M  ISO  4   1 100  68 101  81 101  82 100
M  END
> <chiral flag>
0

> <version>
0

> <s_m_source_file>
/data/baiqing/PycharmProjects/Reinvent-master-3.2/result/LINK_invent/BTK/process_docking_weight1_custom_product_contain_oxygen_bond_distance_aromatic_linkinvent_7_9_3/rearranged_h_0125.sdf

> <i_m_source_file_index>
82

> <r_mmod_Potential_Energy-OPLS-2005>
443.1513671875

> <r_mmod_Stretch_Energy-OPLS-2005>
191.791168212891

> <r_mmod_Bend_Energy-OPLS-2005>
243.587142944336

> <r_mmod_Torsional_Energy-OPLS-2005>
296.165405273438

> <r_mmod_Improper_Torsional_Energy-OPLS-2005>
7.61379289627075

> <r_mmod_Van_der_Waal_Energy-OPLS-2005>
126.49146270752

> <r_mmod_Electrostatic_Energy-OPLS-2005>
-366.753631591797

> <r_mmod_Solvation_Energy-OPLS-2005>
-205.944839477539

> <b_mmod_Minimization_Converged-OPLS-2005>
0

> <r_mmod_RMS_Derivative-OPLS-2005>
8.77253150939941

$$$$
82
                    3D
 Structure written by MMmdl.
166174  0  0  1  0            999 V2000
  -30.6210  -14.6282   20.5153 C   0  0  0  0  0  0
  -30.4420  -12.3892   19.4529 C   0  0  0  0  0  0
  -29.5096  -12.5102   18.2262 C   0  0  0  0  0  0
  -28.0316  -12.3464   18.6344 C   0  0  0  0  0  0
  -27.6549  -13.2132   19.8650 C   0  0  2  0  0  0
  -28.6974  -13.0548   20.9952 C   0  0  0  0  0  0
  -25.2556  -13.8173   20.5665 C   0  0  0  0  0  0
  -24.1822  -13.0447   20.9178 C   0  0  0  0  0  0
  -24.6386  -11.6918   20.8736 C   0  0  0  0  0  0
  -23.9056  -10.4303   21.0405 C   0  0  0  0  0  0
  -24.3614   -9.4224   21.9184 C   0  0  0  0  0  0
  -23.6298   -8.2254   22.0750 C   0  0  0  0  0  0
  -22.4282   -8.0285   21.3539 C   0  0  0  0  0  0
  -21.9907   -9.0259   20.4648 C   0  0  0  0  0  0
  -22.7222  -10.2149   20.3059 C   0  0  0  0  0  0
  -21.6858   -6.0742   22.5282 C   0  0  0  0  0  0
  -21.4014   -6.5645   23.8216 C   0  0  0  0  0  0
  -21.3653   -5.6793   24.9172 C   0  0  0  0  0  0
  -21.6049   -4.3056   24.7218 C   0  0  0  0  0  0
  -21.8816   -3.8151   23.4335 C   0  0  0  0  0  0
  -21.9193   -4.6970   22.3398 C   0  0  0  0  0  0
  -22.7842  -13.5254   21.1842 C   0  0  0  0  0  0
  -22.1664   -4.2159   21.0974 F   0  0  0  0  0  0
  -21.5624   -3.4537   25.7728 F   0  0  0  0  0  0
  -30.0169  -13.3997   20.4405 N   0  0  0  0  0  0
  -26.2987  -12.9347   20.3310 N   0  0  0  0  0  0
  -25.9312  -11.6508   20.5752 N   0  0  0  0  0  0
  -22.0466  -12.8268   22.0402 N   0  0  0  0  0  0
  -25.4274  -15.1891   20.4074 N   0  0  0  0  0  0
  -31.7706  -14.8104   20.1040 O   0  0  0  0  0  0
  -21.6643   -6.8883   21.4244 O   0  0  0  0  0  0
  -22.3534  -14.5553   20.6675 O   0  0  0  0  0  0
  -24.6249  -31.8624   23.2047 C   0  0  0  0  0  0
  -25.9092  -32.4803   23.8369 C   0  0  1  0  0  0
  -27.2178  -27.3264   20.1021 C   0  0  0  0  0  0
  -25.5906  -33.8605   24.2292 N   0  0  0  0  0  0
  -23.4161  -30.4876   21.5491 C   0  0  2  0  0  0
  -24.8584  -28.9438   20.1128 C   0  0  0  0  0  0
  -22.7454  -29.4637   22.4954 C   0  0  0  0  0  0
  -18.0278  -28.1383   22.8489 C   0  0  0  0  0  0
  -24.1485  -36.7295   23.2643 C   0  0  0  0  0  0
  -25.9579  -30.7934   21.3746 C   0  0  0  0  0  0
  -26.0298  -29.4221   20.7134 C   0  0  0  0  0  0
  -27.2121  -28.6248   20.6990 C   0  0  0  0  0  0
  -26.0181  -26.8967   19.4875 C   0  0  0  0  0  0
  -24.8524  -27.6846   19.4967 C   0  0  0  0  0  0
  -23.6285  -29.8263   20.1636 C   0  0  0  0  0  0
  -25.4119  -36.3104   24.0335 C   0  0  1  0  0  0
  -20.5875  -28.3678   23.1289 C   0  0  2  0  0  0
  -20.6762  -26.9400   22.5414 C   0  0  0  0  0  0
  -19.5745  -26.6376   21.5209 C   0  0  0  0  0  0
  -18.1925  -26.7928   22.1621 C   0  0  0  0  0  0
  -19.1532  -28.8848   23.2883 C   0  0  0  0  0  0
  -18.9458  -30.1449   23.8898 C   0  0  0  0  0  0
  -17.6461  -30.6590   24.0557 C   0  0  0  0  0  0
  -25.9052  -34.9471   23.5115 C   0  0  0  0  0  0
  -16.5348  -29.9092   23.6326 C   0  0  0  0  0  0
  -16.7264  -28.6505   23.0354 C   0  0  0  0  0  0
  -26.4480  -31.6620   25.0736 C   0  0  0  0  0  0
  -25.3706  -31.3755   26.1454 C   0  0  0  0  0  0
  -27.0318  -30.3047   24.6192 C   0  0  0  0  0  0
  -27.6055  -32.4349   25.7493 C   0  0  0  0  0  0
  -27.5587  -37.1812   24.8469 C   0  0  0  0  0  0
  -21.4169  -29.3041   22.3691 N   0  0  0  0  0  0
  -26.4306  -37.3789   23.9404 N   0  0  0  0  0  0
  -24.6851  -31.0643   22.0997 N   0  0  0  0  0  0
  -23.4189  -28.8167   23.3013 O   0  0  0  0  0  0
  -28.3416  -26.4862   20.1356 O   0  0  0  0  0  0
  -26.5621  -34.8924   22.4684 O   0  0  0  0  0  0
  -23.5413  -32.1425   23.7380 O   0  0  0  0  0  0
  -29.2828  -17.6608   19.5521 C   0  0  0  0  0  0
  -30.4069  -17.9923   21.6486 C   0  0  0  0  0  0
  -29.7175  -19.9947   20.3218 C   0  0  0  0  0  0
  -29.2048  -19.0735   19.3586 C   0  0  0  0  0  0
  -30.3333  -19.4080   21.4709 C   0  0  0  0  0  0
  -29.8976  -17.0833   20.6906 C   0  0  0  0  0  0
  -29.7929  -21.4929   20.0516 C   0  0  0  0  0  0
  -29.0691  -22.5378   20.5640 C   0  0  0  0  0  0
  -29.4864  -19.5349   16.8750 C   0  0  0  0  0  0
  -30.4679  -21.5636   24.7204 C   0  0  0  0  0  0
  -28.5424  -19.5755   18.0826 C   0  0  0  0  0  0
  -30.9326  -20.2863   22.5602 C   0  0  0  0  0  0
  -29.3373  -24.0663   20.3331 C   0  0  0  0  0  0
  -29.8912  -20.6659   23.6221 C   0  0  0  0  0  0
  -28.1206  -25.0266   20.0232 C   0  0  0  0  0  0
  -29.8270  -15.6523   20.9485 N   0  0  0  0  0  0
  -31.4812  -12.5241   19.1486 H   0  0  0  0  0  0
  -30.3870  -11.3904   19.8886 H   0  0  0  0  0  0
  -29.7771  -11.7656   17.4746 H   0  0  0  0  0  0
  -29.6490  -13.4839   17.7543 H   0  0  0  0  0  0
  -27.8658  -11.2931   18.8606 H   0  0  0  0  0  0
  -27.3793  -12.5803   17.7924 H   0  0  0  0  0  0
  -27.6787  -14.2504   19.5306 H   0  0  0  0  0  0
  -28.7056  -12.0295   21.3685 H   0  0  0  0  0  0
  -28.4377  -13.6770   21.8525 H   0  0  0  0  0  0
  -25.2758   -9.5720   22.4755 H   0  0  0  0  0  0
  -24.0021   -7.4648   22.7463 H   0  0  0  0  0  0
  -21.0833   -8.8772   19.8958 H   0  0  0  0  0  0
  -22.3667  -10.9688   19.6172 H   0  0  0  0  0  0
  -21.2013   -7.6154   23.9727 H   0  0  0  0  0  0
  -21.1475   -6.0518   25.9082 H   0  0  0  0  0  0
  -22.0601   -2.7615   23.2829 H   0  0  0  0  0  0
  -22.4069  -11.9964   22.4860 H   0  0  0  0  0  0
  -21.1077  -13.1312   22.2567 H   0  0  0  0  0  0
  -24.6584  -15.8416   20.5128 H   0  0  0  0  0  0
  -26.2783  -15.6309   20.0839 H   0  0  0  0  0  0
  -26.7153  -32.5469   23.1111 H   0  0  0  0  0  0
  -25.0023  -33.9761   25.0415 H   0  0  0  0  0  0
  -22.7086  -31.3082   21.4104 H   0  0  0  0  0  0
  -23.3753  -35.9623   23.3337 H   0  0  0  0  0  0
  -24.3561  -36.8882   22.2048 H   0  0  0  0  0  0
  -23.7234  -37.6507   23.6641 H   0  0  0  0  0  0
  -26.0892  -31.5593   20.6091 H   0  0  0  0  0  0
  -26.8383  -30.8398   22.0040 H   0  0  0  0  0  0
  -28.1095  -28.9881   21.1794 H   0  0  0  0  0  0
  -25.9474  -25.9361   18.9993 H   0  0  0  0  0  0
  -23.9496  -27.3098   19.0332 H   0  0  0  0  0  0
  -23.7485  -30.6061   19.4107 H   0  0  0  0  0  0
  -22.7460  -29.2607   19.8591 H   0  0  0  0  0  0
  -25.1302  -36.1969   25.0832 H   0  0  0  0  0  0
  -20.9970  -28.3236   24.1408 H   0  0  0  0  0  0
  -20.5646  -26.2279   23.3608 H   0  0  0  0  0  0
  -21.6634  -26.7421   22.1217 H   0  0  0  0  0  0
  -19.6898  -25.6283   21.1250 H   0  0  0  0  0  0
  -19.6695  -27.3171   20.6729 H   0  0  0  0  0  0
  -17.4192  -26.6663   21.4026 H   0  0  0  0  0  0
  -18.0331  -26.0078   22.9027 H   0  0  0  0  0  0
  -19.7933  -30.7259   24.2278 H   0  0  0  0  0  0
  -17.5018  -31.6276   24.5145 H   0  0  0  0  0  0
  -15.5350  -30.2997   23.7661 H   0  0  0  0  0  0
  -15.8657  -28.0824   22.7086 H   0  0  0  0  0  0
  -24.5873  -30.7120   25.7768 H   0  0  0  0  0  0
  -24.8893  -32.2913   26.4896 H   0  0  0  0  0  0
  -25.8013  -30.8909   27.0222 H   0  0  0  0  0  0
  -26.2887  -29.6808   24.1208 H   0  0  0  0  0  0
  -27.3999  -29.7309   25.4709 H   0  0  0  0  0  0
  -27.8767  -30.4345   23.9424 H   0  0  0  0  0  0
  -27.2689  -33.3654   26.2081 H   0  0  0  0  0  0
  -28.3851  -32.6910   25.0304 H   0  0  0  0  0  0
  -28.0733  -31.8459   26.5392 H   0  0  0  0  0  0
  -28.2639  -38.0080   24.7497 H   0  0  0  0  0  0
  -28.1054  -36.2614   24.6333 H   0  0  0  0  0  0
  -27.2293  -37.1507   25.8869 H   0  0  0  0  0  0
  -20.9333  -29.8785   21.6931 H   0  0  0  0  0  0
  -26.0197  -38.2874   24.1386 H   0  0  0  0  0  0
  -28.8493  -17.0070   18.8090 H   0  0  0  0  0  0
  -30.8548  -17.5996   22.5510 H   0  0  0  0  0  0
  -30.5895  -21.7584   19.3714 H   0  0  0  0  0  0
  -28.2558  -22.3120   21.2391 H   0  0  0  0  0  0
  -28.9941  -19.9318   15.9870 H   0  0  0  0  0  0
  -29.7967  -18.5144   16.6508 H   0  0  0  0  0  0
  -30.3846  -20.1287   17.0492 H   0  0  0  0  0  0
  -29.7144  -21.7809   25.4783 H   0  0  0  0  0  0
  -30.8117  -22.5136   24.3104 H   0  0  0  0  0  0
  -31.3128  -21.0866   25.2192 H   0  0  0  0  0  0
  -28.1559  -20.5855   18.2198 H   0  0  0  0  0  0
  -27.6670  -18.9585   17.8770 H   0  0  0  0  0  0
  -31.3800  -21.1809   22.1259 H   0  0  0  0  0  0
  -31.7571  -19.7519   23.0351 H   0  0  0  0  0  0
  -30.0919  -24.1818   19.5549 H   0  0  0  0  0  0
  -29.8020  -24.4274   21.2509 H   0  0  0  0  0  0
  -29.0516  -21.1743   23.1484 H   0  0  0  0  0  0
  -29.4849  -19.7593   24.0721 H   0  0  0  0  0  0
  -27.3085  -24.7539   20.6988 H   0  0  0  0  0  0
  -27.7805  -24.7952   19.0128 H   0  0  0  0  0  0
  -28.9348  -15.3321   21.2935 H   0  0  0  0  0  0
  1 25  1  0  0  0
  1 30  2  0  0  0
  1 86  1  0  0  0
  2  3  1  0  0  0
  2 25  1  0  0  0
  2 87  1  0  0  0
  2 88  1  0  0  0
  3  4  1  0  0  0
  3 89  1  0  0  0
  3 90  1  0  0  0
  4  5  1  0  0  0
  4 91  1  0  0  0
  4 92  1  0  0  0
  5  6  1  0  0  0
  5 26  1  0  0  0
  5 93  1  0  0  0
  6 25  1  0  0  0
  6 94  1  0  0  0
  6 95  1  0  0  0
  7  8  2  0  0  0
  7 26  1  0  0  0
  7 29  1  0  0  0
  8  9  1  0  0  0
  8 22  1  0  0  0
  9 10  1  0  0  0
  9 27  2  0  0  0
 10 11  2  0  0  0
 10 15  1  0  0  0
 11 12  1  0  0  0
 11 96  1  0  0  0
 12 13  2  0  0  0
 12 97  1  0  0  0
 13 14  1  0  0  0
 13 31  1  0  0  0
 14 15  2  0  0  0
 14 98  1  0  0  0
 15 99  1  0  0  0
 16 17  2  0  0  0
 16 21  1  0  0  0
 16 31  1  0  0  0
 17 18  1  0  0  0
 17100  1  0  0  0
 18 19  2  0  0  0
 18101  1  0  0  0
 19 20  1  0  0  0
 19 24  1  0  0  0
 20 21  2  0  0  0
 20102  1  0  0  0
 21 23  1  0  0  0
 22 28  1  0  0  0
 22 32  2  0  0  0
 26 27  1  0  0  0
 28103  1  0  0  0
 28104  1  0  0  0
 29105  1  0  0  0
 29106  1  0  0  0
 33 34  1  0  0  0
 33 66  1  0  0  0
 33 70  2  0  0  0
 34 36  1  0  0  0
 34 59  1  0  0  0
 34107  1  0  0  0
 35 44  2  0  0  0
 35 45  1  0  0  0
 35 68  1  0  0  0
 36 56  1  0  0  0
 36108  1  0  0  0
 37 39  1  0  0  0
 37 47  1  0  0  0
 37 66  1  0  0  0
 37109  1  0  0  0
 38 43  2  0  0  0
 38 46  1  0  0  0
 38 47  1  0  0  0
 39 64  1  0  0  0
 39 67  2  0  0  0
 40 52  1  0  0  0
 40 53  2  0  0  0
 40 58  1  0  0  0
 41110  1  0  0  0
 41111  1  0  0  0
 41112  1  0  0  0
 41 48  1  0  0  0
 42 43  1  0  0  0
 42 66  1  0  0  0
 42113  1  0  0  0
 42114  1  0  0  0
 43 44  1  0  0  0
 44115  1  0  0  0
 45 46  2  0  0  0
 45116  1  0  0  0
 46117  1  0  0  0
 47118  1  0  0  0
 47119  1  0  0  0
 48 56  1  0  0  0
 48 65  1  0  0  0
 48120  1  0  0  0
 49 50  1  0  0  0
 49 53  1  0  0  0
 49 64  1  0  0  0
 49121  1  0  0  0
 50 51  1  0  0  0
 50122  1  0  0  0
 50123  1  0  0  0
 51 52  1  0  0  0
 51124  1  0  0  0
 51125  1  0  0  0
 52126  1  0  0  0
 52127  1  0  0  0
 53 54  1  0  0  0
 54 55  2  0  0  0
 54128  1  0  0  0
 55 57  1  0  0  0
 55129  1  0  0  0
 56 69  2  0  0  0
 57 58  2  0  0  0
 57130  1  0  0  0
 58131  1  0  0  0
 59 60  1  0  0  0
 59 61  1  0  0  0
 59 62  1  0  0  0
 60132  1  0  0  0
 60133  1  0  0  0
 60134  1  0  0  0
 61135  1  0  0  0
 61136  1  0  0  0
 61137  1  0  0  0
 62138  1  0  0  0
 62139  1  0  0  0
 62140  1  0  0  0
 63 65  1  0  0  0
 63141  1  0  0  0
 63142  1  0  0  0
 63143  1  0  0  0
 64144  1  0  0  0
 65145  1  0  0  0
 68 85  1  0  0  0
 71 74  2  0  0  0
 71 76  1  0  0  0
 71146  1  0  0  0
 72 75  1  0  0  0
 72 76  2  0  0  0
 72147  1  0  0  0
 73 74  1  0  0  0
 73 75  2  0  0  0
 73 77  1  0  0  0
 74 81  1  0  0  0
 75 82  1  0  0  0
 76 86  1  0  0  0
 77 78  2  0  0  0
 77148  1  0  0  0
 78 83  1  0  0  0
 78149  1  0  0  0
 79 81  1  0  0  0
 79150  1  0  0  0
 79151  1  0  0  0
 79152  1  0  0  0
 80 84  1  0  0  0
 80153  1  0  0  0
 80154  1  0  0  0
 80155  1  0  0  0
 81156  1  0  0  0
 81157  1  0  0  0
 82 84  1  0  0  0
 82158  1  0  0  0
 82159  1  0  0  0
 83 85  1  0  0  0
 83160  1  0  0  0
 83161  1  0  0  0
 84162  1  0  0  0
 84163  1  0  0  0
 85164  1  0  0  0
 85165  1  0  0  0
 86166  1  0  0  0
M  ISO  4   1 100  68 101  85 101  86 100
M  END
> <chiral flag>
0

> <version>
0

> <s_m_source_file>
/data/baiqing/PycharmProjects/Reinvent-master-3.2/result/LINK_invent/BTK/process_docking_weight1_custom_product_contain_oxygen_bond_distance_aromatic_linkinvent_7_9_3/rearranged_h_0125.sdf

> <i_m_source_file_index>
83

> <r_mmod_Potential_Energy-OPLS-2005>
84.1642608642578

> <r_mmod_Stretch_Energy-OPLS-2005>
72.9448699951172

> <r_mmod_Bend_Energy-OPLS-2005>
120.914779663086

> <r_mmod_Torsional_Energy-OPLS-2005>
269.776763916016

> <r_mmod_Improper_Torsional_Energy-OPLS-2005>
6.25795888900757

> <r_mmod_Van_der_Waal_Energy-OPLS-2005>
138.895553588867

> <r_mmod_Electrostatic_Energy-OPLS-2005>
-370.181610107422

> <r_mmod_Solvation_Energy-OPLS-2005>
-198.926940917969

> <b_mmod_Minimization_Converged-OPLS-2005>
0

> <r_mmod_RMS_Derivative-OPLS-2005>
1.67171001434326

$$$$
83
                    3D
 Structure written by MMmdl.
159167  0  0  1  0            999 V2000
  -30.5146  -14.9410   20.4057 C   0  0  0  0  0  0
  -30.4342  -12.5694   19.5110 C   0  0  0  0  0  0
  -29.5151  -12.5256   18.2636 C   0  0  0  0  0  0
  -28.0420  -12.3349   18.6737 C   0  0  0  0  0  0
  -27.6324  -13.2439   19.8658 C   0  0  2  0  0  0
  -28.6785  -13.2351   20.9994 C   0  0  0  0  0  0
  -25.2459  -13.8156   20.5847 C   0  0  0  0  0  0
  -24.1749  -13.0376   20.9232 C   0  0  0  0  0  0
  -24.6369  -11.6875   20.8757 C   0  0  0  0  0  0
  -23.9087  -10.4236   21.0386 C   0  0  0  0  0  0
  -24.3628   -9.4167   21.9171 C   0  0  0  0  0  0
  -23.6290   -8.2217   22.0760 C   0  0  0  0  0  0
  -22.4279   -8.0242   21.3547 C   0  0  0  0  0  0
  -21.9918   -9.0225   20.4658 C   0  0  0  0  0  0
  -22.7257  -10.2089   20.3050 C   0  0  0  0  0  0
  -21.6847   -6.0738   22.5290 C   0  0  0  0  0  0
  -21.4002   -6.5646   23.8218 C   0  0  0  0  0  0
  -21.3650   -5.6789   24.9178 C   0  0  0  0  0  0
  -21.6043   -4.3053   24.7215 C   0  0  0  0  0  0
  -21.8823   -3.8152   23.4340 C   0  0  0  0  0  0
  -21.9178   -4.6980   22.3394 C   0  0  0  0  0  0
  -22.7759  -13.5156   21.1825 C   0  0  0  0  0  0
  -22.1666   -4.2173   21.0978 F   0  0  0  0  0  0
  -21.5615   -3.4533   25.7733 F   0  0  0  0  0  0
  -29.9513  -13.6635   20.4057 N   0  0  0  0  0  0
  -26.2905  -12.9412   20.3430 N   0  0  0  0  0  0
  -25.9316  -11.6532   20.5832 N   0  0  0  0  0  0
  -22.0436  -12.8155   22.0416 N   0  0  0  0  0  0
  -25.3977  -15.1872   20.4428 N   0  0  0  0  0  0
  -31.6968  -15.0313   20.0496 O   0  0  0  0  0  0
  -21.6624   -6.8872   21.4245 O   0  0  0  0  0  0
  -22.3463  -14.5453   20.6652 O   0  0  0  0  0  0
  -24.6445  -31.8434   23.1859 C   0  0  0  0  0  0
  -25.9209  -32.4688   23.8244 C   0  0  1  0  0  0
  -27.2358  -27.1428   20.1444 C   0  0  0  0  0  0
  -25.5943  -33.8502   24.2182 N   0  0  0  0  0  0
  -23.4477  -30.4611   21.5305 C   0  0  2  0  0  0
  -24.8962  -28.8739   20.1111 C   0  0  0  0  0  0
  -22.7547  -29.4622   22.4857 C   0  0  0  0  0  0
  -18.0324  -28.1419   22.8376 C   0  0  0  0  0  0
  -24.1489  -36.7252   23.2642 C   0  0  0  0  0  0
  -26.0025  -30.7154   21.3797 C   0  0  0  0  0  0
  -26.0739  -29.3251   20.7230 C   0  0  0  0  0  0
  -27.2417  -28.4749   20.7190 C   0  0  0  0  0  0
  -26.0284  -26.7768   19.5101 C   0  0  0  0  0  0
  -24.8859  -27.6134   19.4909 C   0  0  0  0  0  0
  -23.6695  -29.7744   20.1546 C   0  0  0  0  0  0
  -25.4132  -36.3040   24.0314 C   0  0  1  0  0  0
  -20.5918  -28.3798   23.1195 C   0  0  2  0  0  0
  -20.6886  -26.9522   22.5304 C   0  0  0  0  0  0
  -19.5816  -26.6464   21.5140 C   0  0  0  0  0  0
  -18.1973  -26.7972   22.1474 C   0  0  0  0  0  0
  -19.1570  -28.8896   23.2782 C   0  0  0  0  0  0
  -18.9463  -30.1458   23.8890 C   0  0  0  0  0  0
  -17.6445  -30.6539   24.0629 C   0  0  0  0  0  0
  -25.9087  -34.9405   23.5082 C   0  0  0  0  0  0
  -16.5369  -29.9071   23.6299 C   0  0  0  0  0  0
  -16.7313  -28.6521   23.0262 C   0  0  0  0  0  0
  -26.4536  -31.6561   25.0682 C   0  0  0  0  0  0
  -25.3729  -31.3737   26.1376 C   0  0  0  0  0  0
  -27.0388  -30.2966   24.6254 C   0  0  0  0  0  0
  -27.6052  -32.4326   25.7489 C   0  0  0  0  0  0
  -27.5582  -37.1794   24.8464 C   0  0  0  0  0  0
  -21.4229  -29.3162   22.3625 N   0  0  0  0  0  0
  -26.4293  -37.3744   23.9403 N   0  0  0  0  0  0
  -24.7181  -31.0286   22.0876 N   0  0  0  0  0  0
  -23.4201  -28.8088   23.2946 O   0  0  0  0  0  0
  -28.3290  -26.2068   20.1905 O   0  0  0  0  0  0
  -26.5645  -34.8903   22.4648 O   0  0  0  0  0  0
  -23.5566  -32.1306   23.7082 O   0  0  0  0  0  0
  -27.2243  -17.5795   19.2466 C   0  0  0  0  0  0
  -27.8927  -18.8469   21.1991 C   0  0  0  0  0  0
  -26.8704  -18.2838   20.4188 C   0  0  0  0  0  0
  -28.5737  -17.2127   19.0153 C   0  0  0  0  0  0
  -29.2008  -18.7659   20.6974 C   0  0  0  0  0  0
  -29.5476  -17.4658   20.0189 C   0  0  0  0  0  0
  -25.4207  -18.5815   20.7507 C   0  0  0  0  0  0
  -28.8676  -16.3466   17.8047 C   0  0  0  0  0  0
  -29.7297  -20.2923   20.3767 C   0  0  0  0  0  0
  -28.7322  -21.6682   20.3942 C   0  0  0  0  0  0
  -29.1724  -23.2695   20.1044 C   0  0  0  0  0  0
  -28.1701  -24.6567   20.1586 C   0  0  0  0  0  0
  -29.7420  -16.1004   20.7024 N   0  0  0  0  0  0
  -31.4727  -12.7128   19.2049 H   0  0  0  0  0  0
  -30.4152  -11.6097   20.0303 H   0  0  0  0  0  0
  -29.8203  -11.7218   17.5918 H   0  0  0  0  0  0
  -29.6195  -13.4487   17.6934 H   0  0  0  0  0  0
  -27.9059  -11.2853   18.9443 H   0  0  0  0  0  0
  -27.3842  -12.5146   17.8225 H   0  0  0  0  0  0
  -27.5978  -14.2627   19.4867 H   0  0  0  0  0  0
  -28.7667  -12.2395   21.4396 H   0  0  0  0  0  0
  -28.3840  -13.8992   21.8128 H   0  0  0  0  0  0
  -25.2773   -9.5640   22.4762 H   0  0  0  0  0  0
  -23.9995   -7.4614   22.7480 H   0  0  0  0  0  0
  -21.0851   -8.8716   19.8977 H   0  0  0  0  0  0
  -22.3691  -10.9618   19.6163 H   0  0  0  0  0  0
  -21.2015   -7.6157   23.9728 H   0  0  0  0  0  0
  -21.1468   -6.0525   25.9081 H   0  0  0  0  0  0
  -22.0614   -2.7623   23.2821 H   0  0  0  0  0  0
  -22.4112  -11.9839   22.4798 H   0  0  0  0  0  0
  -21.1050  -13.1148   22.2642 H   0  0  0  0  0  0
  -24.6124  -15.8104   20.5906 H   0  0  0  0  0  0
  -26.2480  -15.6756   20.1890 H   0  0  0  0  0  0
  -26.7262  -32.5277   23.0943 H   0  0  0  0  0  0
  -25.0007  -33.9605   25.0279 H   0  0  0  0  0  0
  -22.7541  -31.2885   21.3682 H   0  0  0  0  0  0
  -23.3757  -35.9569   23.3295 H   0  0  0  0  0  0
  -24.3548  -36.8916   22.2057 H   0  0  0  0  0  0
  -23.7250  -37.6458   23.6674 H   0  0  0  0  0  0
  -26.1521  -31.4595   20.5961 H   0  0  0  0  0  0
  -26.8784  -30.7692   22.0171 H   0  0  0  0  0  0
  -28.1413  -28.8137   21.2103 H   0  0  0  0  0  0
  -25.9443  -25.8057   19.0483 H   0  0  0  0  0  0
  -23.9826  -27.2565   19.0138 H   0  0  0  0  0  0
  -23.7987  -30.5417   19.3920 H   0  0  0  0  0  0
  -22.7837  -29.2100   19.8516 H   0  0  0  0  0  0
  -25.1339  -36.1863   25.0801 H   0  0  0  0  0  0
  -21.0012  -28.3397   24.1322 H   0  0  0  0  0  0
  -20.5971  -26.2402   23.3518 H   0  0  0  0  0  0
  -21.6728  -26.7718   22.0944 H   0  0  0  0  0  0
  -19.6947  -25.6399   21.1139 H   0  0  0  0  0  0
  -19.6700  -27.3312   20.6718 H   0  0  0  0  0  0
  -17.4272  -26.6800   21.3823 H   0  0  0  0  0  0
  -18.0415  -25.9960   22.8726 H   0  0  0  0  0  0
  -19.7927  -30.7276   24.2299 H   0  0  0  0  0  0
  -17.4904  -31.6154   24.5318 H   0  0  0  0  0  0
  -15.5361  -30.2931   23.7639 H   0  0  0  0  0  0
  -15.8732  -28.0819   22.6936 H   0  0  0  0  0  0
  -24.5899  -30.7099   25.7710 H   0  0  0  0  0  0
  -24.8895  -32.2895   26.4774 H   0  0  0  0  0  0
  -25.8008  -30.8931   27.0180 H   0  0  0  0  0  0
  -26.2998  -29.6684   24.1271 H   0  0  0  0  0  0
  -27.4035  -29.7273   25.4820 H   0  0  0  0  0  0
  -27.8870  -30.4239   23.9527 H   0  0  0  0  0  0
  -27.2652  -33.3641   26.2026 H   0  0  0  0  0  0
  -28.3885  -32.6910   25.0345 H   0  0  0  0  0  0
  -28.0672  -31.8477   26.5460 H   0  0  0  0  0  0
  -28.2622  -38.0079   24.7516 H   0  0  0  0  0  0
  -28.1074  -36.2622   24.6291 H   0  0  0  0  0  0
  -27.2272  -37.1440   25.8858 H   0  0  0  0  0  0
  -20.9420  -29.8845   21.6788 H   0  0  0  0  0  0
  -26.0169  -38.2811   24.1397 H   0  0  0  0  0  0
  -26.4599  -17.2794   18.5484 H   0  0  0  0  0  0
  -27.6063  -19.6355   21.8829 H   0  0  0  0  0  0
  -24.7608  -18.3521   19.9143 H   0  0  0  0  0  0
  -25.2878  -19.6343   21.0017 H   0  0  0  0  0  0
  -25.0997  -17.9881   21.6062 H   0  0  0  0  0  0
  -28.6801  -16.9065   16.8894 H   0  0  0  0  0  0
  -28.2105  -15.4806   17.7804 H   0  0  0  0  0  0
  -29.8988  -15.9957   17.7777 H   0  0  0  0  0  0
  -30.2194  -20.2435   19.4036 H   0  0  0  0  0  0
  -30.5455  -20.4812   21.0775 H   0  0  0  0  0  0
  -28.2383  -21.6909   21.3645 H   0  0  0  0  0  0
  -27.9297  -21.4441   19.6926 H   0  0  0  0  0  0
  -29.6204  -23.2338   19.1061 H   0  0  0  0  0  0
  -30.0381  -23.4618   20.7435 H   0  0  0  0  0  0
  -28.6037  -24.9238   19.1935 H   0  0  0  0  0  0
  -28.5281  -24.8147   21.1752 H   0  0  0  0  0  0
  -28.9196  -15.8355   21.2235 H   0  0  0  0  0  0
  1 25  1  0  0  0
  1 30  2  0  0  0
  1 83  1  0  0  0
  2  3  1  0  0  0
  2 25  1  0  0  0
  2 84  1  0  0  0
  2 85  1  0  0  0
  3  4  1  0  0  0
  3 86  1  0  0  0
  3 87  1  0  0  0
  4  5  1  0  0  0
  4 88  1  0  0  0
  4 89  1  0  0  0
  5  6  1  0  0  0
  5 26  1  0  0  0
  5 90  1  0  0  0
  6 25  1  0  0  0
  6 91  1  0  0  0
  6 92  1  0  0  0
  7  8  2  0  0  0
  7 26  1  0  0  0
  7 29  1  0  0  0
  8  9  1  0  0  0
  8 22  1  0  0  0
  9 10  1  0  0  0
  9 27  2  0  0  0
 10 11  2  0  0  0
 10 15  1  0  0  0
 11 12  1  0  0  0
 11 93  1  0  0  0
 12 13  2  0  0  0
 12 94  1  0  0  0
 13 14  1  0  0  0
 13 31  1  0  0  0
 14 15  2  0  0  0
 14 95  1  0  0  0
 15 96  1  0  0  0
 16 17  2  0  0  0
 16 21  1  0  0  0
 16 31  1  0  0  0
 17 18  1  0  0  0
 17 97  1  0  0  0
 18 19  2  0  0  0
 18 98  1  0  0  0
 19 20  1  0  0  0
 19 24  1  0  0  0
 20 21  2  0  0  0
 20 99  1  0  0  0
 21 23  1  0  0  0
 22 28  1  0  0  0
 22 32  2  0  0  0
 26 27  1  0  0  0
 28100  1  0  0  0
 28101  1  0  0  0
 29102  1  0  0  0
 29103  1  0  0  0
 33 34  1  0  0  0
 33 66  1  0  0  0
 33 70  2  0  0  0
 34 36  1  0  0  0
 34 59  1  0  0  0
 34104  1  0  0  0
 35 44  2  0  0  0
 35 45  1  0  0  0
 35 68  1  0  0  0
 36 56  1  0  0  0
 36105  1  0  0  0
 37 39  1  0  0  0
 37 47  1  0  0  0
 37 66  1  0  0  0
 37106  1  0  0  0
 38 43  2  0  0  0
 38 46  1  0  0  0
 38 47  1  0  0  0
 39 64  1  0  0  0
 39 67  2  0  0  0
 40 52  1  0  0  0
 40 53  2  0  0  0
 40 58  1  0  0  0
 41107  1  0  0  0
 41108  1  0  0  0
 41109  1  0  0  0
 41 48  1  0  0  0
 42 43  1  0  0  0
 42 66  1  0  0  0
 42110  1  0  0  0
 42111  1  0  0  0
 43 44  1  0  0  0
 44112  1  0  0  0
 45 46  2  0  0  0
 45113  1  0  0  0
 46114  1  0  0  0
 47115  1  0  0  0
 47116  1  0  0  0
 48 56  1  0  0  0
 48 65  1  0  0  0
 48117  1  0  0  0
 49 50  1  0  0  0
 49 53  1  0  0  0
 49 64  1  0  0  0
 49118  1  0  0  0
 50 51  1  0  0  0
 50119  1  0  0  0
 50120  1  0  0  0
 51 52  1  0  0  0
 51121  1  0  0  0
 51122  1  0  0  0
 52123  1  0  0  0
 52124  1  0  0  0
 53 54  1  0  0  0
 54 55  2  0  0  0
 54125  1  0  0  0
 55 57  1  0  0  0
 55126  1  0  0  0
 56 69  2  0  0  0
 57 58  2  0  0  0
 57127  1  0  0  0
 58128  1  0  0  0
 59 60  1  0  0  0
 59 61  1  0  0  0
 59 62  1  0  0  0
 60129  1  0  0  0
 60130  1  0  0  0
 60131  1  0  0  0
 61132  1  0  0  0
 61133  1  0  0  0
 61134  1  0  0  0
 62135  1  0  0  0
 62136  1  0  0  0
 62137  1  0  0  0
 63 65  1  0  0  0
 63138  1  0  0  0
 63139  1  0  0  0
 63140  1  0  0  0
 64141  1  0  0  0
 65142  1  0  0  0
 68 82  1  0  0  0
 71 73  2  0  0  0
 71 74  1  0  0  0
 71143  1  0  0  0
 72 73  1  0  0  0
 72 75  2  0  0  0
 72144  1  0  0  0
 73 77  1  0  0  0
 74 76  2  0  0  0
 74 78  1  0  0  0
 75 76  1  0  0  0
 75 79  1  0  0  0
 76 83  1  0  0  0
 77145  1  0  0  0
 77146  1  0  0  0
 77147  1  0  0  0
 78148  1  0  0  0
 78149  1  0  0  0
 78150  1  0  0  0
 79 80  1  0  0  0
 79151  1  0  0  0
 79152  1  0  0  0
 80 81  1  0  0  0
 80153  1  0  0  0
 80154  1  0  0  0
 81 82  1  0  0  0
 81155  1  0  0  0
 81156  1  0  0  0
 82157  1  0  0  0
 82158  1  0  0  0
 83159  1  0  0  0
M  ISO  4   1 100  68 101  82 101  83 100
M  END
> <chiral flag>
0

> <version>
0

> <s_m_source_file>
/data/baiqing/PycharmProjects/Reinvent-master-3.2/result/LINK_invent/BTK/process_docking_weight1_custom_product_contain_oxygen_bond_distance_aromatic_linkinvent_7_9_3/rearranged_h_0125.sdf

> <i_m_source_file_index>
84

> <r_mmod_Potential_Energy-OPLS-2005>
987.03515625

> <r_mmod_Stretch_Energy-OPLS-2005>
281.611053466797

> <r_mmod_Bend_Energy-OPLS-2005>
490.891174316406

> <r_mmod_Torsional_Energy-OPLS-2005>
468.068786621094

> <r_mmod_Improper_Torsional_Energy-OPLS-2005>
38.6081848144531

> <r_mmod_Van_der_Waal_Energy-OPLS-2005>
129.2734375

> <r_mmod_Electrostatic_Energy-OPLS-2005>
-408.308074951172

> <r_mmod_Solvation_Energy-OPLS-2005>
-193.072875976562

> <b_mmod_Minimization_Converged-OPLS-2005>
0

> <r_mmod_RMS_Derivative-OPLS-2005>
5.66359186172485

$$$$
84
                    3D
 Structure written by MMmdl.
149157  0  0  1  0            999 V2000
  -30.5256  -14.9512   20.4108 C   0  0  0  0  0  0
  -30.4444  -12.5775   19.5275 C   0  0  0  0  0  0
  -29.5397  -12.5142   18.2744 C   0  0  0  0  0  0
  -28.0651  -12.3078   18.6733 C   0  0  0  0  0  0
  -27.6282  -13.2423   19.8319 C   0  0  2  0  0  0
  -28.6603  -13.2748   20.9749 C   0  0  0  0  0  0
  -25.2483  -13.8201   20.5695 C   0  0  0  0  0  0
  -24.1784  -13.0438   20.9210 C   0  0  0  0  0  0
  -24.6383  -11.6922   20.8745 C   0  0  0  0  0  0
  -23.9067  -10.4292   21.0416 C   0  0  0  0  0  0
  -24.3625   -9.4219   21.9201 C   0  0  0  0  0  0
  -23.6293   -8.2252   22.0749 C   0  0  0  0  0  0
  -22.4267   -8.0279   21.3543 C   0  0  0  0  0  0
  -21.9902   -9.0252   20.4642 C   0  0  0  0  0  0
  -22.7231  -10.2134   20.3067 C   0  0  0  0  0  0
  -21.6853   -6.0729   22.5278 C   0  0  0  0  0  0
  -21.4017   -6.5632   23.8216 C   0  0  0  0  0  0
  -21.3663   -5.6791   24.9171 C   0  0  0  0  0  0
  -21.6054   -4.3053   24.7220 C   0  0  0  0  0  0
  -21.8830   -3.8145   23.4335 C   0  0  0  0  0  0
  -21.9194   -4.6964   22.3388 C   0  0  0  0  0  0
  -22.7824  -13.5235   21.1864 C   0  0  0  0  0  0
  -22.1666   -4.2151   21.0973 F   0  0  0  0  0  0
  -21.5621   -3.4532   25.7729 F   0  0  0  0  0  0
  -29.9471  -13.6822   20.3954 N   0  0  0  0  0  0
  -26.2868  -12.9402   20.3176 N   0  0  0  0  0  0
  -25.9310  -11.6551   20.5708 N   0  0  0  0  0  0
  -22.0461  -12.8236   22.0421 N   0  0  0  0  0  0
  -25.4220  -15.1915   20.4128 N   0  0  0  0  0  0
  -31.7385  -14.9982   20.1699 O   0  0  0  0  0  0
  -21.6634   -6.8864   21.4232 O   0  0  0  0  0  0
  -22.3530  -14.5548   20.6720 O   0  0  0  0  0  0
  -24.6433  -31.8451   23.1870 C   0  0  0  0  0  0
  -25.9200  -32.4696   23.8271 C   0  0  1  0  0  0
  -27.2206  -27.1344   20.1521 C   0  0  0  0  0  0
  -25.5941  -33.8503   24.2196 N   0  0  0  0  0  0
  -23.4482  -30.4615   21.5356 C   0  0  2  0  0  0
  -24.8972  -28.8851   20.1128 C   0  0  0  0  0  0
  -22.7572  -29.4546   22.4885 C   0  0  0  0  0  0
  -18.0305  -28.1398   22.8494 C   0  0  0  0  0  0
  -24.1491  -36.7252   23.2646 C   0  0  0  0  0  0
  -26.0040  -30.7147   21.3888 C   0  0  0  0  0  0
  -26.0745  -29.3248   20.7311 C   0  0  0  0  0  0
  -27.2362  -28.4663   20.7327 C   0  0  0  0  0  0
  -26.0154  -26.7923   19.5024 C   0  0  0  0  0  0
  -24.8797  -27.6319   19.4832 C   0  0  0  0  0  0
  -23.6743  -29.7883   20.1560 C   0  0  0  0  0  0
  -25.4119  -36.3040   24.0324 C   0  0  1  0  0  0
  -20.5919  -28.3728   23.1241 C   0  0  2  0  0  0
  -20.6795  -26.9431   22.5418 C   0  0  0  0  0  0
  -19.5763  -26.6383   21.5237 C   0  0  0  0  0  0
  -18.1935  -26.7935   22.1638 C   0  0  0  0  0  0
  -19.1564  -28.8884   23.2856 C   0  0  0  0  0  0
  -18.9476  -30.1483   23.8883 C   0  0  0  0  0  0
  -17.6468  -30.6594   24.0565 C   0  0  0  0  0  0
  -25.9077  -34.9407   23.5076 C   0  0  0  0  0  0
  -16.5364  -29.9084   23.6339 C   0  0  0  0  0  0
  -16.7289  -28.6503   23.0364 C   0  0  0  0  0  0
  -26.4514  -31.6557   25.0720 C   0  0  0  0  0  0
  -25.3681  -31.3748   26.1399 C   0  0  0  0  0  0
  -27.0390  -30.2952   24.6300 C   0  0  0  0  0  0
  -27.6052  -32.4324   25.7499 C   0  0  0  0  0  0
  -27.5575  -37.1782   24.8458 C   0  0  0  0  0  0
  -21.4270  -29.3035   22.3613 N   0  0  0  0  0  0
  -26.4289  -37.3750   23.9408 N   0  0  0  0  0  0
  -24.7188  -31.0288   22.0923 N   0  0  0  0  0  0
  -23.4206  -28.8109   23.3049 O   0  0  0  0  0  0
  -28.2777  -26.1554   20.2143 O   0  0  0  0  0  0
  -26.5675  -34.8907   22.4665 O   0  0  0  0  0  0
  -23.5549  -32.1329   23.7077 O   0  0  0  0  0  0
  -27.8579  -20.9033   20.1084 C   0  0  0  0  0  0
  -28.0787  -19.4385   20.1505 C   0  0  0  0  0  0
  -29.3822  -19.0082   20.3966 C   0  0  0  0  0  0
  -28.9412  -21.7468   20.3300 C   0  0  0  0  0  0
  -30.0265  -17.5987   20.4623 C   0  0  0  0  0  0
  -29.6426  -16.2304   20.4757 C   0  0  0  0  0  0
  -26.9476  -18.4816   19.9026 C   0  0  0  0  0  0
  -29.1178  -23.3863   20.3729 C   0  0  0  0  0  0
  -28.0119  -24.6217   20.0871 C   0  0  0  0  0  0
  -30.3003  -20.5642   20.6043 S   0  0  0  0  0  0
  -31.4817  -12.7318   19.2267 H   0  0  0  0  0  0
  -30.4291  -11.6313   20.0708 H   0  0  0  0  0  0
  -29.8669  -11.7060   17.6188 H   0  0  0  0  0  0
  -29.6465  -13.4364   17.7034 H   0  0  0  0  0  0
  -27.9565  -11.2672   18.9798 H   0  0  0  0  0  0
  -27.4141  -12.4394   17.8081 H   0  0  0  0  0  0
  -27.5891  -14.2387   19.4002 H   0  0  0  0  0  0
  -28.7404  -12.3036   21.4638 H   0  0  0  0  0  0
  -28.3542  -13.9789   21.7500 H   0  0  0  0  0  0
  -25.2763   -9.5693   22.4788 H   0  0  0  0  0  0
  -24.0000   -7.4636   22.7474 H   0  0  0  0  0  0
  -21.0833   -8.8777   19.8929 H   0  0  0  0  0  0
  -22.3705  -10.9677   19.6181 H   0  0  0  0  0  0
  -21.2026   -7.6149   23.9714 H   0  0  0  0  0  0
  -21.1469   -6.0517   25.9076 H   0  0  0  0  0  0
  -22.0608   -2.7603   23.2839 H   0  0  0  0  0  0
  -22.4052  -11.9888   22.4816 H   0  0  0  0  0  0
  -21.1083  -13.1292   22.2619 H   0  0  0  0  0  0
  -24.6615  -15.8522   20.5244 H   0  0  0  0  0  0
  -26.2725  -15.6135   20.0685 H   0  0  0  0  0  0
  -26.7272  -32.5302   23.1012 H   0  0  0  0  0  0
  -25.0028  -33.9616   25.0298 H   0  0  0  0  0  0
  -22.7508  -31.2874   21.3805 H   0  0  0  0  0  0
  -23.3773  -35.9566   23.3294 H   0  0  0  0  0  0
  -24.3579  -36.8898   22.2065 H   0  0  0  0  0  0
  -23.7219  -37.6433   23.6691 H   0  0  0  0  0  0
  -26.1602  -31.4677   20.6154 H   0  0  0  0  0  0
  -26.8741  -30.7658   22.0312 H   0  0  0  0  0  0
  -28.1318  -28.7961   21.2408 H   0  0  0  0  0  0
  -25.9161  -25.8338   19.0190 H   0  0  0  0  0  0
  -23.9816  -27.2867   18.9900 H   0  0  0  0  0  0
  -23.8109  -30.5623   19.4002 H   0  0  0  0  0  0
  -22.7893  -29.2312   19.8468 H   0  0  0  0  0  0
  -25.1312  -36.1886   25.0819 H   0  0  0  0  0  0
  -21.0006  -28.3324   24.1369 H   0  0  0  0  0  0
  -20.5710  -26.2341   23.3640 H   0  0  0  0  0  0
  -21.6648  -26.7450   22.1197 H   0  0  0  0  0  0
  -19.6916  -25.6294   21.1268 H   0  0  0  0  0  0
  -19.6682  -27.3192   20.6766 H   0  0  0  0  0  0
  -17.4212  -26.6703   21.4032 H   0  0  0  0  0  0
  -18.0313  -26.0075   22.9032 H   0  0  0  0  0  0
  -19.7950  -30.7309   24.2221 H   0  0  0  0  0  0
  -17.5022  -31.6270   24.5176 H   0  0  0  0  0  0
  -15.5360  -30.2981   23.7667 H   0  0  0  0  0  0
  -15.8689  -28.0811   22.7085 H   0  0  0  0  0  0
  -24.5851  -30.7124   25.7692 H   0  0  0  0  0  0
  -24.8874  -32.2933   26.4778 H   0  0  0  0  0  0
  -25.7925  -30.8926   27.0210 H   0  0  0  0  0  0
  -26.3014  -29.6664   24.1296 H   0  0  0  0  0  0
  -27.4000  -29.7262   25.4877 H   0  0  0  0  0  0
  -27.8924  -30.4204   23.9630 H   0  0  0  0  0  0
  -27.2648  -33.3635   26.2038 H   0  0  0  0  0  0
  -28.3866  -32.6857   25.0328 H   0  0  0  0  0  0
  -28.0711  -31.8472   26.5434 H   0  0  0  0  0  0
  -28.2586  -38.0090   24.7533 H   0  0  0  0  0  0
  -28.1090  -36.2620   24.6272 H   0  0  0  0  0  0
  -27.2298  -37.1410   25.8866 H   0  0  0  0  0  0
  -20.9488  -29.8732   21.6771 H   0  0  0  0  0  0
  -26.0165  -38.2829   24.1407 H   0  0  0  0  0  0
  -26.8689  -21.2878   19.9019 H   0  0  0  0  0  0
  -31.1039  -17.7016   20.4767 H   0  0  0  0  0  0
  -28.5800  -16.0545   20.4922 H   0  0  0  0  0  0
  -26.1240  -18.9667   19.3775 H   0  0  0  0  0  0
  -26.5479  -18.0832   20.8361 H   0  0  0  0  0  0
  -27.2546  -17.6361   19.2881 H   0  0  0  0  0  0
  -29.9418  -23.6038   19.6922 H   0  0  0  0  0  0
  -29.5425  -23.6082   21.3505 H   0  0  0  0  0  0
  -27.1580  -24.4168   20.7334 H   0  0  0  0  0  0
  -27.6505  -24.4652   19.0716 H   0  0  0  0  0  0
  1 25  1  0  0  0
  1 30  2  0  0  0
  1 76  1  0  0  0
  2  3  1  0  0  0
  2 25  1  0  0  0
  2 81  1  0  0  0
  2 82  1  0  0  0
  3  4  1  0  0  0
  3 83  1  0  0  0
  3 84  1  0  0  0
  4  5  1  0  0  0
  4 85  1  0  0  0
  4 86  1  0  0  0
  5  6  1  0  0  0
  5 26  1  0  0  0
  5 87  1  0  0  0
  6 25  1  0  0  0
  6 88  1  0  0  0
  6 89  1  0  0  0
  7  8  2  0  0  0
  7 26  1  0  0  0
  7 29  1  0  0  0
  8  9  1  0  0  0
  8 22  1  0  0  0
  9 10  1  0  0  0
  9 27  2  0  0  0
 10 11  2  0  0  0
 10 15  1  0  0  0
 11 12  1  0  0  0
 11 90  1  0  0  0
 12 13  2  0  0  0
 12 91  1  0  0  0
 13 14  1  0  0  0
 13 31  1  0  0  0
 14 15  2  0  0  0
 14 92  1  0  0  0
 15 93  1  0  0  0
 16 17  2  0  0  0
 16 21  1  0  0  0
 16 31  1  0  0  0
 17 18  1  0  0  0
 17 94  1  0  0  0
 18 19  2  0  0  0
 18 95  1  0  0  0
 19 20  1  0  0  0
 19 24  1  0  0  0
 20 21  2  0  0  0
 20 96  1  0  0  0
 21 23  1  0  0  0
 22 28  1  0  0  0
 22 32  2  0  0  0
 26 27  1  0  0  0
 28 97  1  0  0  0
 28 98  1  0  0  0
 29 99  1  0  0  0
 29100  1  0  0  0
 33 34  1  0  0  0
 33 66  1  0  0  0
 33 70  2  0  0  0
 34 36  1  0  0  0
 34 59  1  0  0  0
 34101  1  0  0  0
 35 44  2  0  0  0
 35 45  1  0  0  0
 35 68  1  0  0  0
 36 56  1  0  0  0
 36102  1  0  0  0
 37 39  1  0  0  0
 37 47  1  0  0  0
 37 66  1  0  0  0
 37103  1  0  0  0
 38 43  2  0  0  0
 38 46  1  0  0  0
 38 47  1  0  0  0
 39 64  1  0  0  0
 39 67  2  0  0  0
 40 52  1  0  0  0
 40 53  2  0  0  0
 40 58  1  0  0  0
 41104  1  0  0  0
 41105  1  0  0  0
 41106  1  0  0  0
 41 48  1  0  0  0
 42 43  1  0  0  0
 42 66  1  0  0  0
 42107  1  0  0  0
 42108  1  0  0  0
 43 44  1  0  0  0
 44109  1  0  0  0
 45 46  2  0  0  0
 45110  1  0  0  0
 46111  1  0  0  0
 47112  1  0  0  0
 47113  1  0  0  0
 48 56  1  0  0  0
 48 65  1  0  0  0
 48114  1  0  0  0
 49 50  1  0  0  0
 49 53  1  0  0  0
 49 64  1  0  0  0
 49115  1  0  0  0
 50 51  1  0  0  0
 50116  1  0  0  0
 50117  1  0  0  0
 51 52  1  0  0  0
 51118  1  0  0  0
 51119  1  0  0  0
 52120  1  0  0  0
 52121  1  0  0  0
 53 54  1  0  0  0
 54 55  2  0  0  0
 54122  1  0  0  0
 55 57  1  0  0  0
 55123  1  0  0  0
 56 69  2  0  0  0
 57 58  2  0  0  0
 57124  1  0  0  0
 58125  1  0  0  0
 59 60  1  0  0  0
 59 61  1  0  0  0
 59 62  1  0  0  0
 60126  1  0  0  0
 60127  1  0  0  0
 60128  1  0  0  0
 61129  1  0  0  0
 61130  1  0  0  0
 61131  1  0  0  0
 62132  1  0  0  0
 62133  1  0  0  0
 62134  1  0  0  0
 63 65  1  0  0  0
 63135  1  0  0  0
 63136  1  0  0  0
 63137  1  0  0  0
 64138  1  0  0  0
 65139  1  0  0  0
 68 79  1  0  0  0
 71 72  1  0  0  0
 71 74  2  0  0  0
 71140  1  0  0  0
 72 73  2  0  0  0
 72 77  1  0  0  0
 73 75  1  0  0  0
 73 80  1  0  0  0
 74 78  1  0  0  0
 74 80  1  0  0  0
 75 76  2  0  0  0
 75141  1  0  0  0
 76142  1  0  0  0
 77143  1  0  0  0
 77144  1  0  0  0
 77145  1  0  0  0
 78 79  1  0  0  0
 78146  1  0  0  0
 78147  1  0  0  0
 79148  1  0  0  0
 79149  1  0  0  0
M  ISO  4   1 100  68 101  76 100  79 101
M  END
> <chiral flag>
0

> <version>
0

> <s_m_source_file>
/data/baiqing/PycharmProjects/Reinvent-master-3.2/result/LINK_invent/BTK/process_docking_weight1_custom_product_contain_oxygen_bond_distance_aromatic_linkinvent_7_9_3/rearranged_h_0125.sdf

> <i_m_source_file_index>
85

> <r_mmod_Potential_Energy-OPLS-2005>
459.432830810547

> <r_mmod_Stretch_Energy-OPLS-2005>
232.972427368164

> <r_mmod_Bend_Energy-OPLS-2005>
246.044189453125

> <r_mmod_Torsional_Energy-OPLS-2005>
184.368606567383

> <r_mmod_Improper_Torsional_Energy-OPLS-2005>
5.37058162689209

> <r_mmod_Van_der_Waal_Energy-OPLS-2005>
109.300491333008

> <r_mmod_Electrostatic_Energy-OPLS-2005>
-316.352416992188

> <r_mmod_Solvation_Energy-OPLS-2005>
-195.915512084961

> <b_mmod_Minimization_Converged-OPLS-2005>
0

> <r_mmod_RMS_Derivative-OPLS-2005>
3.21721959114075

$$$$
85
                    3D
 Structure written by MMmdl.
156164  0  0  1  0            999 V2000
  -30.6264  -14.5770   20.5663 C   0  0  0  0  0  0
  -30.4549  -12.3691   19.4285 C   0  0  0  0  0  0
  -29.5140  -12.5216   18.2108 C   0  0  0  0  0  0
  -28.0278  -12.3736   18.6099 C   0  0  0  0  0  0
  -27.6657  -13.2001   19.8726 C   0  0  2  0  0  0
  -28.7108  -12.9399   20.9765 C   0  0  0  0  0  0
  -25.2631  -13.8137   20.5666 C   0  0  0  0  0  0
  -24.1864  -13.0433   20.9164 C   0  0  0  0  0  0
  -24.6400  -11.6900   20.8699 C   0  0  0  0  0  0
  -23.9057  -10.4300   21.0396 C   0  0  0  0  0  0
  -24.3611   -9.4217   21.9180 C   0  0  0  0  0  0
  -23.6297   -8.2245   22.0747 C   0  0  0  0  0  0
  -22.4281   -8.0275   21.3538 C   0  0  0  0  0  0
  -21.9904   -9.0255   20.4644 C   0  0  0  0  0  0
  -22.7224  -10.2141   20.3051 C   0  0  0  0  0  0
  -21.6851   -6.0736   22.5290 C   0  0  0  0  0  0
  -21.4012   -6.5637   23.8225 C   0  0  0  0  0  0
  -21.3656   -5.6787   24.9184 C   0  0  0  0  0  0
  -21.6044   -4.3054   24.7230 C   0  0  0  0  0  0
  -21.8809   -3.8143   23.4352 C   0  0  0  0  0  0
  -21.9192   -4.6963   22.3411 C   0  0  0  0  0  0
  -22.7887  -13.5258   21.1838 C   0  0  0  0  0  0
  -22.1654   -4.2147   21.0987 F   0  0  0  0  0  0
  -21.5641   -3.4543   25.7747 F   0  0  0  0  0  0
  -30.0307  -13.3439   20.4505 N   0  0  0  0  0  0
  -26.3054  -12.9286   20.3329 N   0  0  0  0  0  0
  -25.9319  -11.6456   20.5700 N   0  0  0  0  0  0
  -22.0495  -12.8289   22.0394 N   0  0  0  0  0  0
  -25.4379  -15.1856   20.4111 N   0  0  0  0  0  0
  -31.7456  -14.7821   20.0880 O   0  0  0  0  0  0
  -21.6625   -6.8882   21.4258 O   0  0  0  0  0  0
  -22.3596  -14.5564   20.6666 O   0  0  0  0  0  0
  -24.6179  -31.8637   23.2061 C   0  0  0  0  0  0
  -25.9058  -32.4799   23.8374 C   0  0  1  0  0  0
  -27.2387  -27.3927   20.1037 C   0  0  0  0  0  0
  -25.5895  -33.8598   24.2297 N   0  0  0  0  0  0
  -23.4105  -30.4837   21.5477 C   0  0  2  0  0  0
  -24.8595  -28.9385   20.1206 C   0  0  0  0  0  0
  -22.7436  -29.4627   22.4980 C   0  0  0  0  0  0
  -18.0270  -28.1389   22.8480 C   0  0  0  0  0  0
  -24.1489  -36.7320   23.2633 C   0  0  0  0  0  0
  -25.9436  -30.8136   21.3694 C   0  0  0  0  0  0
  -26.0215  -29.4458   20.7143 C   0  0  0  0  0  0
  -27.2164  -28.6818   20.6959 C   0  0  0  0  0  0
  -26.0570  -26.9063   19.5069 C   0  0  0  0  0  0
  -24.8725  -27.6710   19.5124 C   0  0  0  0  0  0
  -23.6230  -29.8092   20.1658 C   0  0  0  0  0  0
  -25.4108  -36.3093   24.0325 C   0  0  1  0  0  0
  -20.5860  -28.3670   23.1319 C   0  0  2  0  0  0
  -20.6763  -26.9400   22.5437 C   0  0  0  0  0  0
  -19.5744  -26.6372   21.5231 C   0  0  0  0  0  0
  -18.1918  -26.7930   22.1624 C   0  0  0  0  0  0
  -19.1522  -28.8847   23.2887 C   0  0  0  0  0  0
  -18.9444  -30.1456   23.8892 C   0  0  0  0  0  0
  -17.6445  -30.6593   24.0558 C   0  0  0  0  0  0
  -25.9036  -34.9461   23.5113 C   0  0  0  0  0  0
  -16.5335  -29.9091   23.6321 C   0  0  0  0  0  0
  -16.7257  -28.6511   23.0333 C   0  0  0  0  0  0
  -26.4446  -31.6607   25.0744 C   0  0  0  0  0  0
  -25.3679  -31.3779   26.1484 C   0  0  0  0  0  0
  -27.0274  -30.3020   24.6201 C   0  0  0  0  0  0
  -27.6024  -32.4321   25.7504 C   0  0  0  0  0  0
  -27.5585  -37.1806   24.8441 C   0  0  0  0  0  0
  -21.4158  -29.3031   22.3728 N   0  0  0  0  0  0
  -26.4288  -37.3785   23.9400 N   0  0  0  0  0  0
  -24.6755  -31.0689   22.0994 N   0  0  0  0  0  0
  -23.4195  -28.8162   23.3034 O   0  0  0  0  0  0
  -28.4001  -26.6368   20.0729 O   0  0  0  0  0  0
  -26.5596  -34.8910   22.4672 O   0  0  0  0  0  0
  -23.5354  -32.1409   23.7422 O   0  0  0  0  0  0
  -31.6308  -18.0766   19.8524 C   0  0  0  0  0  0
  -32.2085  -19.2384   19.2997 C   0  0  0  0  0  0
  -29.5964  -19.3316   20.2352 C   0  0  0  0  0  0
  -30.3230  -18.1079   20.3696 C   0  0  0  0  0  0
  -31.5057  -20.4685   19.2220 C   0  0  0  0  0  0
  -30.1569  -20.5187   19.6781 C   0  0  0  0  0  0
  -33.3632  -21.7284   18.0409 C   0  0  0  0  0  0
  -29.6882  -16.9679   21.1057 C   0  0  0  0  0  0
  -32.1600  -21.6652   18.6374 C   0  0  0  0  0  0
  -29.3075  -21.7404   19.4605 C   0  0  0  0  0  0
  -29.7963  -15.6068   21.2331 C   0  0  0  0  0  0
  -29.4399  -22.9719   20.0297 C   0  0  0  0  0  0
  -28.6145  -24.1544   19.6152 C   0  0  0  0  0  0
  -28.3330  -25.2963   20.6350 C   0  0  0  0  0  0
  -28.1409  -24.2472   18.4781 O   0  0  0  0  0  0
  -31.4935  -12.5128   19.1251 H   0  0  0  0  0  0
  -30.4065  -11.3539   19.8260 H   0  0  0  0  0  0
  -29.7724  -11.7867   17.4473 H   0  0  0  0  0  0
  -29.6691  -13.5010   17.7559 H   0  0  0  0  0  0
  -27.8327  -11.3164   18.7928 H   0  0  0  0  0  0
  -27.3842  -12.6591   17.7776 H   0  0  0  0  0  0
  -27.7151  -14.2527   19.5950 H   0  0  0  0  0  0
  -28.7301  -11.8759   21.2108 H   0  0  0  0  0  0
  -28.4295  -13.3951   21.9232 H   0  0  0  0  0  0
  -25.2741   -9.5719   22.4770 H   0  0  0  0  0  0
  -24.0007   -7.4638   22.7467 H   0  0  0  0  0  0
  -21.0823   -8.8773   19.8961 H   0  0  0  0  0  0
  -22.3660  -10.9683   19.6180 H   0  0  0  0  0  0
  -21.1987   -7.6145   23.9736 H   0  0  0  0  0  0
  -21.1494   -6.0511   25.9093 H   0  0  0  0  0  0
  -22.0591   -2.7605   23.2845 H   0  0  0  0  0  0
  -22.4056  -11.9959   22.4836 H   0  0  0  0  0  0
  -21.1123  -13.1374   22.2563 H   0  0  0  0  0  0
  -24.6808  -15.8493   20.5289 H   0  0  0  0  0  0
  -26.3046  -15.6215   20.1197 H   0  0  0  0  0  0
  -26.7137  -32.5475   23.1138 H   0  0  0  0  0  0
  -25.0028  -33.9752   25.0426 H   0  0  0  0  0  0
  -22.7018  -31.3013   21.4021 H   0  0  0  0  0  0
  -23.3738  -35.9669   23.3288 H   0  0  0  0  0  0
  -24.3590  -36.8949   22.2053 H   0  0  0  0  0  0
  -23.7254  -37.6527   23.6652 H   0  0  0  0  0  0
  -26.0640  -31.5799   20.6027 H   0  0  0  0  0  0
  -26.8285  -30.8636   21.9935 H   0  0  0  0  0  0
  -28.1173  -29.0681   21.1515 H   0  0  0  0  0  0
  -26.0503  -25.9382   19.0267 H   0  0  0  0  0  0
  -23.9783  -27.2770   19.0502 H   0  0  0  0  0  0
  -23.7351  -30.5789   19.4015 H   0  0  0  0  0  0
  -22.7491  -29.2261   19.8686 H   0  0  0  0  0  0
  -25.1289  -36.1959   25.0821 H   0  0  0  0  0  0
  -20.9936  -28.3243   24.1442 H   0  0  0  0  0  0
  -20.5668  -26.2278   23.3635 H   0  0  0  0  0  0
  -21.6635  -26.7449   22.1228 H   0  0  0  0  0  0
  -19.6902  -25.6274   21.1273 H   0  0  0  0  0  0
  -19.6700  -27.3172   20.6758 H   0  0  0  0  0  0
  -17.4204  -26.6674   21.4015 H   0  0  0  0  0  0
  -18.0302  -26.0084   22.9028 H   0  0  0  0  0  0
  -19.7924  -30.7268   24.2262 H   0  0  0  0  0  0
  -17.5001  -31.6272   24.5168 H   0  0  0  0  0  0
  -15.5329  -30.2987   23.7660 H   0  0  0  0  0  0
  -15.8660  -28.0838   22.7030 H   0  0  0  0  0  0
  -24.5818  -30.7164   25.7815 H   0  0  0  0  0  0
  -24.8904  -32.2972   26.4900 H   0  0  0  0  0  0
  -25.7989  -30.8952   27.0268 H   0  0  0  0  0  0
  -26.2872  -29.6819   24.1134 H   0  0  0  0  0  0
  -27.3847  -29.7231   25.4727 H   0  0  0  0  0  0
  -27.8787  -30.4280   23.9508 H   0  0  0  0  0  0
  -27.2642  -33.3597   26.2134 H   0  0  0  0  0  0
  -28.3815  -32.6928   25.0329 H   0  0  0  0  0  0
  -28.0721  -31.8419   26.5381 H   0  0  0  0  0  0
  -28.2586  -38.0116   24.7514 H   0  0  0  0  0  0
  -28.1094  -36.2652   24.6228 H   0  0  0  0  0  0
  -27.2313  -37.1435   25.8843 H   0  0  0  0  0  0
  -20.9337  -29.8758   21.6943 H   0  0  0  0  0  0
  -26.0171  -38.2856   24.1426 H   0  0  0  0  0  0
  -32.2313  -17.1832   19.9243 H   0  0  0  0  0  0
  -33.2257  -19.1663   18.9460 H   0  0  0  0  0  0
  -28.5764  -19.3690   20.5934 H   0  0  0  0  0  0
  -33.7319  -22.6726   17.6630 H   0  0  0  0  0  0
  -34.0054  -20.8717   17.9090 H   0  0  0  0  0  0
  -28.9272  -17.3511   21.7708 H   0  0  0  0  0  0
  -31.6263  -22.6000   18.7039 H   0  0  0  0  0  0
  -28.5370  -21.6155   18.7115 H   0  0  0  0  0  0
  -29.1194  -15.2539   21.9885 H   0  0  0  0  0  0
  -30.1872  -23.1372   20.7933 H   0  0  0  0  0  0
  -29.0601  -25.2265   21.4443 H   0  0  0  0  0  0
  -27.3554  -25.1157   21.0825 H   0  0  0  0  0  0
  1 25  1  0  0  0
  1 30  2  0  0  0
  1 81  1  0  0  0
  2  3  1  0  0  0
  2 25  1  0  0  0
  2 86  1  0  0  0
  2 87  1  0  0  0
  3  4  1  0  0  0
  3 88  1  0  0  0
  3 89  1  0  0  0
  4  5  1  0  0  0
  4 90  1  0  0  0
  4 91  1  0  0  0
  5  6  1  0  0  0
  5 26  1  0  0  0
  5 92  1  0  0  0
  6 25  1  0  0  0
  6 93  1  0  0  0
  6 94  1  0  0  0
  7  8  2  0  0  0
  7 26  1  0  0  0
  7 29  1  0  0  0
  8  9  1  0  0  0
  8 22  1  0  0  0
  9 10  1  0  0  0
  9 27  2  0  0  0
 10 11  2  0  0  0
 10 15  1  0  0  0
 11 12  1  0  0  0
 11 95  1  0  0  0
 12 13  2  0  0  0
 12 96  1  0  0  0
 13 14  1  0  0  0
 13 31  1  0  0  0
 14 15  2  0  0  0
 14 97  1  0  0  0
 15 98  1  0  0  0
 16 17  2  0  0  0
 16 21  1  0  0  0
 16 31  1  0  0  0
 17 18  1  0  0  0
 17 99  1  0  0  0
 18 19  2  0  0  0
 18100  1  0  0  0
 19 20  1  0  0  0
 19 24  1  0  0  0
 20 21  2  0  0  0
 20101  1  0  0  0
 21 23  1  0  0  0
 22 28  1  0  0  0
 22 32  2  0  0  0
 26 27  1  0  0  0
 28102  1  0  0  0
 28103  1  0  0  0
 29104  1  0  0  0
 29105  1  0  0  0
 33 34  1  0  0  0
 33 66  1  0  0  0
 33 70  2  0  0  0
 34 36  1  0  0  0
 34 59  1  0  0  0
 34106  1  0  0  0
 35 44  2  0  0  0
 35 45  1  0  0  0
 35 68  1  0  0  0
 36 56  1  0  0  0
 36107  1  0  0  0
 37 39  1  0  0  0
 37 47  1  0  0  0
 37 66  1  0  0  0
 37108  1  0  0  0
 38 43  2  0  0  0
 38 46  1  0  0  0
 38 47  1  0  0  0
 39 64  1  0  0  0
 39 67  2  0  0  0
 40 52  1  0  0  0
 40 53  2  0  0  0
 40 58  1  0  0  0
 41109  1  0  0  0
 41110  1  0  0  0
 41111  1  0  0  0
 41 48  1  0  0  0
 42 43  1  0  0  0
 42 66  1  0  0  0
 42112  1  0  0  0
 42113  1  0  0  0
 43 44  1  0  0  0
 44114  1  0  0  0
 45 46  2  0  0  0
 45115  1  0  0  0
 46116  1  0  0  0
 47117  1  0  0  0
 47118  1  0  0  0
 48 56  1  0  0  0
 48 65  1  0  0  0
 48119  1  0  0  0
 49 50  1  0  0  0
 49 53  1  0  0  0
 49 64  1  0  0  0
 49120  1  0  0  0
 50 51  1  0  0  0
 50121  1  0  0  0
 50122  1  0  0  0
 51 52  1  0  0  0
 51123  1  0  0  0
 51124  1  0  0  0
 52125  1  0  0  0
 52126  1  0  0  0
 53 54  1  0  0  0
 54 55  2  0  0  0
 54127  1  0  0  0
 55 57  1  0  0  0
 55128  1  0  0  0
 56 69  2  0  0  0
 57 58  2  0  0  0
 57129  1  0  0  0
 58130  1  0  0  0
 59 60  1  0  0  0
 59 61  1  0  0  0
 59 62  1  0  0  0
 60131  1  0  0  0
 60132  1  0  0  0
 60133  1  0  0  0
 61134  1  0  0  0
 61135  1  0  0  0
 61136  1  0  0  0
 62137  1  0  0  0
 62138  1  0  0  0
 62139  1  0  0  0
 63 65  1  0  0  0
 63140  1  0  0  0
 63141  1  0  0  0
 63142  1  0  0  0
 64143  1  0  0  0
 65144  1  0  0  0
 68 84  1  0  0  0
 71 72  2  0  0  0
 71 74  1  0  0  0
 71145  1  0  0  0
 72 75  1  0  0  0
 72146  1  0  0  0
 73 74  2  0  0  0
 73 76  1  0  0  0
 73147  1  0  0  0
 74 78  1  0  0  0
 75 76  2  0  0  0
 75 79  1  0  0  0
 76 80  1  0  0  0
 77 79  2  0  0  0
 77148  1  0  0  0
 77149  1  0  0  0
 78 81  2  0  0  0
 78150  1  0  0  0
 79151  1  0  0  0
 80 82  2  0  0  0
 80152  1  0  0  0
 81153  1  0  0  0
 82 83  1  0  0  0
 82154  1  0  0  0
 83 84  1  0  0  0
 83 85  2  0  0  0
 84155  1  0  0  0
 84156  1  0  0  0
M  ISO  4   1 100  68 101  81 100  84 101
M  END
> <chiral flag>
0

> <version>
0

> <s_m_source_file>
/data/baiqing/PycharmProjects/Reinvent-master-3.2/result/LINK_invent/BTK/process_docking_weight1_custom_product_contain_oxygen_bond_distance_aromatic_linkinvent_7_9_3/rearranged_h_0125.sdf

> <i_m_source_file_index>
86

> <r_mmod_Potential_Energy-OPLS-2005>
101.385314941406

> <r_mmod_Stretch_Energy-OPLS-2005>
56.6122665405273

> <r_mmod_Bend_Energy-OPLS-2005>
155.658096313477

> <r_mmod_Torsional_Energy-OPLS-2005>
238.908508300781

> <r_mmod_Improper_Torsional_Energy-OPLS-2005>
3.56078815460205

> <r_mmod_Van_der_Waal_Energy-OPLS-2005>
156.287353515625

> <r_mmod_Electrostatic_Energy-OPLS-2005>
-322.659301757812

> <r_mmod_Solvation_Energy-OPLS-2005>
-211.186828613281

> <b_mmod_Minimization_Converged-OPLS-2005>
0

> <r_mmod_RMS_Derivative-OPLS-2005>
2.49250864982605

$$$$
86
                    3D
 Structure written by MMmdl.
153161  0  0  1  0            999 V2000
  -30.5387  -14.8524   20.4516 C   0  0  0  0  0  0
  -30.4504  -12.5224   19.4890 C   0  0  0  0  0  0
  -29.5232  -12.5300   18.2501 C   0  0  0  0  0  0
  -28.0508  -12.3315   18.6614 C   0  0  0  0  0  0
  -27.6438  -13.2352   19.8548 C   0  0  2  0  0  0
  -28.6873  -13.1816   20.9929 C   0  0  0  0  0  0
  -25.2513  -13.8193   20.5690 C   0  0  0  0  0  0
  -24.1808  -13.0438   20.9212 C   0  0  0  0  0  0
  -24.6405  -11.6918   20.8749 C   0  0  0  0  0  0
  -23.9077  -10.4294   21.0409 C   0  0  0  0  0  0
  -24.3625   -9.4206   21.9186 C   0  0  0  0  0  0
  -23.6296   -8.2243   22.0755 C   0  0  0  0  0  0
  -22.4276   -8.0284   21.3547 C   0  0  0  0  0  0
  -21.9915   -9.0260   20.4649 C   0  0  0  0  0  0
  -22.7248  -10.2136   20.3058 C   0  0  0  0  0  0
  -21.6852   -6.0737   22.5279 C   0  0  0  0  0  0
  -21.4015   -6.5640   23.8213 C   0  0  0  0  0  0
  -21.3660   -5.6793   24.9174 C   0  0  0  0  0  0
  -21.6043   -4.3055   24.7225 C   0  0  0  0  0  0
  -21.8818   -3.8148   23.4346 C   0  0  0  0  0  0
  -21.9192   -4.6965   22.3402 C   0  0  0  0  0  0
  -22.7829  -13.5220   21.1868 C   0  0  0  0  0  0
  -22.1661   -4.2151   21.0979 F   0  0  0  0  0  0
  -21.5629   -3.4538   25.7738 F   0  0  0  0  0  0
  -29.9812  -13.5823   20.4194 N   0  0  0  0  0  0
  -26.2949  -12.9407   20.3289 N   0  0  0  0  0  0
  -25.9339  -11.6546   20.5754 N   0  0  0  0  0  0
  -22.0472  -12.8214   22.0425 N   0  0  0  0  0  0
  -25.4188  -15.1913   20.4075 N   0  0  0  0  0  0
  -31.7082  -14.9993   20.0793 O   0  0  0  0  0  0
  -21.6640   -6.8880   21.4241 O   0  0  0  0  0  0
  -22.3511  -14.5524   20.6710 O   0  0  0  0  0  0
  -24.6386  -31.8486   23.1926 C   0  0  0  0  0  0
  -25.9178  -32.4720   23.8298 C   0  0  1  0  0  0
  -27.2211  -27.1867   20.1389 C   0  0  0  0  0  0
  -25.5940  -33.8524   24.2216 N   0  0  0  0  0  0
  -23.4399  -30.4695   21.5372 C   0  0  2  0  0  0
  -24.8897  -28.9070   20.1076 C   0  0  0  0  0  0
  -22.7543  -29.4569   22.4877 C   0  0  0  0  0  0
  -18.0301  -28.1395   22.8484 C   0  0  0  0  0  0
  -24.1489  -36.7269   23.2642 C   0  0  0  0  0  0
  -25.9923  -30.7375   21.3851 C   0  0  0  0  0  0
  -26.0641  -29.3535   20.7263 C   0  0  0  0  0  0
  -27.2298  -28.5073   20.7299 C   0  0  0  0  0  0
  -26.0237  -26.8360   19.4738 C   0  0  0  0  0  0
  -24.8796  -27.6594   19.4676 C   0  0  0  0  0  0
  -23.6633  -29.8022   20.1544 C   0  0  0  0  0  0
  -25.4118  -36.3048   24.0321 C   0  0  1  0  0  0
  -20.5911  -28.3714   23.1249 C   0  0  2  0  0  0
  -20.6785  -26.9421   22.5408 C   0  0  0  0  0  0
  -19.5757  -26.6383   21.5216 C   0  0  0  0  0  0
  -18.1939  -26.7935   22.1628 C   0  0  0  0  0  0
  -19.1557  -28.8871   23.2860 C   0  0  0  0  0  0
  -18.9474  -30.1469   23.8884 C   0  0  0  0  0  0
  -17.6472  -30.6592   24.0561 C   0  0  0  0  0  0
  -25.9065  -34.9422   23.5076 C   0  0  0  0  0  0
  -16.5363  -29.9088   23.6333 C   0  0  0  0  0  0
  -16.7286  -28.6506   23.0356 C   0  0  0  0  0  0
  -26.4513  -31.6572   25.0721 C   0  0  0  0  0  0
  -25.3709  -31.3752   26.1424 C   0  0  0  0  0  0
  -27.0374  -30.2976   24.6271 C   0  0  0  0  0  0
  -27.6047  -32.4333   25.7505 C   0  0  0  0  0  0
  -27.5575  -37.1790   24.8465 C   0  0  0  0  0  0
  -21.4239  -29.3048   22.3626 N   0  0  0  0  0  0
  -26.4285  -37.3756   23.9410 N   0  0  0  0  0  0
  -24.7097  -31.0384   22.0939 N   0  0  0  0  0  0
  -23.4207  -28.8110   23.3006 O   0  0  0  0  0  0
  -28.2852  -26.2288   20.2242 O   0  0  0  0  0  0
  -26.5651  -34.8909   22.4654 O   0  0  0  0  0  0
  -23.5515  -32.1344   23.7172 O   0  0  0  0  0  0
  -30.0757  -19.6749   19.5165 C   0  0  0  0  0  0
  -30.3369  -18.2551   19.6942 C   0  0  0  0  0  0
  -28.4874  -19.6188   21.2664 C   0  0  0  0  0  0
  -29.1185  -20.4311   20.2768 C   0  0  0  0  0  0
  -28.7307  -18.2025   21.4448 C   0  0  0  0  0  0
  -29.6499  -17.4351   20.6481 C   0  0  0  0  0  0
  -27.9276  -17.4855   22.5175 C   0  0  0  0  0  0
  -28.5534  -21.9089   19.8577 C   0  0  0  0  0  0
  -28.9370  -23.4207   20.4174 C   0  0  0  0  0  0
  -28.0332  -24.7371   19.9466 C   0  0  0  0  0  0
  -29.7038  -15.9254   20.7988 N   0  0  0  0  0  0
  -31.4861  -12.6798   19.1833 H   0  0  0  0  0  0
  -30.4311  -11.5485   19.9804 H   0  0  0  0  0  0
  -29.8238  -11.7512   17.5481 H   0  0  0  0  0  0
  -29.6296  -13.4775   17.7192 H   0  0  0  0  0  0
  -27.9236  -11.2835   18.9349 H   0  0  0  0  0  0
  -27.3916  -12.5053   17.8103 H   0  0  0  0  0  0
  -27.6325  -14.2544   19.4677 H   0  0  0  0  0  0
  -28.7476  -12.1783   21.4173 H   0  0  0  0  0  0
  -28.3988  -13.8383   21.8149 H   0  0  0  0  0  0
  -25.2770   -9.5682   22.4760 H   0  0  0  0  0  0
  -24.0005   -7.4633   22.7473 H   0  0  0  0  0  0
  -21.0846   -8.8782   19.8953 H   0  0  0  0  0  0
  -22.3709  -10.9678   19.6168 H   0  0  0  0  0  0
  -21.2008   -7.6149   23.9717 H   0  0  0  0  0  0
  -21.1482   -6.0522   25.9077 H   0  0  0  0  0  0
  -22.0597   -2.7610   23.2844 H   0  0  0  0  0  0
  -22.4089  -11.9882   22.4823 H   0  0  0  0  0  0
  -21.1090  -13.1240   22.2626 H   0  0  0  0  0  0
  -24.6434  -15.8379   20.5026 H   0  0  0  0  0  0
  -26.2526  -15.6278   20.0359 H   0  0  0  0  0  0
  -26.7244  -32.5344   23.1030 H   0  0  0  0  0  0
  -25.0056  -33.9646   25.0341 H   0  0  0  0  0  0
  -22.7400  -31.2942   21.3868 H   0  0  0  0  0  0
  -23.3753  -35.9598   23.3295 H   0  0  0  0  0  0
  -24.3577  -36.8908   22.2059 H   0  0  0  0  0  0
  -23.7239  -37.6462   23.6681 H   0  0  0  0  0  0
  -26.1415  -31.4940   20.6134 H   0  0  0  0  0  0
  -26.8655  -30.7875   22.0239 H   0  0  0  0  0  0
  -28.1224  -28.8418   21.2398 H   0  0  0  0  0  0
  -25.9347  -25.8875   18.9662 H   0  0  0  0  0  0
  -23.9847  -27.3145   18.9681 H   0  0  0  0  0  0
  -23.7939  -30.5786   19.3997 H   0  0  0  0  0  0
  -22.7796  -29.2407   19.8455 H   0  0  0  0  0  0
  -25.1302  -36.1884   25.0812 H   0  0  0  0  0  0
  -21.0007  -28.3301   24.1369 H   0  0  0  0  0  0
  -20.5685  -26.2325   23.3622 H   0  0  0  0  0  0
  -21.6650  -26.7433   22.1201 H   0  0  0  0  0  0
  -19.6916  -25.6290   21.1254 H   0  0  0  0  0  0
  -19.6692  -27.3185   20.6739 H   0  0  0  0  0  0
  -17.4207  -26.6681   21.4034 H   0  0  0  0  0  0
  -18.0339  -26.0083   22.9031 H   0  0  0  0  0  0
  -19.7949  -30.7289   24.2248 H   0  0  0  0  0  0
  -17.5025  -31.6272   24.5165 H   0  0  0  0  0  0
  -15.5363  -30.2986   23.7662 H   0  0  0  0  0  0
  -15.8687  -28.0818   22.7080 H   0  0  0  0  0  0
  -24.5887  -30.7100   25.7747 H   0  0  0  0  0  0
  -24.8897  -32.2932   26.4807 H   0  0  0  0  0  0
  -25.8000  -30.8953   27.0228 H   0  0  0  0  0  0
  -26.2983  -29.6709   24.1267 H   0  0  0  0  0  0
  -27.3993  -29.7261   25.4828 H   0  0  0  0  0  0
  -27.8886  -30.4227   23.9576 H   0  0  0  0  0  0
  -27.2638  -33.3643   26.2044 H   0  0  0  0  0  0
  -28.3876  -32.6879   25.0349 H   0  0  0  0  0  0
  -28.0693  -31.8486   26.5454 H   0  0  0  0  0  0
  -28.2585  -38.0094   24.7511 H   0  0  0  0  0  0
  -28.1078  -36.2623   24.6289 H   0  0  0  0  0  0
  -27.2295  -37.1434   25.8869 H   0  0  0  0  0  0
  -20.9440  -29.8769   21.6818 H   0  0  0  0  0  0
  -26.0157  -38.2825   24.1416 H   0  0  0  0  0  0
  -30.5895  -20.1781   18.7089 H   0  0  0  0  0  0
  -31.0445  -17.7830   19.0271 H   0  0  0  0  0  0
  -27.7239  -20.0856   21.8738 H   0  0  0  0  0  0
  -27.3602  -18.1851   23.1318 H   0  0  0  0  0  0
  -28.5874  -16.9258   23.1815 H   0  0  0  0  0  0
  -27.2198  -16.7896   22.0673 H   0  0  0  0  0  0
  -27.4743  -21.8236   19.9902 H   0  0  0  0  0  0
  -28.6746  -21.9565   18.7749 H   0  0  0  0  0  0
  -29.9779  -23.6140   20.1579 H   0  0  0  0  0  0
  -28.9128  -23.3874   21.5066 H   0  0  0  0  0  0
  -27.0360  -24.5190   20.3295 H   0  0  0  0  0  0
  -27.9456  -24.6657   18.8620 H   0  0  0  0  0  0
  -28.8606  -15.5637   21.2163 H   0  0  0  0  0  0
  1 25  1  0  0  0
  1 30  2  0  0  0
  1 81  1  0  0  0
  2  3  1  0  0  0
  2 25  1  0  0  0
  2 82  1  0  0  0
  2 83  1  0  0  0
  3  4  1  0  0  0
  3 84  1  0  0  0
  3 85  1  0  0  0
  4  5  1  0  0  0
  4 86  1  0  0  0
  4 87  1  0  0  0
  5  6  1  0  0  0
  5 26  1  0  0  0
  5 88  1  0  0  0
  6 25  1  0  0  0
  6 89  1  0  0  0
  6 90  1  0  0  0
  7  8  2  0  0  0
  7 26  1  0  0  0
  7 29  1  0  0  0
  8  9  1  0  0  0
  8 22  1  0  0  0
  9 10  1  0  0  0
  9 27  2  0  0  0
 10 11  2  0  0  0
 10 15  1  0  0  0
 11 12  1  0  0  0
 11 91  1  0  0  0
 12 13  2  0  0  0
 12 92  1  0  0  0
 13 14  1  0  0  0
 13 31  1  0  0  0
 14 15  2  0  0  0
 14 93  1  0  0  0
 15 94  1  0  0  0
 16 17  2  0  0  0
 16 21  1  0  0  0
 16 31  1  0  0  0
 17 18  1  0  0  0
 17 95  1  0  0  0
 18 19  2  0  0  0
 18 96  1  0  0  0
 19 20  1  0  0  0
 19 24  1  0  0  0
 20 21  2  0  0  0
 20 97  1  0  0  0
 21 23  1  0  0  0
 22 28  1  0  0  0
 22 32  2  0  0  0
 26 27  1  0  0  0
 28 98  1  0  0  0
 28 99  1  0  0  0
 29100  1  0  0  0
 29101  1  0  0  0
 33 34  1  0  0  0
 33 66  1  0  0  0
 33 70  2  0  0  0
 34 36  1  0  0  0
 34 59  1  0  0  0
 34102  1  0  0  0
 35 44  2  0  0  0
 35 45  1  0  0  0
 35 68  1  0  0  0
 36 56  1  0  0  0
 36103  1  0  0  0
 37 39  1  0  0  0
 37 47  1  0  0  0
 37 66  1  0  0  0
 37104  1  0  0  0
 38 43  2  0  0  0
 38 46  1  0  0  0
 38 47  1  0  0  0
 39 64  1  0  0  0
 39 67  2  0  0  0
 40 52  1  0  0  0
 40 53  2  0  0  0
 40 58  1  0  0  0
 41105  1  0  0  0
 41106  1  0  0  0
 41107  1  0  0  0
 41 48  1  0  0  0
 42 43  1  0  0  0
 42 66  1  0  0  0
 42108  1  0  0  0
 42109  1  0  0  0
 43 44  1  0  0  0
 44110  1  0  0  0
 45 46  2  0  0  0
 45111  1  0  0  0
 46112  1  0  0  0
 47113  1  0  0  0
 47114  1  0  0  0
 48 56  1  0  0  0
 48 65  1  0  0  0
 48115  1  0  0  0
 49 50  1  0  0  0
 49 53  1  0  0  0
 49 64  1  0  0  0
 49116  1  0  0  0
 50 51  1  0  0  0
 50117  1  0  0  0
 50118  1  0  0  0
 51 52  1  0  0  0
 51119  1  0  0  0
 51120  1  0  0  0
 52121  1  0  0  0
 52122  1  0  0  0
 53 54  1  0  0  0
 54 55  2  0  0  0
 54123  1  0  0  0
 55 57  1  0  0  0
 55124  1  0  0  0
 56 69  2  0  0  0
 57 58  2  0  0  0
 57125  1  0  0  0
 58126  1  0  0  0
 59 60  1  0  0  0
 59 61  1  0  0  0
 59 62  1  0  0  0
 60127  1  0  0  0
 60128  1  0  0  0
 60129  1  0  0  0
 61130  1  0  0  0
 61131  1  0  0  0
 61132  1  0  0  0
 62133  1  0  0  0
 62134  1  0  0  0
 62135  1  0  0  0
 63 65  1  0  0  0
 63136  1  0  0  0
 63137  1  0  0  0
 63138  1  0  0  0
 64139  1  0  0  0
 65140  1  0  0  0
 68 80  1  0  0  0
 71 72  2  0  0  0
 71 74  1  0  0  0
 71141  1  0  0  0
 72 76  1  0  0  0
 72142  1  0  0  0
 73 74  2  0  0  0
 73 75  1  0  0  0
 73143  1  0  0  0
 74 78  1  0  0  0
 75 76  2  0  0  0
 75 77  1  0  0  0
 76 81  1  0  0  0
 77144  1  0  0  0
 77145  1  0  0  0
 77146  1  0  0  0
 78 79  1  0  0  0
 78147  1  0  0  0
 78148  1  0  0  0
 79 80  1  0  0  0
 79149  1  0  0  0
 79150  1  0  0  0
 80151  1  0  0  0
 80152  1  0  0  0
 81153  1  0  0  0
M  ISO  4   1 100  68 101  80 101  81 100
M  END
> <chiral flag>
0

> <version>
0

> <s_m_source_file>
/data/baiqing/PycharmProjects/Reinvent-master-3.2/result/LINK_invent/BTK/process_docking_weight1_custom_product_contain_oxygen_bond_distance_aromatic_linkinvent_7_9_3/rearranged_h_0125.sdf

> <i_m_source_file_index>
87

> <r_mmod_Potential_Energy-OPLS-2005>
327.791748046875

> <r_mmod_Stretch_Energy-OPLS-2005>
185.424407958984

> <r_mmod_Bend_Energy-OPLS-2005>
234.805435180664

> <r_mmod_Torsional_Energy-OPLS-2005>
221.717864990234

> <r_mmod_Improper_Torsional_Energy-OPLS-2005>
5.95729446411133

> <r_mmod_Van_der_Waal_Energy-OPLS-2005>
133.010223388672

> <r_mmod_Electrostatic_Energy-OPLS-2005>
-388.649108886719

> <r_mmod_Solvation_Energy-OPLS-2005>
-205.101867675781

> <b_mmod_Minimization_Converged-OPLS-2005>
0

> <r_mmod_RMS_Derivative-OPLS-2005>
0.394445061683655

$$$$
87
                    3D
 Structure written by MMmdl.
153161  0  0  1  0            999 V2000
  -30.6292  -14.6630   20.4932 C   0  0  0  0  0  0
  -30.4434  -12.4069   19.4579 C   0  0  0  0  0  0
  -29.5130  -12.5084   18.2286 C   0  0  0  0  0  0
  -28.0364  -12.3389   18.6420 C   0  0  0  0  0  0
  -27.6520  -13.2171   19.8624 C   0  0  2  0  0  0
  -28.7008  -13.0920   20.9916 C   0  0  0  0  0  0
  -25.2455  -13.8039   20.5551 C   0  0  0  0  0  0
  -24.1788  -13.0342   20.9215 C   0  0  0  0  0  0
  -24.6406  -11.6841   20.8790 C   0  0  0  0  0  0
  -23.9070  -10.4244   21.0439 C   0  0  0  0  0  0
  -24.3613   -9.4158   21.9210 C   0  0  0  0  0  0
  -23.6278   -8.2204   22.0761 C   0  0  0  0  0  0
  -22.4260   -8.0261   21.3543 C   0  0  0  0  0  0
  -21.9900   -9.0239   20.4649 C   0  0  0  0  0  0
  -22.7243  -10.2114   20.3073 C   0  0  0  0  0  0
  -21.6842   -6.0727   22.5281 C   0  0  0  0  0  0
  -21.4015   -6.5638   23.8213 C   0  0  0  0  0  0
  -21.3652   -5.6786   24.9173 C   0  0  0  0  0  0
  -21.6041   -4.3046   24.7223 C   0  0  0  0  0  0
  -21.8821   -3.8137   23.4343 C   0  0  0  0  0  0
  -21.9188   -4.6957   22.3400 C   0  0  0  0  0  0
  -22.7816  -13.5164   21.1846 C   0  0  0  0  0  0
  -22.1656   -4.2145   21.0978 F   0  0  0  0  0  0
  -21.5615   -3.4531   25.7730 F   0  0  0  0  0  0
  -30.0144  -13.4373   20.4249 N   0  0  0  0  0  0
  -26.2974  -12.9302   20.3306 N   0  0  0  0  0  0
  -25.9347  -11.6462   20.5827 N   0  0  0  0  0  0
  -22.0439  -12.8198   22.0423 N   0  0  0  0  0  0
  -25.3915  -15.1686   20.3640 N   0  0  0  0  0  0
  -31.7987  -14.8071   20.1285 O   0  0  0  0  0  0
  -21.6619   -6.8863   21.4238 O   0  0  0  0  0  0
  -22.3526  -14.5472   20.6671 O   0  0  0  0  0  0
  -24.6250  -31.8615   23.2044 C   0  0  0  0  0  0
  -25.9103  -32.4788   23.8380 C   0  0  1  0  0  0
  -27.2303  -27.3370   20.1048 C   0  0  0  0  0  0
  -25.5923  -33.8585   24.2307 N   0  0  0  0  0  0
  -23.4187  -30.4854   21.5477 C   0  0  2  0  0  0
  -24.8655  -28.9462   20.1126 C   0  0  0  0  0  0
  -22.7475  -29.4616   22.4941 C   0  0  0  0  0  0
  -18.0293  -28.1381   22.8485 C   0  0  0  0  0  0
  -24.1490  -36.7297   23.2630 C   0  0  0  0  0  0
  -25.9597  -30.7972   21.3747 C   0  0  0  0  0  0
  -26.0349  -29.4269   20.7144 C   0  0  0  0  0  0
  -27.2201  -28.6340   20.7018 C   0  0  0  0  0  0
  -26.0311  -26.9046   19.4871 C   0  0  0  0  0  0
  -24.8641  -27.6886   19.4922 C   0  0  0  0  0  0
  -23.6336  -29.8246   20.1615 C   0  0  0  0  0  0
  -25.4101  -36.3079   24.0336 C   0  0  1  0  0  0
  -20.5889  -28.3682   23.1277 C   0  0  2  0  0  0
  -20.6781  -26.9406   22.5401 C   0  0  0  0  0  0
  -19.5755  -26.6378   21.5204 C   0  0  0  0  0  0
  -18.1939  -26.7923   22.1622 C   0  0  0  0  0  0
  -19.1545  -28.8849   23.2877 C   0  0  0  0  0  0
  -18.9467  -30.1447   23.8901 C   0  0  0  0  0  0
  -17.6465  -30.6578   24.0559 C   0  0  0  0  0  0
  -25.9045  -34.9453   23.5121 C   0  0  0  0  0  0
  -16.5358  -29.9076   23.6323 C   0  0  0  0  0  0
  -16.7280  -28.6495   23.0350 C   0  0  0  0  0  0
  -26.4497  -31.6587   25.0738 C   0  0  0  0  0  0
  -25.3741  -31.3733   26.1481 C   0  0  0  0  0  0
  -27.0324  -30.3011   24.6174 C   0  0  0  0  0  0
  -27.6087  -32.4300   25.7477 C   0  0  0  0  0  0
  -27.5597  -37.1765   24.8439 C   0  0  0  0  0  0
  -21.4191  -29.3038   22.3679 N   0  0  0  0  0  0
  -26.4271  -37.3782   23.9444 N   0  0  0  0  0  0
  -24.6869  -31.0630   22.0997 N   0  0  0  0  0  0
  -23.4204  -28.8155   23.3013 O   0  0  0  0  0  0
  -28.3566  -26.5005   20.1376 O   0  0  0  0  0  0
  -26.5608  -34.8911   22.4683 O   0  0  0  0  0  0
  -23.5415  -32.1414   23.7375 O   0  0  0  0  0  0
  -31.1796  -19.3136   20.3211 C   0  0  0  0  0  0
  -31.1422  -17.8879   20.4226 C   0  0  0  0  0  0
  -28.8276  -19.4312   20.7316 C   0  0  0  0  0  0
  -30.0265  -20.1322   20.4767 C   0  0  0  0  0  0
  -28.7795  -18.0106   20.8490 C   0  0  0  0  0  0
  -29.9368  -17.1840   20.6885 C   0  0  0  0  0  0
  -30.1043  -21.6476   20.3638 C   0  0  0  0  0  0
  -29.1043  -22.5862   20.2914 C   0  0  0  0  0  0
  -29.3302  -24.0878   20.2145 C   0  0  0  0  0  0
  -27.4191  -17.4115   21.1222 C   0  0  0  0  0  0
  -28.1147  -25.0521   19.9606 C   0  0  0  0  0  0
  -29.8159  -15.7231   20.8124 N   0  0  0  0  0  0
  -30.4574  -24.5813   20.3318 O   0  0  0  0  0  0
  -31.4839  -12.5347   19.1541 H   0  0  0  0  0  0
  -30.3838  -11.4160   19.9109 H   0  0  0  0  0  0
  -29.7817  -11.7509   17.4900 H   0  0  0  0  0  0
  -29.6496  -13.4746   17.7415 H   0  0  0  0  0  0
  -27.8831  -11.2867   18.8848 H   0  0  0  0  0  0
  -27.3816  -12.5537   17.7968 H   0  0  0  0  0  0
  -27.6613  -14.2492   19.5126 H   0  0  0  0  0  0
  -28.7194  -12.0752   21.3872 H   0  0  0  0  0  0
  -28.4460  -13.7354   21.8348 H   0  0  0  0  0  0
  -25.2764   -9.5622   22.4786 H   0  0  0  0  0  0
  -23.9966   -7.4590   22.7488 H   0  0  0  0  0  0
  -21.0823   -8.8787   19.8961 H   0  0  0  0  0  0
  -22.3725  -10.9661   19.6183 H   0  0  0  0  0  0
  -21.2026   -7.6149   23.9718 H   0  0  0  0  0  0
  -21.1463   -6.0515   25.9074 H   0  0  0  0  0  0
  -22.0610   -2.7594   23.2852 H   0  0  0  0  0  0
  -22.4033  -11.9881   22.4850 H   0  0  0  0  0  0
  -21.1062  -13.1274   22.2606 H   0  0  0  0  0  0
  -24.5903  -15.7890   20.4051 H   0  0  0  0  0  0
  -26.1819  -15.5720   19.8805 H   0  0  0  0  0  0
  -26.7177  -32.5467   23.1139 H   0  0  0  0  0  0
  -25.0075  -33.9743   25.0454 H   0  0  0  0  0  0
  -22.7116  -31.3050   21.4068 H   0  0  0  0  0  0
  -23.3764  -35.9611   23.3214 H   0  0  0  0  0  0
  -24.3621  -36.8993   22.2064 H   0  0  0  0  0  0
  -23.7209  -37.6462   23.6697 H   0  0  0  0  0  0
  -26.0905  -31.5632   20.6090 H   0  0  0  0  0  0
  -26.8398  -30.8450   22.0044 H   0  0  0  0  0  0
  -28.1182  -28.9993   21.1811 H   0  0  0  0  0  0
  -25.9605  -25.9477   18.9925 H   0  0  0  0  0  0
  -23.9677  -27.3143   19.0166 H   0  0  0  0  0  0
  -23.7544  -30.6049   19.4091 H   0  0  0  0  0  0
  -22.7546  -29.2556   19.8547 H   0  0  0  0  0  0
  -25.1261  -36.1926   25.0822 H   0  0  0  0  0  0
  -20.9984  -28.3259   24.1392 H   0  0  0  0  0  0
  -20.5671  -26.2298   23.3601 H   0  0  0  0  0  0
  -21.6648  -26.7430   22.1199 H   0  0  0  0  0  0
  -19.6911  -25.6284   21.1234 H   0  0  0  0  0  0
  -19.6684  -27.3185   20.6728 H   0  0  0  0  0  0
  -17.4202  -26.6662   21.4033 H   0  0  0  0  0  0
  -18.0344  -26.0064   22.9019 H   0  0  0  0  0  0
  -19.7941  -30.7260   24.2276 H   0  0  0  0  0  0
  -17.5017  -31.6258   24.5161 H   0  0  0  0  0  0
  -15.5356  -30.2981   23.7627 H   0  0  0  0  0  0
  -15.8684  -28.0798   22.7069 H   0  0  0  0  0  0
  -24.5884  -30.7117   25.7813 H   0  0  0  0  0  0
  -24.8973  -32.2908   26.4945 H   0  0  0  0  0  0
  -25.8063  -30.8872   27.0236 H   0  0  0  0  0  0
  -26.2886  -29.6756   24.1226 H   0  0  0  0  0  0
  -27.4064  -29.7272   25.4662 H   0  0  0  0  0  0
  -27.8742  -30.4305   23.9369 H   0  0  0  0  0  0
  -27.2745  -33.3613   26.2058 H   0  0  0  0  0  0
  -28.3878  -32.6827   25.0273 H   0  0  0  0  0  0
  -28.0772  -31.8418   26.5376 H   0  0  0  0  0  0
  -28.2510  -38.0164   24.7631 H   0  0  0  0  0  0
  -28.1194  -36.2710   24.6053 H   0  0  0  0  0  0
  -27.2354  -37.1153   25.8841 H   0  0  0  0  0  0
  -20.9369  -29.8793   21.6917 H   0  0  0  0  0  0
  -26.0143  -38.2831   24.1539 H   0  0  0  0  0  0
  -32.1294  -19.7879   20.1184 H   0  0  0  0  0  0
  -32.0672  -17.3447   20.2946 H   0  0  0  0  0  0
  -27.9144  -19.9953   20.8568 H   0  0  0  0  0  0
  -31.1151  -22.0329   20.3562 H   0  0  0  0  0  0
  -28.0747  -22.2629   20.2877 H   0  0  0  0  0  0
  -26.7962  -18.0924   21.7046 H   0  0  0  0  0  0
  -27.4737  -16.4721   21.6712 H   0  0  0  0  0  0
  -26.9231  -17.2517   20.1663 H   0  0  0  0  0  0
  -27.3010  -24.7410   20.6170 H   0  0  0  0  0  0
  -27.7861  -24.8747   18.9363 H   0  0  0  0  0  0
  -28.8941  -15.4155   21.0782 H   0  0  0  0  0  0
  1 25  1  0  0  0
  1 30  2  0  0  0
  1 82  1  0  0  0
  2  3  1  0  0  0
  2 25  1  0  0  0
  2 84  1  0  0  0
  2 85  1  0  0  0
  3  4  1  0  0  0
  3 86  1  0  0  0
  3 87  1  0  0  0
  4  5  1  0  0  0
  4 88  1  0  0  0
  4 89  1  0  0  0
  5  6  1  0  0  0
  5 26  1  0  0  0
  5 90  1  0  0  0
  6 25  1  0  0  0
  6 91  1  0  0  0
  6 92  1  0  0  0
  7  8  2  0  0  0
  7 26  1  0  0  0
  7 29  1  0  0  0
  8  9  1  0  0  0
  8 22  1  0  0  0
  9 10  1  0  0  0
  9 27  2  0  0  0
 10 11  2  0  0  0
 10 15  1  0  0  0
 11 12  1  0  0  0
 11 93  1  0  0  0
 12 13  2  0  0  0
 12 94  1  0  0  0
 13 14  1  0  0  0
 13 31  1  0  0  0
 14 15  2  0  0  0
 14 95  1  0  0  0
 15 96  1  0  0  0
 16 17  2  0  0  0
 16 21  1  0  0  0
 16 31  1  0  0  0
 17 18  1  0  0  0
 17 97  1  0  0  0
 18 19  2  0  0  0
 18 98  1  0  0  0
 19 20  1  0  0  0
 19 24  1  0  0  0
 20 21  2  0  0  0
 20 99  1  0  0  0
 21 23  1  0  0  0
 22 28  1  0  0  0
 22 32  2  0  0  0
 26 27  1  0  0  0
 28100  1  0  0  0
 28101  1  0  0  0
 29102  1  0  0  0
 29103  1  0  0  0
 33 34  1  0  0  0
 33 66  1  0  0  0
 33 70  2  0  0  0
 34 36  1  0  0  0
 34 59  1  0  0  0
 34104  1  0  0  0
 35 44  2  0  0  0
 35 45  1  0  0  0
 35 68  1  0  0  0
 36 56  1  0  0  0
 36105  1  0  0  0
 37 39  1  0  0  0
 37 47  1  0  0  0
 37 66  1  0  0  0
 37106  1  0  0  0
 38 43  2  0  0  0
 38 46  1  0  0  0
 38 47  1  0  0  0
 39 64  1  0  0  0
 39 67  2  0  0  0
 40 52  1  0  0  0
 40 53  2  0  0  0
 40 58  1  0  0  0
 41107  1  0  0  0
 41108  1  0  0  0
 41109  1  0  0  0
 41 48  1  0  0  0
 42 43  1  0  0  0
 42 66  1  0  0  0
 42110  1  0  0  0
 42111  1  0  0  0
 43 44  1  0  0  0
 44112  1  0  0  0
 45 46  2  0  0  0
 45113  1  0  0  0
 46114  1  0  0  0
 47115  1  0  0  0
 47116  1  0  0  0
 48 56  1  0  0  0
 48 65  1  0  0  0
 48117  1  0  0  0
 49 50  1  0  0  0
 49 53  1  0  0  0
 49 64  1  0  0  0
 49118  1  0  0  0
 50 51  1  0  0  0
 50119  1  0  0  0
 50120  1  0  0  0
 51 52  1  0  0  0
 51121  1  0  0  0
 51122  1  0  0  0
 52123  1  0  0  0
 52124  1  0  0  0
 53 54  1  0  0  0
 54 55  2  0  0  0
 54125  1  0  0  0
 55 57  1  0  0  0
 55126  1  0  0  0
 56 69  2  0  0  0
 57 58  2  0  0  0
 57127  1  0  0  0
 58128  1  0  0  0
 59 60  1  0  0  0
 59 61  1  0  0  0
 59 62  1  0  0  0
 60129  1  0  0  0
 60130  1  0  0  0
 60131  1  0  0  0
 61132  1  0  0  0
 61133  1  0  0  0
 61134  1  0  0  0
 62135  1  0  0  0
 62136  1  0  0  0
 62137  1  0  0  0
 63 65  1  0  0  0
 63138  1  0  0  0
 63139  1  0  0  0
 63140  1  0  0  0
 64141  1  0  0  0
 65142  1  0  0  0
 68 81  1  0  0  0
 71 72  2  0  0  0
 71 74  1  0  0  0
 71143  1  0  0  0
 72 76  1  0  0  0
 72144  1  0  0  0
 73 74  2  0  0  0
 73 75  1  0  0  0
 73145  1  0  0  0
 74 77  1  0  0  0
 75 76  2  0  0  0
 75 80  1  0  0  0
 76 82  1  0  0  0
 77 78  2  0  0  0
 77146  1  0  0  0
 78 79  1  0  0  0
 78147  1  0  0  0
 79 81  1  0  0  0
 79 83  2  0  0  0
 80148  1  0  0  0
 80149  1  0  0  0
 80150  1  0  0  0
 81151  1  0  0  0
 81152  1  0  0  0
 82153  1  0  0  0
M  ISO  4   1 100  68 101  81 101  82 100
M  END
> <chiral flag>
0

> <version>
0

> <s_m_source_file>
/data/baiqing/PycharmProjects/Reinvent-master-3.2/result/LINK_invent/BTK/process_docking_weight1_custom_product_contain_oxygen_bond_distance_aromatic_linkinvent_7_9_3/rearranged_h_0125.sdf

> <i_m_source_file_index>
88

> <r_mmod_Potential_Energy-OPLS-2005>
17.3762893676758

> <r_mmod_Stretch_Energy-OPLS-2005>
76.2647705078125

> <r_mmod_Bend_Energy-OPLS-2005>
128.889190673828

> <r_mmod_Torsional_Energy-OPLS-2005>
209.611755371094

> <r_mmod_Improper_Torsional_Energy-OPLS-2005>
5.33827304840088

> <r_mmod_Van_der_Waal_Energy-OPLS-2005>
150.311431884766

> <r_mmod_Electrostatic_Energy-OPLS-2005>
-373.359924316406

> <r_mmod_Solvation_Energy-OPLS-2005>
-228.910049438477

> <b_mmod_Minimization_Converged-OPLS-2005>
0

> <r_mmod_RMS_Derivative-OPLS-2005>
1.88998234272003

$$$$
