0
                    3D
 Structure written by MMmdl.
150158  0  0  1  0            999 V2000
  -30.6050  -14.7661   20.4037 C   0  0  0  0  0  0
  -30.4257  -12.4599   19.4661 C   0  0  0  0  0  0
  -29.5017  -12.4920   18.2295 C   0  0  0  0  0  0
  -28.0289  -12.3187   18.6494 C   0  0  0  0  0  0
  -27.6334  -13.2343   19.8379 C   0  0  2  0  0  0
  -28.6803  -13.1983   20.9703 C   0  0  0  0  0  0
  -25.2498  -13.8218   20.5707 C   0  0  0  0  0  0
  -24.1807  -13.0453   20.9234 C   0  0  0  0  0  0
  -24.6402  -11.6931   20.8758 C   0  0  0  0  0  0
  -23.9094  -10.4296   21.0416 C   0  0  0  0  0  0
  -24.3640   -9.4207   21.9180 C   0  0  0  0  0  0
  -23.6310   -8.2235   22.0744 C   0  0  0  0  0  0
  -22.4288   -8.0277   21.3542 C   0  0  0  0  0  0
  -21.9938   -9.0260   20.4642 C   0  0  0  0  0  0
  -22.7266  -10.2138   20.3065 C   0  0  0  0  0  0
  -21.6849   -6.0745   22.5281 C   0  0  0  0  0  0
  -21.4003   -6.5648   23.8216 C   0  0  0  0  0  0
  -21.3660   -5.6796   24.9180 C   0  0  0  0  0  0
  -21.6047   -4.3062   24.7220 C   0  0  0  0  0  0
  -21.8818   -3.8154   23.4336 C   0  0  0  0  0  0
  -21.9193   -4.6974   22.3398 C   0  0  0  0  0  0
  -22.7822  -13.5219   21.1898 C   0  0  0  0  0  0
  -22.1668   -4.2168   21.0970 F   0  0  0  0  0  0
  -21.5634   -3.4542   25.7727 F   0  0  0  0  0  0
  -29.9758  -13.5406   20.3742 N   0  0  0  0  0  0
  -26.2905  -12.9421   20.3245 N   0  0  0  0  0  0
  -25.9327  -11.6560   20.5745 N   0  0  0  0  0  0
  -22.0493  -12.8181   22.0452 N   0  0  0  0  0  0
  -25.4213  -15.1938   20.4130 N   0  0  0  0  0  0
  -31.8211  -14.7988   20.2119 O   0  0  0  0  0  0
  -21.6641   -6.8883   21.4241 O   0  0  0  0  0  0
  -22.3488  -14.5518   20.6747 O   0  0  0  0  0  0
  -24.6311  -31.8517   23.1951 C   0  0  0  0  0  0
  -25.9132  -32.4729   23.8298 C   0  0  1  0  0  0
  -27.2221  -27.2496   20.1540 C   0  0  0  0  0  0
  -25.5927  -33.8528   24.2232 N   0  0  0  0  0  0
  -23.4290  -30.4692   21.5389 C   0  0  2  0  0  0
  -24.8783  -28.9070   20.1179 C   0  0  0  0  0  0
  -22.7501  -29.4541   22.4902 C   0  0  0  0  0  0
  -18.0301  -28.1370   22.8534 C   0  0  0  0  0  0
  -24.1498  -36.7278   23.2640 C   0  0  0  0  0  0
  -25.9737  -30.7634   21.3737 C   0  0  0  0  0  0
  -26.0484  -29.3810   20.7246 C   0  0  0  0  0  0
  -27.2271  -28.5682   20.7231 C   0  0  0  0  0  0
  -26.0314  -26.8302   19.5326 C   0  0  0  0  0  0
  -24.8752  -27.6393   19.5093 C   0  0  0  0  0  0
  -23.6503  -29.7987   20.1575 C   0  0  0  0  0  0
  -25.4120  -36.3052   24.0325 C   0  0  1  0  0  0
  -20.5894  -28.3701   23.1317 C   0  0  2  0  0  0
  -20.6735  -26.9380   22.5537 C   0  0  0  0  0  0
  -19.5748  -26.6367   21.5283 C   0  0  0  0  0  0
  -18.1951  -26.7885   22.1741 C   0  0  0  0  0  0
  -19.1543  -28.8875   23.2888 C   0  0  0  0  0  0
  -18.9460  -30.1513   23.8825 C   0  0  0  0  0  0
  -17.6447  -30.6619   24.0500 C   0  0  0  0  0  0
  -25.9058  -34.9426   23.5082 C   0  0  0  0  0  0
  -16.5340  -29.9069   23.6328 C   0  0  0  0  0  0
  -16.7281  -28.6473   23.0389 C   0  0  0  0  0  0
  -26.4504  -31.6553   25.0683 C   0  0  0  0  0  0
  -25.3726  -31.3713   26.1401 C   0  0  0  0  0  0
  -27.0351  -30.2970   24.6158 C   0  0  0  0  0  0
  -27.6051  -32.4298   25.7454 C   0  0  0  0  0  0
  -27.5576  -37.1795   24.8465 C   0  0  0  0  0  0
  -21.4196  -29.2997   22.3661 N   0  0  0  0  0  0
  -26.4298  -37.3747   23.9392 N   0  0  0  0  0  0
  -24.6973  -31.0457   22.0938 N   0  0  0  0  0  0
  -23.4194  -28.8091   23.3008 O   0  0  0  0  0  0
  -28.3394  -26.3919   20.1155 O   0  0  0  0  0  0
  -26.5627  -34.8911   22.4649 O   0  0  0  0  0  0
  -23.5455  -32.1331   23.7233 O   0  0  0  0  0  0
  -30.6661  -20.0847   19.2813 C   0  0  0  0  0  0
  -31.4399  -19.0012   18.8309 C   0  0  0  0  0  0
  -29.2695  -18.5038   20.4804 C   0  0  0  0  0  0
  -29.5207  -19.8939   20.0786 C   0  0  0  0  0  0
  -30.0891  -17.3526   20.0806 C   0  0  0  0  0  0
  -31.1443  -17.6700   19.1799 C   0  0  0  0  0  0
  -28.6541  -21.1784   20.3259 C   0  0  0  0  0  0
  -28.0244  -23.6169   19.9842 C   0  0  0  0  0  0
  -28.3334  -25.0222   20.7430 C   0  0  0  0  0  0
  -28.9978  -22.4409   20.1169 N   0  0  0  0  0  0
  -29.8257  -15.9258   20.4798 N   0  0  0  0  0  0
  -31.8691  -16.7104   18.5632 F   0  0  0  0  0  0
  -31.4653  -12.5829   19.1568 H   0  0  0  0  0  0
  -30.3731  -11.4905   19.9653 H   0  0  0  0  0  0
  -29.7798  -11.7056   17.5258 H   0  0  0  0  0  0
  -29.6258  -13.4389   17.7014 H   0  0  0  0  0  0
  -27.8891  -11.2736   18.9287 H   0  0  0  0  0  0
  -27.3701  -12.4948   17.7981 H   0  0  0  0  0  0
  -27.6187  -14.2481   19.4367 H   0  0  0  0  0  0
  -28.7173  -12.2163   21.4424 H   0  0  0  0  0  0
  -28.4186  -13.9072   21.7587 H   0  0  0  0  0  0
  -25.2789   -9.5686   22.4752 H   0  0  0  0  0  0
  -24.0024   -7.4633   22.7471 H   0  0  0  0  0  0
  -21.0867   -8.8794   19.8944 H   0  0  0  0  0  0
  -22.3731  -10.9685   19.6178 H   0  0  0  0  0  0
  -21.1982   -7.6150   23.9734 H   0  0  0  0  0  0
  -21.1486   -6.0516   25.9088 H   0  0  0  0  0  0
  -22.0592   -2.7614   23.2829 H   0  0  0  0  0  0
  -22.4117  -11.9825   22.4800 H   0  0  0  0  0  0
  -21.1107  -13.1178   22.2674 H   0  0  0  0  0  0
  -24.6557  -15.8475   20.5402 H   0  0  0  0  0  0
  -26.2605  -15.6348   20.0591 H   0  0  0  0  0  0
  -26.7185  -32.5365   23.1024 H   0  0  0  0  0  0
  -25.0063  -33.9649   25.0374 H   0  0  0  0  0  0
  -22.7239  -31.2893   21.3889 H   0  0  0  0  0  0
  -23.3744  -35.9628   23.3314 H   0  0  0  0  0  0
  -24.3589  -36.8889   22.2054 H   0  0  0  0  0  0
  -23.7280  -37.6494   23.6659 H   0  0  0  0  0  0
  -26.1063  -31.5178   20.5979 H   0  0  0  0  0  0
  -26.8556  -30.8192   22.0015 H   0  0  0  0  0  0
  -28.1318  -28.9341   21.1892 H   0  0  0  0  0  0
  -25.9966  -25.8574   19.0616 H   0  0  0  0  0  0
  -23.9804  -27.2678   19.0292 H   0  0  0  0  0  0
  -23.7788  -30.5744   19.4016 H   0  0  0  0  0  0
  -22.7702  -29.2315   19.8493 H   0  0  0  0  0  0
  -25.1308  -36.1895   25.0820 H   0  0  0  0  0  0
  -20.9980  -28.3334   24.1441 H   0  0  0  0  0  0
  -20.5437  -26.2362   23.3793 H   0  0  0  0  0  0
  -21.6650  -26.7265   22.1500 H   0  0  0  0  0  0
  -19.6907  -25.6272   21.1326 H   0  0  0  0  0  0
  -19.6695  -27.3179   20.6826 H   0  0  0  0  0  0
  -17.4142  -26.6500   21.4245 H   0  0  0  0  0  0
  -18.0494  -26.0092   22.9227 H   0  0  0  0  0  0
  -19.7931  -30.7381   24.2103 H   0  0  0  0  0  0
  -17.5007  -31.6338   24.5034 H   0  0  0  0  0  0
  -15.5335  -30.2952   23.7655 H   0  0  0  0  0  0
  -15.8692  -28.0748   22.7149 H   0  0  0  0  0  0
  -24.5898  -30.7061   25.7721 H   0  0  0  0  0  0
  -24.8920  -32.2895   26.4792 H   0  0  0  0  0  0
  -25.8047  -30.8900   27.0185 H   0  0  0  0  0  0
  -26.2929  -29.6698   24.1198 H   0  0  0  0  0  0
  -27.4060  -29.7237   25.4661 H   0  0  0  0  0  0
  -27.8798  -30.4229   23.9379 H   0  0  0  0  0  0
  -27.2647  -33.3591   26.2029 H   0  0  0  0  0  0
  -28.3874  -32.6868   25.0298 H   0  0  0  0  0  0
  -28.0710  -31.8421   26.5375 H   0  0  0  0  0  0
  -28.2600  -38.0081   24.7474 H   0  0  0  0  0  0
  -28.1074  -36.2606   24.6351 H   0  0  0  0  0  0
  -27.2286  -37.1519   25.8869 H   0  0  0  0  0  0
  -20.9359  -29.8659   21.6833 H   0  0  0  0  0  0
  -26.0175  -38.2824   24.1374 H   0  0  0  0  0  0
  -30.9289  -21.0778   18.9440 H   0  0  0  0  0  0
  -32.2632  -19.1961   18.1610 H   0  0  0  0  0  0
  -28.4051  -18.3147   21.0993 H   0  0  0  0  0  0
  -27.6303  -20.9642   20.6466 H   0  0  0  0  0  0
  -27.9538  -23.8583   18.9232 H   0  0  0  0  0  0
  -27.0133  -23.3002   20.2474 H   0  0  0  0  0  0
  -29.3321  -24.9255   21.1712 H   0  0  0  0  0  0
  -27.6801  -25.0713   21.6159 H   0  0  0  0  0  0
  -28.8812  -15.7443   20.7787 H   0  0  0  0  0  0
  1 25  1  0  0  0
  1 30  2  0  0  0
  1 81  1  0  0  0
  2  3  1  0  0  0
  2 25  1  0  0  0
  2 83  1  0  0  0
  2 84  1  0  0  0
  3  4  1  0  0  0
  3 85  1  0  0  0
  3 86  1  0  0  0
  4  5  1  0  0  0
  4 87  1  0  0  0
  4 88  1  0  0  0
  5  6  1  0  0  0
  5 26  1  0  0  0
  5 89  1  0  0  0
  6 25  1  0  0  0
  6 90  1  0  0  0
  6 91  1  0  0  0
  7  8  2  0  0  0
  7 26  1  0  0  0
  7 29  1  0  0  0
  8  9  1  0  0  0
  8 22  1  0  0  0
  9 10  1  0  0  0
  9 27  2  0  0  0
 10 11  2  0  0  0
 10 15  1  0  0  0
 11 12  1  0  0  0
 11 92  1  0  0  0
 12 13  2  0  0  0
 12 93  1  0  0  0
 13 14  1  0  0  0
 13 31  1  0  0  0
 14 15  2  0  0  0
 14 94  1  0  0  0
 15 95  1  0  0  0
 16 17  2  0  0  0
 16 21  1  0  0  0
 16 31  1  0  0  0
 17 18  1  0  0  0
 17 96  1  0  0  0
 18 19  2  0  0  0
 18 97  1  0  0  0
 19 20  1  0  0  0
 19 24  1  0  0  0
 20 21  2  0  0  0
 20 98  1  0  0  0
 21 23  1  0  0  0
 22 28  1  0  0  0
 22 32  2  0  0  0
 26 27  1  0  0  0
 28 99  1  0  0  0
 28100  1  0  0  0
 29101  1  0  0  0
 29102  1  0  0  0
 33 34  1  0  0  0
 33 66  1  0  0  0
 33 70  2  0  0  0
 34 36  1  0  0  0
 34 59  1  0  0  0
 34103  1  0  0  0
 35 44  2  0  0  0
 35 45  1  0  0  0
 35 68  1  0  0  0
 36 56  1  0  0  0
 36104  1  0  0  0
 37 39  1  0  0  0
 37 47  1  0  0  0
 37 66  1  0  0  0
 37105  1  0  0  0
 38 43  2  0  0  0
 38 46  1  0  0  0
 38 47  1  0  0  0
 39 64  1  0  0  0
 39 67  2  0  0  0
 40 52  1  0  0  0
 40 53  2  0  0  0
 40 58  1  0  0  0
 41106  1  0  0  0
 41107  1  0  0  0
 41108  1  0  0  0
 41 48  1  0  0  0
 42 43  1  0  0  0
 42 66  1  0  0  0
 42109  1  0  0  0
 42110  1  0  0  0
 43 44  1  0  0  0
 44111  1  0  0  0
 45 46  2  0  0  0
 45112  1  0  0  0
 46113  1  0  0  0
 47114  1  0  0  0
 47115  1  0  0  0
 48 56  1  0  0  0
 48 65  1  0  0  0
 48116  1  0  0  0
 49 50  1  0  0  0
 49 53  1  0  0  0
 49 64  1  0  0  0
 49117  1  0  0  0
 50 51  1  0  0  0
 50118  1  0  0  0
 50119  1  0  0  0
 51 52  1  0  0  0
 51120  1  0  0  0
 51121  1  0  0  0
 52122  1  0  0  0
 52123  1  0  0  0
 53 54  1  0  0  0
 54 55  2  0  0  0
 54124  1  0  0  0
 55 57  1  0  0  0
 55125  1  0  0  0
 56 69  2  0  0  0
 57 58  2  0  0  0
 57126  1  0  0  0
 58127  1  0  0  0
 59 60  1  0  0  0
 59 61  1  0  0  0
 59 62  1  0  0  0
 60128  1  0  0  0
 60129  1  0  0  0
 60130  1  0  0  0
 61131  1  0  0  0
 61132  1  0  0  0
 61133  1  0  0  0
 62134  1  0  0  0
 62135  1  0  0  0
 62136  1  0  0  0
 63 65  1  0  0  0
 63137  1  0  0  0
 63138  1  0  0  0
 63139  1  0  0  0
 64140  1  0  0  0
 65141  1  0  0  0
 68 79  1  0  0  0
 71 72  2  0  0  0
 71 74  1  0  0  0
 71142  1  0  0  0
 72 76  1  0  0  0
 72143  1  0  0  0
 73 74  2  0  0  0
 73 75  1  0  0  0
 73144  1  0  0  0
 74 77  1  0  0  0
 75 76  2  0  0  0
 75 81  1  0  0  0
 76 82  1  0  0  0
 77 80  2  0  0  0
 77145  1  0  0  0
 78 79  1  0  0  0
 78 80  1  0  0  0
 78146  1  0  0  0
 78147  1  0  0  0
 79148  1  0  0  0
 79149  1  0  0  0
 81150  1  0  0  0
M  ISO  4   1 100  68 101  79 101  81 100
M  END
> <chiral flag>
0

> <version>
0

> <s_m_source_file>
/data/baiqing/PycharmProjects/Reinvent-master-3.2/result/LINK_invent/BTK/process_docking_weight1_custom_product_contain_oxygen_bond_distance_aromatic_linkinvent_7_9_3/rearranged_h_0066.sdf

> <i_m_source_file_index>
1

> <r_mmod_Potential_Energy-OPLS-2005>
231.026245117188

> <r_mmod_Stretch_Energy-OPLS-2005>
143.095642089844

> <r_mmod_Bend_Energy-OPLS-2005>
183.568725585938

> <r_mmod_Torsional_Energy-OPLS-2005>
261.765411376953

> <r_mmod_Improper_Torsional_Energy-OPLS-2005>
4.75480365753174

> <r_mmod_Van_der_Waal_Energy-OPLS-2005>
141.378768920898

> <r_mmod_Electrostatic_Energy-OPLS-2005>
-364.530059814453

> <r_mmod_Solvation_Energy-OPLS-2005>
-231.712585449219

> <b_mmod_Minimization_Converged-OPLS-2005>
0

> <r_mmod_RMS_Derivative-OPLS-2005>
2.51395177841187

$$$$
1
                    3D
 Structure written by MMmdl.
164173  0  0  1  0            999 V2000
  -30.5935  -14.7499   20.4702 C   0  0  0  0  0  0
  -30.4393  -12.4560   19.4919 C   0  0  0  0  0  0
  -29.5213  -12.5198   18.2489 C   0  0  0  0  0  0
  -28.0430  -12.3470   18.6491 C   0  0  0  0  0  0
  -27.6482  -13.2300   19.8643 C   0  0  2  0  0  0
  -28.6890  -13.1452   21.0038 C   0  0  0  0  0  0
  -25.2535  -13.8181   20.5676 C   0  0  0  0  0  0
  -24.1807  -13.0442   20.9172 C   0  0  0  0  0  0
  -24.6398  -11.6916   20.8741 C   0  0  0  0  0  0
  -23.9084  -10.4291   21.0416 C   0  0  0  0  0  0
  -24.3622   -9.4184   21.9182 C   0  0  0  0  0  0
  -23.6281   -8.2231   22.0746 C   0  0  0  0  0  0
  -22.4266   -8.0286   21.3534 C   0  0  0  0  0  0
  -21.9915   -9.0263   20.4636 C   0  0  0  0  0  0
  -22.7262  -10.2134   20.3054 C   0  0  0  0  0  0
  -21.6830   -6.0746   22.5276 C   0  0  0  0  0  0
  -21.4003   -6.5646   23.8216 C   0  0  0  0  0  0
  -21.3661   -5.6795   24.9174 C   0  0  0  0  0  0
  -21.6044   -4.3056   24.7217 C   0  0  0  0  0  0
  -21.8818   -3.8155   23.4337 C   0  0  0  0  0  0
  -21.9174   -4.6973   22.3396 C   0  0  0  0  0  0
  -22.7828  -13.5233   21.1837 C   0  0  0  0  0  0
  -22.1646   -4.2163   21.0968 F   0  0  0  0  0  0
  -21.5634   -3.4533   25.7723 F   0  0  0  0  0  0
  -29.9966  -13.5068   20.4400 N   0  0  0  0  0  0
  -26.2972  -12.9388   20.3319 N   0  0  0  0  0  0
  -25.9328  -11.6531   20.5757 N   0  0  0  0  0  0
  -22.0457  -12.8230   22.0391 N   0  0  0  0  0  0
  -25.4294  -15.1905   20.4097 N   0  0  0  0  0  0
  -31.7457  -14.8841   20.0459 O   0  0  0  0  0  0
  -21.6612   -6.8899   21.4249 O   0  0  0  0  0  0
  -22.3519  -14.5535   20.6680 O   0  0  0  0  0  0
  -24.6344  -31.8519   23.1960 C   0  0  0  0  0  0
  -25.9178  -32.4725   23.8310 C   0  0  1  0  0  0
  -27.2222  -27.2454   20.1303 C   0  0  0  0  0  0
  -25.5963  -33.8524   24.2241 N   0  0  0  0  0  0
  -23.4298  -30.4738   21.5396 C   0  0  2  0  0  0
  -24.8755  -28.9159   20.1062 C   0  0  0  0  0  0
  -22.7507  -29.4583   22.4901 C   0  0  0  0  0  0
  -18.0282  -28.1396   22.8481 C   0  0  0  0  0  0
  -24.1482  -36.7267   23.2644 C   0  0  0  0  0  0
  -25.9755  -30.7616   21.3736 C   0  0  0  0  0  0
  -26.0454  -29.3810   20.7184 C   0  0  0  0  0  0
  -27.2160  -28.5574   20.7207 C   0  0  0  0  0  0
  -26.0243  -26.8443   19.4971 C   0  0  0  0  0  0
  -24.8718  -27.6569   19.4834 C   0  0  0  0  0  0
  -23.6470  -29.8048   20.1552 C   0  0  0  0  0  0
  -25.4108  -36.3046   24.0328 C   0  0  1  0  0  0
  -20.5886  -28.3708   23.1261 C   0  0  2  0  0  0
  -20.6765  -26.9425   22.5404 C   0  0  0  0  0  0
  -19.5738  -26.6384   21.5212 C   0  0  0  0  0  0
  -18.1919  -26.7941   22.1616 C   0  0  0  0  0  0
  -19.1538  -28.8867   23.2859 C   0  0  0  0  0  0
  -18.9463  -30.1468   23.8878 C   0  0  0  0  0  0
  -17.6464  -30.6599   24.0559 C   0  0  0  0  0  0
  -25.9058  -34.9421   23.5082 C   0  0  0  0  0  0
  -16.5352  -29.9097   23.6337 C   0  0  0  0  0  0
  -16.7268  -28.6510   23.0365 C   0  0  0  0  0  0
  -26.4539  -31.6562   25.0707 C   0  0  0  0  0  0
  -25.3759  -31.3730   26.1427 C   0  0  0  0  0  0
  -27.0406  -30.2983   24.6210 C   0  0  0  0  0  0
  -27.6081  -32.4311   25.7493 C   0  0  0  0  0  0
  -27.5564  -37.1785   24.8465 C   0  0  0  0  0  0
  -21.4213  -29.3049   22.3655 N   0  0  0  0  0  0
  -26.4270  -37.3754   23.9415 N   0  0  0  0  0  0
  -24.6993  -31.0481   22.0927 N   0  0  0  0  0  0
  -23.4204  -28.8129   23.3008 O   0  0  0  0  0  0
  -28.3389  -26.3774   20.2241 O   0  0  0  0  0  0
  -26.5618  -34.8908   22.4642 O   0  0  0  0  0  0
  -23.5494  -32.1341   23.7262 O   0  0  0  0  0  0
  -28.4118  -19.3335   18.7309 C   0  0  0  0  0  0
  -28.9419  -16.9417   18.8977 C   0  0  0  0  0  0
  -29.5465  -18.4731   20.6986 C   0  0  0  0  0  0
  -28.3517  -18.0213   18.2111 C   0  0  0  0  0  0
  -29.0147  -19.6361   19.9749 C   0  0  0  0  0  0
  -29.5254  -17.1054   20.1702 C   0  0  0  0  0  0
  -29.6229  -21.6813   21.4189 C   0  0  0  0  0  0
  -27.6117  -17.7572   16.9368 C   0  0  0  0  0  0
  -25.3669  -18.0026   16.0542 C   0  0  0  0  0  0
  -29.4776  -23.2267   21.4268 C   0  0  0  0  0  0
  -28.3778  -22.2175   19.5868 C   0  0  0  0  0  0
  -28.3598  -23.5765   20.4227 C   0  0  2  0  0  0
  -23.9597  -18.4154   16.4791 C   0  0  0  0  0  0
  -28.4287  -24.9981   19.6197 C   0  0  0  0  0  0
  -28.9967  -21.0874   20.3795 N   0  0  0  0  0  0
  -29.8577  -15.8492   20.8925 N   0  0  0  0  0  0
  -26.3229  -18.1331   16.9865 N   0  0  0  0  0  0
  -30.2630  -21.0992   22.2998 O   0  0  0  0  0  0
  -28.1777  -17.1910   15.9957 O   0  0  0  0  0  0
  -25.5398  -17.5730   14.9082 O   0  0  0  0  0  0
  -31.4816  -12.5816   19.1941 H   0  0  0  0  0  0
  -30.3879  -11.4743   19.9648 H   0  0  0  0  0  0
  -29.8066  -11.7506   17.5295 H   0  0  0  0  0  0
  -29.6513  -13.4767   17.7411 H   0  0  0  0  0  0
  -27.8848  -11.2951   18.8889 H   0  0  0  0  0  0
  -27.3966  -12.5673   17.7980 H   0  0  0  0  0  0
  -27.6455  -14.2561   19.4995 H   0  0  0  0  0  0
  -28.7231  -12.1393   21.4239 H   0  0  0  0  0  0
  -28.4138  -13.8063   21.8265 H   0  0  0  0  0  0
  -25.2768   -9.5624   22.4768 H   0  0  0  0  0  0
  -23.9972   -7.4613   22.7472 H   0  0  0  0  0  0
  -21.0843   -8.8797   19.8945 H   0  0  0  0  0  0
  -22.3734  -10.9683   19.6159 H   0  0  0  0  0  0
  -21.2005   -7.6157   23.9722 H   0  0  0  0  0  0
  -21.1490   -6.0523   25.9082 H   0  0  0  0  0  0
  -22.0603   -2.7627   23.2809 H   0  0  0  0  0  0
  -22.4060  -11.9884   22.4773 H   0  0  0  0  0  0
  -21.1095  -13.1293   22.2621 H   0  0  0  0  0  0
  -24.6756  -15.8544   20.5485 H   0  0  0  0  0  0
  -26.3028  -15.6300   20.1509 H   0  0  0  0  0  0
  -26.7240  -32.5369   23.1045 H   0  0  0  0  0  0
  -25.0156  -33.9653   25.0420 H   0  0  0  0  0  0
  -22.7274  -31.2965   21.3930 H   0  0  0  0  0  0
  -23.3737  -35.9604   23.3292 H   0  0  0  0  0  0
  -24.3579  -36.8908   22.2062 H   0  0  0  0  0  0
  -23.7242  -37.6469   23.6671 H   0  0  0  0  0  0
  -26.1112  -31.5178   20.5995 H   0  0  0  0  0  0
  -26.8552  -30.8146   22.0042 H   0  0  0  0  0  0
  -28.1092  -28.9084   21.2176 H   0  0  0  0  0  0
  -25.9315  -25.8745   19.0350 H   0  0  0  0  0  0
  -23.9756  -27.2932   19.0009 H   0  0  0  0  0  0
  -23.7702  -30.5803   19.3978 H   0  0  0  0  0  0
  -22.7646  -29.2378   19.8520 H   0  0  0  0  0  0
  -25.1292  -36.1875   25.0820 H   0  0  0  0  0  0
  -20.9972  -28.3278   24.1387 H   0  0  0  0  0  0
  -20.5657  -26.2327   23.3613 H   0  0  0  0  0  0
  -21.6631  -26.7439   22.1204 H   0  0  0  0  0  0
  -19.6900  -25.6287   21.1264 H   0  0  0  0  0  0
  -19.6686  -27.3177   20.6725 H   0  0  0  0  0  0
  -17.4197  -26.6694   21.4010 H   0  0  0  0  0  0
  -18.0308  -26.0087   22.9012 H   0  0  0  0  0  0
  -19.7939  -30.7283   24.2241 H   0  0  0  0  0  0
  -17.5025  -31.6287   24.5158 H   0  0  0  0  0  0
  -15.5353  -30.3003   23.7671 H   0  0  0  0  0  0
  -15.8663  -28.0829   22.7102 H   0  0  0  0  0  0
  -24.5940  -30.7070   25.7764 H   0  0  0  0  0  0
  -24.8948  -32.2910   26.4812 H   0  0  0  0  0  0
  -25.8082  -30.8940   27.0224 H   0  0  0  0  0  0
  -26.3010  -29.6700   24.1239 H   0  0  0  0  0  0
  -27.4100  -29.7273   25.4741 H   0  0  0  0  0  0
  -27.8871  -30.4256   23.9460 H   0  0  0  0  0  0
  -27.2683  -33.3617   26.2046 H   0  0  0  0  0  0
  -28.3916  -32.6863   25.0345 H   0  0  0  0  0  0
  -28.0726  -31.8455   26.5438 H   0  0  0  0  0  0
  -28.2572  -38.0088   24.7510 H   0  0  0  0  0  0
  -28.1064  -36.2620   24.6279 H   0  0  0  0  0  0
  -27.2290  -37.1423   25.8870 H   0  0  0  0  0  0
  -20.9407  -29.8792   21.6878 H   0  0  0  0  0  0
  -26.0137  -38.2822   24.1414 H   0  0  0  0  0  0
  -27.9710  -20.1220   18.1364 H   0  0  0  0  0  0
  -28.8617  -15.9542   18.4630 H   0  0  0  0  0  0
  -29.9655  -18.6248   21.6833 H   0  0  0  0  0  0
  -30.4276  -23.6628   21.1205 H   0  0  0  0  0  0
  -29.2448  -23.5915   22.4277 H   0  0  0  0  0  0
  -28.9685  -22.3517   18.6774 H   0  0  0  0  0  0
  -27.3636  -21.9646   19.2764 H   0  0  0  0  0  0
  -27.4233  -23.5861   20.9838 H   0  0  0  0  0  0
  -23.9777  -19.2814   17.1402 H   0  0  0  0  0  0
  -23.4703  -17.5922   17.0005 H   0  0  0  0  0  0
  -23.3540  -18.6689   15.6093 H   0  0  0  0  0  0
  -27.7535  -24.9252   18.7707 H   0  0  0  0  0  0
  -29.4049  -25.0038   19.1349 H   0  0  0  0  0  0
  -29.1227  -15.5688   21.5264 H   0  0  0  0  0  0
  -26.0339  -18.5252   17.8686 H   0  0  0  0  0  0
  1 25  1  0  0  0
  1 30  2  0  0  0
  1 86  1  0  0  0
  2  3  1  0  0  0
  2 25  1  0  0  0
  2 91  1  0  0  0
  2 92  1  0  0  0
  3  4  1  0  0  0
  3 93  1  0  0  0
  3 94  1  0  0  0
  4  5  1  0  0  0
  4 95  1  0  0  0
  4 96  1  0  0  0
  5  6  1  0  0  0
  5 26  1  0  0  0
  5 97  1  0  0  0
  6 25  1  0  0  0
  6 98  1  0  0  0
  6 99  1  0  0  0
  7  8  2  0  0  0
  7 26  1  0  0  0
  7 29  1  0  0  0
  8  9  1  0  0  0
  8 22  1  0  0  0
  9 10  1  0  0  0
  9 27  2  0  0  0
 10 11  2  0  0  0
 10 15  1  0  0  0
 11 12  1  0  0  0
 11100  1  0  0  0
 12 13  2  0  0  0
 12101  1  0  0  0
 13 14  1  0  0  0
 13 31  1  0  0  0
 14 15  2  0  0  0
 14102  1  0  0  0
 15103  1  0  0  0
 16 17  2  0  0  0
 16 21  1  0  0  0
 16 31  1  0  0  0
 17 18  1  0  0  0
 17104  1  0  0  0
 18 19  2  0  0  0
 18105  1  0  0  0
 19 20  1  0  0  0
 19 24  1  0  0  0
 20 21  2  0  0  0
 20106  1  0  0  0
 21 23  1  0  0  0
 22 28  1  0  0  0
 22 32  2  0  0  0
 26 27  1  0  0  0
 28107  1  0  0  0
 28108  1  0  0  0
 29109  1  0  0  0
 29110  1  0  0  0
 33 34  1  0  0  0
 33 66  1  0  0  0
 33 70  2  0  0  0
 34 36  1  0  0  0
 34 59  1  0  0  0
 34111  1  0  0  0
 35 44  2  0  0  0
 35 45  1  0  0  0
 35 68  1  0  0  0
 36 56  1  0  0  0
 36112  1  0  0  0
 37 39  1  0  0  0
 37 47  1  0  0  0
 37 66  1  0  0  0
 37113  1  0  0  0
 38 43  2  0  0  0
 38 46  1  0  0  0
 38 47  1  0  0  0
 39 64  1  0  0  0
 39 67  2  0  0  0
 40 52  1  0  0  0
 40 53  2  0  0  0
 40 58  1  0  0  0
 41114  1  0  0  0
 41115  1  0  0  0
 41116  1  0  0  0
 41 48  1  0  0  0
 42 43  1  0  0  0
 42 66  1  0  0  0
 42117  1  0  0  0
 42118  1  0  0  0
 43 44  1  0  0  0
 44119  1  0  0  0
 45 46  2  0  0  0
 45120  1  0  0  0
 46121  1  0  0  0
 47122  1  0  0  0
 47123  1  0  0  0
 48 56  1  0  0  0
 48 65  1  0  0  0
 48124  1  0  0  0
 49 50  1  0  0  0
 49 53  1  0  0  0
 49 64  1  0  0  0
 49125  1  0  0  0
 50 51  1  0  0  0
 50126  1  0  0  0
 50127  1  0  0  0
 51 52  1  0  0  0
 51128  1  0  0  0
 51129  1  0  0  0
 52130  1  0  0  0
 52131  1  0  0  0
 53 54  1  0  0  0
 54 55  2  0  0  0
 54132  1  0  0  0
 55 57  1  0  0  0
 55133  1  0  0  0
 56 69  2  0  0  0
 57 58  2  0  0  0
 57134  1  0  0  0
 58135  1  0  0  0
 59 60  1  0  0  0
 59 61  1  0  0  0
 59 62  1  0  0  0
 60136  1  0  0  0
 60137  1  0  0  0
 60138  1  0  0  0
 61139  1  0  0  0
 61140  1  0  0  0
 61141  1  0  0  0
 62142  1  0  0  0
 62143  1  0  0  0
 62144  1  0  0  0
 63 65  1  0  0  0
 63145  1  0  0  0
 63146  1  0  0  0
 63147  1  0  0  0
 64148  1  0  0  0
 65149  1  0  0  0
 68 84  1  0  0  0
 71 74  2  0  0  0
 71 75  1  0  0  0
 71150  1  0  0  0
 72 74  1  0  0  0
 72 76  2  0  0  0
 72151  1  0  0  0
 73 75  2  0  0  0
 73 76  1  0  0  0
 73152  1  0  0  0
 74 78  1  0  0  0
 75 85  1  0  0  0
 76 86  1  0  0  0
 77 80  1  0  0  0
 77 85  1  0  0  0
 77 88  2  0  0  0
 78 87  1  0  0  0
 78 89  2  0  0  0
 79 83  1  0  0  0
 79 87  1  0  0  0
 79 90  2  0  0  0
 80 82  1  0  0  0
 80153  1  0  0  0
 80154  1  0  0  0
 81 82  1  0  0  0
 81 85  1  0  0  0
 81155  1  0  0  0
 81156  1  0  0  0
 82 84  1  0  0  0
 82157  1  0  0  0
 83158  1  0  0  0
 83159  1  0  0  0
 83160  1  0  0  0
 84161  1  0  0  0
 84162  1  0  0  0
 86163  1  0  0  0
 87164  1  0  0  0
M  ISO  4   1 100  68 101  84 101  86 100
M  END
> <chiral flag>
0

> <version>
0

> <s_m_source_file>
/data/baiqing/PycharmProjects/Reinvent-master-3.2/result/LINK_invent/BTK/process_docking_weight1_custom_product_contain_oxygen_bond_distance_aromatic_linkinvent_7_9_3/rearranged_h_0066.sdf

> <i_m_source_file_index>
2

> <r_mmod_Potential_Energy-OPLS-2005>
105.702217102051

> <r_mmod_Stretch_Energy-OPLS-2005>
134.744323730469

> <r_mmod_Bend_Energy-OPLS-2005>
228.122543334961

> <r_mmod_Torsional_Energy-OPLS-2005>
314.052307128906

> <r_mmod_Improper_Torsional_Energy-OPLS-2005>
6.42359924316406

> <r_mmod_Van_der_Waal_Energy-OPLS-2005>
130.802368164062

> <r_mmod_Electrostatic_Energy-OPLS-2005>
-492.90283203125

> <r_mmod_Solvation_Energy-OPLS-2005>
-303.854278564453

> <b_mmod_Minimization_Converged-OPLS-2005>
0

> <r_mmod_RMS_Derivative-OPLS-2005>
2.01028108596802

$$$$
2
                    3D
 Structure written by MMmdl.
161170  0  0  1  0            999 V2000
  -30.5699  -14.7877   20.4528 C   0  0  0  0  0  0
  -30.4384  -12.4893   19.4520 C   0  0  0  0  0  0
  -29.5066  -12.5142   18.2190 C   0  0  0  0  0  0
  -28.0346  -12.3254   18.6445 C   0  0  0  0  0  0
  -27.6368  -13.2285   19.8433 C   0  0  2  0  0  0
  -28.6886  -13.1713   20.9705 C   0  0  0  0  0  0
  -25.2504  -13.8185   20.5703 C   0  0  0  0  0  0
  -24.1806  -13.0435   20.9252 C   0  0  0  0  0  0
  -24.6401  -11.6913   20.8800 C   0  0  0  0  0  0
  -23.9085  -10.4294   21.0462 C   0  0  0  0  0  0
  -24.3635   -9.4198   21.9221 C   0  0  0  0  0  0
  -23.6303   -8.2241   22.0768 C   0  0  0  0  0  0
  -22.4284   -8.0301   21.3560 C   0  0  0  0  0  0
  -21.9933   -9.0278   20.4662 C   0  0  0  0  0  0
  -22.7273  -10.2148   20.3087 C   0  0  0  0  0  0
  -21.6848   -6.0756   22.5286 C   0  0  0  0  0  0
  -21.4003   -6.5646   23.8222 C   0  0  0  0  0  0
  -21.3659   -5.6795   24.9180 C   0  0  0  0  0  0
  -21.6046   -4.3059   24.7226 C   0  0  0  0  0  0
  -21.8814   -3.8155   23.4341 C   0  0  0  0  0  0
  -21.9188   -4.6984   22.3400 C   0  0  0  0  0  0
  -22.7823  -13.5235   21.1899 C   0  0  0  0  0  0
  -22.1663   -4.2165   21.0984 F   0  0  0  0  0  0
  -21.5635   -3.4540   25.7734 F   0  0  0  0  0  0
  -29.9719  -13.5489   20.3701 N   0  0  0  0  0  0
  -26.2926  -12.9378   20.3274 N   0  0  0  0  0  0
  -25.9329  -11.6531   20.5773 N   0  0  0  0  0  0
  -22.0460  -12.8234   22.0442 N   0  0  0  0  0  0
  -25.4124  -15.1925   20.4072 N   0  0  0  0  0  0
  -31.7827  -14.8948   20.2457 O   0  0  0  0  0  0
  -21.6635   -6.8906   21.4250 O   0  0  0  0  0  0
  -22.3516  -14.5544   20.6741 O   0  0  0  0  0  0
  -24.6324  -31.8505   23.1931 C   0  0  0  0  0  0
  -25.9142  -32.4716   23.8266 C   0  0  1  0  0  0
  -27.2201  -27.2432   20.1236 C   0  0  0  0  0  0
  -25.5938  -33.8517   24.2196 N   0  0  0  0  0  0
  -23.4309  -30.4712   21.5360 C   0  0  2  0  0  0
  -24.8805  -28.9148   20.1097 C   0  0  0  0  0  0
  -22.7535  -29.4531   22.4856 C   0  0  0  0  0  0
  -18.0273  -28.1419   22.8466 C   0  0  0  0  0  0
  -24.1487  -36.7272   23.2644 C   0  0  0  0  0  0
  -25.9765  -30.7617   21.3695 C   0  0  0  0  0  0
  -26.0540  -29.3787   20.7198 C   0  0  0  0  0  0
  -27.2292  -28.5554   20.7159 C   0  0  0  0  0  0
  -26.0262  -26.8535   19.4877 C   0  0  0  0  0  0
  -24.8731  -27.6606   19.4831 C   0  0  0  0  0  0
  -23.6538  -29.8037   20.1528 C   0  0  0  0  0  0
  -25.4108  -36.3038   24.0324 C   0  0  1  0  0  0
  -20.5890  -28.3704   23.1278 C   0  0  2  0  0  0
  -20.6775  -26.9415   22.5411 C   0  0  0  0  0  0
  -19.5769  -26.6398   21.5229 C   0  0  0  0  0  0
  -18.1929  -26.7967   22.1612 C   0  0  0  0  0  0
  -19.1540  -28.8876   23.2866 C   0  0  0  0  0  0
  -18.9479  -30.1483   23.8867 C   0  0  0  0  0  0
  -17.6494  -30.6604   24.0591 C   0  0  0  0  0  0
  -25.9048  -34.9419   23.5047 C   0  0  0  0  0  0
  -16.5375  -29.9113   23.6364 C   0  0  0  0  0  0
  -16.7279  -28.6566   23.0308 C   0  0  0  0  0  0
  -26.4508  -31.6540   25.0653 C   0  0  0  0  0  0
  -25.3742  -31.3735   26.1388 C   0  0  0  0  0  0
  -27.0349  -30.2966   24.6105 C   0  0  0  0  0  0
  -27.6044  -32.4272   25.7470 C   0  0  0  0  0  0
  -27.5553  -37.1772   24.8465 C   0  0  0  0  0  0
  -21.4220  -29.3041   22.3668 N   0  0  0  0  0  0
  -26.4260  -37.3754   23.9419 N   0  0  0  0  0  0
  -24.7001  -31.0443   22.0904 N   0  0  0  0  0  0
  -23.4242  -28.8027   23.2907 O   0  0  0  0  0  0
  -28.3058  -26.3344   20.1152 O   0  0  0  0  0  0
  -26.5610  -34.8943   22.4613 O   0  0  0  0  0  0
  -23.5460  -32.1319   23.7196 O   0  0  0  0  0  0
  -30.1795  -18.7293   22.8805 C   0  0  0  0  0  0
  -30.2205  -17.4648   22.2614 C   0  0  0  0  0  0
  -29.4870  -18.5302   20.2014 C   0  0  0  0  0  0
  -29.8251  -19.9103   22.1878 C   0  0  0  0  0  0
  -29.5055  -19.8699   20.7995 C   0  0  0  0  0  0
  -29.8612  -17.3005   20.9088 C   0  0  0  0  0  0
  -30.4036  -22.0079   19.8880 C   0  0  0  0  0  0
  -30.1059  -23.3125   19.7046 C   0  0  0  0  0  0
  -32.0769  -24.5806   20.4133 C   0  0  0  0  0  0
  -31.1028  -24.3455   19.5188 C   0  0  0  0  0  0
  -28.1796  -22.0893   20.2046 C   0  0  0  0  0  0
  -28.6168  -23.5679   19.7267 C   0  0  1  0  0  0
  -29.8301  -21.2107   22.9887 C   0  0  0  0  0  0
  -28.0809  -24.8911   20.5242 C   0  0  0  0  0  0
  -29.3403  -21.1313   20.0760 N   0  0  0  0  0  0
  -29.7335  -15.9026   20.4060 N   0  0  0  0  0  0
  -31.4751  -12.6445   19.1496 H   0  0  0  0  0  0
  -30.4035  -11.5167   19.9439 H   0  0  0  0  0  0
  -29.7961  -11.7381   17.5088 H   0  0  0  0  0  0
  -29.6143  -13.4630   17.6898 H   0  0  0  0  0  0
  -27.9116  -11.2767   18.9171 H   0  0  0  0  0  0
  -27.3660  -12.5014   17.8001 H   0  0  0  0  0  0
  -27.6218  -14.2473   19.4569 H   0  0  0  0  0  0
  -28.7485  -12.1702   21.4015 H   0  0  0  0  0  0
  -28.4269  -13.8509   21.7845 H   0  0  0  0  0  0
  -25.2797   -9.5662   22.4788 H   0  0  0  0  0  0
  -24.0012   -7.4620   22.7483 H   0  0  0  0  0  0
  -21.0866   -8.8820   19.8959 H   0  0  0  0  0  0
  -22.3773  -10.9695   19.6183 H   0  0  0  0  0  0
  -21.1983   -7.6150   23.9735 H   0  0  0  0  0  0
  -21.1492   -6.0523   25.9088 H   0  0  0  0  0  0
  -22.0590   -2.7616   23.2836 H   0  0  0  0  0  0
  -22.4045  -11.9847   22.4776 H   0  0  0  0  0  0
  -21.1088  -13.1257   22.2669 H   0  0  0  0  0  0
  -24.6289  -15.8311   20.5000 H   0  0  0  0  0  0
  -26.2419  -15.6392   20.0379 H   0  0  0  0  0  0
  -26.7192  -32.5376   23.0978 H   0  0  0  0  0  0
  -25.0163  -33.9631   25.0384 H   0  0  0  0  0  0
  -22.7275  -31.2918   21.3817 H   0  0  0  0  0  0
  -23.3747  -35.9604   23.3302 H   0  0  0  0  0  0
  -24.3590  -36.8891   22.2059 H   0  0  0  0  0  0
  -23.7259  -37.6486   23.6669 H   0  0  0  0  0  0
  -26.0907  -31.5150   20.5907 H   0  0  0  0  0  0
  -26.8632  -30.8250   21.9881 H   0  0  0  0  0  0
  -28.1299  -28.9012   21.2039 H   0  0  0  0  0  0
  -25.9784  -25.8928   18.9942 H   0  0  0  0  0  0
  -23.9779  -27.3035   18.9914 H   0  0  0  0  0  0
  -23.7883  -30.5797   19.3986 H   0  0  0  0  0  0
  -22.7741  -29.2413   19.8389 H   0  0  0  0  0  0
  -25.1273  -36.1863   25.0809 H   0  0  0  0  0  0
  -20.9938  -28.3269   24.1408 H   0  0  0  0  0  0
  -20.5718  -26.2286   23.3601 H   0  0  0  0  0  0
  -21.6637  -26.7455   22.1176 H   0  0  0  0  0  0
  -19.6962  -25.6322   21.1205 H   0  0  0  0  0  0
  -19.6731  -27.3243   20.6802 H   0  0  0  0  0  0
  -17.4202  -26.6694   21.4024 H   0  0  0  0  0  0
  -18.0329  -26.0131   22.9029 H   0  0  0  0  0  0
  -19.7973  -30.7294   24.2198 H   0  0  0  0  0  0
  -17.5077  -31.6286   24.5190 H   0  0  0  0  0  0
  -15.5394  -30.3012   23.7757 H   0  0  0  0  0  0
  -15.8674  -28.0942   22.6949 H   0  0  0  0  0  0
  -24.5957  -30.7003   25.7781 H   0  0  0  0  0  0
  -24.8910  -32.2945   26.4696 H   0  0  0  0  0  0
  -25.8101  -30.9056   27.0240 H   0  0  0  0  0  0
  -26.2939  -29.6728   24.1109 H   0  0  0  0  0  0
  -27.4068  -29.7175   25.4587 H   0  0  0  0  0  0
  -27.8783  -30.4237   23.9303 H   0  0  0  0  0  0
  -27.2610  -33.3583   26.1976 H   0  0  0  0  0  0
  -28.3933  -32.6781   25.0361 H   0  0  0  0  0  0
  -28.0614  -31.8425   26.5463 H   0  0  0  0  0  0
  -28.2505  -38.0120   24.7494 H   0  0  0  0  0  0
  -28.1077  -36.2635   24.6256 H   0  0  0  0  0  0
  -27.2271  -37.1370   25.8867 H   0  0  0  0  0  0
  -20.9402  -29.8849   21.6935 H   0  0  0  0  0  0
  -26.0128  -38.2790   24.1531 H   0  0  0  0  0  0
  -30.4300  -18.7845   23.9307 H   0  0  0  0  0  0
  -30.4809  -16.6046   22.8635 H   0  0  0  0  0  0
  -29.2032  -18.4456   19.1619 H   0  0  0  0  0  0
  -31.3982  -21.5816   19.9175 H   0  0  0  0  0  0
  -32.8156  -25.3495   20.2419 H   0  0  0  0  0  0
  -32.1453  -24.0121   21.3296 H   0  0  0  0  0  0
  -31.0666  -24.9407   18.6156 H   0  0  0  0  0  0
  -27.3427  -21.7417   19.5961 H   0  0  0  0  0  0
  -27.8190  -22.1330   21.2293 H   0  0  0  0  0  0
  -28.3215  -23.6780   18.6816 H   0  0  0  0  0  0
  -30.0663  -21.0295   24.0386 H   0  0  0  0  0  0
  -28.8521  -21.6867   22.9783 H   0  0  0  0  0  0
  -30.5696  -21.9155   22.6093 H   0  0  0  0  0  0
  -27.0113  -24.7356   20.6693 H   0  0  0  0  0  0
  -28.4777  -24.8199   21.5351 H   0  0  0  0  0  0
  -28.7909  -15.6556   20.1450 H   0  0  0  0  0  0
  1 25  1  0  0  0
  1 30  2  0  0  0
  1 86  1  0  0  0
  2  3  1  0  0  0
  2 25  1  0  0  0
  2 87  1  0  0  0
  2 88  1  0  0  0
  3  4  1  0  0  0
  3 89  1  0  0  0
  3 90  1  0  0  0
  4  5  1  0  0  0
  4 91  1  0  0  0
  4 92  1  0  0  0
  5  6  1  0  0  0
  5 26  1  0  0  0
  5 93  1  0  0  0
  6 25  1  0  0  0
  6 94  1  0  0  0
  6 95  1  0  0  0
  7  8  2  0  0  0
  7 26  1  0  0  0
  7 29  1  0  0  0
  8  9  1  0  0  0
  8 22  1  0  0  0
  9 10  1  0  0  0
  9 27  2  0  0  0
 10 11  2  0  0  0
 10 15  1  0  0  0
 11 12  1  0  0  0
 11 96  1  0  0  0
 12 13  2  0  0  0
 12 97  1  0  0  0
 13 14  1  0  0  0
 13 31  1  0  0  0
 14 15  2  0  0  0
 14 98  1  0  0  0
 15 99  1  0  0  0
 16 17  2  0  0  0
 16 21  1  0  0  0
 16 31  1  0  0  0
 17 18  1  0  0  0
 17100  1  0  0  0
 18 19  2  0  0  0
 18101  1  0  0  0
 19 20  1  0  0  0
 19 24  1  0  0  0
 20 21  2  0  0  0
 20102  1  0  0  0
 21 23  1  0  0  0
 22 28  1  0  0  0
 22 32  2  0  0  0
 26 27  1  0  0  0
 28103  1  0  0  0
 28104  1  0  0  0
 29105  1  0  0  0
 29106  1  0  0  0
 33 34  1  0  0  0
 33 66  1  0  0  0
 33 70  2  0  0  0
 34 36  1  0  0  0
 34 59  1  0  0  0
 34107  1  0  0  0
 35 44  2  0  0  0
 35 45  1  0  0  0
 35 68  1  0  0  0
 36 56  1  0  0  0
 36108  1  0  0  0
 37 39  1  0  0  0
 37 47  1  0  0  0
 37 66  1  0  0  0
 37109  1  0  0  0
 38 43  2  0  0  0
 38 46  1  0  0  0
 38 47  1  0  0  0
 39 64  1  0  0  0
 39 67  2  0  0  0
 40 52  1  0  0  0
 40 53  2  0  0  0
 40 58  1  0  0  0
 41110  1  0  0  0
 41111  1  0  0  0
 41112  1  0  0  0
 41 48  1  0  0  0
 42 43  1  0  0  0
 42 66  1  0  0  0
 42113  1  0  0  0
 42114  1  0  0  0
 43 44  1  0  0  0
 44115  1  0  0  0
 45 46  2  0  0  0
 45116  1  0  0  0
 46117  1  0  0  0
 47118  1  0  0  0
 47119  1  0  0  0
 48 56  1  0  0  0
 48 65  1  0  0  0
 48120  1  0  0  0
 49 50  1  0  0  0
 49 53  1  0  0  0
 49 64  1  0  0  0
 49121  1  0  0  0
 50 51  1  0  0  0
 50122  1  0  0  0
 50123  1  0  0  0
 51 52  1  0  0  0
 51124  1  0  0  0
 51125  1  0  0  0
 52126  1  0  0  0
 52127  1  0  0  0
 53 54  1  0  0  0
 54 55  2  0  0  0
 54128  1  0  0  0
 55 57  1  0  0  0
 55129  1  0  0  0
 56 69  2  0  0  0
 57 58  2  0  0  0
 57130  1  0  0  0
 58131  1  0  0  0
 59 60  1  0  0  0
 59 61  1  0  0  0
 59 62  1  0  0  0
 60132  1  0  0  0
 60133  1  0  0  0
 60134  1  0  0  0
 61135  1  0  0  0
 61136  1  0  0  0
 61137  1  0  0  0
 62138  1  0  0  0
 62139  1  0  0  0
 62140  1  0  0  0
 63 65  1  0  0  0
 63141  1  0  0  0
 63142  1  0  0  0
 63143  1  0  0  0
 64144  1  0  0  0
 65145  1  0  0  0
 68 84  1  0  0  0
 71 72  2  0  0  0
 71 74  1  0  0  0
 71146  1  0  0  0
 72 76  1  0  0  0
 72147  1  0  0  0
 73 75  1  0  0  0
 73 76  2  0  0  0
 73148  1  0  0  0
 74 75  2  0  0  0
 74 83  1  0  0  0
 75 85  1  0  0  0
 76 86  1  0  0  0
 77 78  2  0  0  0
 77 85  1  0  0  0
 77149  1  0  0  0
 78 80  1  0  0  0
 78 82  1  0  0  0
 79 80  2  0  0  0
 79150  1  0  0  0
 79151  1  0  0  0
 80152  1  0  0  0
 81 82  1  0  0  0
 81 85  1  0  0  0
 81153  1  0  0  0
 81154  1  0  0  0
 82 84  1  0  0  0
 82155  1  0  0  0
 83156  1  0  0  0
 83157  1  0  0  0
 83158  1  0  0  0
 84159  1  0  0  0
 84160  1  0  0  0
 86161  1  0  0  0
M  ISO  4   1 100  68 101  84 101  86 100
M  END
> <chiral flag>
0

> <version>
0

> <s_m_source_file>
/data/baiqing/PycharmProjects/Reinvent-master-3.2/result/LINK_invent/BTK/process_docking_weight1_custom_product_contain_oxygen_bond_distance_aromatic_linkinvent_7_9_3/rearranged_h_0066.sdf

> <i_m_source_file_index>
3

> <r_mmod_Potential_Energy-OPLS-2005>
378.1337890625

> <r_mmod_Stretch_Energy-OPLS-2005>
135.438262939453

> <r_mmod_Bend_Energy-OPLS-2005>
239.572677612305

> <r_mmod_Torsional_Energy-OPLS-2005>
322.97998046875

> <r_mmod_Improper_Torsional_Energy-OPLS-2005>
13.7726726531982

> <r_mmod_Van_der_Waal_Energy-OPLS-2005>
128.754180908203

> <r_mmod_Electrostatic_Energy-OPLS-2005>
-354.754455566406

> <r_mmod_Solvation_Energy-OPLS-2005>
-211.157623291016

> <b_mmod_Minimization_Converged-OPLS-2005>
0

> <r_mmod_RMS_Derivative-OPLS-2005>
4.39265918731689

$$$$
3
                    3D
 Structure written by MMmdl.
167176  0  0  1  0            999 V2000
  -30.6098  -14.7523   20.4569 C   0  0  0  0  0  0
  -30.4327  -12.4604   19.4570 C   0  0  0  0  0  0
  -29.5043  -12.4978   18.2235 C   0  0  0  0  0  0
  -28.0309  -12.3260   18.6441 C   0  0  0  0  0  0
  -27.6383  -13.2290   19.8443 C   0  0  2  0  0  0
  -28.6884  -13.1722   20.9749 C   0  0  0  0  0  0
  -25.2510  -13.8196   20.5700 C   0  0  0  0  0  0
  -24.1801  -13.0443   20.9242 C   0  0  0  0  0  0
  -24.6384  -11.6920   20.8761 C   0  0  0  0  0  0
  -23.9064  -10.4299   21.0427 C   0  0  0  0  0  0
  -24.3616   -9.4218   21.9204 C   0  0  0  0  0  0
  -23.6303   -8.2247   22.0764 C   0  0  0  0  0  0
  -22.4282   -8.0283   21.3555 C   0  0  0  0  0  0
  -21.9922   -9.0255   20.4651 C   0  0  0  0  0  0
  -22.7241  -10.2139   20.3070 C   0  0  0  0  0  0
  -21.6849   -6.0733   22.5289 C   0  0  0  0  0  0
  -21.4001   -6.5641   23.8223 C   0  0  0  0  0  0
  -21.3658   -5.6796   24.9187 C   0  0  0  0  0  0
  -21.6047   -4.3063   24.7238 C   0  0  0  0  0  0
  -21.8817   -3.8154   23.4357 C   0  0  0  0  0  0
  -21.9190   -4.6966   22.3412 C   0  0  0  0  0  0
  -22.7823  -13.5239   21.1887 C   0  0  0  0  0  0
  -22.1667   -4.2149   21.0990 F   0  0  0  0  0  0
  -21.5626   -3.4552   25.7753 F   0  0  0  0  0  0
  -29.9815  -13.5290   20.3786 N   0  0  0  0  0  0
  -26.2924  -12.9388   20.3278 N   0  0  0  0  0  0
  -25.9319  -11.6533   20.5765 N   0  0  0  0  0  0
  -22.0451  -12.8223   22.0413 N   0  0  0  0  0  0
  -25.4202  -15.1916   20.4097 N   0  0  0  0  0  0
  -31.8140  -14.8320   20.1945 O   0  0  0  0  0  0
  -21.6647   -6.8881   21.4251 O   0  0  0  0  0  0
  -22.3514  -14.5547   20.6733 O   0  0  0  0  0  0
  -24.6304  -31.8531   23.1973 C   0  0  0  0  0  0
  -25.9124  -32.4732   23.8338 C   0  0  1  0  0  0
  -27.2269  -27.2704   20.1396 C   0  0  0  0  0  0
  -25.5908  -33.8537   24.2257 N   0  0  0  0  0  0
  -23.4281  -30.4725   21.5395 C   0  0  2  0  0  0
  -24.8798  -28.9188   20.1133 C   0  0  0  0  0  0
  -22.7488  -29.4589   22.4917 C   0  0  0  0  0  0
  -18.0277  -28.1407   22.8456 C   0  0  0  0  0  0
  -24.1481  -36.7288   23.2645 C   0  0  0  0  0  0
  -25.9724  -30.7718   21.3732 C   0  0  0  0  0  0
  -26.0493  -29.3916   20.7226 C   0  0  0  0  0  0
  -27.2289  -28.5811   20.7225 C   0  0  0  0  0  0
  -26.0416  -26.8655   19.4921 C   0  0  0  0  0  0
  -24.8805  -27.6625   19.4868 C   0  0  0  0  0  0
  -23.6462  -29.7990   20.1592 C   0  0  0  0  0  0
  -25.4095  -36.3041   24.0330 C   0  0  1  0  0  0
  -20.5873  -28.3702   23.1276 C   0  0  2  0  0  0
  -20.6746  -26.9409   22.5419 C   0  0  0  0  0  0
  -19.5728  -26.6387   21.5214 C   0  0  0  0  0  0
  -18.1913  -26.7943   22.1611 C   0  0  0  0  0  0
  -19.1527  -28.8871   23.2863 C   0  0  0  0  0  0
  -18.9446  -30.1470   23.8886 C   0  0  0  0  0  0
  -17.6447  -30.6594   24.0577 C   0  0  0  0  0  0
  -25.9028  -34.9421   23.5093 C   0  0  0  0  0  0
  -16.5335  -29.9094   23.6360 C   0  0  0  0  0  0
  -16.7267  -28.6525   23.0350 C   0  0  0  0  0  0
  -26.4499  -31.6561   25.0729 C   0  0  0  0  0  0
  -25.3729  -31.3719   26.1457 C   0  0  0  0  0  0
  -27.0383  -30.2979   24.6237 C   0  0  0  0  0  0
  -27.6056  -32.4310   25.7510 C   0  0  0  0  0  0
  -27.5560  -37.1782   24.8459 C   0  0  0  0  0  0
  -21.4190  -29.3064   22.3676 N   0  0  0  0  0  0
  -26.4273  -37.3730   23.9405 N   0  0  0  0  0  0
  -24.6962  -31.0505   22.0935 N   0  0  0  0  0  0
  -23.4183  -28.8116   23.3016 O   0  0  0  0  0  0
  -28.3194  -26.3779   20.1659 O   0  0  0  0  0  0
  -26.5619  -34.8906   22.4677 O   0  0  0  0  0  0
  -23.5455  -32.1359   23.7248 O   0  0  0  0  0  0
  -30.9276  -20.0050   21.5443 C   0  0  0  0  0  0
  -31.3201  -17.5819   21.6004 C   0  0  0  0  0  0
  -31.6819  -18.8926   21.9706 C   0  0  0  0  0  0
  -29.7931  -19.8662   20.7168 C   0  0  0  0  0  0
  -30.1847  -17.3199   20.8024 C   0  0  0  0  0  0
  -29.4225  -18.4920   20.3668 C   0  0  0  0  0  0
  -28.9734  -21.5354   18.9995 C   0  0  0  0  0  0
  -28.9427  -22.3806   21.1227 C   0  0  0  0  0  0
  -28.6219  -23.0540   18.8548 C   0  0  1  0  0  0
  -28.9622  -23.6905   20.2209 C   0  0  1  0  0  0
  -32.9136  -19.1075   22.8281 C   0  0  0  0  0  0
  -30.7733  -23.5500   17.4480 C   0  0  0  0  0  0
  -28.4982  -23.6679   16.3462 C   0  0  0  0  0  0
  -28.0859  -24.9830   20.6731 C   0  0  0  0  0  0
  -29.2721  -23.8295   17.6643 C   0  0  0  0  0  0
  -29.1502  -21.1450   20.2816 N   0  0  0  0  0  0
  -29.8232  -15.8961   20.5539 N   0  0  0  0  0  0
  -29.0666  -20.7902   18.0194 O   0  0  0  0  0  0
  -28.3098  -18.2827   19.6221 F   0  0  0  0  0  0
  -31.4702  -12.5944   19.1468 H   0  0  0  0  0  0
  -30.3880  -11.4850   19.9458 H   0  0  0  0  0  0
  -29.7830  -11.7170   17.5140 H   0  0  0  0  0  0
  -29.6261  -13.4451   17.6956 H   0  0  0  0  0  0
  -27.8869  -11.2779   18.9095 H   0  0  0  0  0  0
  -27.3701  -12.5159   17.7969 H   0  0  0  0  0  0
  -27.6272  -14.2473   19.4567 H   0  0  0  0  0  0
  -28.7318  -12.1767   21.4195 H   0  0  0  0  0  0
  -28.4290  -13.8599   21.7812 H   0  0  0  0  0  0
  -25.2753   -9.5696   22.4792 H   0  0  0  0  0  0
  -24.0016   -7.4631   22.7477 H   0  0  0  0  0  0
  -21.0858   -8.8760   19.8951 H   0  0  0  0  0  0
  -22.3698  -10.9677   19.6179 H   0  0  0  0  0  0
  -21.1985   -7.6151   23.9720 H   0  0  0  0  0  0
  -21.1478   -6.0536   25.9088 H   0  0  0  0  0  0
  -22.0591   -2.7621   23.2867 H   0  0  0  0  0  0
  -22.4060  -11.9881   22.4803 H   0  0  0  0  0  0
  -21.1057  -13.1237   22.2587 H   0  0  0  0  0  0
  -24.6506  -15.8427   20.5170 H   0  0  0  0  0  0
  -26.2564  -15.6317   20.0479 H   0  0  0  0  0  0
  -26.7194  -32.5374   23.1094 H   0  0  0  0  0  0
  -25.0024  -33.9688   25.0381 H   0  0  0  0  0  0
  -22.7242  -31.2931   21.3874 H   0  0  0  0  0  0
  -23.3722  -35.9640   23.3281 H   0  0  0  0  0  0
  -24.3577  -36.8937   22.2064 H   0  0  0  0  0  0
  -23.7280  -37.6499   23.6694 H   0  0  0  0  0  0
  -26.1002  -31.5279   20.5962 H   0  0  0  0  0  0
  -26.8539  -30.8291   21.9999 H   0  0  0  0  0  0
  -28.1270  -28.9382   21.2073 H   0  0  0  0  0  0
  -26.0036  -25.9063   18.9976 H   0  0  0  0  0  0
  -23.9862  -27.2946   19.0041 H   0  0  0  0  0  0
  -23.7584  -30.5681   19.3952 H   0  0  0  0  0  0
  -22.7678  -29.2183   19.8646 H   0  0  0  0  0  0
  -25.1270  -36.1876   25.0818 H   0  0  0  0  0  0
  -20.9950  -28.3255   24.1406 H   0  0  0  0  0  0
  -20.5631  -26.2284   23.3617 H   0  0  0  0  0  0
  -21.6609  -26.7426   22.1210 H   0  0  0  0  0  0
  -19.6889  -25.6305   21.1240 H   0  0  0  0  0  0
  -19.6685  -27.3178   20.6732 H   0  0  0  0  0  0
  -17.4170  -26.6682   21.4028 H   0  0  0  0  0  0
  -18.0331  -26.0125   22.9038 H   0  0  0  0  0  0
  -19.7917  -30.7308   24.2223 H   0  0  0  0  0  0
  -17.4997  -31.6278   24.5165 H   0  0  0  0  0  0
  -15.5331  -30.2989   23.7723 H   0  0  0  0  0  0
  -15.8654  -28.0868   22.7065 H   0  0  0  0  0  0
  -24.5909  -30.7053   25.7788 H   0  0  0  0  0  0
  -24.8933  -32.2901   26.4854 H   0  0  0  0  0  0
  -25.8054  -30.8920   27.0247 H   0  0  0  0  0  0
  -26.2999  -29.6689   24.1249 H   0  0  0  0  0  0
  -27.4049  -29.7259   25.4772 H   0  0  0  0  0  0
  -27.8858  -30.4247   23.9507 H   0  0  0  0  0  0
  -27.2657  -33.3621   26.2059 H   0  0  0  0  0  0
  -28.3888  -32.6843   25.0352 H   0  0  0  0  0  0
  -28.0707  -31.8456   26.5457 H   0  0  0  0  0  0
  -28.2541  -38.0096   24.7474 H   0  0  0  0  0  0
  -28.1079  -36.2627   24.6288 H   0  0  0  0  0  0
  -27.2289  -37.1427   25.8862 H   0  0  0  0  0  0
  -20.9369  -29.8809   21.6900 H   0  0  0  0  0  0
  -26.0139  -38.2795   24.1403 H   0  0  0  0  0  0
  -31.2598  -20.9910   21.8353 H   0  0  0  0  0  0
  -31.9238  -16.7606   21.9611 H   0  0  0  0  0  0
  -27.9683  -22.2897   21.6048 H   0  0  0  0  0  0
  -29.6714  -22.4686   21.9278 H   0  0  0  0  0  0
  -27.5395  -23.0958   18.7428 H   0  0  0  0  0  0
  -29.9992  -24.0228   20.1915 H   0  0  0  0  0  0
  -32.9393  -20.1127   23.2498 H   0  0  0  0  0  0
  -33.8146  -18.9665   22.2299 H   0  0  0  0  0  0
  -32.9358  -18.3959   23.6543 H   0  0  0  0  0  0
  -30.9525  -22.5290   17.1074 H   0  0  0  0  0  0
  -31.3536  -23.7027   18.3564 H   0  0  0  0  0  0
  -31.1898  -24.2157   16.6889 H   0  0  0  0  0  0
  -28.5057  -22.6357   15.9944 H   0  0  0  0  0  0
  -28.9368  -24.2887   15.5628 H   0  0  0  0  0  0
  -27.4577  -23.9805   16.4464 H   0  0  0  0  0  0
  -28.2393  -25.0840   21.7486 H   0  0  0  0  0  0
  -27.0337  -24.7115   20.5893 H   0  0  0  0  0  0
  -29.1990  -24.8902   17.9181 H   0  0  0  0  0  0
  -28.8326  -15.7242   20.4747 H   0  0  0  0  0  0
  1 25  1  0  0  0
  1 30  2  0  0  0
  1 87  1  0  0  0
  2  3  1  0  0  0
  2 25  1  0  0  0
  2 90  1  0  0  0
  2 91  1  0  0  0
  3  4  1  0  0  0
  3 92  1  0  0  0
  3 93  1  0  0  0
  4  5  1  0  0  0
  4 94  1  0  0  0
  4 95  1  0  0  0
  5  6  1  0  0  0
  5 26  1  0  0  0
  5 96  1  0  0  0
  6 25  1  0  0  0
  6 97  1  0  0  0
  6 98  1  0  0  0
  7  8  2  0  0  0
  7 26  1  0  0  0
  7 29  1  0  0  0
  8  9  1  0  0  0
  8 22  1  0  0  0
  9 10  1  0  0  0
  9 27  2  0  0  0
 10 11  2  0  0  0
 10 15  1  0  0  0
 11 12  1  0  0  0
 11 99  1  0  0  0
 12 13  2  0  0  0
 12100  1  0  0  0
 13 14  1  0  0  0
 13 31  1  0  0  0
 14 15  2  0  0  0
 14101  1  0  0  0
 15102  1  0  0  0
 16 17  2  0  0  0
 16 21  1  0  0  0
 16 31  1  0  0  0
 17 18  1  0  0  0
 17103  1  0  0  0
 18 19  2  0  0  0
 18104  1  0  0  0
 19 20  1  0  0  0
 19 24  1  0  0  0
 20 21  2  0  0  0
 20105  1  0  0  0
 21 23  1  0  0  0
 22 28  1  0  0  0
 22 32  2  0  0  0
 26 27  1  0  0  0
 28106  1  0  0  0
 28107  1  0  0  0
 29108  1  0  0  0
 29109  1  0  0  0
 33 34  1  0  0  0
 33 66  1  0  0  0
 33 70  2  0  0  0
 34 36  1  0  0  0
 34 59  1  0  0  0
 34110  1  0  0  0
 35 44  2  0  0  0
 35 45  1  0  0  0
 35 68  1  0  0  0
 36 56  1  0  0  0
 36111  1  0  0  0
 37 39  1  0  0  0
 37 47  1  0  0  0
 37 66  1  0  0  0
 37112  1  0  0  0
 38 43  2  0  0  0
 38 46  1  0  0  0
 38 47  1  0  0  0
 39 64  1  0  0  0
 39 67  2  0  0  0
 40 52  1  0  0  0
 40 53  2  0  0  0
 40 58  1  0  0  0
 41113  1  0  0  0
 41114  1  0  0  0
 41115  1  0  0  0
 41 48  1  0  0  0
 42 43  1  0  0  0
 42 66  1  0  0  0
 42116  1  0  0  0
 42117  1  0  0  0
 43 44  1  0  0  0
 44118  1  0  0  0
 45 46  2  0  0  0
 45119  1  0  0  0
 46120  1  0  0  0
 47121  1  0  0  0
 47122  1  0  0  0
 48 56  1  0  0  0
 48 65  1  0  0  0
 48123  1  0  0  0
 49 50  1  0  0  0
 49 53  1  0  0  0
 49 64  1  0  0  0
 49124  1  0  0  0
 50 51  1  0  0  0
 50125  1  0  0  0
 50126  1  0  0  0
 51 52  1  0  0  0
 51127  1  0  0  0
 51128  1  0  0  0
 52129  1  0  0  0
 52130  1  0  0  0
 53 54  1  0  0  0
 54 55  2  0  0  0
 54131  1  0  0  0
 55 57  1  0  0  0
 55132  1  0  0  0
 56 69  2  0  0  0
 57 58  2  0  0  0
 57133  1  0  0  0
 58134  1  0  0  0
 59 60  1  0  0  0
 59 61  1  0  0  0
 59 62  1  0  0  0
 60135  1  0  0  0
 60136  1  0  0  0
 60137  1  0  0  0
 61138  1  0  0  0
 61139  1  0  0  0
 61140  1  0  0  0
 62141  1  0  0  0
 62142  1  0  0  0
 62143  1  0  0  0
 63 65  1  0  0  0
 63144  1  0  0  0
 63145  1  0  0  0
 63146  1  0  0  0
 64147  1  0  0  0
 65148  1  0  0  0
 68 84  1  0  0  0
 71 73  2  0  0  0
 71 74  1  0  0  0
 71149  1  0  0  0
 72 73  1  0  0  0
 72 75  2  0  0  0
 72150  1  0  0  0
 73 81  1  0  0  0
 74 76  2  0  0  0
 74 86  1  0  0  0
 75 76  1  0  0  0
 75 87  1  0  0  0
 76 89  1  0  0  0
 77 86  1  0  0  0
 77 88  2  0  0  0
 77 79  1  0  0  0
 78 80  1  0  0  0
 78 86  1  0  0  0
 78151  1  0  0  0
 78152  1  0  0  0
 79 80  1  0  0  0
 79 85  1  0  0  0
 79153  1  0  0  0
 80 84  1  0  0  0
 80154  1  0  0  0
 81155  1  0  0  0
 81156  1  0  0  0
 81157  1  0  0  0
 82158  1  0  0  0
 82159  1  0  0  0
 82160  1  0  0  0
 82 85  1  0  0  0
 83 85  1  0  0  0
 83161  1  0  0  0
 83162  1  0  0  0
 83163  1  0  0  0
 84164  1  0  0  0
 84165  1  0  0  0
 85166  1  0  0  0
 87167  1  0  0  0
M  ISO  4   1 100  68 101  84 101  87 100
M  END
> <chiral flag>
0

> <version>
0

> <s_m_source_file>
/data/baiqing/PycharmProjects/Reinvent-master-3.2/result/LINK_invent/BTK/process_docking_weight1_custom_product_contain_oxygen_bond_distance_aromatic_linkinvent_7_9_3/rearranged_h_0066.sdf

> <i_m_source_file_index>
4

> <r_mmod_Potential_Energy-OPLS-2005>
273.503723144531

> <r_mmod_Stretch_Energy-OPLS-2005>
125.899642944336

> <r_mmod_Bend_Energy-OPLS-2005>
193.129959106445

> <r_mmod_Torsional_Energy-OPLS-2005>
301.192199707031

> <r_mmod_Improper_Torsional_Energy-OPLS-2005>
7.32235288619995

> <r_mmod_Van_der_Waal_Energy-OPLS-2005>
128.96842956543

> <r_mmod_Electrostatic_Energy-OPLS-2005>
-358.056396484375

> <r_mmod_Solvation_Energy-OPLS-2005>
-210.822372436523

> <b_mmod_Minimization_Converged-OPLS-2005>
0

> <r_mmod_RMS_Derivative-OPLS-2005>
3.04561376571655

$$$$
4
                    3D
 Structure written by MMmdl.
172181  0  0  1  0            999 V2000
  -30.6512  -14.5266   20.5657 C   0  0  0  0  0  0
  -30.4396  -12.3376   19.4270 C   0  0  0  0  0  0
  -29.5024  -12.5133   18.2115 C   0  0  0  0  0  0
  -28.0232  -12.3629   18.6224 C   0  0  0  0  0  0
  -27.6638  -13.2024   19.8769 C   0  0  2  0  0  0
  -28.7059  -12.9771   20.9964 C   0  0  0  0  0  0
  -25.2602  -13.8143   20.5668 C   0  0  0  0  0  0
  -24.1851  -13.0432   20.9182 C   0  0  0  0  0  0
  -24.6395  -11.6895   20.8737 C   0  0  0  0  0  0
  -23.9056  -10.4287   21.0408 C   0  0  0  0  0  0
  -24.3610   -9.4204   21.9185 C   0  0  0  0  0  0
  -23.6287   -8.2239   22.0755 C   0  0  0  0  0  0
  -22.4269   -8.0279   21.3546 C   0  0  0  0  0  0
  -21.9903   -9.0251   20.4648 C   0  0  0  0  0  0
  -22.7230  -10.2131   20.3056 C   0  0  0  0  0  0
  -21.6849   -6.0735   22.5279 C   0  0  0  0  0  0
  -21.4013   -6.5640   23.8213 C   0  0  0  0  0  0
  -21.3659   -5.6793   24.9175 C   0  0  0  0  0  0
  -21.6043   -4.3056   24.7227 C   0  0  0  0  0  0
  -21.8819   -3.8147   23.4348 C   0  0  0  0  0  0
  -21.9191   -4.6962   22.3403 C   0  0  0  0  0  0
  -22.7876  -13.5238   21.1846 C   0  0  0  0  0  0
  -22.1658   -4.2149   21.0980 F   0  0  0  0  0  0
  -21.5631   -3.4541   25.7741 F   0  0  0  0  0  0
  -30.0348  -13.3143   20.4517 N   0  0  0  0  0  0
  -26.3035  -12.9301   20.3359 N   0  0  0  0  0  0
  -25.9321  -11.6468   20.5763 N   0  0  0  0  0  0
  -22.0511  -12.8233   22.0400 N   0  0  0  0  0  0
  -25.4328  -15.1856   20.4034 N   0  0  0  0  0  0
  -31.7749  -14.7470   20.1025 O   0  0  0  0  0  0
  -21.6634   -6.8876   21.4241 O   0  0  0  0  0  0
  -22.3566  -14.5547   20.6696 O   0  0  0  0  0  0
  -24.6177  -31.8658   23.2080 C   0  0  0  0  0  0
  -25.9056  -32.4811   23.8388 C   0  0  1  0  0  0
  -27.2361  -27.4050   20.1102 C   0  0  0  0  0  0
  -25.5901  -33.8610   24.2319 N   0  0  0  0  0  0
  -23.4082  -30.4880   21.5489 C   0  0  2  0  0  0
  -24.8574  -28.9496   20.1170 C   0  0  0  0  0  0
  -22.7428  -29.4648   22.4981 C   0  0  0  0  0  0
  -18.0278  -28.1378   22.8496 C   0  0  0  0  0  0
  -24.1487  -36.7310   23.2639 C   0  0  0  0  0  0
  -25.9399  -30.8233   21.3660 C   0  0  0  0  0  0
  -26.0192  -29.4547   20.7152 C   0  0  0  0  0  0
  -27.2144  -28.6924   20.7050 C   0  0  0  0  0  0
  -26.0612  -26.9296   19.4936 C   0  0  0  0  0  0
  -24.8747  -27.6869   19.5009 C   0  0  0  0  0  0
  -23.6196  -29.8186   20.1648 C   0  0  0  0  0  0
  -25.4110  -36.3106   24.0338 C   0  0  1  0  0  0
  -20.5870  -28.3670   23.1311 C   0  0  2  0  0  0
  -20.6766  -26.9402   22.5418 C   0  0  0  0  0  0
  -19.5744  -26.6385   21.5215 C   0  0  0  0  0  0
  -18.1923  -26.7925   22.1626 C   0  0  0  0  0  0
  -19.1527  -28.8841   23.2900 C   0  0  0  0  0  0
  -18.9453  -30.1447   23.8911 C   0  0  0  0  0  0
  -17.6454  -30.6584   24.0568 C   0  0  0  0  0  0
  -25.9038  -34.9470   23.5127 C   0  0  0  0  0  0
  -16.5346  -29.9086   23.6326 C   0  0  0  0  0  0
  -16.7266  -28.6502   23.0351 C   0  0  0  0  0  0
  -26.4477  -31.6591   25.0721 C   0  0  0  0  0  0
  -25.3737  -31.3697   26.1465 C   0  0  0  0  0  0
  -27.0312  -30.3031   24.6105 C   0  0  0  0  0  0
  -27.6053  -32.4310   25.7482 C   0  0  0  0  0  0
  -27.5582  -37.1810   24.8465 C   0  0  0  0  0  0
  -21.4152  -29.3034   22.3716 N   0  0  0  0  0  0
  -26.4296  -37.3791   23.9408 N   0  0  0  0  0  0
  -24.6735  -31.0737   22.0994 N   0  0  0  0  0  0
  -23.4184  -28.8194   23.3039 O   0  0  0  0  0  0
  -28.3701  -26.6078   20.0916 O   0  0  0  0  0  0
  -26.5602  -34.8923   22.4690 O   0  0  0  0  0  0
  -23.5360  -32.1419   23.7456 O   0  0  0  0  0  0
  -28.4407  -18.9463   20.9730 C   0  0  0  0  0  0
  -30.8218  -19.1417   20.5289 C   0  0  0  0  0  0
  -28.5868  -17.5469   21.1143 C   0  0  0  0  0  0
  -30.9622  -17.7314   20.6515 C   0  0  0  0  0  0
  -29.5552  -19.7594   20.6778 C   0  0  0  0  0  0
  -29.8407  -16.9120   20.9457 C   0  0  0  0  0  0
  -28.5767  -21.8195   19.6524 C   0  0  0  0  0  0
  -29.3717  -23.3040   21.9371 C   0  0  0  0  0  0
  -30.0414  -21.9449   21.6634 C   0  0  0  0  0  0
  -28.1522  -23.3021   19.7338 C   0  0  0  0  0  0
  -29.0869  -24.1801   20.6790 C   0  0  2  0  0  0
  -26.6978  -23.2076   20.2529 C   0  0  0  0  0  0
  -28.1188  -23.8604   18.2883 C   0  0  0  0  0  0
  -30.4448  -24.4665   19.9879 C   0  0  0  0  0  0
  -29.1832  -26.2818   22.2886 C   0  0  0  0  0  0
  -28.4460  -25.5863   21.1219 C   0  0  1  0  0  0
  -29.3724  -21.2166   20.5804 N   0  0  0  0  0  0
  -29.8804  -15.4856   21.1320 N   0  0  0  0  0  0
  -28.0873  -21.0864   18.6281 N   0  3  0  0  0  0
  -31.4808  -12.4636   19.1245 H   0  0  0  0  0  0
  -30.3664  -11.3248   19.8257 H   0  0  0  0  0  0
  -29.7498  -11.7857   17.4373 H   0  0  0  0  0  0
  -29.6593  -13.4969   17.7660 H   0  0  0  0  0  0
  -27.8407  -11.3062   18.8216 H   0  0  0  0  0  0
  -27.3716  -12.6316   17.7901 H   0  0  0  0  0  0
  -27.7075  -14.2505   19.5803 H   0  0  0  0  0  0
  -28.6963  -11.9340   21.3165 H   0  0  0  0  0  0
  -28.4546  -13.5502   21.8900 H   0  0  0  0  0  0
  -25.2757   -9.5678   22.4757 H   0  0  0  0  0  0
  -24.0000   -7.4630   22.7471 H   0  0  0  0  0  0
  -21.0836   -8.8767   19.8953 H   0  0  0  0  0  0
  -22.3692  -10.9669   19.6163 H   0  0  0  0  0  0
  -21.2006   -7.6148   23.9717 H   0  0  0  0  0  0
  -21.1481   -6.0525   25.9079 H   0  0  0  0  0  0
  -22.0599   -2.7610   23.2850 H   0  0  0  0  0  0
  -22.4120  -11.9889   22.4783 H   0  0  0  0  0  0
  -21.1130  -13.1261   22.2606 H   0  0  0  0  0  0
  -24.6594  -15.8360   20.4898 H   0  0  0  0  0  0
  -26.2676  -15.6115   20.0225 H   0  0  0  0  0  0
  -26.7129  -32.5521   23.1153 H   0  0  0  0  0  0
  -25.0056  -33.9770   25.0468 H   0  0  0  0  0  0
  -22.6984  -31.3056   21.4070 H   0  0  0  0  0  0
  -23.3747  -35.9647   23.3312 H   0  0  0  0  0  0
  -24.3581  -36.8915   22.2051 H   0  0  0  0  0  0
  -23.7241  -37.6519   23.6647 H   0  0  0  0  0  0
  -26.0553  -31.5874   20.5961 H   0  0  0  0  0  0
  -26.8262  -30.8779   21.9864 H   0  0  0  0  0  0
  -28.1122  -29.0827   21.1630 H   0  0  0  0  0  0
  -26.0580  -25.9698   19.0013 H   0  0  0  0  0  0
  -23.9850  -27.2942   19.0282 H   0  0  0  0  0  0
  -23.7299  -30.5925   19.4043 H   0  0  0  0  0  0
  -22.7434  -29.2391   19.8685 H   0  0  0  0  0  0
  -25.1287  -36.1975   25.0831 H   0  0  0  0  0  0
  -20.9965  -28.3237   24.1430 H   0  0  0  0  0  0
  -20.5670  -26.2279   23.3608 H   0  0  0  0  0  0
  -21.6637  -26.7443   22.1210 H   0  0  0  0  0  0
  -19.6904  -25.6299   21.1236 H   0  0  0  0  0  0
  -19.6681  -27.3205   20.6753 H   0  0  0  0  0  0
  -17.4194  -26.6684   21.4025 H   0  0  0  0  0  0
  -18.0318  -26.0061   22.9014 H   0  0  0  0  0  0
  -19.7928  -30.7262   24.2285 H   0  0  0  0  0  0
  -17.5008  -31.6265   24.5167 H   0  0  0  0  0  0
  -15.5347  -30.2993   23.7638 H   0  0  0  0  0  0
  -15.8667  -28.0825   22.7058 H   0  0  0  0  0  0
  -24.5914  -30.7042   25.7797 H   0  0  0  0  0  0
  -24.8925  -32.2851   26.4919 H   0  0  0  0  0  0
  -25.8088  -30.8860   27.0219 H   0  0  0  0  0  0
  -26.2864  -29.6791   24.1153 H   0  0  0  0  0  0
  -27.4073  -29.7267   25.4568 H   0  0  0  0  0  0
  -27.8701  -30.4348   23.9267 H   0  0  0  0  0  0
  -27.2678  -33.3601   26.2086 H   0  0  0  0  0  0
  -28.3846  -32.6882   25.0296 H   0  0  0  0  0  0
  -28.0739  -31.8416   26.5372 H   0  0  0  0  0  0
  -28.2607  -38.0101   24.7511 H   0  0  0  0  0  0
  -28.1072  -36.2633   24.6294 H   0  0  0  0  0  0
  -27.2301  -37.1466   25.8869 H   0  0  0  0  0  0
  -20.9317  -29.8758   21.6936 H   0  0  0  0  0  0
  -26.0187  -38.2872   24.1403 H   0  0  0  0  0  0
  -27.4680  -19.3976   21.1078 H   0  0  0  0  0  0
  -31.6913  -19.7460   20.3139 H   0  0  0  0  0  0
  -27.7108  -16.9615   21.3563 H   0  0  0  0  0  0
  -31.9432  -17.2940   20.5332 H   0  0  0  0  0  0
  -30.0533  -23.8244   22.6078 H   0  0  0  0  0  0
  -28.4627  -23.1520   22.5185 H   0  0  0  0  0  0
  -30.0487  -21.3447   22.5742 H   0  0  0  0  0  0
  -31.0838  -22.0915   21.3810 H   0  0  0  0  0  0
  -26.6521  -22.7978   21.2601 H   0  0  0  0  0  0
  -26.1002  -22.5455   19.6277 H   0  0  0  0  0  0
  -26.1818  -24.1631   20.2574 H   0  0  0  0  0  0
  -29.0532  -23.6554   17.7664 H   0  0  0  0  0  0
  -27.9681  -24.9369   18.2684 H   0  0  0  0  0  0
  -27.3166  -23.4246   17.6936 H   0  0  0  0  0  0
  -30.8758  -23.5688   19.5447 H   0  0  0  0  0  0
  -31.1798  -24.8655   20.6864 H   0  0  0  0  0  0
  -30.3447  -25.1981   19.1861 H   0  0  0  0  0  0
  -29.1508  -25.6968   23.2064 H   0  0  0  0  0  0
  -28.7186  -27.2341   22.5391 H   0  0  0  0  0  0
  -30.2256  -26.4866   22.0475 H   0  0  0  0  0  0
  -27.4455  -25.3966   21.5092 H   0  0  0  0  0  0
  -29.0342  -15.0961   21.5181 H   0  0  0  0  0  0
  -27.5026  -21.5203   17.9279 H   0  0  0  0  0  0
  -28.3279  -20.1152   18.4939 H   0  0  0  0  0  0
  1 25  1  0  0  0
  1 30  2  0  0  0
  1 88  1  0  0  0
  2  3  1  0  0  0
  2 25  1  0  0  0
  2 90  1  0  0  0
  2 91  1  0  0  0
  3  4  1  0  0  0
  3 92  1  0  0  0
  3 93  1  0  0  0
  4  5  1  0  0  0
  4 94  1  0  0  0
  4 95  1  0  0  0
  5  6  1  0  0  0
  5 26  1  0  0  0
  5 96  1  0  0  0
  6 25  1  0  0  0
  6 97  1  0  0  0
  6 98  1  0  0  0
  7  8  2  0  0  0
  7 26  1  0  0  0
  7 29  1  0  0  0
  8  9  1  0  0  0
  8 22  1  0  0  0
  9 10  1  0  0  0
  9 27  2  0  0  0
 10 11  2  0  0  0
 10 15  1  0  0  0
 11 12  1  0  0  0
 11 99  1  0  0  0
 12 13  2  0  0  0
 12100  1  0  0  0
 13 14  1  0  0  0
 13 31  1  0  0  0
 14 15  2  0  0  0
 14101  1  0  0  0
 15102  1  0  0  0
 16 17  2  0  0  0
 16 21  1  0  0  0
 16 31  1  0  0  0
 17 18  1  0  0  0
 17103  1  0  0  0
 18 19  2  0  0  0
 18104  1  0  0  0
 19 20  1  0  0  0
 19 24  1  0  0  0
 20 21  2  0  0  0
 20105  1  0  0  0
 21 23  1  0  0  0
 22 28  1  0  0  0
 22 32  2  0  0  0
 26 27  1  0  0  0
 28106  1  0  0  0
 28107  1  0  0  0
 29108  1  0  0  0
 29109  1  0  0  0
 33 34  1  0  0  0
 33 66  1  0  0  0
 33 70  2  0  0  0
 34 36  1  0  0  0
 34 59  1  0  0  0
 34110  1  0  0  0
 35 44  2  0  0  0
 35 45  1  0  0  0
 35 68  1  0  0  0
 36 56  1  0  0  0
 36111  1  0  0  0
 37 39  1  0  0  0
 37 47  1  0  0  0
 37 66  1  0  0  0
 37112  1  0  0  0
 38 43  2  0  0  0
 38 46  1  0  0  0
 38 47  1  0  0  0
 39 64  1  0  0  0
 39 67  2  0  0  0
 40 52  1  0  0  0
 40 53  2  0  0  0
 40 58  1  0  0  0
 41113  1  0  0  0
 41114  1  0  0  0
 41115  1  0  0  0
 41 48  1  0  0  0
 42 43  1  0  0  0
 42 66  1  0  0  0
 42116  1  0  0  0
 42117  1  0  0  0
 43 44  1  0  0  0
 44118  1  0  0  0
 45 46  2  0  0  0
 45119  1  0  0  0
 46120  1  0  0  0
 47121  1  0  0  0
 47122  1  0  0  0
 48 56  1  0  0  0
 48 65  1  0  0  0
 48123  1  0  0  0
 49 50  1  0  0  0
 49 53  1  0  0  0
 49 64  1  0  0  0
 49124  1  0  0  0
 50 51  1  0  0  0
 50125  1  0  0  0
 50126  1  0  0  0
 51 52  1  0  0  0
 51127  1  0  0  0
 51128  1  0  0  0
 52129  1  0  0  0
 52130  1  0  0  0
 53 54  1  0  0  0
 54 55  2  0  0  0
 54131  1  0  0  0
 55 57  1  0  0  0
 55132  1  0  0  0
 56 69  2  0  0  0
 57 58  2  0  0  0
 57133  1  0  0  0
 58134  1  0  0  0
 59 60  1  0  0  0
 59 61  1  0  0  0
 59 62  1  0  0  0
 60135  1  0  0  0
 60136  1  0  0  0
 60137  1  0  0  0
 61138  1  0  0  0
 61139  1  0  0  0
 61140  1  0  0  0
 62141  1  0  0  0
 62142  1  0  0  0
 62143  1  0  0  0
 63 65  1  0  0  0
 63144  1  0  0  0
 63145  1  0  0  0
 63146  1  0  0  0
 64147  1  0  0  0
 65148  1  0  0  0
 68 86  1  0  0  0
 71 73  2  0  0  0
 71 75  1  0  0  0
 71149  1  0  0  0
 72 74  1  0  0  0
 72 75  2  0  0  0
 72150  1  0  0  0
 73 76  1  0  0  0
 73151  1  0  0  0
 74 76  2  0  0  0
 74152  1  0  0  0
 75 87  1  0  0  0
 76 88  1  0  0  0
 77 80  1  0  0  0
 77 87  1  0  0  0
 77 89  2  0  0  0
 78 79  1  0  0  0
 78 81  1  0  0  0
 78153  1  0  0  0
 78154  1  0  0  0
 79 87  1  0  0  0
 79155  1  0  0  0
 79156  1  0  0  0
 80 81  1  0  0  0
 80 82  1  0  0  0
 80 83  1  0  0  0
 81 84  1  0  0  0
 81 86  1  0  0  0
 82157  1  0  0  0
 82158  1  0  0  0
 82159  1  0  0  0
 83160  1  0  0  0
 83161  1  0  0  0
 83162  1  0  0  0
 84163  1  0  0  0
 84164  1  0  0  0
 84165  1  0  0  0
 85166  1  0  0  0
 85167  1  0  0  0
 85168  1  0  0  0
 85 86  1  0  0  0
 86169  1  0  0  0
 88170  1  0  0  0
 89171  1  0  0  0
 89172  1  0  0  0
M  CHG  1  89   1
M  ISO  4   1 100  68 101  86 101  88 100
M  END
> <chiral flag>
0

> <version>
0

> <s_m_source_file>
/data/baiqing/PycharmProjects/Reinvent-master-3.2/result/LINK_invent/BTK/process_docking_weight1_custom_product_contain_oxygen_bond_distance_aromatic_linkinvent_7_9_3/rearranged_h_0066.sdf

> <i_m_source_file_index>
5

> <r_mmod_Potential_Energy-OPLS-2005>
10.5389995574951

> <r_mmod_Stretch_Energy-OPLS-2005>
62.2099304199219

> <r_mmod_Bend_Energy-OPLS-2005>
129.377944946289

> <r_mmod_Torsional_Energy-OPLS-2005>
277.040344238281

> <r_mmod_Improper_Torsional_Energy-OPLS-2005>
4.49536514282227

> <r_mmod_Van_der_Waal_Energy-OPLS-2005>
160.601303100586

> <r_mmod_Electrostatic_Energy-OPLS-2005>
-241.49723815918

> <r_mmod_Solvation_Energy-OPLS-2005>
-400.503692626953

> <b_mmod_Minimization_Converged-OPLS-2005>
0

> <r_mmod_RMS_Derivative-OPLS-2005>
0.278572827577591

$$$$
5
                    3D
 Structure written by MMmdl.
148156  0  0  1  0            999 V2000
  -30.5620  -14.9156   20.4227 C   0  0  0  0  0  0
  -30.4377  -12.5653   19.4945 C   0  0  0  0  0  0
  -29.5192  -12.5229   18.2520 C   0  0  0  0  0  0
  -28.0511  -12.3168   18.6696 C   0  0  0  0  0  0
  -27.6314  -13.2465   19.8387 C   0  0  2  0  0  0
  -28.6753  -13.2658   20.9757 C   0  0  0  0  0  0
  -25.2472  -13.8212   20.5711 C   0  0  0  0  0  0
  -24.1787  -13.0439   20.9230 C   0  0  0  0  0  0
  -24.6400  -11.6924   20.8751 C   0  0  0  0  0  0
  -23.9084  -10.4296   21.0405 C   0  0  0  0  0  0
  -24.3630   -9.4210   21.9184 C   0  0  0  0  0  0
  -23.6304   -8.2244   22.0752 C   0  0  0  0  0  0
  -22.4283   -8.0282   21.3546 C   0  0  0  0  0  0
  -21.9924   -9.0255   20.4644 C   0  0  0  0  0  0
  -22.7254  -10.2135   20.3054 C   0  0  0  0  0  0
  -21.6857   -6.0740   22.5281 C   0  0  0  0  0  0
  -21.4014   -6.5643   23.8214 C   0  0  0  0  0  0
  -21.3660   -5.6794   24.9175 C   0  0  0  0  0  0
  -21.6043   -4.3057   24.7225 C   0  0  0  0  0  0
  -21.8820   -3.8150   23.4346 C   0  0  0  0  0  0
  -21.9193   -4.6969   22.3403 C   0  0  0  0  0  0
  -22.7807  -13.5212   21.1881 C   0  0  0  0  0  0
  -22.1664   -4.2154   21.0981 F   0  0  0  0  0  0
  -21.5628   -3.4539   25.7737 F   0  0  0  0  0  0
  -29.9546  -13.6642   20.3767 N   0  0  0  0  0  0
  -26.2897  -12.9444   20.3246 N   0  0  0  0  0  0
  -25.9333  -11.6575   20.5739 N   0  0  0  0  0  0
  -22.0455  -12.8196   22.0431 N   0  0  0  0  0  0
  -25.4133  -15.1941   20.4136 N   0  0  0  0  0  0
  -31.7676  -14.9579   20.1563 O   0  0  0  0  0  0
  -21.6643   -6.8881   21.4244 O   0  0  0  0  0  0
  -22.3494  -14.5517   20.6723 O   0  0  0  0  0  0
  -24.6411  -31.8465   23.1899 C   0  0  0  0  0  0
  -25.9197  -32.4708   23.8285 C   0  0  1  0  0  0
  -27.2164  -27.1518   20.1525 C   0  0  0  0  0  0
  -25.5952  -33.8515   24.2203 N   0  0  0  0  0  0
  -23.4439  -30.4654   21.5345 C   0  0  2  0  0  0
  -24.8944  -28.8937   20.1107 C   0  0  0  0  0  0
  -22.7556  -29.4560   22.4861 C   0  0  0  0  0  0
  -18.0304  -28.1393   22.8482 C   0  0  0  0  0  0
  -24.1488  -36.7257   23.2641 C   0  0  0  0  0  0
  -25.9986  -30.7231   21.3884 C   0  0  0  0  0  0
  -26.0699  -29.3340   20.7343 C   0  0  0  0  0  0
  -27.2316  -28.4765   20.7434 C   0  0  0  0  0  0
  -26.0213  -26.8157   19.4792 C   0  0  0  0  0  0
  -24.8818  -27.6465   19.4689 C   0  0  0  0  0  0
  -23.6701  -29.7942   20.1535 C   0  0  0  0  0  0
  -25.4118  -36.3040   24.0319 C   0  0  1  0  0  0
  -20.5913  -28.3721   23.1231 C   0  0  2  0  0  0
  -20.6775  -26.9420   22.5400 C   0  0  0  0  0  0
  -19.5750  -26.6382   21.5204 C   0  0  0  0  0  0
  -18.1938  -26.7933   22.1624 C   0  0  0  0  0  0
  -19.1560  -28.8872   23.2854 C   0  0  0  0  0  0
  -18.9479  -30.1466   23.8881 C   0  0  0  0  0  0
  -17.6477  -30.6590   24.0555 C   0  0  0  0  0  0
  -25.9070  -34.9416   23.5068 C   0  0  0  0  0  0
  -16.5367  -29.9083   23.6335 C   0  0  0  0  0  0
  -16.7289  -28.6499   23.0364 C   0  0  0  0  0  0
  -26.4524  -31.6564   25.0715 C   0  0  0  0  0  0
  -25.3716  -31.3745   26.1414 C   0  0  0  0  0  0
  -27.0383  -30.2960   24.6284 C   0  0  0  0  0  0
  -27.6060  -32.4323   25.7502 C   0  0  0  0  0  0
  -27.5575  -37.1778   24.8467 C   0  0  0  0  0  0
  -21.4252  -29.3052   22.3609 N   0  0  0  0  0  0
  -26.4284  -37.3749   23.9414 N   0  0  0  0  0  0
  -24.7141  -31.0330   22.0928 N   0  0  0  0  0  0
  -23.4205  -28.8109   23.3009 O   0  0  0  0  0  0
  -28.2665  -26.1685   20.1892 O   0  0  0  0  0  0
  -26.5657  -34.8913   22.4648 O   0  0  0  0  0  0
  -23.5537  -32.1346   23.7123 O   0  0  0  0  0  0
  -31.8023  -19.4073   20.4321 C   0  0  0  0  0  0
  -31.4396  -18.0375   20.4734 C   0  0  0  0  0  0
  -30.8508  -20.4547   20.3980 C   0  0  0  0  0  0
  -29.1256  -18.7315   20.4511 C   0  0  0  0  0  0
  -30.0908  -17.6033   20.4834 C   0  0  0  0  0  0
  -29.4726  -20.1754   20.4021 C   0  0  0  0  0  0
  -27.9876  -24.7365   20.3342 C   0  0  0  0  0  0
  -28.7920  -23.5821   20.1693 C   0  0  0  0  0  0
  -29.7817  -16.1002   20.5470 N   0  0  0  0  0  0
  -27.4011  -21.4480   19.1561 O   0  0  0  0  0  0
  -27.5033  -21.6471   21.6522 O   0  0  0  0  0  0
  -28.2183  -21.6855   20.3619 S   0  0  0  0  0  0
  -31.4730  -12.7124   19.1832 H   0  0  0  0  0  0
  -30.4199  -11.6116   20.0242 H   0  0  0  0  0  0
  -29.8323  -11.7262   17.5757 H   0  0  0  0  0  0
  -29.6146  -13.4554   17.6932 H   0  0  0  0  0  0
  -27.9405  -11.2747   18.9716 H   0  0  0  0  0  0
  -27.3893  -12.4569   17.8139 H   0  0  0  0  0  0
  -27.5969  -14.2503   19.4147 H   0  0  0  0  0  0
  -28.7537  -12.2892   21.4551 H   0  0  0  0  0  0
  -28.3830  -13.9708   21.7555 H   0  0  0  0  0  0
  -25.2773   -9.5687   22.4764 H   0  0  0  0  0  0
  -24.0012   -7.4635   22.7473 H   0  0  0  0  0  0
  -21.0855   -8.8777   19.8946 H   0  0  0  0  0  0
  -22.3712  -10.9677   19.6166 H   0  0  0  0  0  0
  -21.2005   -7.6151   23.9720 H   0  0  0  0  0  0
  -21.1482   -6.0523   25.9079 H   0  0  0  0  0  0
  -22.0597   -2.7613   23.2845 H   0  0  0  0  0  0
  -22.4082  -11.9866   22.4827 H   0  0  0  0  0  0
  -21.1065  -13.1206   22.2617 H   0  0  0  0  0  0
  -24.6393  -15.8411   20.5187 H   0  0  0  0  0  0
  -26.2490  -15.6353   20.0535 H   0  0  0  0  0  0
  -26.7261  -32.5322   23.1018 H   0  0  0  0  0  0
  -25.0064  -33.9631   25.0326 H   0  0  0  0  0  0
  -22.7455  -31.2906   21.3797 H   0  0  0  0  0  0
  -23.3756  -35.9582   23.3301 H   0  0  0  0  0  0
  -24.3570  -36.8890   22.2055 H   0  0  0  0  0  0
  -23.7237  -37.6450   23.6678 H   0  0  0  0  0  0
  -26.1500  -31.4764   20.6140 H   0  0  0  0  0  0
  -26.8708  -30.7762   22.0281 H   0  0  0  0  0  0
  -28.1276  -28.8069   21.2498 H   0  0  0  0  0  0
  -25.9479  -25.8631   18.9750 H   0  0  0  0  0  0
  -23.9874  -27.3065   18.9653 H   0  0  0  0  0  0
  -23.8054  -30.5691   19.3980 H   0  0  0  0  0  0
  -22.7854  -29.2351   19.8433 H   0  0  0  0  0  0
  -25.1297  -36.1874   25.0808 H   0  0  0  0  0  0
  -21.0011  -28.3319   24.1350 H   0  0  0  0  0  0
  -20.5645  -26.2343   23.3625 H   0  0  0  0  0  0
  -21.6644  -26.7408   22.1205 H   0  0  0  0  0  0
  -19.6908  -25.6289   21.1242 H   0  0  0  0  0  0
  -19.6680  -27.3187   20.6727 H   0  0  0  0  0  0
  -17.4193  -26.6682   21.4040 H   0  0  0  0  0  0
  -18.0345  -26.0078   22.9024 H   0  0  0  0  0  0
  -19.7956  -30.7282   24.2253 H   0  0  0  0  0  0
  -17.5028  -31.6271   24.5157 H   0  0  0  0  0  0
  -15.5364  -30.2974   23.7665 H   0  0  0  0  0  0
  -15.8693  -28.0801   22.7095 H   0  0  0  0  0  0
  -24.5921  -30.7062   25.7739 H   0  0  0  0  0  0
  -24.8876  -32.2918   26.4775 H   0  0  0  0  0  0
  -25.8009  -30.8974   27.0234 H   0  0  0  0  0  0
  -26.2994  -29.6685   24.1287 H   0  0  0  0  0  0
  -27.3991  -29.7255   25.4853 H   0  0  0  0  0  0
  -27.8904  -30.4191   23.9599 H   0  0  0  0  0  0
  -27.2658  -33.3641   26.2039 H   0  0  0  0  0  0
  -28.3897  -32.6857   25.0348 H   0  0  0  0  0  0
  -28.0702  -31.8475   26.5457 H   0  0  0  0  0  0
  -28.2577  -38.0089   24.7511 H   0  0  0  0  0  0
  -28.1084  -36.2614   24.6289 H   0  0  0  0  0  0
  -27.2293  -37.1416   25.8871 H   0  0  0  0  0  0
  -20.9464  -29.8769   21.6787 H   0  0  0  0  0  0
  -26.0157  -38.2817   24.1427 H   0  0  0  0  0  0
  -32.8531  -19.6628   20.4308 H   0  0  0  0  0  0
  -32.2456  -17.3199   20.5074 H   0  0  0  0  0  0
  -31.1812  -21.4829   20.3706 H   0  0  0  0  0  0
  -28.0710  -18.4980   20.4629 H   0  0  0  0  0  0
  -26.9567  -24.5848   20.6213 H   0  0  0  0  0  0
  -29.8321  -23.6674   19.8965 H   0  0  0  0  0  0
  -28.8033  -15.8909   20.6746 H   0  0  0  0  0  0
  1 25  1  0  0  0
  1 30  2  0  0  0
  1 79  1  0  0  0
  2  3  1  0  0  0
  2 25  1  0  0  0
  2 83  1  0  0  0
  2 84  1  0  0  0
  3  4  1  0  0  0
  3 85  1  0  0  0
  3 86  1  0  0  0
  4  5  1  0  0  0
  4 87  1  0  0  0
  4 88  1  0  0  0
  5  6  1  0  0  0
  5 26  1  0  0  0
  5 89  1  0  0  0
  6 25  1  0  0  0
  6 90  1  0  0  0
  6 91  1  0  0  0
  7  8  2  0  0  0
  7 26  1  0  0  0
  7 29  1  0  0  0
  8  9  1  0  0  0
  8 22  1  0  0  0
  9 10  1  0  0  0
  9 27  2  0  0  0
 10 11  2  0  0  0
 10 15  1  0  0  0
 11 12  1  0  0  0
 11 92  1  0  0  0
 12 13  2  0  0  0
 12 93  1  0  0  0
 13 14  1  0  0  0
 13 31  1  0  0  0
 14 15  2  0  0  0
 14 94  1  0  0  0
 15 95  1  0  0  0
 16 17  2  0  0  0
 16 21  1  0  0  0
 16 31  1  0  0  0
 17 18  1  0  0  0
 17 96  1  0  0  0
 18 19  2  0  0  0
 18 97  1  0  0  0
 19 20  1  0  0  0
 19 24  1  0  0  0
 20 21  2  0  0  0
 20 98  1  0  0  0
 21 23  1  0  0  0
 22 28  1  0  0  0
 22 32  2  0  0  0
 26 27  1  0  0  0
 28 99  1  0  0  0
 28100  1  0  0  0
 29101  1  0  0  0
 29102  1  0  0  0
 33 34  1  0  0  0
 33 66  1  0  0  0
 33 70  2  0  0  0
 34 36  1  0  0  0
 34 59  1  0  0  0
 34103  1  0  0  0
 35 44  2  0  0  0
 35 45  1  0  0  0
 35 68  1  0  0  0
 36 56  1  0  0  0
 36104  1  0  0  0
 37 39  1  0  0  0
 37 47  1  0  0  0
 37 66  1  0  0  0
 37105  1  0  0  0
 38 43  2  0  0  0
 38 46  1  0  0  0
 38 47  1  0  0  0
 39 64  1  0  0  0
 39 67  2  0  0  0
 40 52  1  0  0  0
 40 53  2  0  0  0
 40 58  1  0  0  0
 41106  1  0  0  0
 41107  1  0  0  0
 41108  1  0  0  0
 41 48  1  0  0  0
 42 43  1  0  0  0
 42 66  1  0  0  0
 42109  1  0  0  0
 42110  1  0  0  0
 43 44  1  0  0  0
 44111  1  0  0  0
 45 46  2  0  0  0
 45112  1  0  0  0
 46113  1  0  0  0
 47114  1  0  0  0
 47115  1  0  0  0
 48 56  1  0  0  0
 48 65  1  0  0  0
 48116  1  0  0  0
 49 50  1  0  0  0
 49 53  1  0  0  0
 49 64  1  0  0  0
 49117  1  0  0  0
 50 51  1  0  0  0
 50118  1  0  0  0
 50119  1  0  0  0
 51 52  1  0  0  0
 51120  1  0  0  0
 51121  1  0  0  0
 52122  1  0  0  0
 52123  1  0  0  0
 53 54  1  0  0  0
 54 55  2  0  0  0
 54124  1  0  0  0
 55 57  1  0  0  0
 55125  1  0  0  0
 56 69  2  0  0  0
 57 58  2  0  0  0
 57126  1  0  0  0
 58127  1  0  0  0
 59 60  1  0  0  0
 59 61  1  0  0  0
 59 62  1  0  0  0
 60128  1  0  0  0
 60129  1  0  0  0
 60130  1  0  0  0
 61131  1  0  0  0
 61132  1  0  0  0
 61133  1  0  0  0
 62134  1  0  0  0
 62135  1  0  0  0
 62136  1  0  0  0
 63 65  1  0  0  0
 63137  1  0  0  0
 63138  1  0  0  0
 63139  1  0  0  0
 64140  1  0  0  0
 65141  1  0  0  0
 68 77  1  0  0  0
 71 72  2  0  0  0
 71 73  1  0  0  0
 71142  1  0  0  0
 72 75  1  0  0  0
 72143  1  0  0  0
 73 76  2  0  0  0
 73144  1  0  0  0
 74 75  2  0  0  0
 74 76  1  0  0  0
 74145  1  0  0  0
 75 79  1  0  0  0
 76 82  1  0  0  0
 77 78  2  0  0  0
 77146  1  0  0  0
 78147  1  0  0  0
 78 82  1  0  0  0
 79148  1  0  0  0
 80 82  2  0  0  0
 81 82  2  0  0  0
M  ISO  4   1 100  68 101  77 101  79 100
M  END
> <chiral flag>
0

> <version>
0

> <s_m_source_file>
/data/baiqing/PycharmProjects/Reinvent-master-3.2/result/LINK_invent/BTK/process_docking_weight1_custom_product_contain_oxygen_bond_distance_aromatic_linkinvent_7_9_3/rearranged_h_0066.sdf

> <i_m_source_file_index>
6

> <r_mmod_Potential_Energy-OPLS-2005>
368.805389404297

> <r_mmod_Stretch_Energy-OPLS-2005>
229.589935302734

> <r_mmod_Bend_Energy-OPLS-2005>
226.583358764648

> <r_mmod_Torsional_Energy-OPLS-2005>
215.099166870117

> <r_mmod_Improper_Torsional_Energy-OPLS-2005>
4.78994607925415

> <r_mmod_Van_der_Waal_Energy-OPLS-2005>
130.5

> <r_mmod_Electrostatic_Energy-OPLS-2005>
-357.132141113281

> <r_mmod_Solvation_Energy-OPLS-2005>
-253.987335205078

> <b_mmod_Minimization_Converged-OPLS-2005>
0

> <r_mmod_RMS_Derivative-OPLS-2005>
0.930433690547943

$$$$
6
                    3D
 Structure written by MMmdl.
167175  0  0  1  0            999 V2000
  -30.6604  -14.4780   20.6114 C   0  0  0  0  0  0
  -30.4409  -12.3226   19.4126 C   0  0  0  0  0  0
  -29.5047  -12.5282   18.2017 C   0  0  0  0  0  0
  -28.0233  -12.3813   18.6073 C   0  0  0  0  0  0
  -27.6675  -13.1977   19.8774 C   0  0  2  0  0  0
  -28.7043  -12.9333   20.9916 C   0  0  0  0  0  0
  -25.2629  -13.8134   20.5650 C   0  0  0  0  0  0
  -24.1857  -13.0443   20.9162 C   0  0  0  0  0  0
  -24.6380  -11.6901   20.8706 C   0  0  0  0  0  0
  -23.9028  -10.4303   21.0393 C   0  0  0  0  0  0
  -24.3590   -9.4230   21.9184 C   0  0  0  0  0  0
  -23.6281   -8.2258   22.0756 C   0  0  0  0  0  0
  -22.4269   -8.0276   21.3540 C   0  0  0  0  0  0
  -21.9885   -9.0247   20.4652 C   0  0  0  0  0  0
  -22.7196  -10.2140   20.3051 C   0  0  0  0  0  0
  -21.6847   -6.0730   22.5278 C   0  0  0  0  0  0
  -21.4009   -6.5634   23.8206 C   0  0  0  0  0  0
  -21.3663   -5.6783   24.9175 C   0  0  0  0  0  0
  -21.6047   -4.3047   24.7217 C   0  0  0  0  0  0
  -21.8824   -3.8136   23.4332 C   0  0  0  0  0  0
  -21.9195   -4.6955   22.3398 C   0  0  0  0  0  0
  -22.7887  -13.5271   21.1826 C   0  0  0  0  0  0
  -22.1671   -4.2141   21.0976 F   0  0  0  0  0  0
  -21.5635   -3.4529   25.7727 F   0  0  0  0  0  0
  -30.0391  -13.2748   20.4593 N   0  0  0  0  0  0
  -26.3045  -12.9281   20.3322 N   0  0  0  0  0  0
  -25.9300  -11.6451   20.5702 N   0  0  0  0  0  0
  -22.0477  -12.8287   22.0365 N   0  0  0  0  0  0
  -25.4413  -15.1846   20.4085 N   0  0  0  0  0  0
  -31.7610  -14.7304   20.1084 O   0  0  0  0  0  0
  -21.6646   -6.8866   21.4236 O   0  0  0  0  0  0
  -22.3609  -14.5589   20.6673 O   0  0  0  0  0  0
  -24.6135  -31.8690   23.2104 C   0  0  0  0  0  0
  -25.9034  -32.4831   23.8402 C   0  0  1  0  0  0
  -27.2375  -27.4410   20.0965 C   0  0  0  0  0  0
  -25.5893  -33.8629   24.2330 N   0  0  0  0  0  0
  -23.4019  -30.4900   21.5516 C   0  0  2  0  0  0
  -24.8509  -28.9507   20.1209 C   0  0  0  0  0  0
  -22.7400  -29.4666   22.5014 C   0  0  0  0  0  0
  -18.0266  -28.1373   22.8495 C   0  0  0  0  0  0
  -24.1477  -36.7315   23.2630 C   0  0  0  0  0  0
  -25.9305  -30.8349   21.3627 C   0  0  0  0  0  0
  -26.0101  -29.4674   20.7144 C   0  0  0  0  0  0
  -27.2107  -28.7196   20.6978 C   0  0  0  0  0  0
  -26.0637  -26.9309   19.5077 C   0  0  0  0  0  0
  -24.8716  -27.6813   19.5157 C   0  0  0  0  0  0
  -23.6109  -29.8167   20.1684 C   0  0  0  0  0  0
  -25.4098  -36.3116   24.0334 C   0  0  1  0  0  0
  -20.5857  -28.3661   23.1326 C   0  0  2  0  0  0
  -20.6763  -26.9402   22.5424 C   0  0  0  0  0  0
  -19.5750  -26.6381   21.5212 C   0  0  0  0  0  0
  -18.1920  -26.7924   22.1610 C   0  0  0  0  0  0
  -19.1512  -28.8834   23.2908 C   0  0  0  0  0  0
  -18.9443  -30.1435   23.8922 C   0  0  0  0  0  0
  -17.6448  -30.6589   24.0557 C   0  0  0  0  0  0
  -25.9038  -34.9484   23.5131 C   0  0  0  0  0  0
  -16.5339  -29.9092   23.6309 C   0  0  0  0  0  0
  -16.7258  -28.6499   23.0348 C   0  0  0  0  0  0
  -26.4471  -31.6603   25.0727 C   0  0  0  0  0  0
  -25.3740  -31.3709   26.1476 C   0  0  0  0  0  0
  -27.0281  -30.3032   24.6098 C   0  0  0  0  0  0
  -27.6068  -32.4310   25.7476 C   0  0  0  0  0  0
  -27.5602  -37.1771   24.8435 C   0  0  0  0  0  0
  -21.4133  -29.3022   22.3730 N   0  0  0  0  0  0
  -26.4269  -37.3821   23.9451 N   0  0  0  0  0  0
  -24.6670  -31.0788   22.1003 N   0  0  0  0  0  0
  -23.4180  -28.8207   23.3049 O   0  0  0  0  0  0
  -28.3969  -26.7050   20.0425 O   0  0  0  0  0  0
  -26.5606  -34.8939   22.4697 O   0  0  0  0  0  0
  -23.5322  -32.1440   23.7494 O   0  0  0  0  0  0
  -30.8798  -19.0424   20.9572 C   0  0  0  0  0  0
  -30.9663  -17.6332   20.8323 C   0  0  0  0  0  0
  -28.8019  -17.4289   21.9124 C   0  0  0  0  0  0
  -29.7703  -19.6583   21.5842 C   0  0  0  0  0  0
  -28.7053  -18.8358   22.0412 C   0  0  0  0  0  0
  -29.9294  -16.8060   21.3291 C   0  0  0  0  0  0
  -29.7969  -21.1173   21.8270 C   0  0  0  0  0  0
  -28.8199  -24.2889   20.3481 C   0  0  0  0  0  0
  -27.4376  -19.4247   22.6508 C   0  0  0  0  0  0
  -31.5964  -23.3244   18.9012 C   0  0  0  0  0  0
  -32.5328  -23.5837   21.2423 C   0  0  0  0  0  0
  -28.4782  -25.6443   21.0048 C   0  0  0  0  0  0
  -30.0109  -23.4992   20.9490 C   0  0  2  0  0  0
  -31.3599  -23.9194   20.3072 C   0  0  0  0  0  0
  -29.9258  -15.3755   21.2982 N   0  0  0  0  0  0
  -29.8502  -22.0214   20.8324 N   0  0  0  0  0  0
  -29.8030  -21.5448   23.0911 N   0  3  0  0  0  0
  -28.1561  -23.8615   19.3976 O   0  0  0  0  0  0
  -31.4838  -12.4544   19.1150 H   0  0  0  0  0  0
  -30.3643  -11.3005   19.7852 H   0  0  0  0  0  0
  -29.7510  -11.8162   17.4126 H   0  0  0  0  0  0
  -29.6680  -13.5199   17.7770 H   0  0  0  0  0  0
  -27.8279  -11.3236   18.7839 H   0  0  0  0  0  0
  -27.3759  -12.6743   17.7809 H   0  0  0  0  0  0
  -27.7244  -14.2519   19.6055 H   0  0  0  0  0  0
  -28.6864  -11.8816   21.2813 H   0  0  0  0  0  0
  -28.4464  -13.4737   21.9032 H   0  0  0  0  0  0
  -25.2736   -9.5724   22.4755 H   0  0  0  0  0  0
  -24.0000   -7.4652   22.7473 H   0  0  0  0  0  0
  -21.0810   -8.8756   19.8963 H   0  0  0  0  0  0
  -22.3641  -10.9674   19.6153 H   0  0  0  0  0  0
  -21.1997   -7.6143   23.9702 H   0  0  0  0  0  0
  -21.1487   -6.0519   25.9080 H   0  0  0  0  0  0
  -22.0599   -2.7593   23.2825 H   0  0  0  0  0  0
  -22.4050  -11.9963   22.4804 H   0  0  0  0  0  0
  -21.1104  -13.1364   22.2540 H   0  0  0  0  0  0
  -24.6728  -15.8390   20.5063 H   0  0  0  0  0  0
  -26.2809  -15.6095   20.0352 H   0  0  0  0  0  0
  -26.7110  -32.5553   23.1173 H   0  0  0  0  0  0
  -25.0012  -33.9795   25.0452 H   0  0  0  0  0  0
  -22.6899  -31.3062   21.4120 H   0  0  0  0  0  0
  -23.3762  -35.9616   23.3223 H   0  0  0  0  0  0
  -24.3584  -36.9003   22.2058 H   0  0  0  0  0  0
  -23.7175  -37.6479   23.6684 H   0  0  0  0  0  0
  -26.0396  -31.5987   20.5914 H   0  0  0  0  0  0
  -26.8197  -30.8928   21.9785 H   0  0  0  0  0  0
  -28.1114  -29.1185   21.1434 H   0  0  0  0  0  0
  -26.0752  -25.9564   19.0396 H   0  0  0  0  0  0
  -23.9805  -27.2773   19.0547 H   0  0  0  0  0  0
  -23.7161  -30.5889   19.4059 H   0  0  0  0  0  0
  -22.7359  -29.2335   19.8753 H   0  0  0  0  0  0
  -25.1250  -36.1973   25.0815 H   0  0  0  0  0  0
  -20.9957  -28.3237   24.1446 H   0  0  0  0  0  0
  -20.5674  -26.2270   23.3608 H   0  0  0  0  0  0
  -21.6635  -26.7459   22.1217 H   0  0  0  0  0  0
  -19.6910  -25.6291   21.1238 H   0  0  0  0  0  0
  -19.6697  -27.3193   20.6742 H   0  0  0  0  0  0
  -17.4202  -26.6686   21.3995 H   0  0  0  0  0  0
  -18.0315  -26.0054   22.8992 H   0  0  0  0  0  0
  -19.7922  -30.7219   24.2331 H   0  0  0  0  0  0
  -17.5010  -31.6270   24.5153 H   0  0  0  0  0  0
  -15.5338  -30.3001   23.7608 H   0  0  0  0  0  0
  -15.8661  -28.0813   22.7065 H   0  0  0  0  0  0
  -24.5891  -30.7091   25.7798 H   0  0  0  0  0  0
  -24.8954  -32.2867   26.4959 H   0  0  0  0  0  0
  -25.8084  -30.8839   27.0219 H   0  0  0  0  0  0
  -26.2804  -29.6807   24.1169 H   0  0  0  0  0  0
  -27.4046  -29.7260   25.4558 H   0  0  0  0  0  0
  -27.8655  -30.4322   23.9233 H   0  0  0  0  0  0
  -27.2705  -33.3588   26.2118 H   0  0  0  0  0  0
  -28.3839  -32.6915   25.0276 H   0  0  0  0  0  0
  -28.0793  -31.8403   26.5336 H   0  0  0  0  0  0
  -28.2521  -38.0171   24.7654 H   0  0  0  0  0  0
  -28.1190  -36.2715   24.6017 H   0  0  0  0  0  0
  -27.2358  -37.1131   25.8838 H   0  0  0  0  0  0
  -20.9300  -29.8728   21.6932 H   0  0  0  0  0  0
  -26.0146  -38.2869   24.1574 H   0  0  0  0  0  0
  -31.7012  -19.6524   20.6060 H   0  0  0  0  0  0
  -31.8476  -17.2081   20.3758 H   0  0  0  0  0  0
  -27.9893  -16.8163   22.2804 H   0  0  0  0  0  0
  -26.6967  -18.6514   22.8552 H   0  0  0  0  0  0
  -26.9788  -20.1373   21.9644 H   0  0  0  0  0  0
  -27.6429  -19.9382   23.5898 H   0  0  0  0  0  0
  -32.4879  -23.7536   18.4437 H   0  0  0  0  0  0
  -30.7612  -23.5288   18.2286 H   0  0  0  0  0  0
  -31.7426  -22.2434   18.9316 H   0  0  0  0  0  0
  -33.4808  -23.9187   20.8218 H   0  0  0  0  0  0
  -32.6121  -22.5112   21.4238 H   0  0  0  0  0  0
  -32.4151  -24.0756   22.2088 H   0  0  0  0  0  0
  -29.2469  -25.9014   21.7335 H   0  0  0  0  0  0
  -27.5435  -25.5371   21.5568 H   0  0  0  0  0  0
  -30.0547  -23.7712   22.0033 H   0  0  0  0  0  0
  -31.3549  -25.0066   20.1952 H   0  0  0  0  0  0
  -29.1037  -14.9558   21.7039 H   0  0  0  0  0  0
  -29.6984  -21.6650   19.8971 H   0  0  0  0  0  0
  -29.8463  -20.8650   23.8343 H   0  0  0  0  0  0
  -29.8738  -22.5198   23.3221 H   0  0  0  0  0  0
  1 25  1  0  0  0
  1 30  2  0  0  0
  1 85  1  0  0  0
  2  3  1  0  0  0
  2 25  1  0  0  0
  2 89  1  0  0  0
  2 90  1  0  0  0
  3  4  1  0  0  0
  3 91  1  0  0  0
  3 92  1  0  0  0
  4  5  1  0  0  0
  4 93  1  0  0  0
  4 94  1  0  0  0
  5  6  1  0  0  0
  5 26  1  0  0  0
  5 95  1  0  0  0
  6 25  1  0  0  0
  6 96  1  0  0  0
  6 97  1  0  0  0
  7  8  2  0  0  0
  7 26  1  0  0  0
  7 29  1  0  0  0
  8  9  1  0  0  0
  8 22  1  0  0  0
  9 10  1  0  0  0
  9 27  2  0  0  0
 10 11  2  0  0  0
 10 15  1  0  0  0
 11 12  1  0  0  0
 11 98  1  0  0  0
 12 13  2  0  0  0
 12 99  1  0  0  0
 13 14  1  0  0  0
 13 31  1  0  0  0
 14 15  2  0  0  0
 14100  1  0  0  0
 15101  1  0  0  0
 16 17  2  0  0  0
 16 21  1  0  0  0
 16 31  1  0  0  0
 17 18  1  0  0  0
 17102  1  0  0  0
 18 19  2  0  0  0
 18103  1  0  0  0
 19 20  1  0  0  0
 19 24  1  0  0  0
 20 21  2  0  0  0
 20104  1  0  0  0
 21 23  1  0  0  0
 22 28  1  0  0  0
 22 32  2  0  0  0
 26 27  1  0  0  0
 28105  1  0  0  0
 28106  1  0  0  0
 29107  1  0  0  0
 29108  1  0  0  0
 33 34  1  0  0  0
 33 66  1  0  0  0
 33 70  2  0  0  0
 34 36  1  0  0  0
 34 59  1  0  0  0
 34109  1  0  0  0
 35 44  2  0  0  0
 35 45  1  0  0  0
 35 68  1  0  0  0
 36 56  1  0  0  0
 36110  1  0  0  0
 37 39  1  0  0  0
 37 47  1  0  0  0
 37 66  1  0  0  0
 37111  1  0  0  0
 38 43  2  0  0  0
 38 46  1  0  0  0
 38 47  1  0  0  0
 39 64  1  0  0  0
 39 67  2  0  0  0
 40 52  1  0  0  0
 40 53  2  0  0  0
 40 58  1  0  0  0
 41112  1  0  0  0
 41113  1  0  0  0
 41114  1  0  0  0
 41 48  1  0  0  0
 42 43  1  0  0  0
 42 66  1  0  0  0
 42115  1  0  0  0
 42116  1  0  0  0
 43 44  1  0  0  0
 44117  1  0  0  0
 45 46  2  0  0  0
 45118  1  0  0  0
 46119  1  0  0  0
 47120  1  0  0  0
 47121  1  0  0  0
 48 56  1  0  0  0
 48 65  1  0  0  0
 48122  1  0  0  0
 49 50  1  0  0  0
 49 53  1  0  0  0
 49 64  1  0  0  0
 49123  1  0  0  0
 50 51  1  0  0  0
 50124  1  0  0  0
 50125  1  0  0  0
 51 52  1  0  0  0
 51126  1  0  0  0
 51127  1  0  0  0
 52128  1  0  0  0
 52129  1  0  0  0
 53 54  1  0  0  0
 54 55  2  0  0  0
 54130  1  0  0  0
 55 57  1  0  0  0
 55131  1  0  0  0
 56 69  2  0  0  0
 57 58  2  0  0  0
 57132  1  0  0  0
 58133  1  0  0  0
 59 60  1  0  0  0
 59 61  1  0  0  0
 59 62  1  0  0  0
 60134  1  0  0  0
 60135  1  0  0  0
 60136  1  0  0  0
 61137  1  0  0  0
 61138  1  0  0  0
 61139  1  0  0  0
 62140  1  0  0  0
 62141  1  0  0  0
 62142  1  0  0  0
 63 65  1  0  0  0
 63143  1  0  0  0
 63144  1  0  0  0
 63145  1  0  0  0
 64146  1  0  0  0
 65147  1  0  0  0
 68 82  1  0  0  0
 71 72  2  0  0  0
 71 74  1  0  0  0
 71148  1  0  0  0
 72 76  1  0  0  0
 72149  1  0  0  0
 73 75  1  0  0  0
 73 76  2  0  0  0
 73150  1  0  0  0
 74 75  2  0  0  0
 74 77  1  0  0  0
 75 79  1  0  0  0
 76 85  1  0  0  0
 77 86  1  0  0  0
 77 87  2  0  0  0
 78 82  1  0  0  0
 78 83  1  0  0  0
 78 88  2  0  0  0
 79151  1  0  0  0
 79152  1  0  0  0
 79153  1  0  0  0
 80154  1  0  0  0
 80155  1  0  0  0
 80156  1  0  0  0
 80 84  1  0  0  0
 81 84  1  0  0  0
 81157  1  0  0  0
 81158  1  0  0  0
 81159  1  0  0  0
 82160  1  0  0  0
 82161  1  0  0  0
 83 84  1  0  0  0
 83 86  1  0  0  0
 83162  1  0  0  0
 84163  1  0  0  0
 85164  1  0  0  0
 86165  1  0  0  0
 87166  1  0  0  0
 87167  1  0  0  0
M  CHG  1  87   1
M  ISO  4   1 100  68 101  82 101  85 100
M  END
> <chiral flag>
0

> <version>
0

> <s_m_source_file>
/data/baiqing/PycharmProjects/Reinvent-master-3.2/result/LINK_invent/BTK/process_docking_weight1_custom_product_contain_oxygen_bond_distance_aromatic_linkinvent_7_9_3/rearranged_h_0066.sdf

> <i_m_source_file_index>
7

> <r_mmod_Potential_Energy-OPLS-2005>
-216.450454711914

> <r_mmod_Stretch_Energy-OPLS-2005>
40.9129676818848

> <r_mmod_Bend_Energy-OPLS-2005>
107.074157714844

> <r_mmod_Torsional_Energy-OPLS-2005>
263.537933349609

> <r_mmod_Improper_Torsional_Energy-OPLS-2005>
3.7306604385376

> <r_mmod_Van_der_Waal_Energy-OPLS-2005>
148.483367919922

> <r_mmod_Electrostatic_Energy-OPLS-2005>
-368.801818847656

> <r_mmod_Solvation_Energy-OPLS-2005>
-423.225158691406

> <b_mmod_Minimization_Converged-OPLS-2005>
0

> <r_mmod_RMS_Derivative-OPLS-2005>
2.30765676498413

$$$$
7
                    3D
 Structure written by MMmdl.
158166  0  0  1  0            999 V2000
  -30.7102  -14.5778   20.6072 C   0  0  0  0  0  0
  -30.4217  -12.3933   19.4441 C   0  0  0  0  0  0
  -29.4939  -12.5275   18.2204 C   0  0  0  0  0  0
  -28.0217  -12.3584   18.6370 C   0  0  0  0  0  0
  -27.6539  -13.2190   19.8744 C   0  0  2  0  0  0
  -28.7008  -13.0564   21.0022 C   0  0  0  0  0  0
  -25.2434  -13.8018   20.5452 C   0  0  0  0  0  0
  -24.1770  -13.0332   20.9164 C   0  0  0  0  0  0
  -24.6404  -11.6836   20.8794 C   0  0  0  0  0  0
  -23.9078  -10.4236   21.0442 C   0  0  0  0  0  0
  -24.3621   -9.4150   21.9213 C   0  0  0  0  0  0
  -23.6279   -8.2203   22.0773 C   0  0  0  0  0  0
  -22.4264   -8.0264   21.3554 C   0  0  0  0  0  0
  -21.9907   -9.0242   20.4656 C   0  0  0  0  0  0
  -22.7255  -10.2107   20.3072 C   0  0  0  0  0  0
  -21.6841   -6.0724   22.5280 C   0  0  0  0  0  0
  -21.4004   -6.5632   23.8212 C   0  0  0  0  0  0
  -21.3655   -5.6789   24.9177 C   0  0  0  0  0  0
  -21.6042   -4.3052   24.7231 C   0  0  0  0  0  0
  -21.8818   -3.8141   23.4354 C   0  0  0  0  0  0
  -21.9189   -4.6953   22.3409 C   0  0  0  0  0  0
  -22.7801  -13.5150   21.1842 C   0  0  0  0  0  0
  -22.1663   -4.2138   21.0989 F   0  0  0  0  0  0
  -21.5629   -3.4541   25.7748 F   0  0  0  0  0  0
  -30.0164  -13.4033   20.4470 N   0  0  0  0  0  0
  -26.2983  -12.9300   20.3362 N   0  0  0  0  0  0
  -25.9360  -11.6459   20.5881 N   0  0  0  0  0  0
  -22.0458  -12.8175   22.0439 N   0  0  0  0  0  0
  -25.3916  -15.1632   20.3384 N   0  0  0  0  0  0
  -31.7918  -14.7461   20.0331 O   0  0  0  0  0  0
  -21.6628   -6.8865   21.4241 O   0  0  0  0  0  0
  -22.3481  -14.5463   20.6696 O   0  0  0  0  0  0
  -24.6201  -31.8628   23.2049 C   0  0  0  0  0  0
  -25.9066  -32.4800   23.8368 C   0  0  1  0  0  0
  -27.2427  -27.3778   20.1184 C   0  0  0  0  0  0
  -25.5898  -33.8599   24.2298 N   0  0  0  0  0  0
  -23.4131  -30.4826   21.5458 C   0  0  2  0  0  0
  -24.8642  -28.9350   20.1197 C   0  0  0  0  0  0
  -22.7441  -29.4634   22.4967 C   0  0  0  0  0  0
  -18.0286  -28.1369   22.8486 C   0  0  0  0  0  0
  -24.1484  -36.7308   23.2642 C   0  0  0  0  0  0
  -25.9466  -30.8117   21.3660 C   0  0  0  0  0  0
  -26.0266  -29.4392   20.7179 C   0  0  0  0  0  0
  -27.2215  -28.6708   20.7083 C   0  0  0  0  0  0
  -26.0624  -26.8980   19.5154 C   0  0  0  0  0  0
  -24.8797  -27.6658   19.5134 C   0  0  0  0  0  0
  -23.6269  -29.8075   20.1639 C   0  0  0  0  0  0
  -25.4110  -36.3102   24.0334 C   0  0  1  0  0  0
  -20.5877  -28.3676   23.1309 C   0  0  2  0  0  0
  -20.6774  -26.9397   22.5442 C   0  0  0  0  0  0
  -19.5780  -26.6376   21.5213 C   0  0  0  0  0  0
  -18.1939  -26.7924   22.1593 C   0  0  0  0  0  0
  -19.1531  -28.8838   23.2896 C   0  0  0  0  0  0
  -18.9453  -30.1443   23.8908 C   0  0  0  0  0  0
  -17.6454  -30.6577   24.0566 C   0  0  0  0  0  0
  -25.9041  -34.9468   23.5121 C   0  0  0  0  0  0
  -16.5353  -29.9075   23.6323 C   0  0  0  0  0  0
  -16.7275  -28.6490   23.0341 C   0  0  0  0  0  0
  -26.4477  -31.6594   25.0718 C   0  0  0  0  0  0
  -25.3727  -31.3715   26.1458 C   0  0  0  0  0  0
  -27.0318  -30.3030   24.6132 C   0  0  0  0  0  0
  -27.6046  -32.4322   25.7484 C   0  0  0  0  0  0
  -27.5577  -37.1811   24.8467 C   0  0  0  0  0  0
  -21.4161  -29.3031   22.3695 N   0  0  0  0  0  0
  -26.4297  -37.3785   23.9401 N   0  0  0  0  0  0
  -24.6783  -31.0677   22.0976 N   0  0  0  0  0  0
  -23.4181  -28.8183   23.3041 O   0  0  0  0  0  0
  -28.3883  -26.5944   20.0737 O   0  0  0  0  0  0
  -26.5608  -34.8931   22.4686 O   0  0  0  0  0  0
  -23.5372  -32.1403   23.7402 O   0  0  0  0  0  0
  -27.6940  -18.9493   21.1009 C   0  0  0  0  0  0
  -28.0668  -16.5664   21.4367 C   0  0  0  0  0  0
  -29.9583  -18.0362   20.9558 C   0  0  0  0  0  0
  -29.0700  -19.1767   20.8866 C   0  0  0  0  0  0
  -29.4525  -16.6998   21.2097 C   0  0  0  0  0  0
  -27.2027  -17.6740   21.3926 C   0  0  0  0  0  0
  -29.0861  -22.9449   20.7249 C   0  0  0  0  0  0
  -28.3441  -24.0433   20.3784 C   0  0  0  0  0  0
  -28.7990  -21.5958   20.1957 C   0  0  0  0  0  0
  -31.4533  -18.2626   20.7959 C   0  0  0  0  0  0
  -31.1090  -15.6447   22.6993 C   0  0  0  0  0  0
  -28.4552  -25.4639   20.9880 C   0  0  0  0  0  0
  -29.4987  -20.5674   20.7659 N   0  0  0  0  0  0
  -30.2676  -15.5203   21.5059 N   0  0  0  0  0  0
  -27.9801  -21.3888   19.2957 O   0  0  0  0  0  0
  -25.8886  -17.5324   21.6840 F   0  0  0  0  0  0
  -31.4633  -12.5001   19.1377 H   0  0  0  0  0  0
  -30.3473  -11.3926   19.8725 H   0  0  0  0  0  0
  -29.7572  -11.7866   17.4636 H   0  0  0  0  0  0
  -29.6342  -13.5049   17.7550 H   0  0  0  0  0  0
  -27.8590  -11.3028   18.8597 H   0  0  0  0  0  0
  -27.3627  -12.5974   17.8015 H   0  0  0  0  0  0
  -27.6778  -14.2589   19.5474 H   0  0  0  0  0  0
  -28.4558  -13.6569   21.8755 H   0  0  0  0  0  0
  -28.7122  -12.0261   21.3607 H   0  0  0  0  0  0
  -25.2761   -9.5616   22.4792 H   0  0  0  0  0  0
  -23.9978   -7.4583   22.7481 H   0  0  0  0  0  0
  -21.0844   -8.8764   19.8952 H   0  0  0  0  0  0
  -22.3726  -10.9656   19.6186 H   0  0  0  0  0  0
  -21.1988   -7.6139   23.9711 H   0  0  0  0  0  0
  -21.1483   -6.0524   25.9080 H   0  0  0  0  0  0
  -22.0601   -2.7603   23.2863 H   0  0  0  0  0  0
  -22.4070  -11.9849   22.4857 H   0  0  0  0  0  0
  -21.1088  -13.1227   22.2661 H   0  0  0  0  0  0
  -24.6466  -15.8261   20.5200 H   0  0  0  0  0  0
  -26.2410  -15.6117   20.0269 H   0  0  0  0  0  0
  -26.7142  -32.5497   23.1129 H   0  0  0  0  0  0
  -25.0036  -33.9755   25.0434 H   0  0  0  0  0  0
  -22.7054  -31.3019   21.3993 H   0  0  0  0  0  0
  -23.3741  -35.9645   23.3318 H   0  0  0  0  0  0
  -24.3580  -36.8913   22.2056 H   0  0  0  0  0  0
  -23.7248  -37.6521   23.6648 H   0  0  0  0  0  0
  -26.0636  -31.5731   20.5936 H   0  0  0  0  0  0
  -26.8324  -30.8689   21.9879 H   0  0  0  0  0  0
  -28.1214  -29.0620   21.1630 H   0  0  0  0  0  0
  -26.0606  -25.9254   19.0446 H   0  0  0  0  0  0
  -23.9877  -27.2713   19.0461 H   0  0  0  0  0  0
  -23.7391  -30.5787   19.4012 H   0  0  0  0  0  0
  -22.7496  -29.2278   19.8693 H   0  0  0  0  0  0
  -25.1291  -36.1962   25.0828 H   0  0  0  0  0  0
  -20.9975  -28.3267   24.1427 H   0  0  0  0  0  0
  -20.5644  -26.2278   23.3637 H   0  0  0  0  0  0
  -21.6662  -26.7428   22.1270 H   0  0  0  0  0  0
  -19.6960  -25.6294   21.1236 H   0  0  0  0  0  0
  -19.6759  -27.3195   20.6755 H   0  0  0  0  0  0
  -17.4216  -26.6696   21.3978 H   0  0  0  0  0  0
  -18.0325  -26.0048   22.8977 H   0  0  0  0  0  0
  -19.7918  -30.7265   24.2291 H   0  0  0  0  0  0
  -17.5008  -31.6261   24.5166 H   0  0  0  0  0  0
  -15.5351  -30.2981   23.7644 H   0  0  0  0  0  0
  -15.8679  -28.0812   22.7044 H   0  0  0  0  0  0
  -24.5889  -30.7083   25.7783 H   0  0  0  0  0  0
  -24.8934  -32.2877   26.4916 H   0  0  0  0  0  0
  -25.8068  -30.8864   27.0212 H   0  0  0  0  0  0
  -26.2883  -29.6786   24.1171 H   0  0  0  0  0  0
  -27.4055  -29.7278   25.4614 H   0  0  0  0  0  0
  -27.8723  -30.4341   23.9317 H   0  0  0  0  0  0
  -27.2661  -33.3610   26.2090 H   0  0  0  0  0  0
  -28.3837  -32.6913   25.0302 H   0  0  0  0  0  0
  -28.0732  -31.8434   26.5379 H   0  0  0  0  0  0
  -28.2612  -38.0091   24.7494 H   0  0  0  0  0  0
  -28.1058  -36.2627   24.6314 H   0  0  0  0  0  0
  -27.2296  -37.1484   25.8872 H   0  0  0  0  0  0
  -20.9333  -29.8727   21.6885 H   0  0  0  0  0  0
  -26.0184  -38.2865   24.1384 H   0  0  0  0  0  0
  -26.9881  -19.7669   21.1092 H   0  0  0  0  0  0
  -27.6485  -15.6183   21.7271 H   0  0  0  0  0  0
  -29.8837  -23.0655   21.4439 H   0  0  0  0  0  0
  -27.5530  -23.9300   19.6507 H   0  0  0  0  0  0
  -31.6655  -19.1344   20.1780 H   0  0  0  0  0  0
  -31.9347  -17.4119   20.3162 H   0  0  0  0  0  0
  -31.9177  -18.4155   21.7703 H   0  0  0  0  0  0
  -30.7239  -16.4014   23.3837 H   0  0  0  0  0  0
  -32.1330  -15.9203   22.4403 H   0  0  0  0  0  0
  -31.1428  -14.7010   23.2461 H   0  0  0  0  0  0
  -27.6720  -25.5539   21.7435 H   0  0  0  0  0  0
  -29.3987  -25.5325   21.5308 H   0  0  0  0  0  0
  -30.3086  -20.8297   21.3103 H   0  0  0  0  0  0
  1 25  1  0  0  0
  1 30  2  0  0  0
  1 84  1  0  0  0
  2  3  1  0  0  0
  2 25  1  0  0  0
  2 87  1  0  0  0
  2 88  1  0  0  0
  3  4  1  0  0  0
  3 89  1  0  0  0
  3 90  1  0  0  0
  4  5  1  0  0  0
  4 91  1  0  0  0
  4 92  1  0  0  0
  5  6  1  0  0  0
  5 26  1  0  0  0
  5 93  1  0  0  0
  6 25  1  0  0  0
  6 94  1  0  0  0
  6 95  1  0  0  0
  7  8  2  0  0  0
  7 26  1  0  0  0
  7 29  1  0  0  0
  8  9  1  0  0  0
  8 22  1  0  0  0
  9 10  1  0  0  0
  9 27  2  0  0  0
 10 11  2  0  0  0
 10 15  1  0  0  0
 11 12  1  0  0  0
 11 96  1  0  0  0
 12 13  2  0  0  0
 12 97  1  0  0  0
 13 14  1  0  0  0
 13 31  1  0  0  0
 14 15  2  0  0  0
 14 98  1  0  0  0
 15 99  1  0  0  0
 16 17  2  0  0  0
 16 21  1  0  0  0
 16 31  1  0  0  0
 17 18  1  0  0  0
 17100  1  0  0  0
 18 19  2  0  0  0
 18101  1  0  0  0
 19 20  1  0  0  0
 19 24  1  0  0  0
 20 21  2  0  0  0
 20102  1  0  0  0
 21 23  1  0  0  0
 22 28  1  0  0  0
 22 32  2  0  0  0
 26 27  1  0  0  0
 28103  1  0  0  0
 28104  1  0  0  0
 29105  1  0  0  0
 29106  1  0  0  0
 33 34  1  0  0  0
 33 66  1  0  0  0
 33 70  2  0  0  0
 34 36  1  0  0  0
 34 59  1  0  0  0
 34107  1  0  0  0
 35 44  2  0  0  0
 35 45  1  0  0  0
 35 68  1  0  0  0
 36 56  1  0  0  0
 36108  1  0  0  0
 37 39  1  0  0  0
 37 47  1  0  0  0
 37 66  1  0  0  0
 37109  1  0  0  0
 38 43  2  0  0  0
 38 46  1  0  0  0
 38 47  1  0  0  0
 39 64  1  0  0  0
 39 67  2  0  0  0
 40 52  1  0  0  0
 40 53  2  0  0  0
 40 58  1  0  0  0
 41110  1  0  0  0
 41111  1  0  0  0
 41112  1  0  0  0
 41 48  1  0  0  0
 42 43  1  0  0  0
 42 66  1  0  0  0
 42113  1  0  0  0
 42114  1  0  0  0
 43 44  1  0  0  0
 44115  1  0  0  0
 45 46  2  0  0  0
 45116  1  0  0  0
 46117  1  0  0  0
 47118  1  0  0  0
 47119  1  0  0  0
 48 56  1  0  0  0
 48 65  1  0  0  0
 48120  1  0  0  0
 49 50  1  0  0  0
 49 53  1  0  0  0
 49 64  1  0  0  0
 49121  1  0  0  0
 50 51  1  0  0  0
 50122  1  0  0  0
 50123  1  0  0  0
 51 52  1  0  0  0
 51124  1  0  0  0
 51125  1  0  0  0
 52126  1  0  0  0
 52127  1  0  0  0
 53 54  1  0  0  0
 54 55  2  0  0  0
 54128  1  0  0  0
 55 57  1  0  0  0
 55129  1  0  0  0
 56 69  2  0  0  0
 57 58  2  0  0  0
 57130  1  0  0  0
 58131  1  0  0  0
 59 60  1  0  0  0
 59 61  1  0  0  0
 59 62  1  0  0  0
 60132  1  0  0  0
 60133  1  0  0  0
 60134  1  0  0  0
 61135  1  0  0  0
 61136  1  0  0  0
 61137  1  0  0  0
 62138  1  0  0  0
 62139  1  0  0  0
 62140  1  0  0  0
 63 65  1  0  0  0
 63141  1  0  0  0
 63142  1  0  0  0
 63143  1  0  0  0
 64144  1  0  0  0
 65145  1  0  0  0
 68 82  1  0  0  0
 71 74  2  0  0  0
 71 76  1  0  0  0
 71146  1  0  0  0
 72 75  1  0  0  0
 72 76  2  0  0  0
 72147  1  0  0  0
 73 74  1  0  0  0
 73 75  2  0  0  0
 73 80  1  0  0  0
 74 83  1  0  0  0
 75 84  1  0  0  0
 76 86  1  0  0  0
 77 78  2  0  0  0
 77 79  1  0  0  0
 77148  1  0  0  0
 78 82  1  0  0  0
 78149  1  0  0  0
 79 83  1  0  0  0
 79 85  2  0  0  0
 80150  1  0  0  0
 80151  1  0  0  0
 80152  1  0  0  0
 81 84  1  0  0  0
 81153  1  0  0  0
 81154  1  0  0  0
 81155  1  0  0  0
 82156  1  0  0  0
 82157  1  0  0  0
 83158  1  0  0  0
M  ISO  4   1 100  68 101  82 101  84 100
M  END
> <chiral flag>
0

> <version>
0

> <s_m_source_file>
/data/baiqing/PycharmProjects/Reinvent-master-3.2/result/LINK_invent/BTK/process_docking_weight1_custom_product_contain_oxygen_bond_distance_aromatic_linkinvent_7_9_3/rearranged_h_0066.sdf

> <i_m_source_file_index>
8

> <r_mmod_Potential_Energy-OPLS-2005>
164.646850585938

> <r_mmod_Stretch_Energy-OPLS-2005>
69.3355255126953

> <r_mmod_Bend_Energy-OPLS-2005>
125.136642456055

> <r_mmod_Torsional_Energy-OPLS-2005>
351.466674804688

> <r_mmod_Improper_Torsional_Energy-OPLS-2005>
7.62486791610718

> <r_mmod_Van_der_Waal_Energy-OPLS-2005>
146.232055664062

> <r_mmod_Electrostatic_Energy-OPLS-2005>
-357.594421386719

> <r_mmod_Solvation_Energy-OPLS-2005>
-204.725646972656

> <b_mmod_Minimization_Converged-OPLS-2005>
0

> <r_mmod_RMS_Derivative-OPLS-2005>
1.17791998386383

$$$$
8
                    3D
 Structure written by MMmdl.
161170  0  0  1  0            999 V2000
  -30.6190  -14.7768   20.4544 C   0  0  0  0  0  0
  -30.4200  -12.4766   19.4874 C   0  0  0  0  0  0
  -29.5027  -12.5078   18.2454 C   0  0  0  0  0  0
  -28.0333  -12.3235   18.6627 C   0  0  0  0  0  0
  -27.6334  -13.2369   19.8505 C   0  0  2  0  0  0
  -28.6756  -13.2064   20.9891 C   0  0  0  0  0  0
  -25.2462  -13.8219   20.5715 C   0  0  0  0  0  0
  -24.1760  -13.0452   20.9219 C   0  0  0  0  0  0
  -24.6370  -11.6938   20.8776 C   0  0  0  0  0  0
  -23.9059  -10.4311   21.0426 C   0  0  0  0  0  0
  -24.3607   -9.4224   21.9202 C   0  0  0  0  0  0
  -23.6291   -8.2251   22.0768 C   0  0  0  0  0  0
  -22.4278   -8.0282   21.3549 C   0  0  0  0  0  0
  -21.9910   -9.0258   20.4648 C   0  0  0  0  0  0
  -22.7234  -10.2146   20.3068 C   0  0  0  0  0  0
  -21.6851   -6.0731   22.5276 C   0  0  0  0  0  0
  -21.4007   -6.5639   23.8209 C   0  0  0  0  0  0
  -21.3654   -5.6797   24.9173 C   0  0  0  0  0  0
  -21.6046   -4.3057   24.7227 C   0  0  0  0  0  0
  -21.8818   -3.8149   23.4345 C   0  0  0  0  0  0
  -21.9197   -4.6962   22.3399 C   0  0  0  0  0  0
  -22.7786  -13.5235   21.1879 C   0  0  0  0  0  0
  -22.1666   -4.2151   21.0972 F   0  0  0  0  0  0
  -21.5630   -3.4539   25.7738 F   0  0  0  0  0  0
  -29.9727  -13.5577   20.4013 N   0  0  0  0  0  0
  -26.2881  -12.9433   20.3299 N   0  0  0  0  0  0
  -25.9295  -11.6578   20.5768 N   0  0  0  0  0  0
  -22.0438  -12.8218   22.0439 N   0  0  0  0  0  0
  -25.4154  -15.1933   20.4109 N   0  0  0  0  0  0
  -31.8098  -14.8057   20.1401 O   0  0  0  0  0  0
  -21.6643   -6.8872   21.4238 O   0  0  0  0  0  0
  -22.3475  -14.5549   20.6743 O   0  0  0  0  0  0
  -24.6266  -31.8572   23.1933 C   0  0  0  0  0  0
  -25.9098  -32.4760   23.8292 C   0  0  1  0  0  0
  -27.2176  -27.2604   20.1208 C   0  0  0  0  0  0
  -25.5892  -33.8565   24.2205 N   0  0  0  0  0  0
  -23.4226  -30.4763   21.5392 C   0  0  2  0  0  0
  -24.8705  -28.9166   20.1077 C   0  0  0  0  0  0
  -22.7474  -29.4600   22.4902 C   0  0  0  0  0  0
  -18.0294  -28.1342   22.8512 C   0  0  0  0  0  0
  -24.1493  -36.7302   23.2642 C   0  0  0  0  0  0
  -25.9666  -30.7697   21.3701 C   0  0  0  0  0  0
  -26.0407  -29.3890   20.7150 C   0  0  0  0  0  0
  -27.2143  -28.5705   20.7119 C   0  0  0  0  0  0
  -26.0234  -26.8439   19.4998 C   0  0  0  0  0  0
  -24.8665  -27.6510   19.4937 C   0  0  0  0  0  0
  -23.6376  -29.8026   20.1579 C   0  0  0  0  0  0
  -25.4119  -36.3077   24.0313 C   0  0  1  0  0  0
  -20.5903  -28.3682   23.1262 C   0  0  2  0  0  0
  -20.6775  -26.9394   22.5421 C   0  0  0  0  0  0
  -19.5737  -26.6348   21.5240 C   0  0  0  0  0  0
  -18.1919  -26.7888   22.1650 C   0  0  0  0  0  0
  -19.1553  -28.8826   23.2881 C   0  0  0  0  0  0
  -18.9486  -30.1430   23.8892 C   0  0  0  0  0  0
  -17.6489  -30.6562   24.0563 C   0  0  0  0  0  0
  -25.9066  -34.9448   23.5067 C   0  0  0  0  0  0
  -16.5375  -29.9058   23.6340 C   0  0  0  0  0  0
  -16.7288  -28.6468   23.0375 C   0  0  0  0  0  0
  -26.4431  -31.6595   25.0696 C   0  0  0  0  0  0
  -25.3598  -31.3817   26.1385 C   0  0  0  0  0  0
  -27.0278  -30.2996   24.6195 C   0  0  0  0  0  0
  -27.5947  -32.4372   25.7505 C   0  0  0  0  0  0
  -27.5575  -37.1793   24.8452 C   0  0  0  0  0  0
  -21.4189  -29.3035   22.3648 N   0  0  0  0  0  0
  -26.4291  -37.3784   23.9397 N   0  0  0  0  0  0
  -24.6913  -31.0519   22.0909 N   0  0  0  0  0  0
  -23.4199  -28.8131   23.2973 O   0  0  0  0  0  0
  -28.3277  -26.3949   20.2099 O   0  0  0  0  0  0
  -26.5687  -34.8920   22.4674 O   0  0  0  0  0  0
  -23.5431  -32.1409   23.7237 O   0  0  0  0  0  0
  -29.3558  -18.5662   20.5653 C   0  0  0  0  0  0
  -31.6347  -17.7557   20.4572 C   0  0  0  0  0  0
  -31.1927  -20.1789   20.3721 C   0  0  0  0  0  0
  -29.7835  -19.9719   20.4633 C   0  0  0  0  0  0
  -30.2664  -17.4118   20.5513 C   0  0  0  0  0  0
  -32.0809  -19.0827   20.3608 C   0  0  0  0  0  0
  -28.5491  -21.7651   21.7031 C   0  0  0  0  0  0
  -28.7709  -22.2852   19.4963 C   0  0  0  0  0  0
  -28.2606  -23.2927   21.6084 C   0  0  1  0  0  0
  -28.0678  -23.5870   20.1146 C   0  0  1  0  0  0
  -31.8281  -21.5672   20.3443 C   0  0  0  0  0  0
  -27.0652  -23.7506   22.4708 C   0  0  0  0  0  0
  -28.4627  -25.0601   19.5332 C   0  0  0  0  0  0
  -28.9026  -21.1897   20.5306 N   0  0  0  0  0  0
  -29.8785  -15.9561   20.6453 N   0  0  0  0  0  0
  -28.4430  -21.1582   22.7740 O   0  0  0  0  0  0
  -33.4150  -19.3031   20.2707 F   0  0  0  0  0  0
  -31.4621  -12.5897   19.1823 H   0  0  0  0  0  0
  -30.3613  -11.5103   19.9909 H   0  0  0  0  0  0
  -29.7932  -11.7271   17.5405 H   0  0  0  0  0  0
  -29.6169  -13.4560   17.7197 H   0  0  0  0  0  0
  -27.9031  -11.2774   18.9420 H   0  0  0  0  0  0
  -27.3721  -12.4945   17.8128 H   0  0  0  0  0  0
  -27.6183  -14.2508   19.4514 H   0  0  0  0  0  0
  -28.7147  -12.2219   21.4578 H   0  0  0  0  0  0
  -28.4027  -13.9097   21.7780 H   0  0  0  0  0  0
  -25.2742   -9.5702   22.4789 H   0  0  0  0  0  0
  -24.0002   -7.4641   22.7493 H   0  0  0  0  0  0
  -21.0844   -8.8777   19.8941 H   0  0  0  0  0  0
  -22.3694  -10.9690   19.6182 H   0  0  0  0  0  0
  -21.1992   -7.6149   23.9707 H   0  0  0  0  0  0
  -21.1475   -6.0527   25.9076 H   0  0  0  0  0  0
  -22.0600   -2.7612   23.2848 H   0  0  0  0  0  0
  -22.4066  -11.9875   22.4800 H   0  0  0  0  0  0
  -21.1066  -13.1259   22.2682 H   0  0  0  0  0  0
  -24.6446  -15.8452   20.5074 H   0  0  0  0  0  0
  -26.2567  -15.6314   20.0585 H   0  0  0  0  0  0
  -26.7164  -32.5388   23.1049 H   0  0  0  0  0  0
  -24.9930  -33.9721   25.0261 H   0  0  0  0  0  0
  -22.7147  -31.2951   21.3933 H   0  0  0  0  0  0
  -23.3761  -35.9631   23.3287 H   0  0  0  0  0  0
  -24.3584  -36.8965   22.2060 H   0  0  0  0  0  0
  -23.7234  -37.6477   23.6712 H   0  0  0  0  0  0
  -26.0925  -31.5277   20.5960 H   0  0  0  0  0  0
  -26.8488  -30.8292   21.9961 H   0  0  0  0  0  0
  -28.1097  -28.9278   21.2027 H   0  0  0  0  0  0
  -25.9544  -25.8621   19.0546 H   0  0  0  0  0  0
  -23.9653  -27.2764   19.0281 H   0  0  0  0  0  0
  -23.7392  -30.5772   19.3967 H   0  0  0  0  0  0
  -22.7575  -29.2261   19.8672 H   0  0  0  0  0  0
  -25.1298  -36.1941   25.0806 H   0  0  0  0  0  0
  -21.0022  -28.3311   24.1374 H   0  0  0  0  0  0
  -20.5729  -26.2302   23.3645 H   0  0  0  0  0  0
  -21.6622  -26.7424   22.1172 H   0  0  0  0  0  0
  -19.6910  -25.6265   21.1245 H   0  0  0  0  0  0
  -19.6641  -27.3171   20.6775 H   0  0  0  0  0  0
  -17.4194  -26.6683   21.4036 H   0  0  0  0  0  0
  -18.0274  -26.0006   22.9019 H   0  0  0  0  0  0
  -19.7981  -30.7225   24.2250 H   0  0  0  0  0  0
  -17.5062  -31.6250   24.5147 H   0  0  0  0  0  0
  -15.5375  -30.2954   23.7652 H   0  0  0  0  0  0
  -15.8695  -28.0776   22.7090 H   0  0  0  0  0  0
  -24.5827  -30.7104   25.7725 H   0  0  0  0  0  0
  -24.8711  -32.3015   26.4610 H   0  0  0  0  0  0
  -25.7836  -30.9154   27.0287 H   0  0  0  0  0  0
  -26.2883  -29.6760   24.1159 H   0  0  0  0  0  0
  -27.3879  -29.7244   25.4729 H   0  0  0  0  0  0
  -27.8780  -30.4244   23.9488 H   0  0  0  0  0  0
  -27.2515  -33.3723   26.1966 H   0  0  0  0  0  0
  -28.3820  -32.6867   25.0376 H   0  0  0  0  0  0
  -28.0528  -31.8573   26.5531 H   0  0  0  0  0  0
  -28.2549  -38.0127   24.7540 H   0  0  0  0  0  0
  -28.1103  -36.2647   24.6240 H   0  0  0  0  0  0
  -27.2287  -37.1393   25.8852 H   0  0  0  0  0  0
  -20.9373  -29.8767   21.6859 H   0  0  0  0  0  0
  -26.0167  -38.2857   24.1435 H   0  0  0  0  0  0
  -28.2974  -18.3727   20.6651 H   0  0  0  0  0  0
  -32.4139  -17.0129   20.4706 H   0  0  0  0  0  0
  -29.7417  -22.5466   19.0876 H   0  0  0  0  0  0
  -28.1861  -21.9094   18.6550 H   0  0  0  0  0  0
  -29.1618  -23.8028   21.9501 H   0  0  0  0  0  0
  -27.0005  -23.4721   19.9190 H   0  0  0  0  0  0
  -31.8906  -21.9434   19.3240 H   0  0  0  0  0  0
  -32.8453  -21.5460   20.7361 H   0  0  0  0  0  0
  -31.2962  -22.2906   20.9591 H   0  0  0  0  0  0
  -26.1252  -23.3297   22.1123 H   0  0  0  0  0  0
  -26.9641  -24.8369   22.4548 H   0  0  0  0  0  0
  -27.1786  -23.4507   23.5119 H   0  0  0  0  0  0
  -28.0495  -25.1509   18.5268 H   0  0  0  0  0  0
  -29.5357  -25.0057   19.3503 H   0  0  0  0  0  0
  -28.9016  -15.7866   20.8288 H   0  0  0  0  0  0
  1 25  1  0  0  0
  1 30  2  0  0  0
  1 85  1  0  0  0
  2  3  1  0  0  0
  2 25  1  0  0  0
  2 88  1  0  0  0
  2 89  1  0  0  0
  3  4  1  0  0  0
  3 90  1  0  0  0
  3 91  1  0  0  0
  4  5  1  0  0  0
  4 92  1  0  0  0
  4 93  1  0  0  0
  5  6  1  0  0  0
  5 26  1  0  0  0
  5 94  1  0  0  0
  6 25  1  0  0  0
  6 95  1  0  0  0
  6 96  1  0  0  0
  7  8  2  0  0  0
  7 26  1  0  0  0
  7 29  1  0  0  0
  8  9  1  0  0  0
  8 22  1  0  0  0
  9 10  1  0  0  0
  9 27  2  0  0  0
 10 11  2  0  0  0
 10 15  1  0  0  0
 11 12  1  0  0  0
 11 97  1  0  0  0
 12 13  2  0  0  0
 12 98  1  0  0  0
 13 14  1  0  0  0
 13 31  1  0  0  0
 14 15  2  0  0  0
 14 99  1  0  0  0
 15100  1  0  0  0
 16 17  2  0  0  0
 16 21  1  0  0  0
 16 31  1  0  0  0
 17 18  1  0  0  0
 17101  1  0  0  0
 18 19  2  0  0  0
 18102  1  0  0  0
 19 20  1  0  0  0
 19 24  1  0  0  0
 20 21  2  0  0  0
 20103  1  0  0  0
 21 23  1  0  0  0
 22 28  1  0  0  0
 22 32  2  0  0  0
 26 27  1  0  0  0
 28104  1  0  0  0
 28105  1  0  0  0
 29106  1  0  0  0
 29107  1  0  0  0
 33 34  1  0  0  0
 33 66  1  0  0  0
 33 70  2  0  0  0
 34 36  1  0  0  0
 34 59  1  0  0  0
 34108  1  0  0  0
 35 44  2  0  0  0
 35 45  1  0  0  0
 35 68  1  0  0  0
 36 56  1  0  0  0
 36109  1  0  0  0
 37 39  1  0  0  0
 37 47  1  0  0  0
 37 66  1  0  0  0
 37110  1  0  0  0
 38 43  2  0  0  0
 38 46  1  0  0  0
 38 47  1  0  0  0
 39 64  1  0  0  0
 39 67  2  0  0  0
 40 52  1  0  0  0
 40 53  2  0  0  0
 40 58  1  0  0  0
 41111  1  0  0  0
 41112  1  0  0  0
 41113  1  0  0  0
 41 48  1  0  0  0
 42 43  1  0  0  0
 42 66  1  0  0  0
 42114  1  0  0  0
 42115  1  0  0  0
 43 44  1  0  0  0
 44116  1  0  0  0
 45 46  2  0  0  0
 45117  1  0  0  0
 46118  1  0  0  0
 47119  1  0  0  0
 47120  1  0  0  0
 48 56  1  0  0  0
 48 65  1  0  0  0
 48121  1  0  0  0
 49 50  1  0  0  0
 49 53  1  0  0  0
 49 64  1  0  0  0
 49122  1  0  0  0
 50 51  1  0  0  0
 50123  1  0  0  0
 50124  1  0  0  0
 51 52  1  0  0  0
 51125  1  0  0  0
 51126  1  0  0  0
 52127  1  0  0  0
 52128  1  0  0  0
 53 54  1  0  0  0
 54 55  2  0  0  0
 54129  1  0  0  0
 55 57  1  0  0  0
 55130  1  0  0  0
 56 69  2  0  0  0
 57 58  2  0  0  0
 57131  1  0  0  0
 58132  1  0  0  0
 59 60  1  0  0  0
 59 61  1  0  0  0
 59 62  1  0  0  0
 60133  1  0  0  0
 60134  1  0  0  0
 60135  1  0  0  0
 61136  1  0  0  0
 61137  1  0  0  0
 61138  1  0  0  0
 62139  1  0  0  0
 62140  1  0  0  0
 62141  1  0  0  0
 63 65  1  0  0  0
 63142  1  0  0  0
 63143  1  0  0  0
 63144  1  0  0  0
 64145  1  0  0  0
 65146  1  0  0  0
 68 83  1  0  0  0
 71 74  2  0  0  0
 71 75  1  0  0  0
 71147  1  0  0  0
 72 75  2  0  0  0
 72 76  1  0  0  0
 72148  1  0  0  0
 73 74  1  0  0  0
 73 76  2  0  0  0
 73 81  1  0  0  0
 74 84  1  0  0  0
 75 85  1  0  0  0
 76 87  1  0  0  0
 77 79  1  0  0  0
 77 84  1  0  0  0
 77 86  2  0  0  0
 78 80  1  0  0  0
 78 84  1  0  0  0
 78149  1  0  0  0
 78150  1  0  0  0
 79 80  1  0  0  0
 79 82  1  0  0  0
 79151  1  0  0  0
 80 83  1  0  0  0
 80152  1  0  0  0
 81153  1  0  0  0
 81154  1  0  0  0
 81155  1  0  0  0
 82156  1  0  0  0
 82157  1  0  0  0
 82158  1  0  0  0
 83159  1  0  0  0
 83160  1  0  0  0
 85161  1  0  0  0
M  ISO  4   1 100  68 101  83 101  85 100
M  END
> <chiral flag>
0

> <version>
0

> <s_m_source_file>
/data/baiqing/PycharmProjects/Reinvent-master-3.2/result/LINK_invent/BTK/process_docking_weight1_custom_product_contain_oxygen_bond_distance_aromatic_linkinvent_7_9_3/rearranged_h_0066.sdf

> <i_m_source_file_index>
9

> <r_mmod_Potential_Energy-OPLS-2005>
346.265380859375

> <r_mmod_Stretch_Energy-OPLS-2005>
145.381546020508

> <r_mmod_Bend_Energy-OPLS-2005>
222.392822265625

> <r_mmod_Torsional_Energy-OPLS-2005>
299.0048828125

> <r_mmod_Improper_Torsional_Energy-OPLS-2005>
6.53311061859131

> <r_mmod_Van_der_Waal_Energy-OPLS-2005>
139.445861816406

> <r_mmod_Electrostatic_Energy-OPLS-2005>
-341.005462646484

> <r_mmod_Solvation_Energy-OPLS-2005>
-218.022994995117

> <b_mmod_Minimization_Converged-OPLS-2005>
0

> <r_mmod_RMS_Derivative-OPLS-2005>
2.9693865776062

$$$$
9
                    3D
 Structure written by MMmdl.
164173  0  0  1  0            999 V2000
  -30.6393  -14.6405   20.5111 C   0  0  0  0  0  0
  -30.4359  -12.3947   19.4578 C   0  0  0  0  0  0
  -29.5072  -12.5157   18.2290 C   0  0  0  0  0  0
  -28.0306  -12.3490   18.6388 C   0  0  0  0  0  0
  -27.6517  -13.2187   19.8665 C   0  0  2  0  0  0
  -28.6979  -13.0800   20.9973 C   0  0  0  0  0  0
  -25.2474  -13.8073   20.5591 C   0  0  0  0  0  0
  -24.1790  -13.0357   20.9205 C   0  0  0  0  0  0
  -24.6398  -11.6851   20.8769 C   0  0  0  0  0  0
  -23.9069  -10.4242   21.0420 C   0  0  0  0  0  0
  -24.3615   -9.4161   21.9200 C   0  0  0  0  0  0
  -23.6282   -8.2206   22.0762 C   0  0  0  0  0  0
  -22.4263   -8.0261   21.3549 C   0  0  0  0  0  0
  -21.9908   -9.0231   20.4643 C   0  0  0  0  0  0
  -22.7244  -10.2103   20.3060 C   0  0  0  0  0  0
  -21.6839   -6.0724   22.5283 C   0  0  0  0  0  0
  -21.4002   -6.5632   23.8214 C   0  0  0  0  0  0
  -21.3656   -5.6786   24.9179 C   0  0  0  0  0  0
  -21.6044   -4.3053   24.7229 C   0  0  0  0  0  0
  -21.8821   -3.8141   23.4349 C   0  0  0  0  0  0
  -21.9189   -4.6955   22.3401 C   0  0  0  0  0  0
  -22.7813  -13.5166   21.1860 C   0  0  0  0  0  0
  -22.1660   -4.2139   21.0981 F   0  0  0  0  0  0
  -21.5634   -3.4541   25.7745 F   0  0  0  0  0  0
  -30.0166  -13.4197   20.4360 N   0  0  0  0  0  0
  -26.2973  -12.9323   20.3330 N   0  0  0  0  0  0
  -25.9340  -11.6480   20.5808 N   0  0  0  0  0  0
  -22.0458  -12.8181   22.0434 N   0  0  0  0  0  0
  -25.3984  -15.1735   20.3735 N   0  0  0  0  0  0
  -31.7993  -14.7886   20.1160 O   0  0  0  0  0  0
  -21.6622   -6.8865   21.4243 O   0  0  0  0  0  0
  -22.3507  -14.5477   20.6707 O   0  0  0  0  0  0
  -24.6258  -31.8609   23.2032 C   0  0  0  0  0  0
  -25.9109  -32.4785   23.8365 C   0  0  1  0  0  0
  -27.2311  -27.3277   20.1197 C   0  0  0  0  0  0
  -25.5932  -33.8585   24.2292 N   0  0  0  0  0  0
  -23.4192  -30.4830   21.5462 C   0  0  2  0  0  0
  -24.8664  -28.9363   20.1158 C   0  0  0  0  0  0
  -22.7467  -29.4632   22.4952 C   0  0  0  0  0  0
  -18.0285  -28.1390   22.8498 C   0  0  0  0  0  0
  -24.1483  -36.7286   23.2641 C   0  0  0  0  0  0
  -25.9594  -30.7927   21.3743 C   0  0  0  0  0  0
  -26.0343  -29.4197   20.7189 C   0  0  0  0  0  0
  -27.2195  -28.6274   20.7102 C   0  0  0  0  0  0
  -26.0428  -26.8989   19.4849 C   0  0  0  0  0  0
  -24.8723  -27.6810   19.4892 C   0  0  0  0  0  0
  -23.6334  -29.8151   20.1629 C   0  0  0  0  0  0
  -25.4114  -36.3089   24.0333 C   0  0  1  0  0  0
  -20.5881  -28.3697   23.1285 C   0  0  2  0  0  0
  -20.6770  -26.9422   22.5410 C   0  0  0  0  0  0
  -19.5743  -26.6389   21.5216 C   0  0  0  0  0  0
  -18.1920  -26.7936   22.1625 C   0  0  0  0  0  0
  -19.1536  -28.8860   23.2884 C   0  0  0  0  0  0
  -18.9460  -30.1464   23.8898 C   0  0  0  0  0  0
  -17.6459  -30.6597   24.0566 C   0  0  0  0  0  0
  -25.9056  -34.9456   23.5112 C   0  0  0  0  0  0
  -16.5352  -29.9093   23.6334 C   0  0  0  0  0  0
  -16.7273  -28.6506   23.0367 C   0  0  0  0  0  0
  -26.4495  -31.6593   25.0734 C   0  0  0  0  0  0
  -25.3732  -31.3713   26.1460 C   0  0  0  0  0  0
  -27.0350  -30.3024   24.6186 C   0  0  0  0  0  0
  -27.6058  -32.4328   25.7503 C   0  0  0  0  0  0
  -27.5584  -37.1789   24.8465 C   0  0  0  0  0  0
  -21.4184  -29.3044   22.3680 N   0  0  0  0  0  0
  -26.4289  -37.3788   23.9423 N   0  0  0  0  0  0
  -24.6867  -31.0626   22.0978 N   0  0  0  0  0  0
  -23.4183  -28.8182   23.3046 O   0  0  0  0  0  0
  -28.3637  -26.5008   20.1398 O   0  0  0  0  0  0
  -26.5619  -34.8922   22.4674 O   0  0  0  0  0  0
  -23.5421  -32.1406   23.7358 O   0  0  0  0  0  0
  -28.8491  -19.3869   20.5814 C   0  0  0  0  0  0
  -31.1671  -17.8363   20.3944 C   0  0  0  0  0  0
  -28.8128  -17.9864   20.8486 C   0  0  0  0  0  0
  -30.0301  -20.0574   20.1836 C   0  0  0  0  0  0
  -29.9625  -17.1509   20.7017 C   0  0  0  0  0  0
  -31.2135  -19.2462   20.1702 C   0  0  0  0  0  0
  -30.4920  -21.7612   18.5103 C   0  0  0  0  0  0
  -30.7539  -23.2194   18.1181 C   0  0  0  0  0  0
  -29.6564  -24.1801   18.5818 C   0  0  0  0  0  0
  -29.1001  -22.5086   20.3905 C   0  0  0  0  0  0
  -29.3771  -24.0613   20.0864 C   0  0  1  0  0  0
  -27.4727  -17.4216   21.2717 C   0  0  0  0  0  0
  -30.6010  -24.5120   20.9100 C   0  0  0  0  0  0
  -28.1791  -25.0577   20.4244 C   0  0  0  0  0  0
  -29.9986  -21.4702   19.7474 N   0  0  0  0  0  0
  -29.8528  -15.6966   20.8936 N   0  0  0  0  0  0
  -30.7677  -20.8964   17.6715 O   0  0  0  0  0  0
  -32.7782  -19.9458   19.9175 Cl  0  0  0  0  0  0
  -31.4781  -12.5119   19.1555 H   0  0  0  0  0  0
  -30.3636  -11.3991   19.8991 H   0  0  0  0  0  0
  -29.7733  -11.7719   17.4767 H   0  0  0  0  0  0
  -29.6487  -13.4903   17.7580 H   0  0  0  0  0  0
  -27.8694  -11.2949   18.8684 H   0  0  0  0  0  0
  -27.3771  -12.5792   17.7966 H   0  0  0  0  0  0
  -27.6663  -14.2539   19.5272 H   0  0  0  0  0  0
  -28.7079  -12.0609   21.3863 H   0  0  0  0  0  0
  -28.4425  -13.7173   21.8449 H   0  0  0  0  0  0
  -25.2761   -9.5637   22.4774 H   0  0  0  0  0  0
  -23.9974   -7.4595   22.7492 H   0  0  0  0  0  0
  -21.0841   -8.8753   19.8949 H   0  0  0  0  0  0
  -22.3708  -10.9645   19.6168 H   0  0  0  0  0  0
  -21.1985   -7.6138   23.9713 H   0  0  0  0  0  0
  -21.1485   -6.0522   25.9080 H   0  0  0  0  0  0
  -22.0603   -2.7604   23.2859 H   0  0  0  0  0  0
  -22.4079  -11.9839   22.4815 H   0  0  0  0  0  0
  -21.1081  -13.1226   22.2652 H   0  0  0  0  0  0
  -24.6056  -15.8030   20.4317 H   0  0  0  0  0  0
  -26.2115  -15.5967   19.9478 H   0  0  0  0  0  0
  -26.7180  -32.5457   23.1117 H   0  0  0  0  0  0
  -25.0103  -33.9732   25.0455 H   0  0  0  0  0  0
  -22.7142  -31.3036   21.4023 H   0  0  0  0  0  0
  -23.3765  -35.9595   23.3282 H   0  0  0  0  0  0
  -24.3579  -36.8932   22.2059 H   0  0  0  0  0  0
  -23.7202  -37.6467   23.6676 H   0  0  0  0  0  0
  -26.0911  -31.5555   20.6054 H   0  0  0  0  0  0
  -26.8392  -30.8409   22.0047 H   0  0  0  0  0  0
  -28.1180  -28.9968   21.1844 H   0  0  0  0  0  0
  -25.9959  -25.9543   18.9655 H   0  0  0  0  0  0
  -23.9815  -27.3085   19.0030 H   0  0  0  0  0  0
  -23.7514  -30.5897   19.4046 H   0  0  0  0  0  0
  -22.7540  -29.2434   19.8617 H   0  0  0  0  0  0
  -25.1286  -36.1945   25.0825 H   0  0  0  0  0  0
  -20.9975  -28.3272   24.1406 H   0  0  0  0  0  0
  -20.5685  -26.2308   23.3611 H   0  0  0  0  0  0
  -21.6637  -26.7453   22.1201 H   0  0  0  0  0  0
  -19.6905  -25.6296   21.1251 H   0  0  0  0  0  0
  -19.6677  -27.3194   20.6741 H   0  0  0  0  0  0
  -17.4193  -26.6703   21.4019 H   0  0  0  0  0  0
  -18.0309  -26.0072   22.9015 H   0  0  0  0  0  0
  -19.7938  -30.7286   24.2260 H   0  0  0  0  0  0
  -17.5016  -31.6271   24.5173 H   0  0  0  0  0  0
  -15.5353  -30.2998   23.7656 H   0  0  0  0  0  0
  -15.8671  -28.0822   22.7090 H   0  0  0  0  0  0
  -24.5906  -30.7069   25.7775 H   0  0  0  0  0  0
  -24.8923  -32.2873   26.4901 H   0  0  0  0  0  0
  -25.8060  -30.8874   27.0225 H   0  0  0  0  0  0
  -26.2927  -29.6761   24.1225 H   0  0  0  0  0  0
  -27.4072  -29.7292   25.4688 H   0  0  0  0  0  0
  -27.8783  -30.4321   23.9398 H   0  0  0  0  0  0
  -27.2673  -33.3627   26.2078 H   0  0  0  0  0  0
  -28.3862  -32.6886   25.0325 H   0  0  0  0  0  0
  -28.0733  -31.8457   26.5417 H   0  0  0  0  0  0
  -28.2579  -38.0111   24.7567 H   0  0  0  0  0  0
  -28.1106  -36.2644   24.6229 H   0  0  0  0  0  0
  -27.2310  -37.1369   25.8869 H   0  0  0  0  0  0
  -20.9368  -29.8764   21.6883 H   0  0  0  0  0  0
  -26.0171  -38.2858   24.1457 H   0  0  0  0  0  0
  -27.9283  -19.9485   20.6470 H   0  0  0  0  0  0
  -32.0941  -17.2859   20.3333 H   0  0  0  0  0  0
  -30.8573  -23.2859   17.0351 H   0  0  0  0  0  0
  -31.7202  -23.5140   18.5268 H   0  0  0  0  0  0
  -28.7447  -23.9703   18.0197 H   0  0  0  0  0  0
  -29.9340  -25.2039   18.3272 H   0  0  0  0  0  0
  -28.0855  -22.2770   20.0631 H   0  0  0  0  0  0
  -29.1014  -22.3432   21.4685 H   0  0  0  0  0  0
  -27.0197  -18.0564   22.0336 H   0  0  0  0  0  0
  -27.5353  -16.4185   21.6897 H   0  0  0  0  0  0
  -26.8050  -17.4118   20.4118 H   0  0  0  0  0  0
  -31.4574  -23.8505   20.7815 H   0  0  0  0  0  0
  -30.3704  -24.5259   21.9762 H   0  0  0  0  0  0
  -30.9155  -25.5193   20.6356 H   0  0  0  0  0  0
  -27.9461  -24.9743   21.4866 H   0  0  0  0  0  0
  -27.3035  -24.6611   19.9172 H   0  0  0  0  0  0
  -28.9460  -15.3911   21.2107 H   0  0  0  0  0  0
  1 25  1  0  0  0
  1 30  2  0  0  0
  1 86  1  0  0  0
  2  3  1  0  0  0
  2 25  1  0  0  0
  2 89  1  0  0  0
  2 90  1  0  0  0
  3  4  1  0  0  0
  3 91  1  0  0  0
  3 92  1  0  0  0
  4  5  1  0  0  0
  4 93  1  0  0  0
  4 94  1  0  0  0
  5  6  1  0  0  0
  5 26  1  0  0  0
  5 95  1  0  0  0
  6 25  1  0  0  0
  6 96  1  0  0  0
  6 97  1  0  0  0
  7  8  2  0  0  0
  7 26  1  0  0  0
  7 29  1  0  0  0
  8  9  1  0  0  0
  8 22  1  0  0  0
  9 10  1  0  0  0
  9 27  2  0  0  0
 10 11  2  0  0  0
 10 15  1  0  0  0
 11 12  1  0  0  0
 11 98  1  0  0  0
 12 13  2  0  0  0
 12 99  1  0  0  0
 13 14  1  0  0  0
 13 31  1  0  0  0
 14 15  2  0  0  0
 14100  1  0  0  0
 15101  1  0  0  0
 16 17  2  0  0  0
 16 21  1  0  0  0
 16 31  1  0  0  0
 17 18  1  0  0  0
 17102  1  0  0  0
 18 19  2  0  0  0
 18103  1  0  0  0
 19 20  1  0  0  0
 19 24  1  0  0  0
 20 21  2  0  0  0
 20104  1  0  0  0
 21 23  1  0  0  0
 22 28  1  0  0  0
 22 32  2  0  0  0
 26 27  1  0  0  0
 28105  1  0  0  0
 28106  1  0  0  0
 29107  1  0  0  0
 29108  1  0  0  0
 33 34  1  0  0  0
 33 66  1  0  0  0
 33 70  2  0  0  0
 34 36  1  0  0  0
 34 59  1  0  0  0
 34109  1  0  0  0
 35 44  2  0  0  0
 35 45  1  0  0  0
 35 68  1  0  0  0
 36 56  1  0  0  0
 36110  1  0  0  0
 37 39  1  0  0  0
 37 47  1  0  0  0
 37 66  1  0  0  0
 37111  1  0  0  0
 38 43  2  0  0  0
 38 46  1  0  0  0
 38 47  1  0  0  0
 39 64  1  0  0  0
 39 67  2  0  0  0
 40 52  1  0  0  0
 40 53  2  0  0  0
 40 58  1  0  0  0
 41112  1  0  0  0
 41113  1  0  0  0
 41114  1  0  0  0
 41 48  1  0  0  0
 42 43  1  0  0  0
 42 66  1  0  0  0
 42115  1  0  0  0
 42116  1  0  0  0
 43 44  1  0  0  0
 44117  1  0  0  0
 45 46  2  0  0  0
 45118  1  0  0  0
 46119  1  0  0  0
 47120  1  0  0  0
 47121  1  0  0  0
 48 56  1  0  0  0
 48 65  1  0  0  0
 48122  1  0  0  0
 49 50  1  0  0  0
 49 53  1  0  0  0
 49 64  1  0  0  0
 49123  1  0  0  0
 50 51  1  0  0  0
 50124  1  0  0  0
 50125  1  0  0  0
 51 52  1  0  0  0
 51126  1  0  0  0
 51127  1  0  0  0
 52128  1  0  0  0
 52129  1  0  0  0
 53 54  1  0  0  0
 54 55  2  0  0  0
 54130  1  0  0  0
 55 57  1  0  0  0
 55131  1  0  0  0
 56 69  2  0  0  0
 57 58  2  0  0  0
 57132  1  0  0  0
 58133  1  0  0  0
 59 60  1  0  0  0
 59 61  1  0  0  0
 59 62  1  0  0  0
 60134  1  0  0  0
 60135  1  0  0  0
 60136  1  0  0  0
 61137  1  0  0  0
 61138  1  0  0  0
 61139  1  0  0  0
 62140  1  0  0  0
 62141  1  0  0  0
 62142  1  0  0  0
 63 65  1  0  0  0
 63143  1  0  0  0
 63144  1  0  0  0
 63145  1  0  0  0
 64146  1  0  0  0
 65147  1  0  0  0
 68 84  1  0  0  0
 71 73  2  0  0  0
 71 74  1  0  0  0
 71148  1  0  0  0
 72 75  2  0  0  0
 72 76  1  0  0  0
 72149  1  0  0  0
 73 75  1  0  0  0
 73 82  1  0  0  0
 74 76  2  0  0  0
 74 85  1  0  0  0
 75 86  1  0  0  0
 76 88  1  0  0  0
 77 78  1  0  0  0
 77 85  1  0  0  0
 77 87  2  0  0  0
 78 79  1  0  0  0
 78150  1  0  0  0
 78151  1  0  0  0
 79 81  1  0  0  0
 79152  1  0  0  0
 79153  1  0  0  0
 80 81  1  0  0  0
 80 85  1  0  0  0
 80154  1  0  0  0
 80155  1  0  0  0
 81 83  1  0  0  0
 81 84  1  0  0  0
 82156  1  0  0  0
 82157  1  0  0  0
 82158  1  0  0  0
 83159  1  0  0  0
 83160  1  0  0  0
 83161  1  0  0  0
 84162  1  0  0  0
 84163  1  0  0  0
 86164  1  0  0  0
M  ISO  4   1 100  68 101  84 101  86 100
M  END
> <chiral flag>
0

> <version>
0

> <s_m_source_file>
/data/baiqing/PycharmProjects/Reinvent-master-3.2/result/LINK_invent/BTK/process_docking_weight1_custom_product_contain_oxygen_bond_distance_aromatic_linkinvent_7_9_3/rearranged_h_0066.sdf

> <i_m_source_file_index>
10

> <r_mmod_Potential_Energy-OPLS-2005>
141.996932983398

> <r_mmod_Stretch_Energy-OPLS-2005>
90.2264251708984

> <r_mmod_Bend_Energy-OPLS-2005>
142.835586547852

> <r_mmod_Torsional_Energy-OPLS-2005>
304.863220214844

> <r_mmod_Improper_Torsional_Energy-OPLS-2005>
5.61041307449341

> <r_mmod_Van_der_Waal_Energy-OPLS-2005>
159.643905639648

> <r_mmod_Electrostatic_Energy-OPLS-2005>
-387.973205566406

> <r_mmod_Solvation_Energy-OPLS-2005>
-218.109848022461

> <b_mmod_Minimization_Converged-OPLS-2005>
0

> <r_mmod_RMS_Derivative-OPLS-2005>
1.17263090610504

$$$$
10
                    3D
 Structure written by MMmdl.
165174  0  0  1  0            999 V2000
  -30.5987  -14.7297   20.4715 C   0  0  0  0  0  0
  -30.4404  -12.4534   19.4432 C   0  0  0  0  0  0
  -29.4996  -12.5153   18.2207 C   0  0  0  0  0  0
  -28.0245  -12.3423   18.6400 C   0  0  0  0  0  0
  -27.6397  -13.2268   19.8540 C   0  0  2  0  0  0
  -28.6960  -13.1355   20.9765 C   0  0  0  0  0  0
  -25.2481  -13.8199   20.5730 C   0  0  0  0  0  0
  -24.1780  -13.0429   20.9242 C   0  0  0  0  0  0
  -24.6381  -11.6913   20.8784 C   0  0  0  0  0  0
  -23.9057  -10.4286   21.0431 C   0  0  0  0  0  0
  -24.3605   -9.4192   21.9194 C   0  0  0  0  0  0
  -23.6283   -8.2223   22.0749 C   0  0  0  0  0  0
  -22.4267   -8.0259   21.3532 C   0  0  0  0  0  0
  -21.9904   -9.0232   20.4648 C   0  0  0  0  0  0
  -22.7235  -10.2124   20.3071 C   0  0  0  0  0  0
  -21.6860   -6.0719   22.5284 C   0  0  0  0  0  0
  -21.3996   -6.5626   23.8207 C   0  0  0  0  0  0
  -21.3675   -5.6788   24.9175 C   0  0  0  0  0  0
  -21.6051   -4.3048   24.7232 C   0  0  0  0  0  0
  -21.8812   -3.8131   23.4351 C   0  0  0  0  0  0
  -21.9195   -4.6943   22.3406 C   0  0  0  0  0  0
  -22.7797  -13.5200   21.1895 C   0  0  0  0  0  0
  -22.1670   -4.2131   21.0980 F   0  0  0  0  0  0
  -21.5652   -3.4535   25.7744 F   0  0  0  0  0  0
  -29.9913  -13.4999   20.3841 N   0  0  0  0  0  0
  -26.2916  -12.9405   20.3331 N   0  0  0  0  0  0
  -25.9309  -11.6551   20.5806 N   0  0  0  0  0  0
  -22.0459  -12.8167   22.0464 N   0  0  0  0  0  0
  -25.4124  -15.1938   20.4125 N   0  0  0  0  0  0
  -31.8014  -14.8553   20.2228 O   0  0  0  0  0  0
  -21.6646   -6.8851   21.4234 O   0  0  0  0  0  0
  -22.3474  -14.5515   20.6761 O   0  0  0  0  0  0
  -24.6330  -31.8552   23.2006 C   0  0  0  0  0  0
  -25.9143  -32.4752   23.8371 C   0  0  1  0  0  0
  -27.2305  -27.2585   20.1193 C   0  0  0  0  0  0
  -25.5926  -33.8557   24.2271 N   0  0  0  0  0  0
  -23.4305  -30.4774   21.5457 C   0  0  2  0  0  0
  -24.8803  -28.9281   20.1178 C   0  0  0  0  0  0
  -22.7496  -29.4600   22.4928 C   0  0  0  0  0  0
  -18.0287  -28.1389   22.8500 C   0  0  0  0  0  0
  -24.1489  -36.7273   23.2638 C   0  0  0  0  0  0
  -25.9798  -30.7686   21.3831 C   0  0  0  0  0  0
  -26.0557  -29.3920   20.7206 C   0  0  0  0  0  0
  -27.2329  -28.5733   20.7049 C   0  0  0  0  0  0
  -26.0223  -26.8694   19.4904 C   0  0  0  0  0  0
  -24.8695  -27.6745   19.4932 C   0  0  0  0  0  0
  -23.6500  -29.8129   20.1630 C   0  0  0  0  0  0
  -25.4115  -36.3064   24.0328 C   0  0  1  0  0  0
  -20.5889  -28.3688   23.1281 C   0  0  2  0  0  0
  -20.6769  -26.9402   22.5416 C   0  0  0  0  0  0
  -19.5747  -26.6381   21.5224 C   0  0  0  0  0  0
  -18.1926  -26.7939   22.1630 C   0  0  0  0  0  0
  -19.1541  -28.8864   23.2880 C   0  0  0  0  0  0
  -18.9451  -30.1472   23.8884 C   0  0  0  0  0  0
  -17.6450  -30.6587   24.0563 C   0  0  0  0  0  0
  -25.9062  -34.9433   23.5104 C   0  0  0  0  0  0
  -16.5346  -29.9077   23.6335 C   0  0  0  0  0  0
  -16.7279  -28.6495   23.0366 C   0  0  0  0  0  0
  -26.4499  -31.6575   25.0759 C   0  0  0  0  0  0
  -25.3720  -31.3710   26.1473 C   0  0  0  0  0  0
  -27.0331  -30.2976   24.6277 C   0  0  0  0  0  0
  -27.6078  -32.4286   25.7519 C   0  0  0  0  0  0
  -27.5583  -37.1784   24.8452 C   0  0  0  0  0  0
  -21.4208  -29.3033   22.3667 N   0  0  0  0  0  0
  -26.4281  -37.3763   23.9417 N   0  0  0  0  0  0
  -24.7002  -31.0501   22.0993 N   0  0  0  0  0  0
  -23.4194  -28.8131   23.3028 O   0  0  0  0  0  0
  -28.3350  -26.3661   20.1481 O   0  0  0  0  0  0
  -26.5622  -34.8897   22.4667 O   0  0  0  0  0  0
  -23.5470  -32.1377   23.7281 O   0  0  0  0  0  0
  -29.9837  -18.6253   23.0663 C   0  0  0  0  0  0
  -29.8649  -19.7988   22.2978 C   0  0  0  0  0  0
  -30.0071  -17.3432   22.4774 C   0  0  0  0  0  0
  -29.7631  -19.7563   20.8895 C   0  0  0  0  0  0
  -29.9209  -17.1944   21.0680 C   0  0  0  0  0  0
  -29.7759  -18.4210   20.2908 C   0  0  0  0  0  0
  -30.6266  -21.3152   19.1913 C   0  0  0  0  0  0
  -28.8138  -22.2213   20.5840 C   0  0  0  0  0  0
  -29.2123  -23.7208   20.1457 C   0  0  2  0  0  0
  -30.6508  -22.6923   18.4458 C   0  0  0  0  0  0
  -30.0560  -16.1366   23.4013 C   0  0  0  0  0  0
  -30.5098  -22.4624   16.9280 C   0  0  0  0  0  0
  -31.9808  -23.4266   18.7266 C   0  0  0  0  0  0
  -28.0780  -24.8786   20.2401 C   0  0  0  0  0  0
  -29.7177  -21.0649   20.1705 N   0  0  0  0  0  0
  -29.7571  -15.8257   20.5299 N   0  0  0  0  0  0
  -31.4895  -20.4866   18.8731 O   0  0  0  0  0  0
  -29.5580  -23.5700   18.7724 O   0  0  0  0  0  0
  -29.6007  -18.3049   18.9515 F   0  0  0  0  0  0
  -31.4753  -12.6009   19.1278 H   0  0  0  0  0  0
  -30.4015  -11.4698   19.9133 H   0  0  0  0  0  0
  -29.7742  -11.7516   17.4933 H   0  0  0  0  0  0
  -29.6256  -13.4740   17.7156 H   0  0  0  0  0  0
  -27.8690  -11.2911   18.8869 H   0  0  0  0  0  0
  -27.3632  -12.5544   17.7982 H   0  0  0  0  0  0
  -27.6328  -14.2538   19.4869 H   0  0  0  0  0  0
  -28.7346  -12.1278   21.3926 H   0  0  0  0  0  0
  -28.4390  -13.7986   21.8030 H   0  0  0  0  0  0
  -25.2750   -9.5672   22.4765 H   0  0  0  0  0  0
  -24.0012   -7.4616   22.7457 H   0  0  0  0  0  0
  -21.0842   -8.8717   19.8953 H   0  0  0  0  0  0
  -22.3672  -10.9637   19.6166 H   0  0  0  0  0  0
  -21.1961   -7.6133   23.9701 H   0  0  0  0  0  0
  -21.1522   -6.0528   25.9084 H   0  0  0  0  0  0
  -22.0583   -2.7594   23.2871 H   0  0  0  0  0  0
  -22.4091  -11.9808   22.4820 H   0  0  0  0  0  0
  -21.1072  -13.1173   22.2701 H   0  0  0  0  0  0
  -24.6343  -15.8369   20.5134 H   0  0  0  0  0  0
  -26.2493  -15.6452   20.0686 H   0  0  0  0  0  0
  -26.7209  -32.5385   23.1116 H   0  0  0  0  0  0
  -25.0048  -33.9720   25.0395 H   0  0  0  0  0  0
  -22.7300  -31.3009   21.3967 H   0  0  0  0  0  0
  -23.3762  -35.9592   23.3279 H   0  0  0  0  0  0
  -24.3588  -36.8918   22.2059 H   0  0  0  0  0  0
  -23.7233  -37.6459   23.6682 H   0  0  0  0  0  0
  -26.1180  -31.5373   20.6208 H   0  0  0  0  0  0
  -26.8561  -30.8152   22.0187 H   0  0  0  0  0  0
  -28.1349  -28.9265   21.1827 H   0  0  0  0  0  0
  -25.9223  -25.9264   18.9790 H   0  0  0  0  0  0
  -23.9687  -27.3134   19.0159 H   0  0  0  0  0  0
  -23.7709  -30.5881   19.4048 H   0  0  0  0  0  0
  -22.7711  -29.2424   19.8573 H   0  0  0  0  0  0
  -25.1301  -36.1909   25.0819 H   0  0  0  0  0  0
  -20.9993  -28.3255   24.1401 H   0  0  0  0  0  0
  -20.5671  -26.2291   23.3618 H   0  0  0  0  0  0
  -21.6640  -26.7430   22.1208 H   0  0  0  0  0  0
  -19.6904  -25.6289   21.1261 H   0  0  0  0  0  0
  -19.6701  -27.3189   20.6754 H   0  0  0  0  0  0
  -17.4207  -26.6719   21.4012 H   0  0  0  0  0  0
  -18.0298  -26.0068   22.9005 H   0  0  0  0  0  0
  -19.7925  -30.7303   24.2226 H   0  0  0  0  0  0
  -17.4999  -31.6270   24.5148 H   0  0  0  0  0  0
  -15.5347  -30.2969   23.7672 H   0  0  0  0  0  0
  -15.8682  -28.0815   22.7090 H   0  0  0  0  0  0
  -24.5968  -30.6963   25.7806 H   0  0  0  0  0  0
  -24.8817  -32.2856   26.4825 H   0  0  0  0  0  0
  -25.8054  -30.8970   27.0297 H   0  0  0  0  0  0
  -26.2925  -29.6725   24.1274 H   0  0  0  0  0  0
  -27.3932  -29.7234   25.4827 H   0  0  0  0  0  0
  -27.8843  -30.4190   23.9574 H   0  0  0  0  0  0
  -27.2743  -33.3621   26.2064 H   0  0  0  0  0  0
  -28.3922  -32.6781   25.0358 H   0  0  0  0  0  0
  -28.0716  -31.8418   26.5461 H   0  0  0  0  0  0
  -28.2560  -38.0115   24.7536 H   0  0  0  0  0  0
  -28.1120  -36.2651   24.6230 H   0  0  0  0  0  0
  -27.2308  -37.1366   25.8850 H   0  0  0  0  0  0
  -20.9393  -29.8731   21.6852 H   0  0  0  0  0  0
  -26.0159  -38.2822   24.1456 H   0  0  0  0  0  0
  -30.0417  -18.7202   24.1433 H   0  0  0  0  0  0
  -29.8735  -20.7448   22.8169 H   0  0  0  0  0  0
  -27.8411  -21.9959   20.1491 H   0  0  0  0  0  0
  -28.6504  -22.2095   21.6617 H   0  0  0  0  0  0
  -30.0821  -24.0396   20.7207 H   0  0  0  0  0  0
  -30.9351  -15.5263   23.1942 H   0  0  0  0  0  0
  -29.1637  -15.5240   23.2785 H   0  0  0  0  0  0
  -30.1137  -16.4271   24.4493 H   0  0  0  0  0  0
  -31.2721  -21.7827   16.5432 H   0  0  0  0  0  0
  -30.6073  -23.3944   16.3713 H   0  0  0  0  0  0
  -29.5372  -22.0357   16.6769 H   0  0  0  0  0  0
  -32.8361  -22.8667   18.3443 H   0  0  0  0  0  0
  -32.1525  -23.5784   19.7925 H   0  0  0  0  0  0
  -32.0001  -24.4062   18.2495 H   0  0  0  0  0  0
  -27.5664  -24.7399   21.1917 H   0  0  0  0  0  0
  -27.3542  -24.5832   19.4866 H   0  0  0  0  0  0
  -28.7937  -15.5730   20.3821 H   0  0  0  0  0  0
  1 25  1  0  0  0
  1 30  2  0  0  0
  1 86  1  0  0  0
  2  3  1  0  0  0
  2 25  1  0  0  0
  2 90  1  0  0  0
  2 91  1  0  0  0
  3  4  1  0  0  0
  3 92  1  0  0  0
  3 93  1  0  0  0
  4  5  1  0  0  0
  4 94  1  0  0  0
  4 95  1  0  0  0
  5  6  1  0  0  0
  5 26  1  0  0  0
  5 96  1  0  0  0
  6 25  1  0  0  0
  6 97  1  0  0  0
  6 98  1  0  0  0
  7  8  2  0  0  0
  7 26  1  0  0  0
  7 29  1  0  0  0
  8  9  1  0  0  0
  8 22  1  0  0  0
  9 10  1  0  0  0
  9 27  2  0  0  0
 10 11  2  0  0  0
 10 15  1  0  0  0
 11 12  1  0  0  0
 11 99  1  0  0  0
 12 13  2  0  0  0
 12100  1  0  0  0
 13 14  1  0  0  0
 13 31  1  0  0  0
 14 15  2  0  0  0
 14101  1  0  0  0
 15102  1  0  0  0
 16 17  2  0  0  0
 16 21  1  0  0  0
 16 31  1  0  0  0
 17 18  1  0  0  0
 17103  1  0  0  0
 18 19  2  0  0  0
 18104  1  0  0  0
 19 20  1  0  0  0
 19 24  1  0  0  0
 20 21  2  0  0  0
 20105  1  0  0  0
 21 23  1  0  0  0
 22 28  1  0  0  0
 22 32  2  0  0  0
 26 27  1  0  0  0
 28106  1  0  0  0
 28107  1  0  0  0
 29108  1  0  0  0
 29109  1  0  0  0
 33 34  1  0  0  0
 33 66  1  0  0  0
 33 70  2  0  0  0
 34 36  1  0  0  0
 34 59  1  0  0  0
 34110  1  0  0  0
 35 44  2  0  0  0
 35 45  1  0  0  0
 35 68  1  0  0  0
 36 56  1  0  0  0
 36111  1  0  0  0
 37 39  1  0  0  0
 37 47  1  0  0  0
 37 66  1  0  0  0
 37112  1  0  0  0
 38 43  2  0  0  0
 38 46  1  0  0  0
 38 47  1  0  0  0
 39 64  1  0  0  0
 39 67  2  0  0  0
 40 52  1  0  0  0
 40 53  2  0  0  0
 40 58  1  0  0  0
 41113  1  0  0  0
 41114  1  0  0  0
 41115  1  0  0  0
 41 48  1  0  0  0
 42 43  1  0  0  0
 42 66  1  0  0  0
 42116  1  0  0  0
 42117  1  0  0  0
 43 44  1  0  0  0
 44118  1  0  0  0
 45 46  2  0  0  0
 45119  1  0  0  0
 46120  1  0  0  0
 47121  1  0  0  0
 47122  1  0  0  0
 48 56  1  0  0  0
 48 65  1  0  0  0
 48123  1  0  0  0
 49 50  1  0  0  0
 49 53  1  0  0  0
 49 64  1  0  0  0
 49124  1  0  0  0
 50 51  1  0  0  0
 50125  1  0  0  0
 50126  1  0  0  0
 51 52  1  0  0  0
 51127  1  0  0  0
 51128  1  0  0  0
 52129  1  0  0  0
 52130  1  0  0  0
 53 54  1  0  0  0
 54 55  2  0  0  0
 54131  1  0  0  0
 55 57  1  0  0  0
 55132  1  0  0  0
 56 69  2  0  0  0
 57 58  2  0  0  0
 57133  1  0  0  0
 58134  1  0  0  0
 59 60  1  0  0  0
 59 61  1  0  0  0
 59 62  1  0  0  0
 60135  1  0  0  0
 60136  1  0  0  0
 60137  1  0  0  0
 61138  1  0  0  0
 61139  1  0  0  0
 61140  1  0  0  0
 62141  1  0  0  0
 62142  1  0  0  0
 62143  1  0  0  0
 63 65  1  0  0  0
 63144  1  0  0  0
 63145  1  0  0  0
 63146  1  0  0  0
 64147  1  0  0  0
 65148  1  0  0  0
 68 84  1  0  0  0
 71 72  2  0  0  0
 71 73  1  0  0  0
 71149  1  0  0  0
 72 74  1  0  0  0
 72150  1  0  0  0
 73 75  2  0  0  0
 73 81  1  0  0  0
 74 76  2  0  0  0
 74 85  1  0  0  0
 75 76  1  0  0  0
 75 86  1  0  0  0
 76 89  1  0  0  0
 77 80  1  0  0  0
 77 85  1  0  0  0
 77 87  2  0  0  0
 78 79  1  0  0  0
 78 85  1  0  0  0
 78151  1  0  0  0
 78152  1  0  0  0
 79 84  1  0  0  0
 79 88  1  0  0  0
 79153  1  0  0  0
 80 82  1  0  0  0
 80 83  1  0  0  0
 80 88  1  0  0  0
 81154  1  0  0  0
 81155  1  0  0  0
 81156  1  0  0  0
 82157  1  0  0  0
 82158  1  0  0  0
 82159  1  0  0  0
 83160  1  0  0  0
 83161  1  0  0  0
 83162  1  0  0  0
 84163  1  0  0  0
 84164  1  0  0  0
 86165  1  0  0  0
M  ISO  4   1 100  68 101  84 101  86 100
M  END
> <chiral flag>
0

> <version>
0

> <s_m_source_file>
/data/baiqing/PycharmProjects/Reinvent-master-3.2/result/LINK_invent/BTK/process_docking_weight1_custom_product_contain_oxygen_bond_distance_aromatic_linkinvent_7_9_3/rearranged_h_0066.sdf

> <i_m_source_file_index>
11

> <r_mmod_Potential_Energy-OPLS-2005>
267.366912841797

> <r_mmod_Stretch_Energy-OPLS-2005>
131.502944946289

> <r_mmod_Bend_Energy-OPLS-2005>
173.675323486328

> <r_mmod_Torsional_Energy-OPLS-2005>
305.921508789062

> <r_mmod_Improper_Torsional_Energy-OPLS-2005>
10.0631456375122

> <r_mmod_Van_der_Waal_Energy-OPLS-2005>
150.705474853516

> <r_mmod_Electrostatic_Energy-OPLS-2005>
-362.114501953125

> <r_mmod_Solvation_Energy-OPLS-2005>
-225.122833251953

> <b_mmod_Minimization_Converged-OPLS-2005>
0

> <r_mmod_RMS_Derivative-OPLS-2005>
3.33520936965942

$$$$
11
                    3D
 Structure written by MMmdl.
166175  0  0  1  0            999 V2000
  -30.5934  -14.7657   20.4468 C   0  0  0  0  0  0
  -30.4365  -12.4568   19.4976 C   0  0  0  0  0  0
  -29.5196  -12.4929   18.2539 C   0  0  0  0  0  0
  -28.0423  -12.3299   18.6594 C   0  0  0  0  0  0
  -27.6452  -13.2329   19.8577 C   0  0  2  0  0  0
  -28.6853  -13.1674   20.9983 C   0  0  0  0  0  0
  -25.2517  -13.8204   20.5697 C   0  0  0  0  0  0
  -24.1803  -13.0444   20.9201 C   0  0  0  0  0  0
  -24.6399  -11.6921   20.8748 C   0  0  0  0  0  0
  -23.9073  -10.4296   21.0408 C   0  0  0  0  0  0
  -24.3624   -9.4203   21.9181 C   0  0  0  0  0  0
  -23.6294   -8.2243   22.0751 C   0  0  0  0  0  0
  -22.4278   -8.0282   21.3543 C   0  0  0  0  0  0
  -21.9912   -9.0259   20.4649 C   0  0  0  0  0  0
  -22.7245  -10.2135   20.3057 C   0  0  0  0  0  0
  -21.6856   -6.0734   22.5278 C   0  0  0  0  0  0
  -21.4023   -6.5640   23.8208 C   0  0  0  0  0  0
  -21.3659   -5.6794   24.9170 C   0  0  0  0  0  0
  -21.6042   -4.3056   24.7226 C   0  0  0  0  0  0
  -21.8820   -3.8145   23.4350 C   0  0  0  0  0  0
  -21.9193   -4.6961   22.3403 C   0  0  0  0  0  0
  -22.7827  -13.5218   21.1859 C   0  0  0  0  0  0
  -22.1660   -4.2141   21.0983 F   0  0  0  0  0  0
  -21.5621   -3.4540   25.7739 F   0  0  0  0  0  0
  -29.9918  -13.5232   20.4293 N   0  0  0  0  0  0
  -26.2950  -12.9414   20.3306 N   0  0  0  0  0  0
  -25.9332  -11.6556   20.5774 N   0  0  0  0  0  0
  -22.0475  -12.8212   22.0421 N   0  0  0  0  0  0
  -25.4196  -15.1933   20.4126 N   0  0  0  0  0  0
  -31.7580  -14.8819   20.0529 O   0  0  0  0  0  0
  -21.6640   -6.8881   21.4241 O   0  0  0  0  0  0
  -22.3506  -14.5519   20.6697 O   0  0  0  0  0  0
  -24.6330  -31.8542   23.1987 C   0  0  0  0  0  0
  -25.9148  -32.4751   23.8333 C   0  0  1  0  0  0
  -27.2120  -27.2409   20.1318 C   0  0  0  0  0  0
  -25.5936  -33.8554   24.2249 N   0  0  0  0  0  0
  -23.4306  -30.4781   21.5424 C   0  0  2  0  0  0
  -24.8774  -28.9279   20.1064 C   0  0  0  0  0  0
  -22.7518  -29.4593   22.4902 C   0  0  0  0  0  0
  -18.0297  -28.1388   22.8480 C   0  0  0  0  0  0
  -24.1489  -36.7283   23.2638 C   0  0  0  0  0  0
  -25.9791  -30.7601   21.3840 C   0  0  0  0  0  0
  -26.0499  -29.3826   20.7231 C   0  0  0  0  0  0
  -27.2191  -28.5514   20.7265 C   0  0  0  0  0  0
  -26.0212  -26.8739   19.4621 C   0  0  0  0  0  0
  -24.8702  -27.6834   19.4622 C   0  0  0  0  0  0
  -23.6497  -29.8165   20.1567 C   0  0  0  0  0  0
  -25.4116  -36.3066   24.0321 C   0  0  1  0  0  0
  -20.5903  -28.3701   23.1260 C   0  0  2  0  0  0
  -20.6781  -26.9415   22.5405 C   0  0  0  0  0  0
  -19.5758  -26.6384   21.5206 C   0  0  0  0  0  0
  -18.1940  -26.7928   22.1622 C   0  0  0  0  0  0
  -19.1552  -28.8862   23.2865 C   0  0  0  0  0  0
  -18.9469  -30.1461   23.8889 C   0  0  0  0  0  0
  -17.6466  -30.6587   24.0562 C   0  0  0  0  0  0
  -25.9062  -34.9437   23.5090 C   0  0  0  0  0  0
  -16.5357  -29.9083   23.6331 C   0  0  0  0  0  0
  -16.7282  -28.6501   23.0351 C   0  0  0  0  0  0
  -26.4505  -31.6588   25.0736 C   0  0  0  0  0  0
  -25.3717  -31.3754   26.1450 C   0  0  0  0  0  0
  -27.0353  -30.2995   24.6251 C   0  0  0  0  0  0
  -27.6056  -32.4333   25.7508 C   0  0  0  0  0  0
  -27.5581  -37.1796   24.8461 C   0  0  0  0  0  0
  -21.4223  -29.3043   22.3649 N   0  0  0  0  0  0
  -26.4287  -37.3768   23.9410 N   0  0  0  0  0  0
  -24.7000  -31.0491   22.0976 N   0  0  0  0  0  0
  -23.4209  -28.8131   23.3005 O   0  0  0  0  0  0
  -28.2838  -26.3114   20.2232 O   0  0  0  0  0  0
  -26.5636  -34.8913   22.4660 O   0  0  0  0  0  0
  -23.5472  -32.1373   23.7267 O   0  0  0  0  0  0
  -28.9220  -18.1712   17.9556 C   0  0  0  0  0  0
  -29.6199  -18.5250   20.6223 C   0  0  0  0  0  0
  -28.8921  -19.4778   18.4882 C   0  0  0  0  0  0
  -29.2518  -19.7166   19.8480 C   0  0  0  0  0  0
  -29.6429  -17.1634   20.0758 C   0  0  0  0  0  0
  -29.2803  -17.0469   18.7164 C   0  0  0  0  0  0
  -28.3417  -22.1017   20.4318 C   0  0  0  0  0  0
  -30.2926  -23.3673   20.0963 C   0  0  0  0  0  0
  -30.6046  -21.8576   20.3336 C   0  0  0  0  0  0
  -28.8640  -23.5914   20.6070 C   0  0  1  0  0  0
  -28.9232  -21.8580   14.4508 C   0  0  0  0  0  0
  -28.4944  -20.5943   17.5269 C   0  0  0  0  0  0
  -28.0120  -24.8381   19.9865 C   0  0  0  0  0  0
  -29.3288  -21.1394   20.3157 N   0  0  0  0  0  0
  -29.8531  -15.8853   20.8160 N   0  0  0  0  0  0
  -29.6394  -21.3890   17.0928 N   0  0  0  0  0  0
  -27.1337  -21.8477   20.4340 O   0  0  0  0  0  0
  -30.7830  -23.2574   15.7759 O   0  0  0  0  0  0
  -28.3492  -23.5135   16.4827 O   0  0  0  0  0  0
  -29.2200  -15.8310   18.1246 F   0  0  0  0  0  0
  -29.4497  -22.6746   15.9865 S   0  0  0  0  0  0
  -31.4779  -12.5798   19.1967 H   0  0  0  0  0  0
  -30.3832  -11.4831   19.9869 H   0  0  0  0  0  0
  -29.8010  -11.7021   17.5573 H   0  0  0  0  0  0
  -29.6577  -13.4315   17.7171 H   0  0  0  0  0  0
  -27.8923  -11.2826   18.9238 H   0  0  0  0  0  0
  -27.3917  -12.5232   17.8063 H   0  0  0  0  0  0
  -27.6398  -14.2543   19.4782 H   0  0  0  0  0  0
  -28.7194  -12.1689   21.4365 H   0  0  0  0  0  0
  -28.4118  -13.8451   21.8084 H   0  0  0  0  0  0
  -25.2769   -9.5668   22.4754 H   0  0  0  0  0  0
  -23.9989   -7.4637   22.7479 H   0  0  0  0  0  0
  -21.0831   -8.8788   19.8969 H   0  0  0  0  0  0
  -22.3700  -10.9676   19.6166 H   0  0  0  0  0  0
  -21.2026   -7.6150   23.9710 H   0  0  0  0  0  0
  -21.1477   -6.0525   25.9071 H   0  0  0  0  0  0
  -22.0601   -2.7605   23.2856 H   0  0  0  0  0  0
  -22.4103  -11.9879   22.4811 H   0  0  0  0  0  0
  -21.1093  -13.1239   22.2636 H   0  0  0  0  0  0
  -24.6501  -15.8445   20.5255 H   0  0  0  0  0  0
  -26.2653  -15.6341   20.0745 H   0  0  0  0  0  0
  -26.7214  -32.5391   23.1072 H   0  0  0  0  0  0
  -25.0069  -33.9691   25.0383 H   0  0  0  0  0  0
  -22.7275  -31.3008   21.3977 H   0  0  0  0  0  0
  -23.3754  -35.9612   23.3289 H   0  0  0  0  0  0
  -24.3576  -36.8920   22.2054 H   0  0  0  0  0  0
  -23.7237  -37.6476   23.6674 H   0  0  0  0  0  0
  -26.1234  -31.5215   20.6162 H   0  0  0  0  0  0
  -26.8545  -30.8058   22.0202 H   0  0  0  0  0  0
  -28.1118  -28.8900   21.2333 H   0  0  0  0  0  0
  -25.9414  -25.9311   18.9422 H   0  0  0  0  0  0
  -23.9768  -27.3359   18.9613 H   0  0  0  0  0  0
  -23.7767  -30.5956   19.4042 H   0  0  0  0  0  0
  -22.7672  -29.2532   19.8484 H   0  0  0  0  0  0
  -25.1299  -36.1910   25.0813 H   0  0  0  0  0  0
  -20.9992  -28.3278   24.1382 H   0  0  0  0  0  0
  -20.5670  -26.2313   23.3614 H   0  0  0  0  0  0
  -21.6650  -26.7432   22.1206 H   0  0  0  0  0  0
  -19.6921  -25.6292   21.1241 H   0  0  0  0  0  0
  -19.6696  -27.3188   20.6730 H   0  0  0  0  0  0
  -17.4207  -26.6671   21.4027 H   0  0  0  0  0  0
  -18.0347  -26.0073   22.9025 H   0  0  0  0  0  0
  -19.7943  -30.7278   24.2260 H   0  0  0  0  0  0
  -17.5018  -31.6264   24.5169 H   0  0  0  0  0  0
  -15.5357  -30.2981   23.7659 H   0  0  0  0  0  0
  -15.8683  -28.0816   22.7071 H   0  0  0  0  0  0
  -24.5892  -30.7105   25.7777 H   0  0  0  0  0  0
  -24.8912  -32.2932   26.4850 H   0  0  0  0  0  0
  -25.8020  -30.8946   27.0245 H   0  0  0  0  0  0
  -26.2949  -29.6741   24.1252 H   0  0  0  0  0  0
  -27.3986  -29.7264   25.4793 H   0  0  0  0  0  0
  -27.8849  -30.4253   23.9537 H   0  0  0  0  0  0
  -27.2667  -33.3643   26.2064 H   0  0  0  0  0  0
  -28.3879  -32.6878   25.0345 H   0  0  0  0  0  0
  -28.0713  -31.8474   26.5443 H   0  0  0  0  0  0
  -28.2589  -38.0103   24.7514 H   0  0  0  0  0  0
  -28.1086  -36.2633   24.6275 H   0  0  0  0  0  0
  -27.2302  -37.1427   25.8864 H   0  0  0  0  0  0
  -20.9413  -29.8771   21.6856 H   0  0  0  0  0  0
  -26.0164  -38.2839   24.1419 H   0  0  0  0  0  0
  -28.6498  -18.0091   16.9225 H   0  0  0  0  0  0
  -29.8867  -18.6610   21.6605 H   0  0  0  0  0  0
  -30.3377  -23.5913   19.0293 H   0  0  0  0  0  0
  -31.0149  -24.0142   20.5946 H   0  0  0  0  0  0
  -31.0674  -21.7105   21.3103 H   0  0  0  0  0  0
  -31.2937  -21.4692   19.5826 H   0  0  0  0  0  0
  -28.9096  -23.7429   21.6856 H   0  0  0  0  0  0
  -29.6622  -21.1173   14.1534 H   0  0  0  0  0  0
  -28.8360  -22.6099   13.6689 H   0  0  0  0  0  0
  -27.9546  -21.3849   14.5913 H   0  0  0  0  0  0
  -27.7282  -21.2399   17.9512 H   0  0  0  0  0  0
  -28.0209  -20.1607   16.6457 H   0  0  0  0  0  0
  -27.0031  -24.6470   20.3535 H   0  0  0  0  0  0
  -27.9612  -24.6977   18.9065 H   0  0  0  0  0  0
  -29.0640  -15.6400   21.3938 H   0  0  0  0  0  0
  -30.5344  -20.9010   17.0339 H   0  0  0  0  0  0
  1 25  1  0  0  0
  1 30  2  0  0  0
  1 85  1  0  0  0
  2  3  1  0  0  0
  2 25  1  0  0  0
  2 92  1  0  0  0
  2 93  1  0  0  0
  3  4  1  0  0  0
  3 94  1  0  0  0
  3 95  1  0  0  0
  4  5  1  0  0  0
  4 96  1  0  0  0
  4 97  1  0  0  0
  5  6  1  0  0  0
  5 26  1  0  0  0
  5 98  1  0  0  0
  6 25  1  0  0  0
  6 99  1  0  0  0
  6100  1  0  0  0
  7  8  2  0  0  0
  7 26  1  0  0  0
  7 29  1  0  0  0
  8  9  1  0  0  0
  8 22  1  0  0  0
  9 10  1  0  0  0
  9 27  2  0  0  0
 10 11  2  0  0  0
 10 15  1  0  0  0
 11 12  1  0  0  0
 11101  1  0  0  0
 12 13  2  0  0  0
 12102  1  0  0  0
 13 14  1  0  0  0
 13 31  1  0  0  0
 14 15  2  0  0  0
 14103  1  0  0  0
 15104  1  0  0  0
 16 17  2  0  0  0
 16 21  1  0  0  0
 16 31  1  0  0  0
 17 18  1  0  0  0
 17105  1  0  0  0
 18 19  2  0  0  0
 18106  1  0  0  0
 19 20  1  0  0  0
 19 24  1  0  0  0
 20 21  2  0  0  0
 20107  1  0  0  0
 21 23  1  0  0  0
 22 28  1  0  0  0
 22 32  2  0  0  0
 26 27  1  0  0  0
 28108  1  0  0  0
 28109  1  0  0  0
 29110  1  0  0  0
 29111  1  0  0  0
 33 34  1  0  0  0
 33 66  1  0  0  0
 33 70  2  0  0  0
 34 36  1  0  0  0
 34 59  1  0  0  0
 34112  1  0  0  0
 35 44  2  0  0  0
 35 45  1  0  0  0
 35 68  1  0  0  0
 36 56  1  0  0  0
 36113  1  0  0  0
 37 39  1  0  0  0
 37 47  1  0  0  0
 37 66  1  0  0  0
 37114  1  0  0  0
 38 43  2  0  0  0
 38 46  1  0  0  0
 38 47  1  0  0  0
 39 64  1  0  0  0
 39 67  2  0  0  0
 40 52  1  0  0  0
 40 53  2  0  0  0
 40 58  1  0  0  0
 41115  1  0  0  0
 41116  1  0  0  0
 41117  1  0  0  0
 41 48  1  0  0  0
 42 43  1  0  0  0
 42 66  1  0  0  0
 42118  1  0  0  0
 42119  1  0  0  0
 43 44  1  0  0  0
 44120  1  0  0  0
 45 46  2  0  0  0
 45121  1  0  0  0
 46122  1  0  0  0
 47123  1  0  0  0
 47124  1  0  0  0
 48 56  1  0  0  0
 48 65  1  0  0  0
 48125  1  0  0  0
 49 50  1  0  0  0
 49 53  1  0  0  0
 49 64  1  0  0  0
 49126  1  0  0  0
 50 51  1  0  0  0
 50127  1  0  0  0
 50128  1  0  0  0
 51 52  1  0  0  0
 51129  1  0  0  0
 51130  1  0  0  0
 52131  1  0  0  0
 52132  1  0  0  0
 53 54  1  0  0  0
 54 55  2  0  0  0
 54133  1  0  0  0
 55 57  1  0  0  0
 55134  1  0  0  0
 56 69  2  0  0  0
 57 58  2  0  0  0
 57135  1  0  0  0
 58136  1  0  0  0
 59 60  1  0  0  0
 59 61  1  0  0  0
 59 62  1  0  0  0
 60137  1  0  0  0
 60138  1  0  0  0
 60139  1  0  0  0
 61140  1  0  0  0
 61141  1  0  0  0
 61142  1  0  0  0
 62143  1  0  0  0
 62144  1  0  0  0
 62145  1  0  0  0
 63 65  1  0  0  0
 63146  1  0  0  0
 63147  1  0  0  0
 63148  1  0  0  0
 64149  1  0  0  0
 65150  1  0  0  0
 68 83  1  0  0  0
 71 73  2  0  0  0
 71 76  1  0  0  0
 71151  1  0  0  0
 72 74  2  0  0  0
 72 75  1  0  0  0
 72152  1  0  0  0
 73 74  1  0  0  0
 73 82  1  0  0  0
 74 84  1  0  0  0
 75 76  2  0  0  0
 75 85  1  0  0  0
 76 90  1  0  0  0
 77 80  1  0  0  0
 77 84  1  0  0  0
 77 87  2  0  0  0
 78 79  1  0  0  0
 78 80  1  0  0  0
 78153  1  0  0  0
 78154  1  0  0  0
 79 84  1  0  0  0
 79155  1  0  0  0
 79156  1  0  0  0
 80 83  1  0  0  0
 80157  1  0  0  0
 81158  1  0  0  0
 81159  1  0  0  0
 81160  1  0  0  0
 81 91  1  0  0  0
 82 86  1  0  0  0
 82161  1  0  0  0
 82162  1  0  0  0
 83163  1  0  0  0
 83164  1  0  0  0
 85165  1  0  0  0
 86 91  1  0  0  0
 86166  1  0  0  0
 88 91  2  0  0  0
 89 91  2  0  0  0
M  ISO  4   1 100  68 101  83 101  85 100
M  END
> <chiral flag>
0

> <version>
0

> <s_m_source_file>
/data/baiqing/PycharmProjects/Reinvent-master-3.2/result/LINK_invent/BTK/process_docking_weight1_custom_product_contain_oxygen_bond_distance_aromatic_linkinvent_7_9_3/rearranged_h_0066.sdf

> <i_m_source_file_index>
12

> <r_mmod_Potential_Energy-OPLS-2005>
-20.8424758911133

> <r_mmod_Stretch_Energy-OPLS-2005>
138.434631347656

> <r_mmod_Bend_Energy-OPLS-2005>
206.829330444336

> <r_mmod_Torsional_Energy-OPLS-2005>
331.665618896484

> <r_mmod_Improper_Torsional_Energy-OPLS-2005>
8.91933155059814

> <r_mmod_Van_der_Waal_Energy-OPLS-2005>
121.408203125

> <r_mmod_Electrostatic_Energy-OPLS-2005>
-659.642150878906

> <r_mmod_Solvation_Energy-OPLS-2005>
-267.989410400391

> <b_mmod_Minimization_Converged-OPLS-2005>
0

> <r_mmod_RMS_Derivative-OPLS-2005>
0.900567591190338

$$$$
12
                    3D
 Structure written by MMmdl.
163171  0  0  1  0            999 V2000
  -30.7057  -14.4785   20.6204 C   0  0  0  0  0  0
  -30.4239  -12.3211   19.4281 C   0  0  0  0  0  0
  -29.4949  -12.5128   18.2117 C   0  0  0  0  0  0
  -28.0188  -12.3592   18.6261 C   0  0  0  0  0  0
  -27.6611  -13.2082   19.8750 C   0  0  2  0  0  0
  -28.7017  -13.0006   20.9990 C   0  0  0  0  0  0
  -25.2579  -13.8141   20.5679 C   0  0  0  0  0  0
  -24.1832  -13.0419   20.9178 C   0  0  0  0  0  0
  -24.6389  -11.6886   20.8731 C   0  0  0  0  0  0
  -23.9058  -10.4271   21.0405 C   0  0  0  0  0  0
  -24.3611   -9.4188   21.9184 C   0  0  0  0  0  0
  -23.6282   -8.2228   22.0756 C   0  0  0  0  0  0
  -22.4262   -8.0270   21.3549 C   0  0  0  0  0  0
  -21.9900   -9.0243   20.4648 C   0  0  0  0  0  0
  -22.7232  -10.2120   20.3055 C   0  0  0  0  0  0
  -21.6838   -6.0731   22.5283 C   0  0  0  0  0  0
  -21.4013   -6.5639   23.8219 C   0  0  0  0  0  0
  -21.3661   -5.6793   24.9185 C   0  0  0  0  0  0
  -21.6035   -4.3053   24.7231 C   0  0  0  0  0  0
  -21.8816   -3.8148   23.4351 C   0  0  0  0  0  0
  -21.9183   -4.6961   22.3406 C   0  0  0  0  0  0
  -22.7856  -13.5224   21.1859 C   0  0  0  0  0  0
  -22.1656   -4.2147   21.0986 F   0  0  0  0  0  0
  -21.5629   -3.4539   25.7746 F   0  0  0  0  0  0
  -30.0334  -13.3043   20.4522 N   0  0  0  0  0  0
  -26.3021  -12.9322   20.3365 N   0  0  0  0  0  0
  -25.9319  -11.6474   20.5762 N   0  0  0  0  0  0
  -22.0503  -12.8205   22.0407 N   0  0  0  0  0  0
  -25.4279  -15.1864   20.4100 N   0  0  0  0  0  0
  -31.8026  -14.6556   20.0738 O   0  0  0  0  0  0
  -21.6622   -6.8874   21.4247 O   0  0  0  0  0  0
  -22.3534  -14.5531   20.6715 O   0  0  0  0  0  0
  -24.6138  -31.8674   23.2084 C   0  0  0  0  0  0
  -25.9034  -32.4802   23.8380 C   0  0  1  0  0  0
  -27.2264  -27.4161   20.0959 C   0  0  0  0  0  0
  -25.5897  -33.8607   24.2302 N   0  0  0  0  0  0
  -23.4019  -30.4935   21.5477 C   0  0  2  0  0  0
  -24.8472  -28.9611   20.1049 C   0  0  0  0  0  0
  -22.7406  -29.4674   22.4952 C   0  0  0  0  0  0
  -18.0271  -28.1371   22.8481 C   0  0  0  0  0  0
  -24.1487  -36.7319   23.2637 C   0  0  0  0  0  0
  -25.9325  -30.8281   21.3642 C   0  0  0  0  0  0
  -26.0066  -29.4621   20.7083 C   0  0  0  0  0  0
  -27.1957  -28.6951   20.7042 C   0  0  0  0  0  0
  -26.0511  -26.9474   19.4634 C   0  0  0  0  0  0
  -24.8642  -27.7034   19.4802 C   0  0  0  0  0  0
  -23.6096  -29.8285   20.1606 C   0  0  0  0  0  0
  -25.4109  -36.3092   24.0323 C   0  0  1  0  0  0
  -20.5867  -28.3663   23.1300 C   0  0  2  0  0  0
  -20.6770  -26.9399   22.5395 C   0  0  0  0  0  0
  -19.5739  -26.6374   21.5198 C   0  0  0  0  0  0
  -18.1922  -26.7924   22.1612 C   0  0  0  0  0  0
  -19.1525  -28.8830   23.2899 C   0  0  0  0  0  0
  -18.9448  -30.1443   23.8903 C   0  0  0  0  0  0
  -17.6448  -30.6562   24.0581 C   0  0  0  0  0  0
  -25.9027  -34.9461   23.5110 C   0  0  0  0  0  0
  -16.5341  -29.9070   23.6320 C   0  0  0  0  0  0
  -16.7267  -28.6497   23.0326 C   0  0  0  0  0  0
  -26.4442  -31.6578   25.0711 C   0  0  0  0  0  0
  -25.3706  -31.3703   26.1465 C   0  0  0  0  0  0
  -27.0251  -30.3004   24.6094 C   0  0  0  0  0  0
  -27.6020  -32.4295   25.7482 C   0  0  0  0  0  0
  -27.5581  -37.1792   24.8468 C   0  0  0  0  0  0
  -21.4126  -29.3039   22.3708 N   0  0  0  0  0  0
  -26.4301  -37.3782   23.9411 N   0  0  0  0  0  0
  -24.6675  -31.0785   22.0976 N   0  0  0  0  0  0
  -23.4173  -28.8226   23.3010 O   0  0  0  0  0  0
  -28.3942  -26.6718   20.1741 O   0  0  0  0  0  0
  -26.5606  -34.8910   22.4672 O   0  0  0  0  0  0
  -23.5328  -32.1425   23.7471 O   0  0  0  0  0  0
  -31.7296  -22.5196   21.5597 C   0  0  0  0  0  0
  -30.4828  -23.1521   21.4344 C   0  0  0  0  0  0
  -29.5664  -21.1069   20.4672 C   0  0  0  0  0  0
  -31.9131  -21.1884   21.1309 C   0  0  0  0  0  0
  -30.8302  -20.4636   20.5564 C   0  0  0  0  0  0
  -29.3903  -22.4520   20.8845 C   0  0  0  0  0  0
  -31.6577  -18.8390   17.4989 C   0  0  0  0  0  0
  -30.7437  -19.0688   18.4548 C   0  0  0  0  0  0
  -30.8195  -16.9646   21.3010 C   0  0  0  0  0  0
  -27.6881  -24.2998   20.7098 C   0  0  0  0  0  0
  -33.2983  -20.5829   21.2954 C   0  0  0  0  0  0
  -30.0417  -15.6287   21.4477 C   0  0  0  0  0  0
  -28.4462  -25.2805   19.7638 C   0  0  0  0  0  0
  -31.0396  -19.0594   19.9431 C   0  0  2  0  0  0
  -28.0892  -23.0229   20.8922 N   0  0  0  0  0  0
  -30.2846  -17.9509   20.5496 N   0  0  0  0  0  0
  -31.9027  -17.1051   21.8756 O   0  0  0  0  0  0
  -26.6751  -24.6758   21.3027 O   0  0  0  0  0  0
  -31.4687  -12.4193   19.1301 H   0  0  0  0  0  0
  -30.3265  -11.3109   19.8286 H   0  0  0  0  0  0
  -29.7423  -11.7926   17.4311 H   0  0  0  0  0  0
  -29.6569  -13.5007   17.7790 H   0  0  0  0  0  0
  -27.8456  -11.3034   18.8384 H   0  0  0  0  0  0
  -27.3622  -12.6140   17.7937 H   0  0  0  0  0  0
  -27.7014  -14.2536   19.5685 H   0  0  0  0  0  0
  -28.6782  -11.9687   21.3518 H   0  0  0  0  0  0
  -28.4548  -13.6082   21.8694 H   0  0  0  0  0  0
  -25.2765   -9.5651   22.4746 H   0  0  0  0  0  0
  -23.9977   -7.4620   22.7476 H   0  0  0  0  0  0
  -21.0826   -8.8768   19.8953 H   0  0  0  0  0  0
  -22.3702  -10.9657   19.6155 H   0  0  0  0  0  0
  -21.2017   -7.6151   23.9727 H   0  0  0  0  0  0
  -21.1487   -6.0530   25.9091 H   0  0  0  0  0  0
  -22.0590   -2.7607   23.2861 H   0  0  0  0  0  0
  -22.4123  -11.9861   22.4778 H   0  0  0  0  0  0
  -21.1141  -13.1252   22.2650 H   0  0  0  0  0  0
  -24.6608  -15.8408   20.5223 H   0  0  0  0  0  0
  -26.2803  -15.6278   20.0887 H   0  0  0  0  0  0
  -26.7103  -32.5507   23.1141 H   0  0  0  0  0  0
  -25.0041  -33.9781   25.0442 H   0  0  0  0  0  0
  -22.6910  -31.3114   21.4089 H   0  0  0  0  0  0
  -23.3729  -35.9677   23.3309 H   0  0  0  0  0  0
  -24.3565  -36.8939   22.2046 H   0  0  0  0  0  0
  -23.7261  -37.6536   23.6649 H   0  0  0  0  0  0
  -26.0460  -31.5954   20.5968 H   0  0  0  0  0  0
  -26.8215  -30.8794   21.9808 H   0  0  0  0  0  0
  -28.0861  -29.0730   21.1887 H   0  0  0  0  0  0
  -26.0192  -25.9855   18.9759 H   0  0  0  0  0  0
  -23.9716  -27.3132   19.0104 H   0  0  0  0  0  0
  -23.7142  -30.6061   19.4033 H   0  0  0  0  0  0
  -22.7327  -29.2506   19.8646 H   0  0  0  0  0  0
  -25.1280  -36.1946   25.0815 H   0  0  0  0  0  0
  -20.9993  -28.3234   24.1407 H   0  0  0  0  0  0
  -20.5642  -26.2256   23.3561 H   0  0  0  0  0  0
  -21.6641  -26.7435   22.1194 H   0  0  0  0  0  0
  -19.6898  -25.6269   21.1258 H   0  0  0  0  0  0
  -19.6694  -27.3164   20.6714 H   0  0  0  0  0  0
  -17.4185  -26.6653   21.4028 H   0  0  0  0  0  0
  -18.0342  -26.0067   22.9011 H   0  0  0  0  0  0
  -19.7920  -30.7274   24.2257 H   0  0  0  0  0  0
  -17.4998  -31.6248   24.5179 H   0  0  0  0  0  0
  -15.5335  -30.2971   23.7649 H   0  0  0  0  0  0
  -15.8669  -28.0841   22.6997 H   0  0  0  0  0  0
  -24.5881  -30.7033   25.7822 H   0  0  0  0  0  0
  -24.8896  -32.2869   26.4900 H   0  0  0  0  0  0
  -25.8059  -30.8916   27.0242 H   0  0  0  0  0  0
  -26.2773  -29.6787   24.1150 H   0  0  0  0  0  0
  -27.4014  -29.7232   25.4548 H   0  0  0  0  0  0
  -27.8629  -30.4310   23.9239 H   0  0  0  0  0  0
  -27.2637  -33.3593   26.2074 H   0  0  0  0  0  0
  -28.3819  -32.6869   25.0297 H   0  0  0  0  0  0
  -28.0697  -31.8404   26.5389 H   0  0  0  0  0  0
  -28.2605  -38.0087   24.7492 H   0  0  0  0  0  0
  -28.1067  -36.2610   24.6306 H   0  0  0  0  0  0
  -27.2294  -37.1455   25.8873 H   0  0  0  0  0  0
  -20.9262  -29.8760   21.6951 H   0  0  0  0  0  0
  -26.0177  -38.2856   24.1421 H   0  0  0  0  0  0
  -32.5531  -23.0692   21.9971 H   0  0  0  0  0  0
  -30.3675  -24.1606   21.8072 H   0  0  0  0  0  0
  -28.7287  -20.5655   20.0496 H   0  0  0  0  0  0
  -31.3876  -18.8590   16.4530 H   0  0  0  0  0  0
  -32.6893  -18.6291   17.7448 H   0  0  0  0  0  0
  -29.7241  -19.2794   18.1653 H   0  0  0  0  0  0
  -33.9497  -21.2251   21.8899 H   0  0  0  0  0  0
  -33.7703  -20.4382   20.3232 H   0  0  0  0  0  0
  -33.2463  -19.6212   21.8057 H   0  0  0  0  0  0
  -29.0117  -15.7757   21.1247 H   0  0  0  0  0  0
  -30.0121  -15.3473   22.5009 H   0  0  0  0  0  0
  -28.0727  -25.1678   18.7458 H   0  0  0  0  0  0
  -29.4965  -25.0003   19.7138 H   0  0  0  0  0  0
  -32.0960  -18.8020   20.0063 H   0  0  0  0  0  0
  -27.3730  -22.4223   21.2746 H   0  0  0  0  0  0
  -29.3570  -17.7970   20.1815 H   0  0  0  0  0  0
  1 25  1  0  0  0
  1 30  2  0  0  0
  1 82  1  0  0  0
  2  3  1  0  0  0
  2 25  1  0  0  0
  2 89  1  0  0  0
  2 90  1  0  0  0
  3  4  1  0  0  0
  3 91  1  0  0  0
  3 92  1  0  0  0
  4  5  1  0  0  0
  4 93  1  0  0  0
  4 94  1  0  0  0
  5  6  1  0  0  0
  5 26  1  0  0  0
  5 95  1  0  0  0
  6 25  1  0  0  0
  6 96  1  0  0  0
  6 97  1  0  0  0
  7  8  2  0  0  0
  7 26  1  0  0  0
  7 29  1  0  0  0
  8  9  1  0  0  0
  8 22  1  0  0  0
  9 10  1  0  0  0
  9 27  2  0  0  0
 10 11  2  0  0  0
 10 15  1  0  0  0
 11 12  1  0  0  0
 11 98  1  0  0  0
 12 13  2  0  0  0
 12 99  1  0  0  0
 13 14  1  0  0  0
 13 31  1  0  0  0
 14 15  2  0  0  0
 14100  1  0  0  0
 15101  1  0  0  0
 16 17  2  0  0  0
 16 21  1  0  0  0
 16 31  1  0  0  0
 17 18  1  0  0  0
 17102  1  0  0  0
 18 19  2  0  0  0
 18103  1  0  0  0
 19 20  1  0  0  0
 19 24  1  0  0  0
 20 21  2  0  0  0
 20104  1  0  0  0
 21 23  1  0  0  0
 22 28  1  0  0  0
 22 32  2  0  0  0
 26 27  1  0  0  0
 28105  1  0  0  0
 28106  1  0  0  0
 29107  1  0  0  0
 29108  1  0  0  0
 33 34  1  0  0  0
 33 66  1  0  0  0
 33 70  2  0  0  0
 34 36  1  0  0  0
 34 59  1  0  0  0
 34109  1  0  0  0
 35 44  2  0  0  0
 35 45  1  0  0  0
 35 68  1  0  0  0
 36 56  1  0  0  0
 36110  1  0  0  0
 37 39  1  0  0  0
 37 47  1  0  0  0
 37 66  1  0  0  0
 37111  1  0  0  0
 38 43  2  0  0  0
 38 46  1  0  0  0
 38 47  1  0  0  0
 39 64  1  0  0  0
 39 67  2  0  0  0
 40 52  1  0  0  0
 40 53  2  0  0  0
 40 58  1  0  0  0
 41112  1  0  0  0
 41113  1  0  0  0
 41114  1  0  0  0
 41 48  1  0  0  0
 42 43  1  0  0  0
 42 66  1  0  0  0
 42115  1  0  0  0
 42116  1  0  0  0
 43 44  1  0  0  0
 44117  1  0  0  0
 45 46  2  0  0  0
 45118  1  0  0  0
 46119  1  0  0  0
 47120  1  0  0  0
 47121  1  0  0  0
 48 56  1  0  0  0
 48 65  1  0  0  0
 48122  1  0  0  0
 49 50  1  0  0  0
 49 53  1  0  0  0
 49 64  1  0  0  0
 49123  1  0  0  0
 50 51  1  0  0  0
 50124  1  0  0  0
 50125  1  0  0  0
 51 52  1  0  0  0
 51126  1  0  0  0
 51127  1  0  0  0
 52128  1  0  0  0
 52129  1  0  0  0
 53 54  1  0  0  0
 54 55  2  0  0  0
 54130  1  0  0  0
 55 57  1  0  0  0
 55131  1  0  0  0
 56 69  2  0  0  0
 57 58  2  0  0  0
 57132  1  0  0  0
 58133  1  0  0  0
 59 60  1  0  0  0
 59 61  1  0  0  0
 59 62  1  0  0  0
 60134  1  0  0  0
 60135  1  0  0  0
 60136  1  0  0  0
 61137  1  0  0  0
 61138  1  0  0  0
 61139  1  0  0  0
 62140  1  0  0  0
 62141  1  0  0  0
 62142  1  0  0  0
 63 65  1  0  0  0
 63143  1  0  0  0
 63144  1  0  0  0
 63145  1  0  0  0
 64146  1  0  0  0
 65147  1  0  0  0
 68 83  1  0  0  0
 71 72  2  0  0  0
 71 74  1  0  0  0
 71148  1  0  0  0
 72 76  1  0  0  0
 72149  1  0  0  0
 73 75  1  0  0  0
 73 76  2  0  0  0
 73150  1  0  0  0
 74 75  2  0  0  0
 74 81  1  0  0  0
 75 84  1  0  0  0
 76 85  1  0  0  0
 77 78  2  0  0  0
 77151  1  0  0  0
 77152  1  0  0  0
 78 84  1  0  0  0
 78153  1  0  0  0
 79 82  1  0  0  0
 79 86  1  0  0  0
 79 87  2  0  0  0
 80 83  1  0  0  0
 80 85  1  0  0  0
 80 88  2  0  0  0
 81154  1  0  0  0
 81155  1  0  0  0
 81156  1  0  0  0
 82157  1  0  0  0
 82158  1  0  0  0
 83159  1  0  0  0
 83160  1  0  0  0
 84 86  1  0  0  0
 84161  1  0  0  0
 85162  1  0  0  0
 86163  1  0  0  0
M  ISO  4   1 100  68 101  82 100  83 101
M  END
> <chiral flag>
0

> <version>
0

> <s_m_source_file>
/data/baiqing/PycharmProjects/Reinvent-master-3.2/result/LINK_invent/BTK/process_docking_weight1_custom_product_contain_oxygen_bond_distance_aromatic_linkinvent_7_9_3/rearranged_h_0066.sdf

> <i_m_source_file_index>
13

> <r_mmod_Potential_Energy-OPLS-2005>
-65.2975540161133

> <r_mmod_Stretch_Energy-OPLS-2005>
46.2223052978516

> <r_mmod_Bend_Energy-OPLS-2005>
122.957862854004

> <r_mmod_Torsional_Energy-OPLS-2005>
217.308197021484

> <r_mmod_Improper_Torsional_Energy-OPLS-2005>
4.07623624801636

> <r_mmod_Van_der_Waal_Energy-OPLS-2005>
157.805023193359

> <r_mmod_Electrostatic_Energy-OPLS-2005>
-373.580291748047

> <r_mmod_Solvation_Energy-OPLS-2005>
-255.504089355469

> <b_mmod_Minimization_Converged-OPLS-2005>
0

> <r_mmod_RMS_Derivative-OPLS-2005>
2.17865061759949

$$$$
13
                    3D
 Structure written by MMmdl.
164173  0  0  1  0            999 V2000
  -30.6304  -14.6756   20.4608 C   0  0  0  0  0  0
  -30.4442  -12.4092   19.4504 C   0  0  0  0  0  0
  -29.5139  -12.5086   18.2219 C   0  0  0  0  0  0
  -28.0355  -12.3481   18.6337 C   0  0  0  0  0  0
  -27.6518  -13.2266   19.8532 C   0  0  2  0  0  0
  -28.7029  -13.1052   20.9816 C   0  0  0  0  0  0
  -25.2496  -13.8146   20.5619 C   0  0  0  0  0  0
  -24.1815  -13.0407   20.9207 C   0  0  0  0  0  0
  -24.6417  -11.6890   20.8743 C   0  0  0  0  0  0
  -23.9075  -10.4284   21.0420 C   0  0  0  0  0  0
  -24.3621   -9.4201   21.9203 C   0  0  0  0  0  0
  -23.6300   -8.2234   22.0766 C   0  0  0  0  0  0
  -22.4283   -8.0280   21.3556 C   0  0  0  0  0  0
  -21.9913   -9.0257   20.4661 C   0  0  0  0  0  0
  -22.7239  -10.2142   20.3058 C   0  0  0  0  0  0
  -21.6845   -6.0744   22.5291 C   0  0  0  0  0  0
  -21.4009   -6.5642   23.8223 C   0  0  0  0  0  0
  -21.3645   -5.6793   24.9175 C   0  0  0  0  0  0
  -21.6050   -4.3059   24.7214 C   0  0  0  0  0  0
  -21.8813   -3.8153   23.4333 C   0  0  0  0  0  0
  -21.9195   -4.6977   22.3406 C   0  0  0  0  0  0
  -22.7824  -13.5195   21.1879 C   0  0  0  0  0  0
  -22.1666   -4.2167   21.0976 F   0  0  0  0  0  0
  -21.5634   -3.4530   25.7716 F   0  0  0  0  0  0
  -30.0211  -13.4447   20.4123 N   0  0  0  0  0  0
  -26.2983  -12.9384   20.3256 N   0  0  0  0  0  0
  -25.9364  -11.6522   20.5742 N   0  0  0  0  0  0
  -22.0435  -12.8214   22.0428 N   0  0  0  0  0  0
  -25.4026  -15.1839   20.3867 N   0  0  0  0  0  0
  -31.7990  -14.8270   20.0916 O   0  0  0  0  0  0
  -21.6647   -6.8883   21.4247 O   0  0  0  0  0  0
  -22.3480  -14.5491   20.6719 O   0  0  0  0  0  0
  -24.6257  -31.8611   23.2040 C   0  0  0  0  0  0
  -25.9109  -32.4778   23.8354 C   0  0  1  0  0  0
  -27.2358  -27.3196   20.1265 C   0  0  0  0  0  0
  -25.5949  -33.8579   24.2289 N   0  0  0  0  0  0
  -23.4172  -30.4858   21.5494 C   0  0  2  0  0  0
  -24.8653  -28.9361   20.1201 C   0  0  0  0  0  0
  -22.7470  -29.4637   22.4980 C   0  0  0  0  0  0
  -18.0272  -28.1370   22.8482 C   0  0  0  0  0  0
  -24.1483  -36.7288   23.2646 C   0  0  0  0  0  0
  -25.9576  -30.7913   21.3741 C   0  0  0  0  0  0
  -26.0342  -29.4189   20.7194 C   0  0  0  0  0  0
  -27.2202  -28.6256   20.7092 C   0  0  0  0  0  0
  -26.0370  -26.8873   19.5081 C   0  0  0  0  0  0
  -24.8683  -27.6729   19.5073 C   0  0  0  0  0  0
  -23.6333  -29.8200   20.1665 C   0  0  0  0  0  0
  -25.4109  -36.3065   24.0324 C   0  0  1  0  0  0
  -20.5873  -28.3679   23.1296 C   0  0  2  0  0  0
  -20.6767  -26.9415   22.5410 C   0  0  0  0  0  0
  -19.5743  -26.6385   21.5203 C   0  0  0  0  0  0
  -18.1915  -26.7918   22.1598 C   0  0  0  0  0  0
  -19.1525  -28.8849   23.2875 C   0  0  0  0  0  0
  -18.9444  -30.1457   23.8880 C   0  0  0  0  0  0
  -17.6448  -30.6587   24.0549 C   0  0  0  0  0  0
  -25.9063  -34.9443   23.5111 C   0  0  0  0  0  0
  -16.5340  -29.9072   23.6342 C   0  0  0  0  0  0
  -16.7258  -28.6487   23.0361 C   0  0  0  0  0  0
  -26.4507  -31.6584   25.0739 C   0  0  0  0  0  0
  -25.3764  -31.3711   26.1496 C   0  0  0  0  0  0
  -27.0362  -30.3011   24.6194 C   0  0  0  0  0  0
  -27.6066  -32.4317   25.7504 C   0  0  0  0  0  0
  -27.5568  -37.1816   24.8471 C   0  0  0  0  0  0
  -21.4198  -29.3028   22.3710 N   0  0  0  0  0  0
  -26.4288  -37.3763   23.9405 N   0  0  0  0  0  0
  -24.6854  -31.0623   22.0990 N   0  0  0  0  0  0
  -23.4201  -28.8178   23.3056 O   0  0  0  0  0  0
  -28.3743  -26.4930   20.1683 O   0  0  0  0  0  0
  -26.5614  -34.8910   22.4664 O   0  0  0  0  0  0
  -23.5435  -32.1404   23.7386 O   0  0  0  0  0  0
  -30.8921  -19.3752   19.9662 C   0  0  0  0  0  0
  -30.9232  -17.9446   20.0294 C   0  0  0  0  0  0
  -28.7499  -19.3922   21.0463 C   0  0  0  0  0  0
  -28.7811  -17.9701   21.1379 C   0  0  0  0  0  0
  -29.8042  -20.1400   20.4742 C   0  0  0  0  0  0
  -29.8748  -17.1941   20.6427 C   0  0  0  0  0  0
  -29.1073  -22.5192   19.8059 C   0  0  0  0  0  0
  -30.6512  -22.3098   21.4948 C   0  0  0  0  0  0
  -30.1437  -23.7755   21.5246 C   0  0  2  0  0  0
  -29.4473  -24.0225   20.1542 C   0  0  1  0  0  0
  -27.5970  -17.3106   21.8237 C   0  0  0  0  0  0
  -31.2713  -24.7357   21.9471 C   0  0  0  0  0  0
  -30.4233  -24.5545   19.0823 C   0  0  0  0  0  0
  -28.1891  -25.0178   20.1625 C   0  0  0  0  0  0
  -29.8134  -21.6062   20.5350 N   0  0  0  0  0  0
  -29.8165  -15.7307   20.7835 N   0  0  0  0  0  0
  -28.2796  -22.2216   18.9381 O   0  0  0  0  0  0
  -31.4852  -12.5236   19.1467 H   0  0  0  0  0  0
  -30.3710  -11.4202   19.9031 H   0  0  0  0  0  0
  -29.7813  -11.7469   17.4880 H   0  0  0  0  0  0
  -29.6555  -13.4698   17.7240 H   0  0  0  0  0  0
  -27.8752  -11.2975   18.8754 H   0  0  0  0  0  0
  -27.3806  -12.5679   17.7906 H   0  0  0  0  0  0
  -27.6610  -14.2580   19.5012 H   0  0  0  0  0  0
  -28.7156  -12.0930   21.3899 H   0  0  0  0  0  0
  -28.4448  -13.7563   21.8191 H   0  0  0  0  0  0
  -25.2773   -9.5698   22.4767 H   0  0  0  0  0  0
  -24.0027   -7.4620   22.7478 H   0  0  0  0  0  0
  -21.0850   -8.8775   19.8967 H   0  0  0  0  0  0
  -22.3706  -10.9681   19.6151 H   0  0  0  0  0  0
  -21.1998   -7.6145   23.9708 H   0  0  0  0  0  0
  -21.1473   -6.0527   25.9077 H   0  0  0  0  0  0
  -22.0606   -2.7613   23.2810 H   0  0  0  0  0  0
  -22.4008  -11.9878   22.4882 H   0  0  0  0  0  0
  -21.1043  -13.1264   22.2603 H   0  0  0  0  0  0
  -24.6246  -15.8241   20.4962 H   0  0  0  0  0  0
  -26.2216  -15.6206   19.9875 H   0  0  0  0  0  0
  -26.7189  -32.5444   23.1114 H   0  0  0  0  0  0
  -25.0140  -33.9701   25.0468 H   0  0  0  0  0  0
  -22.7061  -31.3028   21.4110 H   0  0  0  0  0  0
  -23.3704  -35.9663   23.3344 H   0  0  0  0  0  0
  -24.3563  -36.8882   22.2057 H   0  0  0  0  0  0
  -23.7294  -37.6532   23.6634 H   0  0  0  0  0  0
  -26.0911  -31.5456   20.5988 H   0  0  0  0  0  0
  -26.8382  -30.8394   22.0017 H   0  0  0  0  0  0
  -28.1133  -29.0031   21.1867 H   0  0  0  0  0  0
  -25.9618  -25.9305   19.0185 H   0  0  0  0  0  0
  -23.9700  -27.2954   19.0398 H   0  0  0  0  0  0
  -23.7613  -30.5986   19.4148 H   0  0  0  0  0  0
  -22.7514  -29.2581   19.8572 H   0  0  0  0  0  0
  -25.1289  -36.1911   25.0814 H   0  0  0  0  0  0
  -20.9923  -28.3231   24.1427 H   0  0  0  0  0  0
  -20.5681  -26.2275   23.3593 H   0  0  0  0  0  0
  -21.6639  -26.7451   22.1209 H   0  0  0  0  0  0
  -19.6907  -25.6284   21.1264 H   0  0  0  0  0  0
  -19.6686  -27.3177   20.6717 H   0  0  0  0  0  0
  -17.4199  -26.6654   21.3985 H   0  0  0  0  0  0
  -18.0319  -26.0057   22.8990 H   0  0  0  0  0  0
  -19.7934  -30.7274   24.2224 H   0  0  0  0  0  0
  -17.5007  -31.6264   24.5150 H   0  0  0  0  0  0
  -15.5341  -30.2949   23.7707 H   0  0  0  0  0  0
  -15.8651  -28.0805   22.7077 H   0  0  0  0  0  0
  -24.5908  -30.7084   25.7846 H   0  0  0  0  0  0
  -24.8990  -32.2877   26.4987 H   0  0  0  0  0  0
  -25.8147  -30.8864   27.0241 H   0  0  0  0  0  0
  -26.2946  -29.6743   24.1253 H   0  0  0  0  0  0
  -27.4097  -29.7289   25.4700 H   0  0  0  0  0  0
  -27.8778  -30.4280   23.9382 H   0  0  0  0  0  0
  -27.2679  -33.3598   26.2103 H   0  0  0  0  0  0
  -28.3877  -32.6931   25.0356 H   0  0  0  0  0  0
  -28.0728  -31.8446   26.5427 H   0  0  0  0  0  0
  -28.2638  -38.0064   24.7461 H   0  0  0  0  0  0
  -28.1017  -36.2606   24.6356 H   0  0  0  0  0  0
  -27.2292  -37.1558   25.8881 H   0  0  0  0  0  0
  -20.9382  -29.8695   21.6875 H   0  0  0  0  0  0
  -26.0160  -38.2852   24.1331 H   0  0  0  0  0  0
  -31.7275  -19.8964   19.5185 H   0  0  0  0  0  0
  -31.7752  -17.4322   19.6022 H   0  0  0  0  0  0
  -27.9053  -19.9221   21.4630 H   0  0  0  0  0  0
  -30.5916  -21.8507   22.4835 H   0  0  0  0  0  0
  -31.6897  -22.2457   21.1652 H   0  0  0  0  0  0
  -29.3682  -23.8350   22.2896 H   0  0  0  0  0  0
  -27.6946  -17.3944   22.9050 H   0  0  0  0  0  0
  -27.4920  -16.2578   21.5797 H   0  0  0  0  0  0
  -26.6705  -17.8012   21.5278 H   0  0  0  0  0  0
  -32.1297  -24.6675   21.2779 H   0  0  0  0  0  0
  -31.6317  -24.4723   22.9426 H   0  0  0  0  0  0
  -30.9399  -25.7732   21.9805 H   0  0  0  0  0  0
  -31.2863  -23.9008   18.9509 H   0  0  0  0  0  0
  -30.7978  -25.5452   19.3433 H   0  0  0  0  0  0
  -29.9230  -24.6515   18.1176 H   0  0  0  0  0  0
  -27.5421  -24.7585   21.0015 H   0  0  0  0  0  0
  -27.6310  -24.7539   19.2667 H   0  0  0  0  0  0
  -28.9263  -15.4024   21.1206 H   0  0  0  0  0  0
  1 25  1  0  0  0
  1 30  2  0  0  0
  1 86  1  0  0  0
  2  3  1  0  0  0
  2 25  1  0  0  0
  2 88  1  0  0  0
  2 89  1  0  0  0
  3  4  1  0  0  0
  3 90  1  0  0  0
  3 91  1  0  0  0
  4  5  1  0  0  0
  4 92  1  0  0  0
  4 93  1  0  0  0
  5  6  1  0  0  0
  5 26  1  0  0  0
  5 94  1  0  0  0
  6 25  1  0  0  0
  6 95  1  0  0  0
  6 96  1  0  0  0
  7  8  2  0  0  0
  7 26  1  0  0  0
  7 29  1  0  0  0
  8  9  1  0  0  0
  8 22  1  0  0  0
  9 10  1  0  0  0
  9 27  2  0  0  0
 10 11  2  0  0  0
 10 15  1  0  0  0
 11 12  1  0  0  0
 11 97  1  0  0  0
 12 13  2  0  0  0
 12 98  1  0  0  0
 13 14  1  0  0  0
 13 31  1  0  0  0
 14 15  2  0  0  0
 14 99  1  0  0  0
 15100  1  0  0  0
 16 17  2  0  0  0
 16 21  1  0  0  0
 16 31  1  0  0  0
 17 18  1  0  0  0
 17101  1  0  0  0
 18 19  2  0  0  0
 18102  1  0  0  0
 19 20  1  0  0  0
 19 24  1  0  0  0
 20 21  2  0  0  0
 20103  1  0  0  0
 21 23  1  0  0  0
 22 28  1  0  0  0
 22 32  2  0  0  0
 26 27  1  0  0  0
 28104  1  0  0  0
 28105  1  0  0  0
 29106  1  0  0  0
 29107  1  0  0  0
 33 34  1  0  0  0
 33 66  1  0  0  0
 33 70  2  0  0  0
 34 36  1  0  0  0
 34 59  1  0  0  0
 34108  1  0  0  0
 35 44  2  0  0  0
 35 45  1  0  0  0
 35 68  1  0  0  0
 36 56  1  0  0  0
 36109  1  0  0  0
 37 39  1  0  0  0
 37 47  1  0  0  0
 37 66  1  0  0  0
 37110  1  0  0  0
 38 43  2  0  0  0
 38 46  1  0  0  0
 38 47  1  0  0  0
 39 64  1  0  0  0
 39 67  2  0  0  0
 40 52  1  0  0  0
 40 53  2  0  0  0
 40 58  1  0  0  0
 41111  1  0  0  0
 41112  1  0  0  0
 41113  1  0  0  0
 41 48  1  0  0  0
 42 43  1  0  0  0
 42 66  1  0  0  0
 42114  1  0  0  0
 42115  1  0  0  0
 43 44  1  0  0  0
 44116  1  0  0  0
 45 46  2  0  0  0
 45117  1  0  0  0
 46118  1  0  0  0
 47119  1  0  0  0
 47120  1  0  0  0
 48 56  1  0  0  0
 48 65  1  0  0  0
 48121  1  0  0  0
 49 50  1  0  0  0
 49 53  1  0  0  0
 49 64  1  0  0  0
 49122  1  0  0  0
 50 51  1  0  0  0
 50123  1  0  0  0
 50124  1  0  0  0
 51 52  1  0  0  0
 51125  1  0  0  0
 51126  1  0  0  0
 52127  1  0  0  0
 52128  1  0  0  0
 53 54  1  0  0  0
 54 55  2  0  0  0
 54129  1  0  0  0
 55 57  1  0  0  0
 55130  1  0  0  0
 56 69  2  0  0  0
 57 58  2  0  0  0
 57131  1  0  0  0
 58132  1  0  0  0
 59 60  1  0  0  0
 59 61  1  0  0  0
 59 62  1  0  0  0
 60133  1  0  0  0
 60134  1  0  0  0
 60135  1  0  0  0
 61136  1  0  0  0
 61137  1  0  0  0
 61138  1  0  0  0
 62139  1  0  0  0
 62140  1  0  0  0
 62141  1  0  0  0
 63 65  1  0  0  0
 63142  1  0  0  0
 63143  1  0  0  0
 63144  1  0  0  0
 64145  1  0  0  0
 65146  1  0  0  0
 68 84  1  0  0  0
 71 72  2  0  0  0
 71 75  1  0  0  0
 71147  1  0  0  0
 72 76  1  0  0  0
 72148  1  0  0  0
 73 74  1  0  0  0
 73 75  2  0  0  0
 73149  1  0  0  0
 74 76  2  0  0  0
 74 81  1  0  0  0
 75 85  1  0  0  0
 76 86  1  0  0  0
 77 80  1  0  0  0
 77 85  1  0  0  0
 77 87  2  0  0  0
 78 79  1  0  0  0
 78 85  1  0  0  0
 78150  1  0  0  0
 78151  1  0  0  0
 79 80  1  0  0  0
 79 82  1  0  0  0
 79152  1  0  0  0
 80 83  1  0  0  0
 80 84  1  0  0  0
 81153  1  0  0  0
 81154  1  0  0  0
 81155  1  0  0  0
 82156  1  0  0  0
 82157  1  0  0  0
 82158  1  0  0  0
 83159  1  0  0  0
 83160  1  0  0  0
 83161  1  0  0  0
 84162  1  0  0  0
 84163  1  0  0  0
 86164  1  0  0  0
M  ISO  4   1 100  68 101  84 101  86 100
M  END
> <chiral flag>
0

> <version>
0

> <s_m_source_file>
/data/baiqing/PycharmProjects/Reinvent-master-3.2/result/LINK_invent/BTK/process_docking_weight1_custom_product_contain_oxygen_bond_distance_aromatic_linkinvent_7_9_3/rearranged_h_0066.sdf

> <i_m_source_file_index>
14

> <r_mmod_Potential_Energy-OPLS-2005>
213.051315307617

> <r_mmod_Stretch_Energy-OPLS-2005>
85.2830276489258

> <r_mmod_Bend_Energy-OPLS-2005>
179.868927001953

> <r_mmod_Torsional_Energy-OPLS-2005>
310.979797363281

> <r_mmod_Improper_Torsional_Energy-OPLS-2005>
4.44641828536987

> <r_mmod_Van_der_Waal_Energy-OPLS-2005>
136.937622070312

> <r_mmod_Electrostatic_Energy-OPLS-2005>
-347.260650634766

> <r_mmod_Solvation_Energy-OPLS-2005>
-211.069091796875

> <b_mmod_Minimization_Converged-OPLS-2005>
0

> <r_mmod_RMS_Derivative-OPLS-2005>
4.4353666305542

$$$$
14
                    3D
 Structure written by MMmdl.
156164  0  0  1  0            999 V2000
  -30.6088  -14.6476   20.5007 C   0  0  0  0  0  0
  -30.4426  -12.3968   19.4496 C   0  0  0  0  0  0
  -29.5098  -12.5061   18.2221 C   0  0  0  0  0  0
  -28.0314  -12.3433   18.6324 C   0  0  0  0  0  0
  -27.6525  -13.2124   19.8606 C   0  0  2  0  0  0
  -28.6975  -13.0660   20.9901 C   0  0  0  0  0  0
  -25.2562  -13.8151   20.5659 C   0  0  0  0  0  0
  -24.1833  -13.0429   20.9207 C   0  0  0  0  0  0
  -24.6394  -11.6898   20.8753 C   0  0  0  0  0  0
  -23.9058  -10.4284   21.0412 C   0  0  0  0  0  0
  -24.3612   -9.4201   21.9190 C   0  0  0  0  0  0
  -23.6287   -8.2237   22.0755 C   0  0  0  0  0  0
  -22.4275   -8.0276   21.3540 C   0  0  0  0  0  0
  -21.9907   -9.0252   20.4646 C   0  0  0  0  0  0
  -22.7233  -10.2131   20.3057 C   0  0  0  0  0  0
  -21.6853   -6.0734   22.5278 C   0  0  0  0  0  0
  -21.4013   -6.5637   23.8213 C   0  0  0  0  0  0
  -21.3659   -5.6790   24.9175 C   0  0  0  0  0  0
  -21.6044   -4.3052   24.7227 C   0  0  0  0  0  0
  -21.8820   -3.8145   23.4347 C   0  0  0  0  0  0
  -21.9192   -4.6961   22.3402 C   0  0  0  0  0  0
  -22.7857  -13.5231   21.1863 C   0  0  0  0  0  0
  -22.1663   -4.2147   21.0981 F   0  0  0  0  0  0
  -21.5627   -3.4535   25.7737 F   0  0  0  0  0  0
  -30.0121  -13.4152   20.4281 N   0  0  0  0  0  0
  -26.2982  -12.9324   20.3287 N   0  0  0  0  0  0
  -25.9318  -11.6488   20.5750 N   0  0  0  0  0  0
  -22.0487  -12.8222   22.0408 N   0  0  0  0  0  0
  -25.4261  -15.1864   20.3991 N   0  0  0  0  0  0
  -31.7778  -14.8180   20.1410 O   0  0  0  0  0  0
  -21.6637   -6.8877   21.4241 O   0  0  0  0  0  0
  -22.3548  -14.5539   20.6709 O   0  0  0  0  0  0
  -24.6255  -31.8612   23.2008 C   0  0  0  0  0  0
  -25.9104  -32.4792   23.8348 C   0  0  1  0  0  0
  -27.2242  -27.3198   20.1173 C   0  0  0  0  0  0
  -25.5921  -33.8591   24.2283 N   0  0  0  0  0  0
  -23.4189  -30.4838   21.5452 C   0  0  2  0  0  0
  -24.8645  -28.9374   20.1129 C   0  0  0  0  0  0
  -22.7479  -29.4633   22.4947 C   0  0  0  0  0  0
  -18.0293  -28.1391   22.8505 C   0  0  0  0  0  0
  -24.1489  -36.7288   23.2639 C   0  0  0  0  0  0
  -25.9598  -30.7925   21.3701 C   0  0  0  0  0  0
  -26.0341  -29.4187   20.7141 C   0  0  0  0  0  0
  -27.2174  -28.6223   20.7054 C   0  0  0  0  0  0
  -26.0285  -26.8891   19.4962 C   0  0  0  0  0  0
  -24.8639  -27.6783   19.4943 C   0  0  0  0  0  0
  -23.6329  -29.8181   20.1606 C   0  0  0  0  0  0
  -25.4116  -36.3094   24.0334 C   0  0  1  0  0  0
  -20.5895  -28.3682   23.1300 C   0  0  2  0  0  0
  -20.6795  -26.9413   22.5415 C   0  0  0  0  0  0
  -19.5768  -26.6396   21.5219 C   0  0  0  0  0  0
  -18.1941  -26.7939   22.1627 C   0  0  0  0  0  0
  -19.1547  -28.8852   23.2900 C   0  0  0  0  0  0
  -18.9468  -30.1463   23.8914 C   0  0  0  0  0  0
  -17.6470  -30.6601   24.0570 C   0  0  0  0  0  0
  -25.9056  -34.9464   23.5111 C   0  0  0  0  0  0
  -16.5361  -29.9101   23.6339 C   0  0  0  0  0  0
  -16.7279  -28.6512   23.0370 C   0  0  0  0  0  0
  -26.4484  -31.6591   25.0706 C   0  0  0  0  0  0
  -25.3721  -31.3726   26.1434 C   0  0  0  0  0  0
  -27.0319  -30.3025   24.6123 C   0  0  0  0  0  0
  -27.6052  -32.4312   25.7480 C   0  0  0  0  0  0
  -27.5585  -37.1808   24.8472 C   0  0  0  0  0  0
  -21.4193  -29.3039   22.3692 N   0  0  0  0  0  0
  -26.4301  -37.3783   23.9415 N   0  0  0  0  0  0
  -24.6872  -31.0625   22.0954 N   0  0  0  0  0  0
  -23.4205  -28.8186   23.3033 O   0  0  0  0  0  0
  -28.3503  -26.4831   20.1632 O   0  0  0  0  0  0
  -26.5620  -34.8927   22.4676 O   0  0  0  0  0  0
  -23.5423  -32.1398   23.7347 O   0  0  0  0  0  0
  -28.7115  -19.3663   20.6818 C   0  0  0  0  0  0
  -28.6923  -17.9360   20.6716 C   0  0  0  0  0  0
  -31.0918  -17.8750   20.7421 C   0  0  0  0  0  0
  -29.9243  -20.0965   20.7579 C   0  0  0  0  0  0
  -29.8760  -17.1448   20.7166 C   0  0  0  0  0  0
  -31.1154  -19.3030   20.7689 C   0  0  0  0  0  0
  -29.9727  -21.6075   20.9436 C   0  0  0  0  0  0
  -30.5832  -24.4955   19.4118 C   0  0  0  0  0  0
  -28.1635  -25.0188   20.0198 C   0  0  0  0  0  0
  -29.4180  -24.0929   20.3320 C   0  0  1  0  0  0
  -30.8305  -22.0702   21.8540 N   0  0  0  0  0  0
  -29.7623  -15.6846   20.7975 N   0  0  0  0  0  0
  -29.2319  -22.5710   20.2938 N   0  3  0  0  0  0
  -32.3258  -19.9097   20.8512 F   0  0  0  0  0  0
  -31.4819  -12.5320   19.1458 H   0  0  0  0  0  0
  -30.3861  -11.4000   19.8898 H   0  0  0  0  0  0
  -29.7761  -11.7540   17.4779 H   0  0  0  0  0  0
  -29.6504  -13.4741   17.7395 H   0  0  0  0  0  0
  -27.8675  -11.2898   18.8617 H   0  0  0  0  0  0
  -27.3780  -12.5750   17.7905 H   0  0  0  0  0  0
  -27.6693  -14.2470   19.5183 H   0  0  0  0  0  0
  -28.7106  -12.0430   21.3700 H   0  0  0  0  0  0
  -28.4414  -13.6948   21.8444 H   0  0  0  0  0  0
  -25.2761   -9.5677   22.4760 H   0  0  0  0  0  0
  -24.0002   -7.4626   22.7465 H   0  0  0  0  0  0
  -21.0845   -8.8766   19.8944 H   0  0  0  0  0  0
  -22.3697  -10.9669   19.6161 H   0  0  0  0  0  0
  -21.2006   -7.6146   23.9717 H   0  0  0  0  0  0
  -21.1480   -6.0519   25.9079 H   0  0  0  0  0  0
  -22.0599   -2.7608   23.2846 H   0  0  0  0  0  0
  -22.4102  -11.9882   22.4797 H   0  0  0  0  0  0
  -21.1099  -13.1244   22.2600 H   0  0  0  0  0  0
  -24.6407  -15.8247   20.4670 H   0  0  0  0  0  0
  -26.2328  -15.6011   19.9527 H   0  0  0  0  0  0
  -26.7171  -32.5463   23.1102 H   0  0  0  0  0  0
  -25.0088  -33.9736   25.0441 H   0  0  0  0  0  0
  -22.7130  -31.3041   21.4035 H   0  0  0  0  0  0
  -23.3760  -35.9611   23.3309 H   0  0  0  0  0  0
  -24.3582  -36.8888   22.2050 H   0  0  0  0  0  0
  -23.7226  -37.6491   23.6648 H   0  0  0  0  0  0
  -26.0898  -31.5542   20.6001 H   0  0  0  0  0  0
  -26.8415  -30.8437   21.9971 H   0  0  0  0  0  0
  -28.1165  -28.9884   21.1816 H   0  0  0  0  0  0
  -25.9629  -25.9276   19.0111 H   0  0  0  0  0  0
  -23.9656  -27.3036   19.0219 H   0  0  0  0  0  0
  -23.7530  -30.5936   19.4035 H   0  0  0  0  0  0
  -22.7523  -29.2482   19.8597 H   0  0  0  0  0  0
  -25.1299  -36.1948   25.0827 H   0  0  0  0  0  0
  -20.9991  -28.3254   24.1420 H   0  0  0  0  0  0
  -20.5721  -26.2285   23.3606 H   0  0  0  0  0  0
  -21.6661  -26.7479   22.1190 H   0  0  0  0  0  0
  -19.6925  -25.6308   21.1244 H   0  0  0  0  0  0
  -19.6704  -27.3222   20.6760 H   0  0  0  0  0  0
  -17.4219  -26.6709   21.4017 H   0  0  0  0  0  0
  -18.0333  -26.0079   22.9019 H   0  0  0  0  0  0
  -19.7945  -30.7287   24.2279 H   0  0  0  0  0  0
  -17.5025  -31.6279   24.5179 H   0  0  0  0  0  0
  -15.5365  -30.3016   23.7643 H   0  0  0  0  0  0
  -15.8683  -28.0834   22.7083 H   0  0  0  0  0  0
  -24.5911  -30.7055   25.7771 H   0  0  0  0  0  0
  -24.8895  -32.2891   26.4845 H   0  0  0  0  0  0
  -25.8050  -30.8930   27.0221 H   0  0  0  0  0  0
  -26.2878  -29.6792   24.1153 H   0  0  0  0  0  0
  -27.4054  -29.7257   25.4594 H   0  0  0  0  0  0
  -27.8732  -30.4338   23.9313 H   0  0  0  0  0  0
  -27.2680  -33.3618   26.2057 H   0  0  0  0  0  0
  -28.3871  -32.6850   25.0313 H   0  0  0  0  0  0
  -28.0710  -31.8428   26.5398 H   0  0  0  0  0  0
  -28.2613  -38.0095   24.7530 H   0  0  0  0  0  0
  -28.1070  -36.2634   24.6298 H   0  0  0  0  0  0
  -27.2309  -37.1453   25.8873 H   0  0  0  0  0  0
  -20.9366  -29.8741   21.6890 H   0  0  0  0  0  0
  -26.0182  -38.2859   24.1417 H   0  0  0  0  0  0
  -27.7725  -19.9014   20.6829 H   0  0  0  0  0  0
  -27.7292  -17.4461   20.6515 H   0  0  0  0  0  0
  -32.0334  -17.3485   20.7846 H   0  0  0  0  0  0
  -30.9367  -25.4973   19.6564 H   0  0  0  0  0  0
  -30.2758  -24.5068   18.3659 H   0  0  0  0  0  0
  -31.4323  -23.8179   19.5019 H   0  0  0  0  0  0
  -27.3420  -24.7053   20.6657 H   0  0  0  0  0  0
  -27.8491  -24.8117   18.9966 H   0  0  0  0  0  0
  -29.7076  -24.3412   21.3539 H   0  0  0  0  0  0
  -31.4709  -21.4192   22.2853 H   0  0  0  0  0  0
  -30.8889  -23.0398   22.1122 H   0  0  0  0  0  0
  -28.8369  -15.3553   21.0196 H   0  0  0  0  0  0
  -28.6123  -22.2239   19.5707 H   0  0  0  0  0  0
  1 25  1  0  0  0
  1 30  2  0  0  0
  1 82  1  0  0  0
  2  3  1  0  0  0
  2 25  1  0  0  0
  2 85  1  0  0  0
  2 86  1  0  0  0
  3  4  1  0  0  0
  3 87  1  0  0  0
  3 88  1  0  0  0
  4  5  1  0  0  0
  4 89  1  0  0  0
  4 90  1  0  0  0
  5  6  1  0  0  0
  5 26  1  0  0  0
  5 91  1  0  0  0
  6 25  1  0  0  0
  6 92  1  0  0  0
  6 93  1  0  0  0
  7  8  2  0  0  0
  7 26  1  0  0  0
  7 29  1  0  0  0
  8  9  1  0  0  0
  8 22  1  0  0  0
  9 10  1  0  0  0
  9 27  2  0  0  0
 10 11  2  0  0  0
 10 15  1  0  0  0
 11 12  1  0  0  0
 11 94  1  0  0  0
 12 13  2  0  0  0
 12 95  1  0  0  0
 13 14  1  0  0  0
 13 31  1  0  0  0
 14 15  2  0  0  0
 14 96  1  0  0  0
 15 97  1  0  0  0
 16 17  2  0  0  0
 16 21  1  0  0  0
 16 31  1  0  0  0
 17 18  1  0  0  0
 17 98  1  0  0  0
 18 19  2  0  0  0
 18 99  1  0  0  0
 19 20  1  0  0  0
 19 24  1  0  0  0
 20 21  2  0  0  0
 20100  1  0  0  0
 21 23  1  0  0  0
 22 28  1  0  0  0
 22 32  2  0  0  0
 26 27  1  0  0  0
 28101  1  0  0  0
 28102  1  0  0  0
 29103  1  0  0  0
 29104  1  0  0  0
 33 34  1  0  0  0
 33 66  1  0  0  0
 33 70  2  0  0  0
 34 36  1  0  0  0
 34 59  1  0  0  0
 34105  1  0  0  0
 35 44  2  0  0  0
 35 45  1  0  0  0
 35 68  1  0  0  0
 36 56  1  0  0  0
 36106  1  0  0  0
 37 39  1  0  0  0
 37 47  1  0  0  0
 37 66  1  0  0  0
 37107  1  0  0  0
 38 43  2  0  0  0
 38 46  1  0  0  0
 38 47  1  0  0  0
 39 64  1  0  0  0
 39 67  2  0  0  0
 40 52  1  0  0  0
 40 53  2  0  0  0
 40 58  1  0  0  0
 41108  1  0  0  0
 41109  1  0  0  0
 41110  1  0  0  0
 41 48  1  0  0  0
 42 43  1  0  0  0
 42 66  1  0  0  0
 42111  1  0  0  0
 42112  1  0  0  0
 43 44  1  0  0  0
 44113  1  0  0  0
 45 46  2  0  0  0
 45114  1  0  0  0
 46115  1  0  0  0
 47116  1  0  0  0
 47117  1  0  0  0
 48 56  1  0  0  0
 48 65  1  0  0  0
 48118  1  0  0  0
 49 50  1  0  0  0
 49 53  1  0  0  0
 49 64  1  0  0  0
 49119  1  0  0  0
 50 51  1  0  0  0
 50120  1  0  0  0
 50121  1  0  0  0
 51 52  1  0  0  0
 51122  1  0  0  0
 51123  1  0  0  0
 52124  1  0  0  0
 52125  1  0  0  0
 53 54  1  0  0  0
 54 55  2  0  0  0
 54126  1  0  0  0
 55 57  1  0  0  0
 55127  1  0  0  0
 56 69  2  0  0  0
 57 58  2  0  0  0
 57128  1  0  0  0
 58129  1  0  0  0
 59 60  1  0  0  0
 59 61  1  0  0  0
 59 62  1  0  0  0
 60130  1  0  0  0
 60131  1  0  0  0
 60132  1  0  0  0
 61133  1  0  0  0
 61134  1  0  0  0
 61135  1  0  0  0
 62136  1  0  0  0
 62137  1  0  0  0
 62138  1  0  0  0
 63 65  1  0  0  0
 63139  1  0  0  0
 63140  1  0  0  0
 63141  1  0  0  0
 64142  1  0  0  0
 65143  1  0  0  0
 68 79  1  0  0  0
 71 72  2  0  0  0
 71 74  1  0  0  0
 71144  1  0  0  0
 72 75  1  0  0  0
 72145  1  0  0  0
 73 75  2  0  0  0
 73 76  1  0  0  0
 73146  1  0  0  0
 74 76  2  0  0  0
 74 77  1  0  0  0
 75 82  1  0  0  0
 76 84  1  0  0  0
 77 81  1  0  0  0
 77 83  2  0  0  0
 78147  1  0  0  0
 78148  1  0  0  0
 78149  1  0  0  0
 78 80  1  0  0  0
 79 80  1  0  0  0
 79150  1  0  0  0
 79151  1  0  0  0
 80 83  1  0  0  0
 80152  1  0  0  0
 81153  1  0  0  0
 81154  1  0  0  0
 82155  1  0  0  0
 83156  1  0  0  0
M  CHG  1  83   1
M  ISO  4   1 100  68 101  79 101  82 100
M  END
> <chiral flag>
0

> <version>
0

> <s_m_source_file>
/data/baiqing/PycharmProjects/Reinvent-master-3.2/result/LINK_invent/BTK/process_docking_weight1_custom_product_contain_oxygen_bond_distance_aromatic_linkinvent_7_9_3/rearranged_h_0066.sdf

> <i_m_source_file_index>
15

> <r_mmod_Potential_Energy-OPLS-2005>
-115.386428833008

> <r_mmod_Stretch_Energy-OPLS-2005>
82.4699783325195

> <r_mmod_Bend_Energy-OPLS-2005>
136.432876586914

> <r_mmod_Torsional_Energy-OPLS-2005>
215.076812744141

> <r_mmod_Improper_Torsional_Energy-OPLS-2005>
6.27385997772217

> <r_mmod_Van_der_Waal_Energy-OPLS-2005>
148.125564575195

> <r_mmod_Electrostatic_Energy-OPLS-2005>
-340.361694335938

> <r_mmod_Solvation_Energy-OPLS-2005>
-412.781372070312

> <b_mmod_Minimization_Converged-OPLS-2005>
0

> <r_mmod_RMS_Derivative-OPLS-2005>
1.27229714393616

$$$$
15
                    3D
 Structure written by MMmdl.
163172  0  0  1  0            999 V2000
  -30.6154  -14.7586   20.4846 C   0  0  0  0  0  0
  -30.4362  -12.4680   19.5024 C   0  0  0  0  0  0
  -29.5245  -12.5266   18.2537 C   0  0  0  0  0  0
  -28.0483  -12.3393   18.6570 C   0  0  0  0  0  0
  -27.6461  -13.2394   19.8577 C   0  0  2  0  0  0
  -28.6810  -13.1707   21.0032 C   0  0  0  0  0  0
  -25.2528  -13.8231   20.5768 C   0  0  0  0  0  0
  -24.1808  -13.0487   20.9248 C   0  0  0  0  0  0
  -24.6368  -11.6957   20.8747 C   0  0  0  0  0  0
  -23.9063  -10.4325   21.0425 C   0  0  0  0  0  0
  -24.3640   -9.4240   21.9169 C   0  0  0  0  0  0
  -23.6316   -8.2270   22.0751 C   0  0  0  0  0  0
  -22.4264   -8.0294   21.3581 C   0  0  0  0  0  0
  -21.9908   -9.0273   20.4688 C   0  0  0  0  0  0
  -22.7240  -10.2151   20.3094 C   0  0  0  0  0  0
  -21.6844   -6.0770   22.5298 C   0  0  0  0  0  0
  -21.4009   -6.5660   23.8243 C   0  0  0  0  0  0
  -21.3666   -5.6811   24.9191 C   0  0  0  0  0  0
  -21.6037   -4.3067   24.7230 C   0  0  0  0  0  0
  -21.8815   -3.8181   23.4333 C   0  0  0  0  0  0
  -21.9198   -4.7005   22.3408 C   0  0  0  0  0  0
  -22.7830  -13.5288   21.1901 C   0  0  0  0  0  0
  -22.1667   -4.2216   21.0977 F   0  0  0  0  0  0
  -21.5616   -3.4535   25.7733 F   0  0  0  0  0  0
  -29.9951  -13.5269   20.4486 N   0  0  0  0  0  0
  -26.2944  -12.9452   20.3286 N   0  0  0  0  0  0
  -25.9289  -11.6588   20.5692 N   0  0  0  0  0  0
  -22.0414  -12.8302   22.0428 N   0  0  0  0  0  0
  -25.4251  -15.1942   20.4313 N   0  0  0  0  0  0
  -31.7731  -14.8624   20.0625 O   0  0  0  0  0  0
  -21.6637   -6.8884   21.4254 O   0  0  0  0  0  0
  -22.3519  -14.5579   20.6701 O   0  0  0  0  0  0
  -24.6291  -31.8544   23.1986 C   0  0  0  0  0  0
  -25.9107  -32.4758   23.8340 C   0  0  1  0  0  0
  -27.2291  -27.2533   20.1413 C   0  0  0  0  0  0
  -25.5872  -33.8562   24.2236 N   0  0  0  0  0  0
  -23.4298  -30.4749   21.5399 C   0  0  2  0  0  0
  -24.8825  -28.9256   20.1055 C   0  0  0  0  0  0
  -22.7497  -29.4589   22.4910 C   0  0  0  0  0  0
  -18.0272  -28.1382   22.8445 C   0  0  0  0  0  0
  -24.1473  -36.7290   23.2649 C   0  0  0  0  0  0
  -25.9771  -30.7620   21.3870 C   0  0  0  0  0  0
  -26.0504  -29.3873   20.7244 C   0  0  0  0  0  0
  -27.2225  -28.5634   20.7323 C   0  0  0  0  0  0
  -26.0392  -26.8689   19.4777 C   0  0  0  0  0  0
  -24.8852  -27.6763   19.4683 C   0  0  0  0  0  0
  -23.6481  -29.8053   20.1567 C   0  0  0  0  0  0
  -25.4092  -36.3087   24.0342 C   0  0  1  0  0  0
  -20.5869  -28.3688   23.1244 C   0  0  2  0  0  0
  -20.6747  -26.9388   22.5420 C   0  0  0  0  0  0
  -19.5755  -26.6350   21.5184 C   0  0  0  0  0  0
  -18.1922  -26.7916   22.1578 C   0  0  0  0  0  0
  -19.1529  -28.8854   23.2833 C   0  0  0  0  0  0
  -18.9458  -30.1438   23.8883 C   0  0  0  0  0  0
  -17.6467  -30.6583   24.0541 C   0  0  0  0  0  0
  -25.9027  -34.9451   23.5110 C   0  0  0  0  0  0
  -16.5350  -29.9083   23.6319 C   0  0  0  0  0  0
  -16.7264  -28.6495   23.0344 C   0  0  0  0  0  0
  -26.4451  -31.6633   25.0777 C   0  0  0  0  0  0
  -25.3627  -31.3855   26.1485 C   0  0  0  0  0  0
  -27.0299  -30.3014   24.6380 C   0  0  0  0  0  0
  -27.6032  -32.4378   25.7516 C   0  0  0  0  0  0
  -27.5575  -37.1782   24.8435 C   0  0  0  0  0  0
  -21.4202  -29.3023   22.3642 N   0  0  0  0  0  0
  -26.4268  -37.3783   23.9403 N   0  0  0  0  0  0
  -24.6973  -31.0489   22.0974 N   0  0  0  0  0  0
  -23.4186  -28.8121   23.3010 O   0  0  0  0  0  0
  -28.3254  -26.3549   20.2435 O   0  0  0  0  0  0
  -26.5649  -34.8939   22.4692 O   0  0  0  0  0  0
  -23.5434  -32.1370   23.7264 O   0  0  0  0  0  0
  -29.2858  -19.5431   18.5699 C   0  0  0  0  0  0
  -29.5999  -17.1206   18.7726 C   0  0  0  0  0  0
  -29.6422  -18.5421   20.7515 C   0  0  0  0  0  0
  -29.3499  -18.2585   17.9769 C   0  0  0  0  0  0
  -29.4049  -19.7544   19.9632 C   0  0  0  0  0  0
  -29.7632  -17.1990   20.1690 C   0  0  0  0  0  0
  -29.1141  -21.6642   21.7001 C   0  0  0  0  0  0
  -29.0019  -23.0157   21.7649 C   0  0  0  0  0  0
  -29.5121  -23.3483   24.1552 C   0  0  0  0  0  0
  -28.8933  -23.7348   23.0248 C   0  0  0  0  0  0
  -29.1146  -18.0605   16.5152 C   0  0  0  0  0  0
  -29.1105  -22.3348   19.5262 C   0  0  0  0  0  0
  -29.1396  -23.6795   20.3888 C   0  0  1  0  0  0
  -28.8289  -19.2890   15.6600 C   0  0  0  0  0  0
  -28.1303  -24.8886   19.9510 C   0  0  0  0  0  0
  -29.2617  -21.1395   20.4255 N   0  0  0  0  0  0
  -29.9067  -15.8948   20.8788 N   0  0  0  0  0  0
  -29.1263  -16.9548   15.9685 O   0  0  0  0  0  0
  -31.4814  -12.5888   19.2100 H   0  0  0  0  0  0
  -30.3740  -11.4883   19.9829 H   0  0  0  0  0  0
  -29.8221  -11.7627   17.5345 H   0  0  0  0  0  0
  -29.6508  -13.4832   17.7423 H   0  0  0  0  0  0
  -27.9131  -11.2883   18.9188 H   0  0  0  0  0  0
  -27.3964  -12.5261   17.8020 H   0  0  0  0  0  0
  -27.6435  -14.2636   19.4786 H   0  0  0  0  0  0
  -28.7071  -12.1748   21.4470 H   0  0  0  0  0  0
  -28.3972  -13.8479   21.8088 H   0  0  0  0  0  0
  -25.2801   -9.5725   22.4719 H   0  0  0  0  0  0
  -24.0103   -7.4640   22.7409 H   0  0  0  0  0  0
  -21.0840   -8.8803   19.8969 H   0  0  0  0  0  0
  -22.3725  -10.9692   19.6204 H   0  0  0  0  0  0
  -21.1992   -7.6166   23.9778 H   0  0  0  0  0  0
  -21.1481   -6.0509   25.9109 H   0  0  0  0  0  0
  -22.0577   -2.7636   23.2802 H   0  0  0  0  0  0
  -22.4032  -12.0069   22.5016 H   0  0  0  0  0  0
  -21.1012  -13.1356   22.2540 H   0  0  0  0  0  0
  -24.6619  -15.8474   20.5668 H   0  0  0  0  0  0
  -26.2845  -15.6486   20.1521 H   0  0  0  0  0  0
  -26.7196  -32.5394   23.1096 H   0  0  0  0  0  0
  -24.9919  -33.9645   25.0329 H   0  0  0  0  0  0
  -22.7278  -31.2986   21.3900 H   0  0  0  0  0  0
  -23.3754  -35.9600   23.3294 H   0  0  0  0  0  0
  -24.3600  -36.8928   22.2070 H   0  0  0  0  0  0
  -23.7211  -37.6479   23.6686 H   0  0  0  0  0  0
  -26.1248  -31.5267   20.6237 H   0  0  0  0  0  0
  -26.8499  -30.8022   22.0283 H   0  0  0  0  0  0
  -28.1097  -28.9054   21.2439 H   0  0  0  0  0  0
  -25.9607  -25.9165   18.9756 H   0  0  0  0  0  0
  -23.9940  -27.3219   18.9700 H   0  0  0  0  0  0
  -23.7576  -30.5751   19.3918 H   0  0  0  0  0  0
  -22.7702  -29.2262   19.8630 H   0  0  0  0  0  0
  -25.1278  -36.1948   25.0847 H   0  0  0  0  0  0
  -20.9926  -28.3268   24.1369 H   0  0  0  0  0  0
  -20.5531  -26.2306   23.3632 H   0  0  0  0  0  0
  -21.6639  -26.7351   22.1294 H   0  0  0  0  0  0
  -19.6910  -25.6240   21.1255 H   0  0  0  0  0  0
  -19.6713  -27.3120   20.6683 H   0  0  0  0  0  0
  -17.4181  -26.6623   21.3987 H   0  0  0  0  0  0
  -18.0336  -26.0067   22.8989 H   0  0  0  0  0  0
  -19.7944  -30.7224   24.2260 H   0  0  0  0  0  0
  -17.5041  -31.6269   24.5130 H   0  0  0  0  0  0
  -15.5359  -30.2994   23.7662 H   0  0  0  0  0  0
  -15.8648  -28.0817   22.7090 H   0  0  0  0  0  0
  -24.5824  -30.7162   25.7832 H   0  0  0  0  0  0
  -24.8774  -32.3048   26.4788 H   0  0  0  0  0  0
  -25.7894  -30.9138   27.0345 H   0  0  0  0  0  0
  -26.2935  -29.6777   24.1291 H   0  0  0  0  0  0
  -27.3761  -29.7309   25.5012 H   0  0  0  0  0  0
  -27.8922  -30.4238   23.9817 H   0  0  0  0  0  0
  -27.2664  -33.3671   26.2125 H   0  0  0  0  0  0
  -28.3804  -32.6939   25.0304 H   0  0  0  0  0  0
  -28.0757  -31.8491   26.5384 H   0  0  0  0  0  0
  -28.2593  -38.0078   24.7517 H   0  0  0  0  0  0
  -28.1069  -36.2621   24.6200 H   0  0  0  0  0  0
  -27.2327  -37.1408   25.8848 H   0  0  0  0  0  0
  -20.9401  -29.8741   21.6840 H   0  0  0  0  0  0
  -26.0163  -38.2861   24.1416 H   0  0  0  0  0  0
  -29.1028  -20.3913   17.9306 H   0  0  0  0  0  0
  -29.6260  -16.1476   18.2997 H   0  0  0  0  0  0
  -29.7497  -18.6472   21.8194 H   0  0  0  0  0  0
  -29.0922  -20.9697   22.5297 H   0  0  0  0  0  0
  -29.3894  -23.8989   25.0789 H   0  0  0  0  0  0
  -30.1525  -22.4762   24.1834 H   0  0  0  0  0  0
  -28.2698  -24.6194   23.0643 H   0  0  0  0  0  0
  -29.8955  -22.3534   18.7681 H   0  0  0  0  0  0
  -28.1526  -22.2585   19.0073 H   0  0  0  0  0  0
  -30.1580  -24.0670   20.3371 H   0  0  0  0  0  0
  -27.9365  -19.8002   16.0188 H   0  0  0  0  0  0
  -28.6688  -19.0011   14.6222 H   0  0  0  0  0  0
  -29.6729  -19.9764   15.6974 H   0  0  0  0  0  0
  -27.1351  -24.5852   20.2738 H   0  0  0  0  0  0
  -28.1122  -24.8608   18.8588 H   0  0  0  0  0  0
  -29.1666  -15.6999   21.5370 H   0  0  0  0  0  0
  1 25  1  0  0  0
  1 30  2  0  0  0
  1 87  1  0  0  0
  2  3  1  0  0  0
  2 25  1  0  0  0
  2 89  1  0  0  0
  2 90  1  0  0  0
  3  4  1  0  0  0
  3 91  1  0  0  0
  3 92  1  0  0  0
  4  5  1  0  0  0
  4 93  1  0  0  0
  4 94  1  0  0  0
  5  6  1  0  0  0
  5 26  1  0  0  0
  5 95  1  0  0  0
  6 25  1  0  0  0
  6 96  1  0  0  0
  6 97  1  0  0  0
  7  8  2  0  0  0
  7 26  1  0  0  0
  7 29  1  0  0  0
  8  9  1  0  0  0
  8 22  1  0  0  0
  9 10  1  0  0  0
  9 27  2  0  0  0
 10 11  2  0  0  0
 10 15  1  0  0  0
 11 12  1  0  0  0
 11 98  1  0  0  0
 12 13  2  0  0  0
 12 99  1  0  0  0
 13 14  1  0  0  0
 13 31  1  0  0  0
 14 15  2  0  0  0
 14100  1  0  0  0
 15101  1  0  0  0
 16 17  2  0  0  0
 16 21  1  0  0  0
 16 31  1  0  0  0
 17 18  1  0  0  0
 17102  1  0  0  0
 18 19  2  0  0  0
 18103  1  0  0  0
 19 20  1  0  0  0
 19 24  1  0  0  0
 20 21  2  0  0  0
 20104  1  0  0  0
 21 23  1  0  0  0
 22 28  1  0  0  0
 22 32  2  0  0  0
 26 27  1  0  0  0
 28105  1  0  0  0
 28106  1  0  0  0
 29107  1  0  0  0
 29108  1  0  0  0
 33 34  1  0  0  0
 33 66  1  0  0  0
 33 70  2  0  0  0
 34 36  1  0  0  0
 34 59  1  0  0  0
 34109  1  0  0  0
 35 44  2  0  0  0
 35 45  1  0  0  0
 35 68  1  0  0  0
 36 56  1  0  0  0
 36110  1  0  0  0
 37 39  1  0  0  0
 37 47  1  0  0  0
 37 66  1  0  0  0
 37111  1  0  0  0
 38 43  2  0  0  0
 38 46  1  0  0  0
 38 47  1  0  0  0
 39 64  1  0  0  0
 39 67  2  0  0  0
 40 52  1  0  0  0
 40 53  2  0  0  0
 40 58  1  0  0  0
 41112  1  0  0  0
 41113  1  0  0  0
 41114  1  0  0  0
 41 48  1  0  0  0
 42 43  1  0  0  0
 42 66  1  0  0  0
 42115  1  0  0  0
 42116  1  0  0  0
 43 44  1  0  0  0
 44117  1  0  0  0
 45 46  2  0  0  0
 45118  1  0  0  0
 46119  1  0  0  0
 47120  1  0  0  0
 47121  1  0  0  0
 48 56  1  0  0  0
 48 65  1  0  0  0
 48122  1  0  0  0
 49 50  1  0  0  0
 49 53  1  0  0  0
 49 64  1  0  0  0
 49123  1  0  0  0
 50 51  1  0  0  0
 50124  1  0  0  0
 50125  1  0  0  0
 51 52  1  0  0  0
 51126  1  0  0  0
 51127  1  0  0  0
 52128  1  0  0  0
 52129  1  0  0  0
 53 54  1  0  0  0
 54 55  2  0  0  0
 54130  1  0  0  0
 55 57  1  0  0  0
 55131  1  0  0  0
 56 69  2  0  0  0
 57 58  2  0  0  0
 57132  1  0  0  0
 58133  1  0  0  0
 59 60  1  0  0  0
 59 61  1  0  0  0
 59 62  1  0  0  0
 60134  1  0  0  0
 60135  1  0  0  0
 60136  1  0  0  0
 61137  1  0  0  0
 61138  1  0  0  0
 61139  1  0  0  0
 62140  1  0  0  0
 62141  1  0  0  0
 62142  1  0  0  0
 63 65  1  0  0  0
 63143  1  0  0  0
 63144  1  0  0  0
 63145  1  0  0  0
 64146  1  0  0  0
 65147  1  0  0  0
 68 85  1  0  0  0
 71 74  2  0  0  0
 71 75  1  0  0  0
 71148  1  0  0  0
 72 74  1  0  0  0
 72 76  2  0  0  0
 72149  1  0  0  0
 73 75  2  0  0  0
 73 76  1  0  0  0
 73150  1  0  0  0
 74 81  1  0  0  0
 75 86  1  0  0  0
 76 87  1  0  0  0
 77 78  2  0  0  0
 77 86  1  0  0  0
 77151  1  0  0  0
 78 80  1  0  0  0
 78 83  1  0  0  0
 79 80  2  0  0  0
 79152  1  0  0  0
 79153  1  0  0  0
 80154  1  0  0  0
 81 84  1  0  0  0
 81 88  2  0  0  0
 82 83  1  0  0  0
 82 86  1  0  0  0
 82155  1  0  0  0
 82156  1  0  0  0
 83 85  1  0  0  0
 83157  1  0  0  0
 84158  1  0  0  0
 84159  1  0  0  0
 84160  1  0  0  0
 85161  1  0  0  0
 85162  1  0  0  0
 87163  1  0  0  0
M  ISO  4   1 100  68 101  85 101  87 100
M  END
> <chiral flag>
0

> <version>
0

> <s_m_source_file>
/data/baiqing/PycharmProjects/Reinvent-master-3.2/result/LINK_invent/BTK/process_docking_weight1_custom_product_contain_oxygen_bond_distance_aromatic_linkinvent_7_9_3/rearranged_h_0066.sdf

> <i_m_source_file_index>
16

> <r_mmod_Potential_Energy-OPLS-2005>
276.048004150391

> <r_mmod_Stretch_Energy-OPLS-2005>
133.531066894531

> <r_mmod_Bend_Energy-OPLS-2005>
248.581939697266

> <r_mmod_Torsional_Energy-OPLS-2005>
278.155395507812

> <r_mmod_Improper_Torsional_Energy-OPLS-2005>
4.79377412796021

> <r_mmod_Van_der_Waal_Energy-OPLS-2005>
140.894866943359

> <r_mmod_Electrostatic_Energy-OPLS-2005>
-394.262969970703

> <r_mmod_Solvation_Energy-OPLS-2005>
-227.537094116211

> <b_mmod_Minimization_Converged-OPLS-2005>
0

> <r_mmod_RMS_Derivative-OPLS-2005>
4.82889699935913

$$$$
16
                    3D
 Structure written by MMmdl.
169177  0  0  1  0            999 V2000
  -30.7041  -14.5448   20.3890 C   0  0  0  0  0  0
  -30.4066  -12.3211   19.4235 C   0  0  0  0  0  0
  -29.4828  -12.4746   18.2000 C   0  0  0  0  0  0
  -28.0059  -12.3446   18.6231 C   0  0  0  0  0  0
  -27.6445  -13.2134   19.8590 C   0  0  2  0  0  0
  -28.7049  -13.1079   20.9755 C   0  0  0  0  0  0
  -25.2539  -13.8175   20.5759 C   0  0  0  0  0  0
  -24.1803  -13.0426   20.9216 C   0  0  0  0  0  0
  -24.6378  -11.6903   20.8758 C   0  0  0  0  0  0
  -23.9056  -10.4286   21.0403 C   0  0  0  0  0  0
  -24.3612   -9.4209   21.9186 C   0  0  0  0  0  0
  -23.6289   -8.2244   22.0750 C   0  0  0  0  0  0
  -22.4274   -8.0281   21.3534 C   0  0  0  0  0  0
  -21.9911   -9.0254   20.4633 C   0  0  0  0  0  0
  -22.7235  -10.2135   20.3045 C   0  0  0  0  0  0
  -21.6853   -6.0743   22.5282 C   0  0  0  0  0  0
  -21.4023   -6.5649   23.8216 C   0  0  0  0  0  0
  -21.3652   -5.6797   24.9176 C   0  0  0  0  0  0
  -21.6036   -4.3060   24.7227 C   0  0  0  0  0  0
  -21.8814   -3.8152   23.4349 C   0  0  0  0  0  0
  -21.9196   -4.6970   22.3406 C   0  0  0  0  0  0
  -22.7829  -13.5215   21.1870 C   0  0  0  0  0  0
  -22.1668   -4.2159   21.0982 F   0  0  0  0  0  0
  -21.5615   -3.4541   25.7736 F   0  0  0  0  0  0
  -30.0145  -13.3739   20.3681 N   0  0  0  0  0  0
  -26.2963  -12.9347   20.3394 N   0  0  0  0  0  0
  -25.9310  -11.6501   20.5810 N   0  0  0  0  0  0
  -22.0473  -12.8192   22.0414 N   0  0  0  0  0  0
  -25.4206  -15.1909   20.4264 N   0  0  0  0  0  0
  -31.9278  -14.5538   20.3313 O   0  0  0  0  0  0
  -21.6634   -6.8882   21.4239 O   0  0  0  0  0  0
  -22.3518  -14.5531   20.6731 O   0  0  0  0  0  0
  -24.6171  -31.8664   23.2087 C   0  0  0  0  0  0
  -25.9057  -32.4811   23.8385 C   0  0  1  0  0  0
  -27.2273  -27.4042   20.0903 C   0  0  0  0  0  0
  -25.5908  -33.8611   24.2319 N   0  0  0  0  0  0
  -23.4050  -30.4908   21.5510 C   0  0  2  0  0  0
  -24.8468  -28.9513   20.1162 C   0  0  0  0  0  0
  -22.7419  -29.4653   22.4990 C   0  0  0  0  0  0
  -18.0272  -28.1377   22.8493 C   0  0  0  0  0  0
  -24.1488  -36.7307   23.2640 C   0  0  0  0  0  0
  -25.9369  -30.8209   21.3659 C   0  0  0  0  0  0
  -26.0096  -29.4529   20.7122 C   0  0  0  0  0  0
  -27.1995  -28.6857   20.6970 C   0  0  0  0  0  0
  -26.0366  -26.9185   19.5009 C   0  0  0  0  0  0
  -24.8559  -27.6841   19.5107 C   0  0  0  0  0  0
  -23.6132  -29.8246   20.1651 C   0  0  0  0  0  0
  -25.4112  -36.3106   24.0337 C   0  0  1  0  0  0
  -20.5863  -28.3670   23.1317 C   0  0  2  0  0  0
  -20.6767  -26.9408   22.5416 C   0  0  0  0  0  0
  -19.5743  -26.6389   21.5214 C   0  0  0  0  0  0
  -18.1920  -26.7923   22.1625 C   0  0  0  0  0  0
  -19.1520  -28.8840   23.2899 C   0  0  0  0  0  0
  -18.9449  -30.1445   23.8910 C   0  0  0  0  0  0
  -17.6455  -30.6585   24.0565 C   0  0  0  0  0  0
  -25.9040  -34.9470   23.5127 C   0  0  0  0  0  0
  -16.5345  -29.9090   23.6322 C   0  0  0  0  0  0
  -16.7263  -28.6502   23.0348 C   0  0  0  0  0  0
  -26.4473  -31.6592   25.0723 C   0  0  0  0  0  0
  -25.3733  -31.3680   26.1463 C   0  0  0  0  0  0
  -27.0320  -30.3041   24.6101 C   0  0  0  0  0  0
  -27.6040  -32.4311   25.7497 C   0  0  0  0  0  0
  -27.5579  -37.1815   24.8467 C   0  0  0  0  0  0
  -21.4146  -29.3036   22.3725 N   0  0  0  0  0  0
  -26.4294  -37.3793   23.9408 N   0  0  0  0  0  0
  -24.6716  -31.0742   22.0999 N   0  0  0  0  0  0
  -23.4184  -28.8194   23.3037 O   0  0  0  0  0  0
  -28.4092  -26.6794   20.1023 O   0  0  0  0  0  0
  -26.5603  -34.8924   22.4689 O   0  0  0  0  0  0
  -23.5359  -32.1429   23.7470 O   0  0  0  0  0  0
  -26.9950  -18.6197   18.5572 C   0  0  0  0  0  0
  -27.0713  -19.9212   19.0718 C   0  0  0  0  0  0
  -29.1845  -19.3466   20.1155 C   0  0  0  0  0  0
  -28.0307  -17.6830   18.7540 C   0  0  0  0  0  0
  -29.1564  -18.0129   19.5794 C   0  0  0  0  0  0
  -28.1954  -20.3234   19.8176 C   0  0  0  0  0  0
  -27.9590  -22.8158   19.6316 C   0  0  0  0  0  0
  -27.8774  -16.4061   17.9353 C   0  0  0  0  0  0
  -32.4346  -16.2965   18.1211 C   0  0  0  0  0  0
  -31.4372  -18.5587   17.8214 C   0  0  0  0  0  0
  -31.3573  -17.5728   20.8423 C   0  0  0  0  0  0
  -28.0560  -24.1764   20.3706 C   0  0  0  0  0  0
  -28.4895  -25.3788   19.4732 C   0  0  0  0  0  0
  -31.1463  -17.1195   18.3176 C   0  0  0  0  0  0
  -30.4015  -17.0572   19.7281 C   0  0  2  0  0  0
  -28.3289  -21.6811   20.2814 N   0  0  0  0  0  0
  -29.9785  -15.6708   20.1400 N   0  0  0  0  0  0
  -27.5483  -22.8059   18.4682 O   0  0  0  0  0  0
  -31.4525  -12.3968   19.1194 H   0  0  0  0  0  0
  -30.2914  -11.3365   19.8781 H   0  0  0  0  0  0
  -29.7229  -11.7217   17.4483 H   0  0  0  0  0  0
  -29.6491  -13.4431   17.7250 H   0  0  0  0  0  0
  -27.8203  -11.2931   18.8450 H   0  0  0  0  0  0
  -27.3533  -12.5975   17.7863 H   0  0  0  0  0  0
  -27.6455  -14.2431   19.5212 H   0  0  0  0  0  0
  -28.6951  -12.1159   21.4295 H   0  0  0  0  0  0
  -28.4974  -13.8216   21.7750 H   0  0  0  0  0  0
  -25.2749   -9.5710   22.4766 H   0  0  0  0  0  0
  -24.0002   -7.4645   22.7480 H   0  0  0  0  0  0
  -21.0843   -8.8778   19.8935 H   0  0  0  0  0  0
  -22.3694  -10.9684   19.6162 H   0  0  0  0  0  0
  -21.2032   -7.6160   23.9722 H   0  0  0  0  0  0
  -21.1470   -6.0531   25.9076 H   0  0  0  0  0  0
  -22.0598   -2.7618   23.2847 H   0  0  0  0  0  0
  -22.4073  -11.9839   22.4788 H   0  0  0  0  0  0
  -21.1086  -13.1201   22.2608 H   0  0  0  0  0  0
  -24.6499  -15.8359   20.5614 H   0  0  0  0  0  0
  -26.2781  -15.6574   20.1643 H   0  0  0  0  0  0
  -26.7127  -32.5506   23.1143 H   0  0  0  0  0  0
  -25.0065  -33.9771   25.0469 H   0  0  0  0  0  0
  -22.6940  -31.3079   21.4129 H   0  0  0  0  0  0
  -23.3750  -35.9639   23.3307 H   0  0  0  0  0  0
  -24.3578  -36.8919   22.2051 H   0  0  0  0  0  0
  -23.7237  -37.6514   23.6651 H   0  0  0  0  0  0
  -26.0543  -31.5854   20.5964 H   0  0  0  0  0  0
  -26.8237  -30.8719   21.9863 H   0  0  0  0  0  0
  -28.0990  -29.0714   21.1567 H   0  0  0  0  0  0
  -25.9876  -25.9460   19.0350 H   0  0  0  0  0  0
  -23.9583  -27.2891   19.0549 H   0  0  0  0  0  0
  -23.7280  -30.6007   19.4074 H   0  0  0  0  0  0
  -22.7343  -29.2504   19.8666 H   0  0  0  0  0  0
  -25.1286  -36.1969   25.0829 H   0  0  0  0  0  0
  -20.9948  -28.3235   24.1442 H   0  0  0  0  0  0
  -20.5680  -26.2276   23.3602 H   0  0  0  0  0  0
  -21.6636  -26.7461   22.1200 H   0  0  0  0  0  0
  -19.6908  -25.6305   21.1228 H   0  0  0  0  0  0
  -19.6673  -27.3210   20.6750 H   0  0  0  0  0  0
  -17.4192  -26.6674   21.4025 H   0  0  0  0  0  0
  -18.0319  -26.0060   22.9017 H   0  0  0  0  0  0
  -19.7929  -30.7253   24.2287 H   0  0  0  0  0  0
  -17.5013  -31.6267   24.5169 H   0  0  0  0  0  0
  -15.5347  -30.3002   23.7636 H   0  0  0  0  0  0
  -15.8661  -28.0830   22.7058 H   0  0  0  0  0  0
  -24.5914  -30.7024   25.7786 H   0  0  0  0  0  0
  -24.8918  -32.2828   26.4924 H   0  0  0  0  0  0
  -25.8087  -30.8834   27.0212 H   0  0  0  0  0  0
  -26.2878  -29.6796   24.1145 H   0  0  0  0  0  0
  -27.4096  -29.7270   25.4552 H   0  0  0  0  0  0
  -27.8703  -30.4374   23.9257 H   0  0  0  0  0  0
  -27.2654  -33.3603   26.2089 H   0  0  0  0  0  0
  -28.3847  -32.6879   25.0326 H   0  0  0  0  0  0
  -28.0708  -31.8425   26.5404 H   0  0  0  0  0  0
  -28.2598  -38.0112   24.7522 H   0  0  0  0  0  0
  -28.1075  -36.2644   24.6292 H   0  0  0  0  0  0
  -27.2294  -37.1461   25.8870 H   0  0  0  0  0  0
  -20.9308  -29.8769   21.6956 H   0  0  0  0  0  0
  -26.0181  -38.2873   24.1402 H   0  0  0  0  0  0
  -26.1443  -18.3597   17.9422 H   0  0  0  0  0  0
  -26.2697  -20.6130   18.8552 H   0  0  0  0  0  0
  -30.0198  -19.6880   20.7040 H   0  0  0  0  0  0
  -26.9104  -15.9431   18.1287 H   0  0  0  0  0  0
  -28.6424  -15.6526   18.0753 H   0  0  0  0  0  0
  -27.8956  -16.6613   16.8755 H   0  0  0  0  0  0
  -33.1490  -16.4462   18.9301 H   0  0  0  0  0  0
  -32.9442  -16.5664   17.1956 H   0  0  0  0  0  0
  -32.2203  -15.2336   18.0221 H   0  0  0  0  0  0
  -31.8798  -18.5499   16.8250 H   0  0  0  0  0  0
  -32.1335  -19.0836   18.4739 H   0  0  0  0  0  0
  -30.5385  -19.1673   17.7319 H   0  0  0  0  0  0
  -31.7872  -18.5466   20.6172 H   0  0  0  0  0  0
  -32.2166  -16.9239   20.9977 H   0  0  0  0  0  0
  -30.8415  -17.6492   21.8000 H   0  0  0  0  0  0
  -28.7370  -24.0900   21.2173 H   0  0  0  0  0  0
  -27.0706  -24.3804   20.7897 H   0  0  0  0  0  0
  -27.9816  -25.3802   18.5087 H   0  0  0  0  0  0
  -29.5394  -25.2327   19.2181 H   0  0  0  0  0  0
  -30.4676  -16.7193   17.5686 H   0  0  0  0  0  0
  -28.7823  -21.8076   21.1765 H   0  0  0  0  0  0
  -28.9813  -15.5352   20.1586 H   0  0  0  0  0  0
  1 25  1  0  0  0
  1 30  2  0  0  0
  1 87  1  0  0  0
  2  3  1  0  0  0
  2 25  1  0  0  0
  2 89  1  0  0  0
  2 90  1  0  0  0
  3  4  1  0  0  0
  3 91  1  0  0  0
  3 92  1  0  0  0
  4  5  1  0  0  0
  4 93  1  0  0  0
  4 94  1  0  0  0
  5  6  1  0  0  0
  5 26  1  0  0  0
  5 95  1  0  0  0
  6 25  1  0  0  0
  6 96  1  0  0  0
  6 97  1  0  0  0
  7  8  2  0  0  0
  7 26  1  0  0  0
  7 29  1  0  0  0
  8  9  1  0  0  0
  8 22  1  0  0  0
  9 10  1  0  0  0
  9 27  2  0  0  0
 10 11  2  0  0  0
 10 15  1  0  0  0
 11 12  1  0  0  0
 11 98  1  0  0  0
 12 13  2  0  0  0
 12 99  1  0  0  0
 13 14  1  0  0  0
 13 31  1  0  0  0
 14 15  2  0  0  0
 14100  1  0  0  0
 15101  1  0  0  0
 16 17  2  0  0  0
 16 21  1  0  0  0
 16 31  1  0  0  0
 17 18  1  0  0  0
 17102  1  0  0  0
 18 19  2  0  0  0
 18103  1  0  0  0
 19 20  1  0  0  0
 19 24  1  0  0  0
 20 21  2  0  0  0
 20104  1  0  0  0
 21 23  1  0  0  0
 22 28  1  0  0  0
 22 32  2  0  0  0
 26 27  1  0  0  0
 28105  1  0  0  0
 28106  1  0  0  0
 29107  1  0  0  0
 29108  1  0  0  0
 33 34  1  0  0  0
 33 66  1  0  0  0
 33 70  2  0  0  0
 34 36  1  0  0  0
 34 59  1  0  0  0
 34109  1  0  0  0
 35 44  2  0  0  0
 35 45  1  0  0  0
 35 68  1  0  0  0
 36 56  1  0  0  0
 36110  1  0  0  0
 37 39  1  0  0  0
 37 47  1  0  0  0
 37 66  1  0  0  0
 37111  1  0  0  0
 38 43  2  0  0  0
 38 46  1  0  0  0
 38 47  1  0  0  0
 39 64  1  0  0  0
 39 67  2  0  0  0
 40 52  1  0  0  0
 40 53  2  0  0  0
 40 58  1  0  0  0
 41112  1  0  0  0
 41113  1  0  0  0
 41114  1  0  0  0
 41 48  1  0  0  0
 42 43  1  0  0  0
 42 66  1  0  0  0
 42115  1  0  0  0
 42116  1  0  0  0
 43 44  1  0  0  0
 44117  1  0  0  0
 45 46  2  0  0  0
 45118  1  0  0  0
 46119  1  0  0  0
 47120  1  0  0  0
 47121  1  0  0  0
 48 56  1  0  0  0
 48 65  1  0  0  0
 48122  1  0  0  0
 49 50  1  0  0  0
 49 53  1  0  0  0
 49 64  1  0  0  0
 49123  1  0  0  0
 50 51  1  0  0  0
 50124  1  0  0  0
 50125  1  0  0  0
 51 52  1  0  0  0
 51126  1  0  0  0
 51127  1  0  0  0
 52128  1  0  0  0
 52129  1  0  0  0
 53 54  1  0  0  0
 54 55  2  0  0  0
 54130  1  0  0  0
 55 57  1  0  0  0
 55131  1  0  0  0
 56 69  2  0  0  0
 57 58  2  0  0  0
 57132  1  0  0  0
 58133  1  0  0  0
 59 60  1  0  0  0
 59 61  1  0  0  0
 59 62  1  0  0  0
 60134  1  0  0  0
 60135  1  0  0  0
 60136  1  0  0  0
 61137  1  0  0  0
 61138  1  0  0  0
 61139  1  0  0  0
 62140  1  0  0  0
 62141  1  0  0  0
 62142  1  0  0  0
 63 65  1  0  0  0
 63143  1  0  0  0
 63144  1  0  0  0
 63145  1  0  0  0
 64146  1  0  0  0
 65147  1  0  0  0
 68 83  1  0  0  0
 71 72  2  0  0  0
 71 74  1  0  0  0
 71148  1  0  0  0
 72 76  1  0  0  0
 72149  1  0  0  0
 73 75  1  0  0  0
 73 76  2  0  0  0
 73150  1  0  0  0
 74 75  2  0  0  0
 74 78  1  0  0  0
 75 85  1  0  0  0
 76 86  1  0  0  0
 77 82  1  0  0  0
 77 86  1  0  0  0
 77 88  2  0  0  0
 78151  1  0  0  0
 78152  1  0  0  0
 78153  1  0  0  0
 79154  1  0  0  0
 79155  1  0  0  0
 79156  1  0  0  0
 79 84  1  0  0  0
 80 84  1  0  0  0
 80157  1  0  0  0
 80158  1  0  0  0
 80159  1  0  0  0
 81160  1  0  0  0
 81161  1  0  0  0
 81162  1  0  0  0
 81 85  1  0  0  0
 82 83  1  0  0  0
 82163  1  0  0  0
 82164  1  0  0  0
 83165  1  0  0  0
 83166  1  0  0  0
 84 85  1  0  0  0
 84167  1  0  0  0
 85 87  1  0  0  0
 86168  1  0  0  0
 87169  1  0  0  0
M  ISO  4   1 100  68 101  83 101  87 100
M  END
> <chiral flag>
0

> <version>
0

> <s_m_source_file>
/data/baiqing/PycharmProjects/Reinvent-master-3.2/result/LINK_invent/BTK/process_docking_weight1_custom_product_contain_oxygen_bond_distance_aromatic_linkinvent_7_9_3/rearranged_h_0066.sdf

> <i_m_source_file_index>
17

> <r_mmod_Potential_Energy-OPLS-2005>
-29.8343830108643

> <r_mmod_Stretch_Energy-OPLS-2005>
62.7472229003906

> <r_mmod_Bend_Energy-OPLS-2005>
140.883056640625

> <r_mmod_Torsional_Energy-OPLS-2005>
243.613983154297

> <r_mmod_Improper_Torsional_Energy-OPLS-2005>
9.57315540313721

> <r_mmod_Van_der_Waal_Energy-OPLS-2005>
170.993240356445

> <r_mmod_Electrostatic_Energy-OPLS-2005>
-486.850372314453

> <r_mmod_Solvation_Energy-OPLS-2005>
-210.756240844727

> <b_mmod_Minimization_Converged-OPLS-2005>
0

> <r_mmod_RMS_Derivative-OPLS-2005>
0.936936378479004

$$$$
17
                    3D
 Structure written by MMmdl.
157166  0  0  1  0            999 V2000
  -30.5845  -14.7723   20.4120 C   0  0  0  0  0  0
  -30.4254  -12.4757   19.4471 C   0  0  0  0  0  0
  -29.4965  -12.5206   18.2143 C   0  0  0  0  0  0
  -28.0228  -12.3407   18.6318 C   0  0  0  0  0  0
  -27.6305  -13.2344   19.8413 C   0  0  2  0  0  0
  -28.6812  -13.1826   20.9688 C   0  0  0  0  0  0
  -25.2447  -13.8182   20.5739 C   0  0  0  0  0  0
  -24.1764  -13.0423   20.9206 C   0  0  0  0  0  0
  -24.6360  -11.6885   20.8741 C   0  0  0  0  0  0
  -23.9048  -10.4274   21.0396 C   0  0  0  0  0  0
  -24.3608   -9.4201   21.9183 C   0  0  0  0  0  0
  -23.6278   -8.2238   22.0760 C   0  0  0  0  0  0
  -22.4271   -8.0273   21.3537 C   0  0  0  0  0  0
  -21.9900   -9.0243   20.4652 C   0  0  0  0  0  0
  -22.7210  -10.2123   20.3055 C   0  0  0  0  0  0
  -21.6854   -6.0741   22.5253 C   0  0  0  0  0  0
  -21.4018   -6.5629   23.8204 C   0  0  0  0  0  0
  -21.3670   -5.6786   24.9150 C   0  0  0  0  0  0
  -21.6045   -4.3045   24.7208 C   0  0  0  0  0  0
  -21.8820   -3.8142   23.4319 C   0  0  0  0  0  0
  -21.9199   -4.6959   22.3389 C   0  0  0  0  0  0
  -22.7781  -13.5183   21.1890 C   0  0  0  0  0  0
  -22.1662   -4.2147   21.0962 F   0  0  0  0  0  0
  -21.5639   -3.4536   25.7727 F   0  0  0  0  0  0
  -29.9687  -13.5416   20.3657 N   0  0  0  0  0  0
  -26.2885  -12.9407   20.3275 N   0  0  0  0  0  0
  -25.9281  -11.6539   20.5710 N   0  0  0  0  0  0
  -22.0435  -12.8198   22.0428 N   0  0  0  0  0  0
  -25.4103  -15.1932   20.4216 N   0  0  0  0  0  0
  -31.7953  -14.8503   20.1979 O   0  0  0  0  0  0
  -21.6624   -6.8857   21.4224 O   0  0  0  0  0  0
  -22.3486  -14.5512   20.6729 O   0  0  0  0  0  0
  -24.6254  -31.8595   23.2006 C   0  0  0  0  0  0
  -25.9098  -32.4753   23.8380 C   0  0  1  0  0  0
  -27.1824  -27.2830   20.1243 C   0  0  0  0  0  0
  -25.5888  -33.8547   24.2297 N   0  0  0  0  0  0
  -23.4191  -30.4895   21.5371 C   0  0  2  0  0  0
  -24.8646  -28.9521   20.1073 C   0  0  0  0  0  0
  -22.7481  -29.4663   22.4831 C   0  0  0  0  0  0
  -18.0320  -28.1386   22.8469 C   0  0  0  0  0  0
  -24.1463  -36.7222   23.2664 C   0  0  0  0  0  0
  -25.9707  -30.7837   21.3816 C   0  0  0  0  0  0
  -26.0382  -29.4120   20.7151 C   0  0  0  0  0  0
  -27.2072  -28.5853   20.7191 C   0  0  0  0  0  0
  -25.9988  -26.9093   19.4491 C   0  0  0  0  0  0
  -24.8437  -27.7064   19.4660 C   0  0  0  0  0  0
  -23.6317  -29.8250   20.1544 C   0  0  0  0  0  0
  -25.4072  -36.3046   24.0373 C   0  0  1  0  0  0
  -20.5929  -28.3693   23.1212 C   0  0  2  0  0  0
  -20.6775  -26.9387   22.5381 C   0  0  0  0  0  0
  -19.5747  -26.6373   21.5182 C   0  0  0  0  0  0
  -18.1940  -26.7924   22.1617 C   0  0  0  0  0  0
  -19.1581  -28.8860   23.2851 C   0  0  0  0  0  0
  -18.9518  -30.1455   23.8854 C   0  0  0  0  0  0
  -17.6514  -30.6594   24.0554 C   0  0  0  0  0  0
  -25.9015  -34.9421   23.5136 C   0  0  0  0  0  0
  -16.5393  -29.9077   23.6348 C   0  0  0  0  0  0
  -16.7308  -28.6514   23.0347 C   0  0  0  0  0  0
  -26.4470  -31.6622   25.0782 C   0  0  0  0  0  0
  -25.3684  -31.3777   26.1495 C   0  0  0  0  0  0
  -27.0371  -30.3056   24.6305 C   0  0  0  0  0  0
  -27.6036  -32.4407   25.7528 C   0  0  0  0  0  0
  -27.5547  -37.1748   24.8475 C   0  0  0  0  0  0
  -21.4213  -29.3039   22.3580 N   0  0  0  0  0  0
  -26.4237  -37.3741   23.9457 N   0  0  0  0  0  0
  -24.6920  -31.0615   22.0943 N   0  0  0  0  0  0
  -23.4233  -28.8171   23.2900 O   0  0  0  0  0  0
  -28.2457  -26.3632   20.1947 O   0  0  0  0  0  0
  -26.5592  -34.8894   22.4694 O   0  0  0  0  0  0
  -23.5413  -32.1364   23.7291 O   0  0  0  0  0  0
  -29.4432  -18.5591   20.2580 C   0  0  0  0  0  0
  -31.3363  -17.5834   21.3662 C   0  0  0  0  0  0
  -29.9175  -19.9047   20.5970 C   0  0  0  0  0  0
  -30.1653  -17.3442   20.6350 C   0  0  0  0  0  0
  -31.1882  -19.9239   21.2482 C   0  0  0  0  0  0
  -28.8147  -21.5312   19.0266 C   0  0  0  0  0  0
  -28.2490  -22.9583   18.9587 C   0  0  0  0  0  0
  -28.9639  -22.3842   21.1505 C   0  0  0  0  0  0
  -28.7743  -23.6713   20.2210 C   0  0  2  0  0  0
  -27.9044  -24.9701   20.6445 C   0  0  0  0  0  0
  -32.0096  -21.1811   21.6026 C   0  0  0  0  0  0
  -31.8224  -18.7957   21.6491 N   0  0  0  0  0  0
  -29.2180  -21.1847   20.2629 N   0  0  0  0  0  0
  -29.7849  -15.9213   20.3962 N   0  0  0  0  0  0
  -28.8883  -20.8087   18.0320 O   0  0  0  0  0  0
  -31.8337  -21.4378   22.8952 F   0  0  0  0  0  0
  -33.3121  -20.9350   21.4319 F   0  0  0  0  0  0
  -31.7410  -22.2791   20.8944 F   0  0  0  0  0  0
  -31.4604  -12.6170   19.1294 H   0  0  0  0  0  0
  -30.3824  -11.4967   19.9305 H   0  0  0  0  0  0
  -29.7766  -11.7500   17.4945 H   0  0  0  0  0  0
  -29.6136  -13.4758   17.6953 H   0  0  0  0  0  0
  -27.8681  -11.2899   18.8817 H   0  0  0  0  0  0
  -27.3645  -12.5503   17.7874 H   0  0  0  0  0  0
  -27.6116  -14.2572   19.4665 H   0  0  0  0  0  0
  -28.7227  -12.1878   21.4169 H   0  0  0  0  0  0
  -28.4218  -13.8743   21.7736 H   0  0  0  0  0  0
  -25.2756   -9.5686   22.4748 H   0  0  0  0  0  0
  -24.0000   -7.4639   22.7491 H   0  0  0  0  0  0
  -21.0831   -8.8739   19.8969 H   0  0  0  0  0  0
  -22.3651  -10.9658   19.6179 H   0  0  0  0  0  0
  -21.1995   -7.6140   23.9682 H   0  0  0  0  0  0
  -21.1508   -6.0521   25.9055 H   0  0  0  0  0  0
  -22.0601   -2.7599   23.2807 H   0  0  0  0  0  0
  -22.4070  -11.9829   22.4776 H   0  0  0  0  0  0
  -21.1073  -13.1233   22.2699 H   0  0  0  0  0  0
  -24.6395  -15.8371   20.5644 H   0  0  0  0  0  0
  -26.2438  -15.6460   20.0756 H   0  0  0  0  0  0
  -26.7177  -32.5406   23.1148 H   0  0  0  0  0  0
  -25.0045  -33.9710   25.0452 H   0  0  0  0  0  0
  -22.7131  -31.3084   21.3828 H   0  0  0  0  0  0
  -23.3755  -35.9528   23.3328 H   0  0  0  0  0  0
  -24.3548  -36.8822   22.2067 H   0  0  0  0  0  0
  -23.7209  -37.6422   23.6687 H   0  0  0  0  0  0
  -26.1142  -31.5621   20.6295 H   0  0  0  0  0  0
  -26.8412  -30.8115   22.0281 H   0  0  0  0  0  0
  -28.1114  -28.9107   21.2131 H   0  0  0  0  0  0
  -25.9291  -25.9821   18.8956 H   0  0  0  0  0  0
  -23.9374  -27.3612   18.9879 H   0  0  0  0  0  0
  -23.7417  -30.5885   19.3859 H   0  0  0  0  0  0
  -22.7557  -29.2455   19.8546 H   0  0  0  0  0  0
  -25.1260  -36.1879   25.0879 H   0  0  0  0  0  0
  -21.0063  -28.3291   24.1318 H   0  0  0  0  0  0
  -20.5602  -26.2307   23.3618 H   0  0  0  0  0  0
  -21.6646  -26.7318   22.1202 H   0  0  0  0  0  0
  -19.6875  -25.6274   21.1239 H   0  0  0  0  0  0
  -19.6709  -27.3153   20.6688 H   0  0  0  0  0  0
  -17.4180  -26.6693   21.4041 H   0  0  0  0  0  0
  -18.0327  -26.0067   22.9018 H   0  0  0  0  0  0
  -19.7994  -30.7286   24.2185 H   0  0  0  0  0  0
  -17.5075  -31.6277   24.5154 H   0  0  0  0  0  0
  -15.5375  -30.2980   23.7697 H   0  0  0  0  0  0
  -15.8709  -28.0830   22.7048 H   0  0  0  0  0  0
  -24.5883  -30.7093   25.7843 H   0  0  0  0  0  0
  -24.8815  -32.2931   26.4877 H   0  0  0  0  0  0
  -25.7959  -30.9010   27.0328 H   0  0  0  0  0  0
  -26.3018  -29.6803   24.1228 H   0  0  0  0  0  0
  -27.3950  -29.7324   25.4890 H   0  0  0  0  0  0
  -27.8939  -30.4374   23.9686 H   0  0  0  0  0  0
  -27.2680  -33.3769   26.2006 H   0  0  0  0  0  0
  -28.3868  -32.6868   25.0348 H   0  0  0  0  0  0
  -28.0709  -31.8616   26.5511 H   0  0  0  0  0  0
  -28.2532  -38.0065   24.7506 H   0  0  0  0  0  0
  -28.1070  -36.2588   24.6312 H   0  0  0  0  0  0
  -27.2275  -37.1390   25.8879 H   0  0  0  0  0  0
  -20.9355  -29.8778   21.6807 H   0  0  0  0  0  0
  -26.0116  -38.2817   24.1488 H   0  0  0  0  0  0
  -28.5236  -18.4529   19.6990 H   0  0  0  0  0  0
  -31.9121  -16.7801   21.7978 H   0  0  0  0  0  0
  -27.1510  -22.8825   18.9310 H   0  0  0  0  0  0
  -28.6036  -23.4662   18.0691 H   0  0  0  0  0  0
  -28.0637  -22.1813   21.7284 H   0  0  0  0  0  0
  -29.7269  -22.5280   21.9154 H   0  0  0  0  0  0
  -29.7906  -24.0386   20.0449 H   0  0  0  0  0  0
  -27.7950  -24.9785   21.7324 H   0  0  0  0  0  0
  -26.8925  -24.7526   20.3162 H   0  0  0  0  0  0
  -28.8040  -15.7453   20.2406 H   0  0  0  0  0  0
  1 25  1  0  0  0
  1 30  2  0  0  0
  1 84  1  0  0  0
  2  3  1  0  0  0
  2 25  1  0  0  0
  2 89  1  0  0  0
  2 90  1  0  0  0
  3  4  1  0  0  0
  3 91  1  0  0  0
  3 92  1  0  0  0
  4  5  1  0  0  0
  4 93  1  0  0  0
  4 94  1  0  0  0
  5  6  1  0  0  0
  5 26  1  0  0  0
  5 95  1  0  0  0
  6 25  1  0  0  0
  6 96  1  0  0  0
  6 97  1  0  0  0
  7  8  2  0  0  0
  7 26  1  0  0  0
  7 29  1  0  0  0
  8  9  1  0  0  0
  8 22  1  0  0  0
  9 10  1  0  0  0
  9 27  2  0  0  0
 10 11  2  0  0  0
 10 15  1  0  0  0
 11 12  1  0  0  0
 11 98  1  0  0  0
 12 13  2  0  0  0
 12 99  1  0  0  0
 13 14  1  0  0  0
 13 31  1  0  0  0
 14 15  2  0  0  0
 14100  1  0  0  0
 15101  1  0  0  0
 16 17  2  0  0  0
 16 21  1  0  0  0
 16 31  1  0  0  0
 17 18  1  0  0  0
 17102  1  0  0  0
 18 19  2  0  0  0
 18103  1  0  0  0
 19 20  1  0  0  0
 19 24  1  0  0  0
 20 21  2  0  0  0
 20104  1  0  0  0
 21 23  1  0  0  0
 22 28  1  0  0  0
 22 32  2  0  0  0
 26 27  1  0  0  0
 28105  1  0  0  0
 28106  1  0  0  0
 29107  1  0  0  0
 29108  1  0  0  0
 33 34  1  0  0  0
 33 66  1  0  0  0
 33 70  2  0  0  0
 34 36  1  0  0  0
 34 59  1  0  0  0
 34109  1  0  0  0
 35 44  2  0  0  0
 35 45  1  0  0  0
 35 68  1  0  0  0
 36 56  1  0  0  0
 36110  1  0  0  0
 37 39  1  0  0  0
 37 47  1  0  0  0
 37 66  1  0  0  0
 37111  1  0  0  0
 38 43  2  0  0  0
 38 46  1  0  0  0
 38 47  1  0  0  0
 39 64  1  0  0  0
 39 67  2  0  0  0
 40 52  1  0  0  0
 40 53  2  0  0  0
 40 58  1  0  0  0
 41112  1  0  0  0
 41113  1  0  0  0
 41114  1  0  0  0
 41 48  1  0  0  0
 42 43  1  0  0  0
 42 66  1  0  0  0
 42115  1  0  0  0
 42116  1  0  0  0
 43 44  1  0  0  0
 44117  1  0  0  0
 45 46  2  0  0  0
 45118  1  0  0  0
 46119  1  0  0  0
 47120  1  0  0  0
 47121  1  0  0  0
 48 56  1  0  0  0
 48 65  1  0  0  0
 48122  1  0  0  0
 49 50  1  0  0  0
 49 53  1  0  0  0
 49 64  1  0  0  0
 49123  1  0  0  0
 50 51  1  0  0  0
 50124  1  0  0  0
 50125  1  0  0  0
 51 52  1  0  0  0
 51126  1  0  0  0
 51127  1  0  0  0
 52128  1  0  0  0
 52129  1  0  0  0
 53 54  1  0  0  0
 54 55  2  0  0  0
 54130  1  0  0  0
 55 57  1  0  0  0
 55131  1  0  0  0
 56 69  2  0  0  0
 57 58  2  0  0  0
 57132  1  0  0  0
 58133  1  0  0  0
 59 60  1  0  0  0
 59 61  1  0  0  0
 59 62  1  0  0  0
 60134  1  0  0  0
 60135  1  0  0  0
 60136  1  0  0  0
 61137  1  0  0  0
 61138  1  0  0  0
 61139  1  0  0  0
 62140  1  0  0  0
 62141  1  0  0  0
 62142  1  0  0  0
 63 65  1  0  0  0
 63143  1  0  0  0
 63144  1  0  0  0
 63145  1  0  0  0
 64146  1  0  0  0
 65147  1  0  0  0
 68 80  1  0  0  0
 71 73  2  0  0  0
 71 74  1  0  0  0
 71148  1  0  0  0
 72 74  2  0  0  0
 72 82  1  0  0  0
 72149  1  0  0  0
 73 75  1  0  0  0
 73 83  1  0  0  0
 74 84  1  0  0  0
 75 81  1  0  0  0
 75 82  2  0  0  0
 76 77  1  0  0  0
 76 83  1  0  0  0
 76 85  2  0  0  0
 77 79  1  0  0  0
 77150  1  0  0  0
 77151  1  0  0  0
 78 79  1  0  0  0
 78 83  1  0  0  0
 78152  1  0  0  0
 78153  1  0  0  0
 79 80  1  0  0  0
 79154  1  0  0  0
 80155  1  0  0  0
 80156  1  0  0  0
 81 86  1  0  0  0
 81 87  1  0  0  0
 81 88  1  0  0  0
 84157  1  0  0  0
M  ISO  4   1 100  68 101  80 101  84 100
M  END
> <chiral flag>
0

> <version>
0

> <s_m_source_file>
/data/baiqing/PycharmProjects/Reinvent-master-3.2/result/LINK_invent/BTK/process_docking_weight1_custom_product_contain_oxygen_bond_distance_aromatic_linkinvent_7_9_3/rearranged_h_0066.sdf

> <i_m_source_file_index>
18

> <r_mmod_Potential_Energy-OPLS-2005>
213.440032958984

> <r_mmod_Stretch_Energy-OPLS-2005>
126.706840515137

> <r_mmod_Bend_Energy-OPLS-2005>
198.418991088867

> <r_mmod_Torsional_Energy-OPLS-2005>
312.929534912109

> <r_mmod_Improper_Torsional_Energy-OPLS-2005>
7.56290578842163

> <r_mmod_Van_der_Waal_Energy-OPLS-2005>
153.707580566406

> <r_mmod_Electrostatic_Energy-OPLS-2005>
-457.494812011719

> <r_mmod_Solvation_Energy-OPLS-2005>
-224.576416015625

> <b_mmod_Minimization_Converged-OPLS-2005>
0

> <r_mmod_RMS_Derivative-OPLS-2005>
10.7228164672852

$$$$
18
                    3D
 Structure written by MMmdl.
165174  0  0  1  0            999 V2000
  -30.6185  -14.6959   20.4861 C   0  0  0  0  0  0
  -30.4361  -12.4255   19.4754 C   0  0  0  0  0  0
  -29.5207  -12.5344   18.2382 C   0  0  0  0  0  0
  -28.0366  -12.3837   18.6317 C   0  0  0  0  0  0
  -27.6546  -13.2320   19.8758 C   0  0  2  0  0  0
  -28.6995  -13.1062   21.0061 C   0  0  0  0  0  0
  -25.2581  -13.8203   20.5744 C   0  0  0  0  0  0
  -24.1830  -13.0454   20.9173 C   0  0  0  0  0  0
  -24.6418  -11.6917   20.8755 C   0  0  0  0  0  0
  -23.9086  -10.4300   21.0435 C   0  0  0  0  0  0
  -24.3626   -9.4203   21.9212 C   0  0  0  0  0  0
  -23.6272   -8.2265   22.0777 C   0  0  0  0  0  0
  -22.4250   -8.0316   21.3556 C   0  0  0  0  0  0
  -21.9918   -9.0307   20.4671 C   0  0  0  0  0  0
  -22.7264  -10.2165   20.3078 C   0  0  0  0  0  0
  -21.6847   -6.0742   22.5256 C   0  0  0  0  0  0
  -21.4010   -6.5621   23.8192 C   0  0  0  0  0  0
  -21.3650   -5.6775   24.9162 C   0  0  0  0  0  0
  -21.6050   -4.3041   24.7192 C   0  0  0  0  0  0
  -21.8814   -3.8138   23.4308 C   0  0  0  0  0  0
  -21.9189   -4.6963   22.3365 C   0  0  0  0  0  0
  -22.7860  -13.5261   21.1794 C   0  0  0  0  0  0
  -22.1664   -4.2155   21.0931 F   0  0  0  0  0  0
  -21.5640   -3.4512   25.7699 F   0  0  0  0  0  0
  -30.0124  -13.4607   20.4458 N   0  0  0  0  0  0
  -26.3008  -12.9397   20.3407 N   0  0  0  0  0  0
  -25.9339  -11.6537   20.5777 N   0  0  0  0  0  0
  -22.0427  -12.8338   22.0359 N   0  0  0  0  0  0
  -25.4386  -15.1947   20.4283 N   0  0  0  0  0  0
  -31.7609  -14.8427   20.0417 O   0  0  0  0  0  0
  -21.6635   -6.8902   21.4227 O   0  0  0  0  0  0
  -22.3581  -14.5573   20.6614 O   0  0  0  0  0  0
  -24.6323  -31.8575   23.2016 C   0  0  0  0  0  0
  -25.9134  -32.4759   23.8347 C   0  0  1  0  0  0
  -27.2183  -27.2775   20.1027 C   0  0  0  0  0  0
  -25.5953  -33.8577   24.2268 N   0  0  0  0  0  0
  -23.4272  -30.4803   21.5507 C   0  0  2  0  0  0
  -24.8695  -28.9345   20.1086 C   0  0  0  0  0  0
  -22.7496  -29.4598   22.4976 C   0  0  0  0  0  0
  -18.0271  -28.1431   22.8470 C   0  0  0  0  0  0
  -24.1496  -36.7256   23.2634 C   0  0  0  0  0  0
  -25.9758  -30.7694   21.3830 C   0  0  0  0  0  0
  -26.0435  -29.3982   20.7157 C   0  0  0  0  0  0
  -27.2204  -28.5822   20.7024 C   0  0  0  0  0  0
  -26.0180  -26.8873   19.4628 C   0  0  0  0  0  0
  -24.8617  -27.6856   19.4745 C   0  0  0  0  0  0
  -23.6407  -29.8212   20.1643 C   0  0  0  0  0  0
  -25.4122  -36.3064   24.0322 C   0  0  1  0  0  0
  -20.5876  -28.3728   23.1291 C   0  0  2  0  0  0
  -20.6788  -26.9454   22.5430 C   0  0  0  0  0  0
  -19.5748  -26.6395   21.5247 C   0  0  0  0  0  0
  -18.1911  -26.7970   22.1624 C   0  0  0  0  0  0
  -19.1530  -28.8902   23.2858 C   0  0  0  0  0  0
  -18.9464  -30.1511   23.8856 C   0  0  0  0  0  0
  -17.6467  -30.6631   24.0574 C   0  0  0  0  0  0
  -25.9061  -34.9439   23.5098 C   0  0  0  0  0  0
  -16.5349  -29.9129   23.6352 C   0  0  0  0  0  0
  -16.7260  -28.6554   23.0346 C   0  0  0  0  0  0
  -26.4493  -31.6569   25.0727 C   0  0  0  0  0  0
  -25.3711  -31.3761   26.1468 C   0  0  0  0  0  0
  -27.0296  -30.2955   24.6210 C   0  0  0  0  0  0
  -27.6044  -32.4328   25.7483 C   0  0  0  0  0  0
  -27.5589  -37.1773   24.8430 C   0  0  0  0  0  0
  -21.4211  -29.3049   22.3689 N   0  0  0  0  0  0
  -26.4274  -37.3773   23.9412 N   0  0  0  0  0  0
  -24.6971  -31.0526   22.1009 N   0  0  0  0  0  0
  -23.4195  -28.8122   23.3064 O   0  0  0  0  0  0
  -28.3164  -26.3857   20.1584 O   0  0  0  0  0  0
  -26.5639  -34.8918   22.4671 O   0  0  0  0  0  0
  -23.5458  -32.1430   23.7303 O   0  0  0  0  0  0
  -28.5909  -19.4339   19.0244 C   0  0  0  0  0  0
  -29.7731  -18.3839   20.8583 C   0  0  0  0  0  0
  -28.9037  -16.9987   19.0551 C   0  0  0  0  0  0
  -29.2865  -19.6280   20.2454 C   0  0  0  0  0  0
  -28.3584  -18.1562   18.4625 C   0  0  0  0  0  0
  -29.6017  -17.0627   20.2800 C   0  0  0  0  0  0
  -29.9182  -21.3307   22.0031 C   0  0  0  0  0  0
  -26.3181  -18.5349   17.1368 C   0  0  0  0  0  0
  -30.1843  -22.7897   22.4317 C   0  0  0  0  0  0
  -29.1617  -23.8142   21.9286 C   0  0  0  0  0  0
  -28.8212  -22.2348   19.9790 C   0  0  0  0  0  0
  -29.0890  -23.7742   20.4106 C   0  0  1  0  0  0
  -25.5500  -18.1287   15.8869 C   0  0  0  0  0  0
  -28.0942  -24.9255   19.8717 C   0  0  0  0  0  0
  -29.4101  -21.0462   20.7644 N   0  0  0  0  0  0
  -27.5420  -18.0036   17.3093 N   0  0  0  0  0  0
  -29.8954  -15.7774   20.9521 N   0  0  0  0  0  0
  -30.2102  -20.4731   22.8414 O   0  0  0  0  0  0
  -25.7924  -19.3174   17.9331 O   0  0  0  0  0  0
  -31.4822  -12.5345   19.1855 H   0  0  0  0  0  0
  -30.3551  -11.4342   19.9203 H   0  0  0  0  0  0
  -29.7948  -11.7831   17.4963 H   0  0  0  0  0  0
  -29.6720  -13.5030   17.7598 H   0  0  0  0  0  0
  -27.8449  -11.3288   18.8269 H   0  0  0  0  0  0
  -27.4061  -12.6595   17.7859 H   0  0  0  0  0  0
  -27.6659  -14.2709   19.5516 H   0  0  0  0  0  0
  -28.7121  -12.0835   21.3901 H   0  0  0  0  0  0
  -28.4387  -13.7444   21.8529 H   0  0  0  0  0  0
  -25.2762   -9.5647   22.4812 H   0  0  0  0  0  0
  -23.9950   -7.4615   22.7478 H   0  0  0  0  0  0
  -21.0848   -8.8848   19.8934 H   0  0  0  0  0  0
  -22.3745  -10.9728   19.6202 H   0  0  0  0  0  0
  -21.1995   -7.6112   23.9719 H   0  0  0  0  0  0
  -21.1502   -6.0485   25.9075 H   0  0  0  0  0  0
  -22.0609   -2.7597   23.2804 H   0  0  0  0  0  0
  -22.3941  -11.9990   22.4804 H   0  0  0  0  0  0
  -21.1085  -13.1514   22.2500 H   0  0  0  0  0  0
  -24.6953  -15.8739   20.5502 H   0  0  0  0  0  0
  -26.3211  -15.6268   20.1826 H   0  0  0  0  0  0
  -26.7197  -32.5391   23.1075 H   0  0  0  0  0  0
  -25.0093  -33.9700   25.0410 H   0  0  0  0  0  0
  -22.7213  -31.3035   21.4122 H   0  0  0  0  0  0
  -23.3777  -35.9553   23.3231 H   0  0  0  0  0  0
  -24.3589  -36.8947   22.2052 H   0  0  0  0  0  0
  -23.7206  -37.6424   23.6713 H   0  0  0  0  0  0
  -26.1269  -31.5362   20.6227 H   0  0  0  0  0  0
  -26.8490  -30.8045   22.0221 H   0  0  0  0  0  0
  -28.1205  -28.9347   21.1861 H   0  0  0  0  0  0
  -25.9390  -25.9411   18.9493 H   0  0  0  0  0  0
  -23.9609  -27.3264   18.9943 H   0  0  0  0  0  0
  -23.7671  -30.6078   19.4191 H   0  0  0  0  0  0
  -22.7524  -29.2662   19.8539 H   0  0  0  0  0  0
  -25.1288  -36.1922   25.0803 H   0  0  0  0  0  0
  -20.9935  -28.3340   24.1427 H   0  0  0  0  0  0
  -20.5776  -26.2319   23.3621 H   0  0  0  0  0  0
  -21.6656  -26.7540   22.1188 H   0  0  0  0  0  0
  -19.6913  -25.6303   21.1284 H   0  0  0  0  0  0
  -19.6695  -27.3189   20.6765 H   0  0  0  0  0  0
  -17.4208  -26.6752   21.4004 H   0  0  0  0  0  0
  -18.0237  -26.0133   22.9023 H   0  0  0  0  0  0
  -19.7944  -30.7364   24.2174 H   0  0  0  0  0  0
  -17.5018  -31.6302   24.5191 H   0  0  0  0  0  0
  -15.5358  -30.3038   23.7691 H   0  0  0  0  0  0
  -15.8639  -28.0887   22.7067 H   0  0  0  0  0  0
  -24.5849  -30.7126   25.7846 H   0  0  0  0  0  0
  -24.8942  -32.2952   26.4887 H   0  0  0  0  0  0
  -25.8036  -30.8967   27.0252 H   0  0  0  0  0  0
  -26.2857  -29.6735   24.1217 H   0  0  0  0  0  0
  -27.3914  -29.7200   25.4734 H   0  0  0  0  0  0
  -27.8775  -30.4166   23.9464 H   0  0  0  0  0  0
  -27.2622  -33.3645   26.2005 H   0  0  0  0  0  0
  -28.3860  -32.6877   25.0310 H   0  0  0  0  0  0
  -28.0677  -31.8490   26.5441 H   0  0  0  0  0  0
  -28.2566  -38.0124   24.7601 H   0  0  0  0  0  0
  -28.1162  -36.2673   24.6133 H   0  0  0  0  0  0
  -27.2318  -37.1248   25.8834 H   0  0  0  0  0  0
  -20.9415  -29.8769   21.6883 H   0  0  0  0  0  0
  -26.0157  -38.2831   24.1508 H   0  0  0  0  0  0
  -28.1714  -20.2727   18.4943 H   0  0  0  0  0  0
  -30.2802  -18.4035   21.8086 H   0  0  0  0  0  0
  -28.7107  -16.0385   18.6026 H   0  0  0  0  0  0
  -31.1831  -23.0633   22.0901 H   0  0  0  0  0  0
  -30.2229  -22.8366   23.5215 H   0  0  0  0  0  0
  -29.4476  -24.8154   22.2553 H   0  0  0  0  0  0
  -28.1783  -23.6154   22.3582 H   0  0  0  0  0  0
  -29.1545  -22.1436   18.9456 H   0  0  0  0  0  0
  -27.7422  -22.0792   19.9667 H   0  0  0  0  0  0
  -30.0766  -24.0354   20.0299 H   0  0  0  0  0  0
  -25.5185  -17.0429   15.7859 H   0  0  0  0  0  0
  -26.0055  -18.5569   14.9925 H   0  0  0  0  0  0
  -24.5209  -18.4907   15.9445 H   0  0  0  0  0  0
  -27.1120  -24.6477   20.2547 H   0  0  0  0  0  0
  -28.0350  -24.8244   18.7856 H   0  0  0  0  0  0
  -27.8247  -17.3094   16.6281 H   0  0  0  0  0  0
  -29.1462  -15.4782   21.5572 H   0  0  0  0  0  0
  1 25  1  0  0  0
  1 30  2  0  0  0
  1 87  1  0  0  0
  2  3  1  0  0  0
  2 25  1  0  0  0
  2 90  1  0  0  0
  2 91  1  0  0  0
  3  4  1  0  0  0
  3 92  1  0  0  0
  3 93  1  0  0  0
  4  5  1  0  0  0
  4 94  1  0  0  0
  4 95  1  0  0  0
  5  6  1  0  0  0
  5 26  1  0  0  0
  5 96  1  0  0  0
  6 25  1  0  0  0
  6 97  1  0  0  0
  6 98  1  0  0  0
  7  8  2  0  0  0
  7 26  1  0  0  0
  7 29  1  0  0  0
  8  9  1  0  0  0
  8 22  1  0  0  0
  9 10  1  0  0  0
  9 27  2  0  0  0
 10 11  2  0  0  0
 10 15  1  0  0  0
 11 12  1  0  0  0
 11 99  1  0  0  0
 12 13  2  0  0  0
 12100  1  0  0  0
 13 14  1  0  0  0
 13 31  1  0  0  0
 14 15  2  0  0  0
 14101  1  0  0  0
 15102  1  0  0  0
 16 17  2  0  0  0
 16 21  1  0  0  0
 16 31  1  0  0  0
 17 18  1  0  0  0
 17103  1  0  0  0
 18 19  2  0  0  0
 18104  1  0  0  0
 19 20  1  0  0  0
 19 24  1  0  0  0
 20 21  2  0  0  0
 20105  1  0  0  0
 21 23  1  0  0  0
 22 28  1  0  0  0
 22 32  2  0  0  0
 26 27  1  0  0  0
 28106  1  0  0  0
 28107  1  0  0  0
 29108  1  0  0  0
 29109  1  0  0  0
 33 34  1  0  0  0
 33 66  1  0  0  0
 33 70  2  0  0  0
 34 36  1  0  0  0
 34 59  1  0  0  0
 34110  1  0  0  0
 35 44  2  0  0  0
 35 45  1  0  0  0
 35 68  1  0  0  0
 36 56  1  0  0  0
 36111  1  0  0  0
 37 39  1  0  0  0
 37 47  1  0  0  0
 37 66  1  0  0  0
 37112  1  0  0  0
 38 43  2  0  0  0
 38 46  1  0  0  0
 38 47  1  0  0  0
 39 64  1  0  0  0
 39 67  2  0  0  0
 40 52  1  0  0  0
 40 53  2  0  0  0
 40 58  1  0  0  0
 41113  1  0  0  0
 41114  1  0  0  0
 41115  1  0  0  0
 41 48  1  0  0  0
 42 43  1  0  0  0
 42 66  1  0  0  0
 42116  1  0  0  0
 42117  1  0  0  0
 43 44  1  0  0  0
 44118  1  0  0  0
 45 46  2  0  0  0
 45119  1  0  0  0
 46120  1  0  0  0
 47121  1  0  0  0
 47122  1  0  0  0
 48 56  1  0  0  0
 48 65  1  0  0  0
 48123  1  0  0  0
 49 50  1  0  0  0
 49 53  1  0  0  0
 49 64  1  0  0  0
 49124  1  0  0  0
 50 51  1  0  0  0
 50125  1  0  0  0
 50126  1  0  0  0
 51 52  1  0  0  0
 51127  1  0  0  0
 51128  1  0  0  0
 52129  1  0  0  0
 52130  1  0  0  0
 53 54  1  0  0  0
 54 55  2  0  0  0
 54131  1  0  0  0
 55 57  1  0  0  0
 55132  1  0  0  0
 56 69  2  0  0  0
 57 58  2  0  0  0
 57133  1  0  0  0
 58134  1  0  0  0
 59 60  1  0  0  0
 59 61  1  0  0  0
 59 62  1  0  0  0
 60135  1  0  0  0
 60136  1  0  0  0
 60137  1  0  0  0
 61138  1  0  0  0
 61139  1  0  0  0
 61140  1  0  0  0
 62141  1  0  0  0
 62142  1  0  0  0
 62143  1  0  0  0
 63 65  1  0  0  0
 63144  1  0  0  0
 63145  1  0  0  0
 63146  1  0  0  0
 64147  1  0  0  0
 65148  1  0  0  0
 68 84  1  0  0  0
 71 74  2  0  0  0
 71 75  1  0  0  0
 71149  1  0  0  0
 72 74  1  0  0  0
 72 76  2  0  0  0
 72150  1  0  0  0
 73 75  2  0  0  0
 73 76  1  0  0  0
 73151  1  0  0  0
 74 85  1  0  0  0
 75 86  1  0  0  0
 76 87  1  0  0  0
 77 79  1  0  0  0
 77 85  1  0  0  0
 77 88  2  0  0  0
 78 83  1  0  0  0
 78 86  1  0  0  0
 78 89  2  0  0  0
 79 80  1  0  0  0
 79152  1  0  0  0
 79153  1  0  0  0
 80 82  1  0  0  0
 80154  1  0  0  0
 80155  1  0  0  0
 81 82  1  0  0  0
 81 85  1  0  0  0
 81156  1  0  0  0
 81157  1  0  0  0
 82 84  1  0  0  0
 82158  1  0  0  0
 83159  1  0  0  0
 83160  1  0  0  0
 83161  1  0  0  0
 84162  1  0  0  0
 84163  1  0  0  0
 86164  1  0  0  0
 87165  1  0  0  0
M  ISO  4   1 100  68 101  84 101  87 100
M  END
> <chiral flag>
0

> <version>
0

> <s_m_source_file>
/data/baiqing/PycharmProjects/Reinvent-master-3.2/result/LINK_invent/BTK/process_docking_weight1_custom_product_contain_oxygen_bond_distance_aromatic_linkinvent_7_9_3/rearranged_h_0066.sdf

> <i_m_source_file_index>
19

> <r_mmod_Potential_Energy-OPLS-2005>
231.124557495117

> <r_mmod_Stretch_Energy-OPLS-2005>
136.536514282227

> <r_mmod_Bend_Energy-OPLS-2005>
171.797744750977

> <r_mmod_Torsional_Energy-OPLS-2005>
316.775817871094

> <r_mmod_Improper_Torsional_Energy-OPLS-2005>
6.58779191970825

> <r_mmod_Van_der_Waal_Energy-OPLS-2005>
156.480575561523

> <r_mmod_Electrostatic_Energy-OPLS-2005>
-378.010009765625

> <r_mmod_Solvation_Energy-OPLS-2005>
-247.928085327148

> <b_mmod_Minimization_Converged-OPLS-2005>
0

> <r_mmod_RMS_Derivative-OPLS-2005>
5.04915809631348

$$$$
19
                    3D
 Structure written by MMmdl.
164173  0  0  1  0            999 V2000
  -30.6099  -14.7183   20.4260 C   0  0  0  0  0  0
  -30.4387  -12.4191   19.5017 C   0  0  0  0  0  0
  -29.5329  -12.4903   18.2526 C   0  0  0  0  0  0
  -28.0542  -12.3229   18.6525 C   0  0  0  0  0  0
  -27.6505  -13.2283   19.8476 C   0  0  2  0  0  0
  -28.6852  -13.1633   20.9940 C   0  0  0  0  0  0
  -25.2572  -13.8180   20.5663 C   0  0  0  0  0  0
  -24.1829  -13.0443   20.9169 C   0  0  0  0  0  0
  -24.6382  -11.6910   20.8709 C   0  0  0  0  0  0
  -23.9041  -10.4291   21.0385 C   0  0  0  0  0  0
  -24.3582   -9.4215   21.9169 C   0  0  0  0  0  0
  -23.6272   -8.2236   22.0742 C   0  0  0  0  0  0
  -22.4263   -8.0258   21.3523 C   0  0  0  0  0  0
  -21.9884   -9.0247   20.4649 C   0  0  0  0  0  0
  -22.7200  -10.2132   20.3056 C   0  0  0  0  0  0
  -21.6861   -6.0710   22.5249 C   0  0  0  0  0  0
  -21.4015   -6.5623   23.8182 C   0  0  0  0  0  0
  -21.3676   -5.6769   24.9145 C   0  0  0  0  0  0
  -21.6058   -4.3031   24.7209 C   0  0  0  0  0  0
  -21.8831   -3.8117   23.4323 C   0  0  0  0  0  0
  -21.9199   -4.6927   22.3375 C   0  0  0  0  0  0
  -22.7856  -13.5267   21.1829 C   0  0  0  0  0  0
  -22.1670   -4.2107   21.0955 F   0  0  0  0  0  0
  -21.5649   -3.4534   25.7725 F   0  0  0  0  0  0
  -30.0016  -13.4860   20.4279 N   0  0  0  0  0  0
  -26.2984  -12.9364   20.3198 N   0  0  0  0  0  0
  -25.9324  -11.6520   20.5682 N   0  0  0  0  0  0
  -22.0463  -12.8291   22.0364 N   0  0  0  0  0  0
  -25.4337  -15.1895   20.4120 N   0  0  0  0  0  0
  -31.7782  -14.8364   20.0465 O   0  0  0  0  0  0
  -21.6631   -6.8851   21.4214 O   0  0  0  0  0  0
  -22.3557  -14.5575   20.6660 O   0  0  0  0  0  0
  -24.6313  -31.8555   23.1965 C   0  0  0  0  0  0
  -25.9139  -32.4745   23.8310 C   0  0  1  0  0  0
  -27.2293  -27.2655   20.0985 C   0  0  0  0  0  0
  -25.5935  -33.8545   24.2235 N   0  0  0  0  0  0
  -23.4296  -30.4778   21.5403 C   0  0  2  0  0  0
  -24.8781  -28.9288   20.1064 C   0  0  0  0  0  0
  -22.7521  -29.4602   22.4906 C   0  0  0  0  0  0
  -18.0297  -28.1412   22.8475 C   0  0  0  0  0  0
  -24.1489  -36.7275   23.2643 C   0  0  0  0  0  0
  -25.9762  -30.7642   21.3816 C   0  0  0  0  0  0
  -26.0501  -29.3887   20.7194 C   0  0  0  0  0  0
  -27.2245  -28.5665   20.7111 C   0  0  0  0  0  0
  -26.0362  -26.8937   19.4348 C   0  0  0  0  0  0
  -24.8782  -27.6889   19.4556 C   0  0  0  0  0  0
  -23.6487  -29.8130   20.1566 C   0  0  0  0  0  0
  -25.4119  -36.3066   24.0336 C   0  0  1  0  0  0
  -20.5908  -28.3714   23.1271 C   0  0  2  0  0  0
  -20.6769  -26.9428   22.5428 C   0  0  0  0  0  0
  -19.5757  -26.6401   21.5218 C   0  0  0  0  0  0
  -18.1930  -26.7960   22.1598 C   0  0  0  0  0  0
  -19.1558  -28.8880   23.2861 C   0  0  0  0  0  0
  -18.9474  -30.1476   23.8887 C   0  0  0  0  0  0
  -17.6479  -30.6601   24.0577 C   0  0  0  0  0  0
  -25.9066  -34.9444   23.5085 C   0  0  0  0  0  0
  -16.5371  -29.9113   23.6346 C   0  0  0  0  0  0
  -16.7284  -28.6535   23.0360 C   0  0  0  0  0  0
  -26.4495  -31.6575   25.0704 C   0  0  0  0  0  0
  -25.3691  -31.3790   26.1414 C   0  0  0  0  0  0
  -27.0298  -30.2964   24.6206 C   0  0  0  0  0  0
  -27.6069  -32.4312   25.7437 C   0  0  0  0  0  0
  -27.5598  -37.1778   24.8452 C   0  0  0  0  0  0
  -21.4228  -29.3033   22.3639 N   0  0  0  0  0  0
  -26.4289  -37.3778   23.9423 N   0  0  0  0  0  0
  -24.6976  -31.0525   22.0940 N   0  0  0  0  0  0
  -23.4213  -28.8174   23.3035 O   0  0  0  0  0  0
  -28.3307  -26.3699   20.1660 O   0  0  0  0  0  0
  -26.5638  -34.8926   22.4656 O   0  0  0  0  0  0
  -23.5464  -32.1378   23.7251 O   0  0  0  0  0  0
  -29.0599  -18.0181   17.7583 C   0  0  0  0  0  0
  -29.3102  -16.9034   18.5752 C   0  0  0  0  0  0
  -29.7123  -18.4286   20.4288 C   0  0  0  0  0  0
  -29.1635  -19.3461   18.2339 C   0  0  0  0  0  0
  -29.4685  -19.6168   19.6054 C   0  0  0  0  0  0
  -29.6731  -17.0635   19.9261 C   0  0  0  0  0  0
  -30.9603  -21.3472   20.4401 C   0  0  0  0  0  0
  -31.3009  -22.7546   20.9512 C   0  0  0  0  0  0
  -30.4998  -23.8992   20.3069 C   0  0  0  0  0  0
  -28.7053  -22.2027   19.8485 C   0  0  0  0  0  0
  -28.9854  -23.6936   20.4438 C   0  0  1  0  0  0
  -29.0250  -20.4362   17.1829 C   0  0  0  0  0  0
  -28.5650  -23.7396   21.9293 C   0  0  0  0  0  0
  -28.1963  -24.9285   19.7360 C   0  0  0  0  0  0
  -29.6837  -21.0291   20.0803 N   0  0  0  0  0  0
  -29.8408  -15.8286   20.7197 N   0  0  0  0  0  0
  -31.8932  -20.5378   20.3909 O   0  0  0  0  0  0
  -31.4886  -12.5205   19.2204 H   0  0  0  0  0  0
  -30.3572  -11.4457   19.9880 H   0  0  0  0  0  0
  -29.8201  -11.7143   17.5437 H   0  0  0  0  0  0
  -29.6787  -13.4422   17.7389 H   0  0  0  0  0  0
  -27.9111  -11.2767   18.9243 H   0  0  0  0  0  0
  -27.4039  -12.5084   17.7972 H   0  0  0  0  0  0
  -27.6497  -14.2494   19.4623 H   0  0  0  0  0  0
  -28.7035  -12.1785   21.4597 H   0  0  0  0  0  0
  -28.4144  -13.8622   21.7872 H   0  0  0  0  0  0
  -25.2732   -9.5722   22.4733 H   0  0  0  0  0  0
  -23.9996   -7.4657   22.7489 H   0  0  0  0  0  0
  -21.0802   -8.8802   19.8988 H   0  0  0  0  0  0
  -22.3665  -10.9674   19.6172 H   0  0  0  0  0  0
  -21.1999   -7.6121   23.9688 H   0  0  0  0  0  0
  -21.1501   -6.0473   25.9050 H   0  0  0  0  0  0
  -22.0603   -2.7571   23.2809 H   0  0  0  0  0  0
  -22.4026  -11.9969   22.4794 H   0  0  0  0  0  0
  -21.1094  -13.1405   22.2547 H   0  0  0  0  0  0
  -24.6812  -15.8550   20.5529 H   0  0  0  0  0  0
  -26.2915  -15.6242   20.0960 H   0  0  0  0  0  0
  -26.7194  -32.5380   23.1040 H   0  0  0  0  0  0
  -25.0028  -33.9677   25.0338 H   0  0  0  0  0  0
  -22.7258  -31.3003   21.3938 H   0  0  0  0  0  0
  -23.3772  -35.9580   23.3275 H   0  0  0  0  0  0
  -24.3586  -36.8925   22.2061 H   0  0  0  0  0  0
  -23.7207  -37.6458   23.6678 H   0  0  0  0  0  0
  -26.1263  -31.5311   20.6209 H   0  0  0  0  0  0
  -26.8477  -30.8049   22.0228 H   0  0  0  0  0  0
  -28.1190  -28.9167   21.2072 H   0  0  0  0  0  0
  -25.9536  -25.9724   18.8810 H   0  0  0  0  0  0
  -23.9874  -27.3407   18.9505 H   0  0  0  0  0  0
  -23.7716  -30.5866   19.3966 H   0  0  0  0  0  0
  -22.7670  -29.2461   19.8520 H   0  0  0  0  0  0
  -25.1301  -36.1903   25.0831 H   0  0  0  0  0  0
  -20.9998  -28.3294   24.1399 H   0  0  0  0  0  0
  -20.5651  -26.2338   23.3641 H   0  0  0  0  0  0
  -21.6643  -26.7436   22.1257 H   0  0  0  0  0  0
  -19.6923  -25.6315   21.1259 H   0  0  0  0  0  0
  -19.6724  -27.3197   20.6745 H   0  0  0  0  0  0
  -17.4232  -26.6753   21.3963 H   0  0  0  0  0  0
  -18.0287  -26.0096   22.8977 H   0  0  0  0  0  0
  -19.7956  -30.7288   24.2252 H   0  0  0  0  0  0
  -17.5048  -31.6276   24.5196 H   0  0  0  0  0  0
  -15.5370  -30.3019   23.7690 H   0  0  0  0  0  0
  -15.8681  -28.0859   22.7083 H   0  0  0  0  0  0
  -24.5951  -30.7012   25.7793 H   0  0  0  0  0  0
  -24.8761  -32.2968   26.4632 H   0  0  0  0  0  0
  -25.8011  -30.9172   27.0299 H   0  0  0  0  0  0
  -26.2852  -29.6730   24.1236 H   0  0  0  0  0  0
  -27.3948  -29.7232   25.4734 H   0  0  0  0  0  0
  -27.8770  -30.4193   23.9453 H   0  0  0  0  0  0
  -27.2701  -33.3624   26.2001 H   0  0  0  0  0  0
  -28.3860  -32.6853   25.0238 H   0  0  0  0  0  0
  -28.0753  -31.8438   26.5339 H   0  0  0  0  0  0
  -28.2614  -38.0081   24.7536 H   0  0  0  0  0  0
  -28.1105  -36.2627   24.6218 H   0  0  0  0  0  0
  -27.2347  -37.1359   25.8863 H   0  0  0  0  0  0
  -20.9451  -29.8725   21.6790 H   0  0  0  0  0  0
  -26.0175  -38.2850   24.1455 H   0  0  0  0  0  0
  -28.8079  -17.8378   16.7219 H   0  0  0  0  0  0
  -29.2076  -15.9152   18.1452 H   0  0  0  0  0  0
  -29.9694  -18.5727   21.4693 H   0  0  0  0  0  0
  -32.3647  -22.9312   20.7845 H   0  0  0  0  0  0
  -31.1697  -22.7512   22.0322 H   0  0  0  0  0  0
  -30.7691  -23.9863   19.2517 H   0  0  0  0  0  0
  -30.7933  -24.8413   20.7671 H   0  0  0  0  0  0
  -28.6558  -22.3720   18.7811 H   0  0  0  0  0  0
  -27.7052  -21.8730   20.1338 H   0  0  0  0  0  0
  -29.0376  -20.0302   16.1689 H   0  0  0  0  0  0
  -29.8541  -21.1420   17.2446 H   0  0  0  0  0  0
  -28.0765  -20.9587   17.2948 H   0  0  0  0  0  0
  -28.8460  -22.8395   22.4746 H   0  0  0  0  0  0
  -27.4827  -23.8498   22.0324 H   0  0  0  0  0  0
  -29.0146  -24.5936   22.4392 H   0  0  0  0  0  0
  -27.1568  -24.6224   19.8153 H   0  0  0  0  0  0
  -28.4243  -24.9122   18.6694 H   0  0  0  0  0  0
  -29.0160  -15.5840   21.2458 H   0  0  0  0  0  0
  1 25  1  0  0  0
  1 30  2  0  0  0
  1 86  1  0  0  0
  2  3  1  0  0  0
  2 25  1  0  0  0
  2 88  1  0  0  0
  2 89  1  0  0  0
  3  4  1  0  0  0
  3 90  1  0  0  0
  3 91  1  0  0  0
  4  5  1  0  0  0
  4 92  1  0  0  0
  4 93  1  0  0  0
  5  6  1  0  0  0
  5 26  1  0  0  0
  5 94  1  0  0  0
  6 25  1  0  0  0
  6 95  1  0  0  0
  6 96  1  0  0  0
  7  8  2  0  0  0
  7 26  1  0  0  0
  7 29  1  0  0  0
  8  9  1  0  0  0
  8 22  1  0  0  0
  9 10  1  0  0  0
  9 27  2  0  0  0
 10 11  2  0  0  0
 10 15  1  0  0  0
 11 12  1  0  0  0
 11 97  1  0  0  0
 12 13  2  0  0  0
 12 98  1  0  0  0
 13 14  1  0  0  0
 13 31  1  0  0  0
 14 15  2  0  0  0
 14 99  1  0  0  0
 15100  1  0  0  0
 16 17  2  0  0  0
 16 21  1  0  0  0
 16 31  1  0  0  0
 17 18  1  0  0  0
 17101  1  0  0  0
 18 19  2  0  0  0
 18102  1  0  0  0
 19 20  1  0  0  0
 19 24  1  0  0  0
 20 21  2  0  0  0
 20103  1  0  0  0
 21 23  1  0  0  0
 22 28  1  0  0  0
 22 32  2  0  0  0
 26 27  1  0  0  0
 28104  1  0  0  0
 28105  1  0  0  0
 29106  1  0  0  0
 29107  1  0  0  0
 33 34  1  0  0  0
 33 66  1  0  0  0
 33 70  2  0  0  0
 34 36  1  0  0  0
 34 59  1  0  0  0
 34108  1  0  0  0
 35 44  2  0  0  0
 35 45  1  0  0  0
 35 68  1  0  0  0
 36 56  1  0  0  0
 36109  1  0  0  0
 37 39  1  0  0  0
 37 47  1  0  0  0
 37 66  1  0  0  0
 37110  1  0  0  0
 38 43  2  0  0  0
 38 46  1  0  0  0
 38 47  1  0  0  0
 39 64  1  0  0  0
 39 67  2  0  0  0
 40 52  1  0  0  0
 40 53  2  0  0  0
 40 58  1  0  0  0
 41111  1  0  0  0
 41112  1  0  0  0
 41113  1  0  0  0
 41 48  1  0  0  0
 42 43  1  0  0  0
 42 66  1  0  0  0
 42114  1  0  0  0
 42115  1  0  0  0
 43 44  1  0  0  0
 44116  1  0  0  0
 45 46  2  0  0  0
 45117  1  0  0  0
 46118  1  0  0  0
 47119  1  0  0  0
 47120  1  0  0  0
 48 56  1  0  0  0
 48 65  1  0  0  0
 48121  1  0  0  0
 49 50  1  0  0  0
 49 53  1  0  0  0
 49 64  1  0  0  0
 49122  1  0  0  0
 50 51  1  0  0  0
 50123  1  0  0  0
 50124  1  0  0  0
 51 52  1  0  0  0
 51125  1  0  0  0
 51126  1  0  0  0
 52127  1  0  0  0
 52128  1  0  0  0
 53 54  1  0  0  0
 54 55  2  0  0  0
 54129  1  0  0  0
 55 57  1  0  0  0
 55130  1  0  0  0
 56 69  2  0  0  0
 57 58  2  0  0  0
 57131  1  0  0  0
 58132  1  0  0  0
 59 60  1  0  0  0
 59 61  1  0  0  0
 59 62  1  0  0  0
 60133  1  0  0  0
 60134  1  0  0  0
 60135  1  0  0  0
 61136  1  0  0  0
 61137  1  0  0  0
 61138  1  0  0  0
 62139  1  0  0  0
 62140  1  0  0  0
 62141  1  0  0  0
 63 65  1  0  0  0
 63142  1  0  0  0
 63143  1  0  0  0
 63144  1  0  0  0
 64145  1  0  0  0
 65146  1  0  0  0
 68 84  1  0  0  0
 71 72  2  0  0  0
 71 74  1  0  0  0
 71147  1  0  0  0
 72 76  1  0  0  0
 72148  1  0  0  0
 73 75  1  0  0  0
 73 76  2  0  0  0
 73149  1  0  0  0
 74 75  2  0  0  0
 74 82  1  0  0  0
 75 85  1  0  0  0
 76 86  1  0  0  0
 77 78  1  0  0  0
 77 85  1  0  0  0
 77 87  2  0  0  0
 78 79  1  0  0  0
 78150  1  0  0  0
 78151  1  0  0  0
 79 81  1  0  0  0
 79152  1  0  0  0
 79153  1  0  0  0
 80 81  1  0  0  0
 80 85  1  0  0  0
 80154  1  0  0  0
 80155  1  0  0  0
 81 83  1  0  0  0
 81 84  1  0  0  0
 82156  1  0  0  0
 82157  1  0  0  0
 82158  1  0  0  0
 83159  1  0  0  0
 83160  1  0  0  0
 83161  1  0  0  0
 84162  1  0  0  0
 84163  1  0  0  0
 86164  1  0  0  0
M  ISO  4   1 100  68 101  84 101  86 100
M  END
> <chiral flag>
0

> <version>
0

> <s_m_source_file>
/data/baiqing/PycharmProjects/Reinvent-master-3.2/result/LINK_invent/BTK/process_docking_weight1_custom_product_contain_oxygen_bond_distance_aromatic_linkinvent_7_9_3/rearranged_h_0066.sdf

> <i_m_source_file_index>
20

> <r_mmod_Potential_Energy-OPLS-2005>
308.775543212891

> <r_mmod_Stretch_Energy-OPLS-2005>
140.67756652832

> <r_mmod_Bend_Energy-OPLS-2005>
177.058151245117

> <r_mmod_Torsional_Energy-OPLS-2005>
328.101898193359

> <r_mmod_Improper_Torsional_Energy-OPLS-2005>
7.41187429428101

> <r_mmod_Van_der_Waal_Energy-OPLS-2005>
153.519424438477

> <r_mmod_Electrostatic_Energy-OPLS-2005>
-350.139312744141

> <r_mmod_Solvation_Energy-OPLS-2005>
-229.253158569336

> <b_mmod_Minimization_Converged-OPLS-2005>
0

> <r_mmod_RMS_Derivative-OPLS-2005>
4.46702527999878

$$$$
20
                    3D
 Structure written by MMmdl.
160169  0  0  1  0            999 V2000
  -30.7540  -14.4788   20.5639 C   0  0  0  0  0  0
  -30.4013  -12.3133   19.4325 C   0  0  0  0  0  0
  -29.4868  -12.4960   18.2078 C   0  0  0  0  0  0
  -28.0096  -12.3597   18.6225 C   0  0  0  0  0  0
  -27.6518  -13.2198   19.8650 C   0  0  2  0  0  0
  -28.6969  -13.0600   20.9925 C   0  0  0  0  0  0
  -25.2543  -13.8194   20.5696 C   0  0  0  0  0  0
  -24.1815  -13.0448   20.9196 C   0  0  0  0  0  0
  -24.6385  -11.6919   20.8742 C   0  0  0  0  0  0
  -23.9058  -10.4297   21.0401 C   0  0  0  0  0  0
  -24.3610   -9.4213   21.9178 C   0  0  0  0  0  0
  -23.6290   -8.2245   22.0748 C   0  0  0  0  0  0
  -22.4275   -8.0277   21.3540 C   0  0  0  0  0  0
  -21.9908   -9.0248   20.4644 C   0  0  0  0  0  0
  -22.7229  -10.2133   20.3052 C   0  0  0  0  0  0
  -21.6856   -6.0734   22.5279 C   0  0  0  0  0  0
  -21.4015   -6.5637   23.8210 C   0  0  0  0  0  0
  -21.3659   -5.6791   24.9170 C   0  0  0  0  0  0
  -21.6045   -4.3053   24.7224 C   0  0  0  0  0  0
  -21.8820   -3.8145   23.4343 C   0  0  0  0  0  0
  -21.9195   -4.6962   22.3400 C   0  0  0  0  0  0
  -22.7838  -13.5233   21.1851 C   0  0  0  0  0  0
  -22.1661   -4.2145   21.0979 F   0  0  0  0  0  0
  -21.5627   -3.4536   25.7737 F   0  0  0  0  0  0
  -30.0200  -13.3395   20.4196 N   0  0  0  0  0  0
  -26.2978  -12.9387   20.3347 N   0  0  0  0  0  0
  -25.9316  -11.6534   20.5769 N   0  0  0  0  0  0
  -22.0486  -12.8223   22.0409 N   0  0  0  0  0  0
  -25.4257  -15.1916   20.4104 N   0  0  0  0  0  0
  -31.9059  -14.5378   20.1238 O   0  0  0  0  0  0
  -21.6639   -6.8877   21.4240 O   0  0  0  0  0  0
  -22.3525  -14.5536   20.6691 O   0  0  0  0  0  0
  -24.6147  -31.8683   23.2108 C   0  0  0  0  0  0
  -25.9048  -32.4818   23.8397 C   0  0  1  0  0  0
  -27.2241  -27.4277   20.1055 C   0  0  0  0  0  0
  -25.5908  -33.8617   24.2331 N   0  0  0  0  0  0
  -23.4025  -30.4922   21.5505 C   0  0  2  0  0  0
  -24.8492  -28.9569   20.1148 C   0  0  0  0  0  0
  -22.7409  -29.4663   22.4988 C   0  0  0  0  0  0
  -18.0274  -28.1374   22.8488 C   0  0  0  0  0  0
  -24.1487  -36.7311   23.2638 C   0  0  0  0  0  0
  -25.9315  -30.8309   21.3663 C   0  0  0  0  0  0
  -26.0083  -29.4631   20.7183 C   0  0  0  0  0  0
  -27.2011  -28.7029   20.7170 C   0  0  0  0  0  0
  -26.0583  -26.9446   19.4803 C   0  0  0  0  0  0
  -24.8684  -27.6958   19.4933 C   0  0  0  0  0  0
  -23.6119  -29.8250   20.1644 C   0  0  0  0  0  0
  -25.4105  -36.3106   24.0339 C   0  0  1  0  0  0
  -20.5863  -28.3660   23.1318 C   0  0  2  0  0  0
  -20.6763  -26.9397   22.5420 C   0  0  0  0  0  0
  -19.5743  -26.6383   21.5214 C   0  0  0  0  0  0
  -18.1920  -26.7920   22.1621 C   0  0  0  0  0  0
  -19.1525  -28.8834   23.2900 C   0  0  0  0  0  0
  -18.9452  -30.1440   23.8906 C   0  0  0  0  0  0
  -17.6456  -30.6580   24.0564 C   0  0  0  0  0  0
  -25.9033  -34.9473   23.5129 C   0  0  0  0  0  0
  -16.5345  -29.9081   23.6329 C   0  0  0  0  0  0
  -16.7265  -28.6501   23.0343 C   0  0  0  0  0  0
  -26.4478  -31.6589   25.0719 C   0  0  0  0  0  0
  -25.3753  -31.3693   26.1474 C   0  0  0  0  0  0
  -27.0303  -30.3030   24.6087 C   0  0  0  0  0  0
  -27.6055  -32.4303   25.7483 C   0  0  0  0  0  0
  -27.5579  -37.1811   24.8466 C   0  0  0  0  0  0
  -21.4138  -29.3028   22.3725 N   0  0  0  0  0  0
  -26.4295  -37.3789   23.9410 N   0  0  0  0  0  0
  -24.6675  -31.0784   22.1008 N   0  0  0  0  0  0
  -23.4186  -28.8208   23.3030 O   0  0  0  0  0  0
  -28.3588  -26.6486   20.0946 O   0  0  0  0  0  0
  -26.5593  -34.8926   22.4688 O   0  0  0  0  0  0
  -23.5342  -32.1442   23.7506 O   0  0  0  0  0  0
  -28.9265  -18.3772   22.0866 C   0  0  0  0  0  0
  -28.3626  -19.6744   22.1240 C   0  0  0  0  0  0
  -29.7262  -20.3344   20.2427 C   0  0  0  0  0  0
  -29.9327  -18.0533   21.1529 C   0  0  0  0  0  0
  -30.2989  -19.0414   20.1962 C   0  0  0  0  0  0
  -28.7811  -20.7023   21.2337 C   0  0  0  0  0  0
  -28.5724  -23.1794   20.6678 C   0  0  0  0  0  0
  -30.7228  -16.7671   21.2776 C   0  0  0  0  0  0
  -27.1653  -23.9075   22.4398 C   0  0  0  0  0  0
  -27.2628  -22.3797   22.3922 C   0  0  0  0  0  0
  -27.7377  -24.3936   21.1088 C   0  0  1  0  0  0
  -31.3329  -18.7585   19.1125 C   0  0  0  0  0  0
  -28.4836  -25.7642   21.2234 C   0  0  0  0  0  0
  -28.2568  -22.0540   21.3677 N   0  0  0  0  0  0
  -30.1135  -15.5847   21.0190 N   0  0  0  0  0  0
  -29.4123  -23.2835   19.7693 O   0  0  0  0  0  0
  -31.9147  -16.8765   21.5914 O   0  0  0  0  0  0
  -31.4483  -12.3710   19.1305 H   0  0  0  0  0  0
  -30.2755  -11.3173   19.8602 H   0  0  0  0  0  0
  -29.7289  -11.7590   17.4408 H   0  0  0  0  0  0
  -29.6588  -13.4752   17.7584 H   0  0  0  0  0  0
  -27.8228  -11.3063   18.8343 H   0  0  0  0  0  0
  -27.3590  -12.6192   17.7860 H   0  0  0  0  0  0
  -27.6783  -14.2593   19.5373 H   0  0  0  0  0  0
  -28.6766  -12.0453   21.3934 H   0  0  0  0  0  0
  -28.4683  -13.7177   21.8325 H   0  0  0  0  0  0
  -25.2756   -9.5695   22.4747 H   0  0  0  0  0  0
  -24.0004   -7.4641   22.7466 H   0  0  0  0  0  0
  -21.0840   -8.8761   19.8952 H   0  0  0  0  0  0
  -22.3680  -10.9664   19.6157 H   0  0  0  0  0  0
  -21.2006   -7.6146   23.9707 H   0  0  0  0  0  0
  -21.1482   -6.0522   25.9073 H   0  0  0  0  0  0
  -22.0602   -2.7606   23.2841 H   0  0  0  0  0  0
  -22.4096  -11.9882   22.4799 H   0  0  0  0  0  0
  -21.1099  -13.1239   22.2603 H   0  0  0  0  0  0
  -24.6581  -15.8463   20.5158 H   0  0  0  0  0  0
  -26.2736  -15.6299   20.0744 H   0  0  0  0  0  0
  -26.7118  -32.5541   23.1164 H   0  0  0  0  0  0
  -25.0092  -33.9777   25.0498 H   0  0  0  0  0  0
  -22.6912  -31.3091   21.4119 H   0  0  0  0  0  0
  -23.3744  -35.9650   23.3314 H   0  0  0  0  0  0
  -24.3587  -36.8911   22.2051 H   0  0  0  0  0  0
  -23.7246  -37.6524   23.6639 H   0  0  0  0  0  0
  -26.0448  -31.5942   20.5950 H   0  0  0  0  0  0
  -26.8196  -30.8862   21.9838 H   0  0  0  0  0  0
  -28.0949  -29.0863   21.1885 H   0  0  0  0  0  0
  -26.0657  -25.9846   18.9852 H   0  0  0  0  0  0
  -23.9798  -27.3034   19.0183 H   0  0  0  0  0  0
  -23.7222  -30.6005   19.4054 H   0  0  0  0  0  0
  -22.7352  -29.2458   19.8679 H   0  0  0  0  0  0
  -25.1282  -36.1972   25.0832 H   0  0  0  0  0  0
  -20.9959  -28.3226   24.1438 H   0  0  0  0  0  0
  -20.5665  -26.2269   23.3604 H   0  0  0  0  0  0
  -21.6634  -26.7441   22.1212 H   0  0  0  0  0  0
  -19.6904  -25.6298   21.1232 H   0  0  0  0  0  0
  -19.6685  -27.3203   20.6752 H   0  0  0  0  0  0
  -17.4193  -26.6677   21.4015 H   0  0  0  0  0  0
  -18.0318  -26.0058   22.9012 H   0  0  0  0  0  0
  -19.7932  -30.7255   24.2273 H   0  0  0  0  0  0
  -17.5014  -31.6260   24.5164 H   0  0  0  0  0  0
  -15.5346  -30.2984   23.7645 H   0  0  0  0  0  0
  -15.8667  -28.0826   22.7041 H   0  0  0  0  0  0
  -24.5926  -30.7034   25.7823 H   0  0  0  0  0  0
  -24.8945  -32.2848   26.4932 H   0  0  0  0  0  0
  -25.8122  -30.8866   27.0227 H   0  0  0  0  0  0
  -26.2843  -29.6794   24.1148 H   0  0  0  0  0  0
  -27.4085  -29.7257   25.4535 H   0  0  0  0  0  0
  -27.8674  -30.4344   23.9226 H   0  0  0  0  0  0
  -27.2673  -33.3592   26.2087 H   0  0  0  0  0  0
  -28.3854  -32.6880   25.0305 H   0  0  0  0  0  0
  -28.0736  -31.8413   26.5381 H   0  0  0  0  0  0
  -28.2603  -38.0101   24.7507 H   0  0  0  0  0  0
  -28.1065  -36.2634   24.6293 H   0  0  0  0  0  0
  -27.2304  -37.1468   25.8873 H   0  0  0  0  0  0
  -20.9296  -29.8758   21.6955 H   0  0  0  0  0  0
  -26.0182  -38.2870   24.1403 H   0  0  0  0  0  0
  -28.6293  -17.6503   22.8302 H   0  0  0  0  0  0
  -27.6238  -19.8646   22.8884 H   0  0  0  0  0  0
  -30.0624  -21.0472   19.5067 H   0  0  0  0  0  0
  -27.7652  -24.2797   23.2718 H   0  0  0  0  0  0
  -26.1413  -24.2475   22.5985 H   0  0  0  0  0  0
  -26.3048  -21.9354   22.1170 H   0  0  0  0  0  0
  -27.5454  -22.0009   23.3749 H   0  0  0  0  0  0
  -26.9154  -24.4714   20.4014 H   0  0  0  0  0  0
  -31.3226  -19.5279   18.3397 H   0  0  0  0  0  0
  -31.1359  -17.8059   18.6188 H   0  0  0  0  0  0
  -32.3380  -18.7282   19.5348 H   0  0  0  0  0  0
  -29.5476  -25.5913   21.3896 H   0  0  0  0  0  0
  -28.1444  -26.2926   22.1167 H   0  0  0  0  0  0
  -29.1091  -15.5629   21.0457 H   0  0  0  0  0  0
  1 25  1  0  0  0
  1 30  2  0  0  0
  1 85  1  0  0  0
  2  3  1  0  0  0
  2 25  1  0  0  0
  2 88  1  0  0  0
  2 89  1  0  0  0
  3  4  1  0  0  0
  3 90  1  0  0  0
  3 91  1  0  0  0
  4  5  1  0  0  0
  4 92  1  0  0  0
  4 93  1  0  0  0
  5  6  1  0  0  0
  5 26  1  0  0  0
  5 94  1  0  0  0
  6 25  1  0  0  0
  6 95  1  0  0  0
  6 96  1  0  0  0
  7  8  2  0  0  0
  7 26  1  0  0  0
  7 29  1  0  0  0
  8  9  1  0  0  0
  8 22  1  0  0  0
  9 10  1  0  0  0
  9 27  2  0  0  0
 10 11  2  0  0  0
 10 15  1  0  0  0
 11 12  1  0  0  0
 11 97  1  0  0  0
 12 13  2  0  0  0
 12 98  1  0  0  0
 13 14  1  0  0  0
 13 31  1  0  0  0
 14 15  2  0  0  0
 14 99  1  0  0  0
 15100  1  0  0  0
 16 17  2  0  0  0
 16 21  1  0  0  0
 16 31  1  0  0  0
 17 18  1  0  0  0
 17101  1  0  0  0
 18 19  2  0  0  0
 18102  1  0  0  0
 19 20  1  0  0  0
 19 24  1  0  0  0
 20 21  2  0  0  0
 20103  1  0  0  0
 21 23  1  0  0  0
 22 28  1  0  0  0
 22 32  2  0  0  0
 26 27  1  0  0  0
 28104  1  0  0  0
 28105  1  0  0  0
 29106  1  0  0  0
 29107  1  0  0  0
 33 34  1  0  0  0
 33 66  1  0  0  0
 33 70  2  0  0  0
 34 36  1  0  0  0
 34 59  1  0  0  0
 34108  1  0  0  0
 35 44  2  0  0  0
 35 45  1  0  0  0
 35 68  1  0  0  0
 36 56  1  0  0  0
 36109  1  0  0  0
 37 39  1  0  0  0
 37 47  1  0  0  0
 37 66  1  0  0  0
 37110  1  0  0  0
 38 43  2  0  0  0
 38 46  1  0  0  0
 38 47  1  0  0  0
 39 64  1  0  0  0
 39 67  2  0  0  0
 40 52  1  0  0  0
 40 53  2  0  0  0
 40 58  1  0  0  0
 41111  1  0  0  0
 41112  1  0  0  0
 41113  1  0  0  0
 41 48  1  0  0  0
 42 43  1  0  0  0
 42 66  1  0  0  0
 42114  1  0  0  0
 42115  1  0  0  0
 43 44  1  0  0  0
 44116  1  0  0  0
 45 46  2  0  0  0
 45117  1  0  0  0
 46118  1  0  0  0
 47119  1  0  0  0
 47120  1  0  0  0
 48 56  1  0  0  0
 48 65  1  0  0  0
 48121  1  0  0  0
 49 50  1  0  0  0
 49 53  1  0  0  0
 49 64  1  0  0  0
 49122  1  0  0  0
 50 51  1  0  0  0
 50123  1  0  0  0
 50124  1  0  0  0
 51 52  1  0  0  0
 51125  1  0  0  0
 51126  1  0  0  0
 52127  1  0  0  0
 52128  1  0  0  0
 53 54  1  0  0  0
 54 55  2  0  0  0
 54129  1  0  0  0
 55 57  1  0  0  0
 55130  1  0  0  0
 56 69  2  0  0  0
 57 58  2  0  0  0
 57131  1  0  0  0
 58132  1  0  0  0
 59 60  1  0  0  0
 59 61  1  0  0  0
 59 62  1  0  0  0
 60133  1  0  0  0
 60134  1  0  0  0
 60135  1  0  0  0
 61136  1  0  0  0
 61137  1  0  0  0
 61138  1  0  0  0
 62139  1  0  0  0
 62140  1  0  0  0
 62141  1  0  0  0
 63 65  1  0  0  0
 63142  1  0  0  0
 63143  1  0  0  0
 63144  1  0  0  0
 64145  1  0  0  0
 65146  1  0  0  0
 68 83  1  0  0  0
 71 72  2  0  0  0
 71 74  1  0  0  0
 71147  1  0  0  0
 72 76  1  0  0  0
 72148  1  0  0  0
 73 75  1  0  0  0
 73 76  2  0  0  0
 73149  1  0  0  0
 74 75  2  0  0  0
 74 78  1  0  0  0
 75 82  1  0  0  0
 76 84  1  0  0  0
 77 81  1  0  0  0
 77 84  1  0  0  0
 77 86  2  0  0  0
 78 85  1  0  0  0
 78 87  2  0  0  0
 79 80  1  0  0  0
 79 81  1  0  0  0
 79150  1  0  0  0
 79151  1  0  0  0
 80 84  1  0  0  0
 80152  1  0  0  0
 80153  1  0  0  0
 81 83  1  0  0  0
 81154  1  0  0  0
 82155  1  0  0  0
 82156  1  0  0  0
 82157  1  0  0  0
 83158  1  0  0  0
 83159  1  0  0  0
 85160  1  0  0  0
M  ISO  4   1 100  68 101  83 101  85 100
M  END
> <chiral flag>
0

> <version>
0

> <s_m_source_file>
/data/baiqing/PycharmProjects/Reinvent-master-3.2/result/LINK_invent/BTK/process_docking_weight1_custom_product_contain_oxygen_bond_distance_aromatic_linkinvent_7_9_3/rearranged_h_0066.sdf

> <i_m_source_file_index>
21

> <r_mmod_Potential_Energy-OPLS-2005>
64.9520263671875

> <r_mmod_Stretch_Energy-OPLS-2005>
45.3768730163574

> <r_mmod_Bend_Energy-OPLS-2005>
130.932510375977

> <r_mmod_Torsional_Energy-OPLS-2005>
307.590240478516

> <r_mmod_Improper_Torsional_Energy-OPLS-2005>
5.0588846206665

> <r_mmod_Van_der_Waal_Energy-OPLS-2005>
164.467895507812

> <r_mmod_Electrostatic_Energy-OPLS-2005>
-373.022918701172

> <r_mmod_Solvation_Energy-OPLS-2005>
-234.563629150391

> <b_mmod_Minimization_Converged-OPLS-2005>
0

> <r_mmod_RMS_Derivative-OPLS-2005>
0.903962314128876

$$$$
21
                    3D
 Structure written by MMmdl.
161170  0  0  1  0            999 V2000
  -30.6158  -14.6414   20.5029 C   0  0  0  0  0  0
  -30.4435  -12.3944   19.4489 C   0  0  0  0  0  0
  -29.5094  -12.5070   18.2228 C   0  0  0  0  0  0
  -28.0319  -12.3436   18.6350 C   0  0  0  0  0  0
  -27.6545  -13.2130   19.8633 C   0  0  2  0  0  0
  -28.7006  -13.0633   20.9917 C   0  0  0  0  0  0
  -25.2566  -13.8156   20.5672 C   0  0  0  0  0  0
  -24.1834  -13.0432   20.9200 C   0  0  0  0  0  0
  -24.6397  -11.6901   20.8747 C   0  0  0  0  0  0
  -23.9063  -10.4287   21.0410 C   0  0  0  0  0  0
  -24.3615   -9.4202   21.9186 C   0  0  0  0  0  0
  -23.6288   -8.2240   22.0755 C   0  0  0  0  0  0
  -22.4271   -8.0280   21.3546 C   0  0  0  0  0  0
  -21.9904   -9.0255   20.4649 C   0  0  0  0  0  0
  -22.7235  -10.2133   20.3058 C   0  0  0  0  0  0
  -21.6851   -6.0733   22.5278 C   0  0  0  0  0  0
  -21.4014   -6.5637   23.8211 C   0  0  0  0  0  0
  -21.3658   -5.6790   24.9173 C   0  0  0  0  0  0
  -21.6043   -4.3053   24.7224 C   0  0  0  0  0  0
  -21.8821   -3.8145   23.4345 C   0  0  0  0  0  0
  -21.9193   -4.6961   22.3401 C   0  0  0  0  0  0
  -22.7856  -13.5230   21.1853 C   0  0  0  0  0  0
  -22.1663   -4.2147   21.0979 F   0  0  0  0  0  0
  -21.5626   -3.4538   25.7738 F   0  0  0  0  0  0
  -30.0159  -13.4111   20.4293 N   0  0  0  0  0  0
  -26.2995  -12.9331   20.3313 N   0  0  0  0  0  0
  -25.9324  -11.6491   20.5759 N   0  0  0  0  0  0
  -22.0493  -12.8230   22.0411 N   0  0  0  0  0  0
  -25.4269  -15.1873   20.4040 N   0  0  0  0  0  0
  -31.7828  -14.8117   20.1361 O   0  0  0  0  0  0
  -21.6637   -6.8876   21.4240 O   0  0  0  0  0  0
  -22.3545  -14.5534   20.6695 O   0  0  0  0  0  0
  -24.6266  -31.8605   23.2036 C   0  0  0  0  0  0
  -25.9115  -32.4781   23.8361 C   0  0  1  0  0  0
  -27.2228  -27.3213   20.1129 C   0  0  0  0  0  0
  -25.5932  -33.8581   24.2288 N   0  0  0  0  0  0
  -23.4198  -30.4859   21.5467 C   0  0  2  0  0  0
  -24.8656  -28.9449   20.1112 C   0  0  0  0  0  0
  -22.7477  -29.4629   22.4936 C   0  0  0  0  0  0
  -18.0289  -28.1384   22.8484 C   0  0  0  0  0  0
  -24.1491  -36.7296   23.2636 C   0  0  0  0  0  0
  -25.9622  -30.7923   21.3752 C   0  0  0  0  0  0
  -26.0364  -29.4214   20.7144 C   0  0  0  0  0  0
  -27.2189  -28.6224   20.7043 C   0  0  0  0  0  0
  -26.0252  -26.9004   19.4865 C   0  0  0  0  0  0
  -24.8620  -27.6895   19.4886 C   0  0  0  0  0  0
  -23.6342  -29.8250   20.1609 C   0  0  0  0  0  0
  -25.4113  -36.3084   24.0329 C   0  0  1  0  0  0
  -20.5889  -28.3689   23.1282 C   0  0  2  0  0  0
  -20.6780  -26.9411   22.5409 C   0  0  0  0  0  0
  -19.5756  -26.6382   21.5211 C   0  0  0  0  0  0
  -18.1935  -26.7927   22.1622 C   0  0  0  0  0  0
  -19.1541  -28.8853   23.2879 C   0  0  0  0  0  0
  -18.9462  -30.1455   23.8896 C   0  0  0  0  0  0
  -17.6462  -30.6584   24.0564 C   0  0  0  0  0  0
  -25.9051  -34.9452   23.5107 C   0  0  0  0  0  0
  -16.5354  -29.9083   23.6328 C   0  0  0  0  0  0
  -16.7276  -28.6501   23.0347 C   0  0  0  0  0  0
  -26.4497  -31.6586   25.0728 C   0  0  0  0  0  0
  -25.3731  -31.3728   26.1457 C   0  0  0  0  0  0
  -27.0334  -30.3006   24.6184 C   0  0  0  0  0  0
  -27.6058  -32.4318   25.7499 C   0  0  0  0  0  0
  -27.5582  -37.1801   24.8460 C   0  0  0  0  0  0
  -21.4190  -29.3043   22.3676 N   0  0  0  0  0  0
  -26.4291  -37.3778   23.9408 N   0  0  0  0  0  0
  -24.6884  -31.0623   22.0986 N   0  0  0  0  0  0
  -23.4202  -28.8163   23.3010 O   0  0  0  0  0  0
  -28.3363  -26.4646   20.1617 O   0  0  0  0  0  0
  -26.5615  -34.8918   22.4670 O   0  0  0  0  0  0
  -23.5430  -32.1402   23.7367 O   0  0  0  0  0  0
  -28.6727  -19.2975   20.3571 C   0  0  0  0  0  0
  -28.6769  -17.8789   20.4885 C   0  0  0  0  0  0
  -31.0610  -17.8920   20.7586 C   0  0  0  0  0  0
  -31.0647  -19.3213   20.6615 C   0  0  0  0  0  0
  -29.8627  -20.0693   20.4084 C   0  0  0  0  0  0
  -29.8693  -17.1292   20.6669 C   0  0  0  0  0  0
  -30.5780  -22.2476   19.3563 C   0  0  0  0  0  0
  -30.2188  -23.7395   19.3344 C   0  0  0  0  0  0
  -28.7215  -22.4453   20.6567 C   0  0  0  0  0  0
  -29.2056  -23.9453   20.4747 C   0  0  1  0  0  0
  -32.3995  -20.0124   20.8943 C   0  0  0  0  0  0
  -29.9163  -24.3912   21.7696 C   0  0  0  0  0  0
  -28.0678  -25.0067   20.1261 C   0  0  0  0  0  0
  -29.8106  -21.5339   20.2097 N   0  0  0  0  0  0
  -29.7783  -15.6776   20.8235 N   0  0  0  0  0  0
  -31.4675  -21.8016   18.6260 O   0  0  0  0  0  0
  -31.4831  -12.5284   19.1445 H   0  0  0  0  0  0
  -30.3864  -11.3975   19.8886 H   0  0  0  0  0  0
  -29.7736  -11.7556   17.4777 H   0  0  0  0  0  0
  -29.6506  -13.4763   17.7418 H   0  0  0  0  0  0
  -27.8683  -11.2902   18.8654 H   0  0  0  0  0  0
  -27.3777  -12.5747   17.7936 H   0  0  0  0  0  0
  -27.6727  -14.2481   19.5225 H   0  0  0  0  0  0
  -28.7137  -12.0393   21.3679 H   0  0  0  0  0  0
  -28.4464  -13.6894   21.8485 H   0  0  0  0  0  0
  -25.2760   -9.5676   22.4760 H   0  0  0  0  0  0
  -23.9997   -7.4628   22.7472 H   0  0  0  0  0  0
  -21.0834   -8.8776   19.8955 H   0  0  0  0  0  0
  -22.3696  -10.9674   19.6169 H   0  0  0  0  0  0
  -21.2009   -7.6146   23.9713 H   0  0  0  0  0  0
  -21.1477   -6.0521   25.9075 H   0  0  0  0  0  0
  -22.0602   -2.7607   23.2848 H   0  0  0  0  0  0
  -22.4100  -11.9894   22.4810 H   0  0  0  0  0  0
  -21.1113  -13.1264   22.2611 H   0  0  0  0  0  0
  -24.6523  -15.8358   20.4942 H   0  0  0  0  0  0
  -26.2553  -15.6145   20.0120 H   0  0  0  0  0  0
  -26.7184  -32.5451   23.1111 H   0  0  0  0  0  0
  -25.0086  -33.9726   25.0437 H   0  0  0  0  0  0
  -22.7136  -31.3068   21.4058 H   0  0  0  0  0  0
  -23.3751  -35.9630   23.3297 H   0  0  0  0  0  0
  -24.3586  -36.8916   22.2051 H   0  0  0  0  0  0
  -23.7246  -37.6499   23.6659 H   0  0  0  0  0  0
  -26.0959  -31.5581   20.6098 H   0  0  0  0  0  0
  -26.8419  -30.8379   22.0056 H   0  0  0  0  0  0
  -28.1167  -28.9831   21.1864 H   0  0  0  0  0  0
  -25.9511  -25.9444   18.9924 H   0  0  0  0  0  0
  -23.9651  -27.3186   19.0116 H   0  0  0  0  0  0
  -23.7548  -30.6036   19.4068 H   0  0  0  0  0  0
  -22.7536  -29.2563   19.8563 H   0  0  0  0  0  0
  -25.1291  -36.1938   25.0822 H   0  0  0  0  0  0
  -20.9982  -28.3265   24.1402 H   0  0  0  0  0  0
  -20.5685  -26.2295   23.3607 H   0  0  0  0  0  0
  -21.6650  -26.7444   22.1201 H   0  0  0  0  0  0
  -19.6918  -25.6294   21.1240 H   0  0  0  0  0  0
  -19.6692  -27.3192   20.6742 H   0  0  0  0  0  0
  -17.4204  -26.6672   21.4026 H   0  0  0  0  0  0
  -18.0335  -26.0070   22.9019 H   0  0  0  0  0  0
  -19.7938  -30.7271   24.2264 H   0  0  0  0  0  0
  -17.5016  -31.6263   24.5167 H   0  0  0  0  0  0
  -15.5355  -30.2984   23.7652 H   0  0  0  0  0  0
  -15.8676  -28.0822   22.7059 H   0  0  0  0  0  0
  -24.5906  -30.7074   25.7792 H   0  0  0  0  0  0
  -24.8922  -32.2897   26.4877 H   0  0  0  0  0  0
  -25.8057  -30.8913   27.0235 H   0  0  0  0  0  0
  -26.2906  -29.6760   24.1206 H   0  0  0  0  0  0
  -27.4024  -29.7257   25.4688 H   0  0  0  0  0  0
  -27.8781  -30.4284   23.9411 H   0  0  0  0  0  0
  -27.2667  -33.3613   26.2084 H   0  0  0  0  0  0
  -28.3864  -32.6886   25.0326 H   0  0  0  0  0  0
  -28.0731  -31.8438   26.5409 H   0  0  0  0  0  0
  -28.2593  -38.0105   24.7517 H   0  0  0  0  0  0
  -28.1086  -36.2638   24.6272 H   0  0  0  0  0  0
  -27.2304  -37.1434   25.8864 H   0  0  0  0  0  0
  -20.9365  -29.8770   21.6892 H   0  0  0  0  0  0
  -26.0174  -38.2852   24.1413 H   0  0  0  0  0  0
  -27.7257  -19.7928   20.1947 H   0  0  0  0  0  0
  -27.7289  -17.3630   20.4374 H   0  0  0  0  0  0
  -31.9943  -17.3779   20.9419 H   0  0  0  0  0  0
  -29.7778  -23.9649   18.3633 H   0  0  0  0  0  0
  -31.1073  -24.3611   19.4468 H   0  0  0  0  0  0
  -27.8436  -22.2568   20.0365 H   0  0  0  0  0  0
  -28.4348  -22.2292   21.6865 H   0  0  0  0  0  0
  -33.0204  -19.4347   21.5799 H   0  0  0  0  0  0
  -32.2723  -20.9991   21.3395 H   0  0  0  0  0  0
  -32.9490  -20.1148   19.9587 H   0  0  0  0  0  0
  -30.7052  -23.6979   22.0638 H   0  0  0  0  0  0
  -29.2125  -24.4581   22.6002 H   0  0  0  0  0  0
  -30.3720  -25.3751   21.6513 H   0  0  0  0  0  0
  -27.2430  -24.8166   20.8155 H   0  0  0  0  0  0
  -27.6963  -24.7485   19.1344 H   0  0  0  0  0  0
  -28.8555  -15.3459   21.0574 H   0  0  0  0  0  0
  1 25  1  0  0  0
  1 30  2  0  0  0
  1 85  1  0  0  0
  2  3  1  0  0  0
  2 25  1  0  0  0
  2 87  1  0  0  0
  2 88  1  0  0  0
  3  4  1  0  0  0
  3 89  1  0  0  0
  3 90  1  0  0  0
  4  5  1  0  0  0
  4 91  1  0  0  0
  4 92  1  0  0  0
  5  6  1  0  0  0
  5 26  1  0  0  0
  5 93  1  0  0  0
  6 25  1  0  0  0
  6 94  1  0  0  0
  6 95  1  0  0  0
  7  8  2  0  0  0
  7 26  1  0  0  0
  7 29  1  0  0  0
  8  9  1  0  0  0
  8 22  1  0  0  0
  9 10  1  0  0  0
  9 27  2  0  0  0
 10 11  2  0  0  0
 10 15  1  0  0  0
 11 12  1  0  0  0
 11 96  1  0  0  0
 12 13  2  0  0  0
 12 97  1  0  0  0
 13 14  1  0  0  0
 13 31  1  0  0  0
 14 15  2  0  0  0
 14 98  1  0  0  0
 15 99  1  0  0  0
 16 17  2  0  0  0
 16 21  1  0  0  0
 16 31  1  0  0  0
 17 18  1  0  0  0
 17100  1  0  0  0
 18 19  2  0  0  0
 18101  1  0  0  0
 19 20  1  0  0  0
 19 24  1  0  0  0
 20 21  2  0  0  0
 20102  1  0  0  0
 21 23  1  0  0  0
 22 28  1  0  0  0
 22 32  2  0  0  0
 26 27  1  0  0  0
 28103  1  0  0  0
 28104  1  0  0  0
 29105  1  0  0  0
 29106  1  0  0  0
 33 34  1  0  0  0
 33 66  1  0  0  0
 33 70  2  0  0  0
 34 36  1  0  0  0
 34 59  1  0  0  0
 34107  1  0  0  0
 35 44  2  0  0  0
 35 45  1  0  0  0
 35 68  1  0  0  0
 36 56  1  0  0  0
 36108  1  0  0  0
 37 39  1  0  0  0
 37 47  1  0  0  0
 37 66  1  0  0  0
 37109  1  0  0  0
 38 43  2  0  0  0
 38 46  1  0  0  0
 38 47  1  0  0  0
 39 64  1  0  0  0
 39 67  2  0  0  0
 40 52  1  0  0  0
 40 53  2  0  0  0
 40 58  1  0  0  0
 41110  1  0  0  0
 41111  1  0  0  0
 41112  1  0  0  0
 41 48  1  0  0  0
 42 43  1  0  0  0
 42 66  1  0  0  0
 42113  1  0  0  0
 42114  1  0  0  0
 43 44  1  0  0  0
 44115  1  0  0  0
 45 46  2  0  0  0
 45116  1  0  0  0
 46117  1  0  0  0
 47118  1  0  0  0
 47119  1  0  0  0
 48 56  1  0  0  0
 48 65  1  0  0  0
 48120  1  0  0  0
 49 50  1  0  0  0
 49 53  1  0  0  0
 49 64  1  0  0  0
 49121  1  0  0  0
 50 51  1  0  0  0
 50122  1  0  0  0
 50123  1  0  0  0
 51 52  1  0  0  0
 51124  1  0  0  0
 51125  1  0  0  0
 52126  1  0  0  0
 52127  1  0  0  0
 53 54  1  0  0  0
 54 55  2  0  0  0
 54128  1  0  0  0
 55 57  1  0  0  0
 55129  1  0  0  0
 56 69  2  0  0  0
 57 58  2  0  0  0
 57130  1  0  0  0
 58131  1  0  0  0
 59 60  1  0  0  0
 59 61  1  0  0  0
 59 62  1  0  0  0
 60132  1  0  0  0
 60133  1  0  0  0
 60134  1  0  0  0
 61135  1  0  0  0
 61136  1  0  0  0
 61137  1  0  0  0
 62138  1  0  0  0
 62139  1  0  0  0
 62140  1  0  0  0
 63 65  1  0  0  0
 63141  1  0  0  0
 63142  1  0  0  0
 63143  1  0  0  0
 64144  1  0  0  0
 65145  1  0  0  0
 68 83  1  0  0  0
 71 72  2  0  0  0
 71 75  1  0  0  0
 71146  1  0  0  0
 72 76  1  0  0  0
 72147  1  0  0  0
 73 74  1  0  0  0
 73 76  2  0  0  0
 73148  1  0  0  0
 74 75  2  0  0  0
 74 81  1  0  0  0
 75 84  1  0  0  0
 76 85  1  0  0  0
 77 78  1  0  0  0
 77 84  1  0  0  0
 77 86  2  0  0  0
 78 80  1  0  0  0
 78149  1  0  0  0
 78150  1  0  0  0
 79 80  1  0  0  0
 79 84  1  0  0  0
 79151  1  0  0  0
 79152  1  0  0  0
 80 82  1  0  0  0
 80 83  1  0  0  0
 81153  1  0  0  0
 81154  1  0  0  0
 81155  1  0  0  0
 82156  1  0  0  0
 82157  1  0  0  0
 82158  1  0  0  0
 83159  1  0  0  0
 83160  1  0  0  0
 85161  1  0  0  0
M  ISO  4   1 100  68 101  83 101  85 100
M  END
> <chiral flag>
0

> <version>
0

> <s_m_source_file>
/data/baiqing/PycharmProjects/Reinvent-master-3.2/result/LINK_invent/BTK/process_docking_weight1_custom_product_contain_oxygen_bond_distance_aromatic_linkinvent_7_9_3/rearranged_h_0066.sdf

> <i_m_source_file_index>
22

> <r_mmod_Potential_Energy-OPLS-2005>
152.436569213867

> <r_mmod_Stretch_Energy-OPLS-2005>
81.3562774658203

> <r_mmod_Bend_Energy-OPLS-2005>
164.196914672852

> <r_mmod_Torsional_Energy-OPLS-2005>
288.173248291016

> <r_mmod_Improper_Torsional_Energy-OPLS-2005>
5.64258003234863

> <r_mmod_Van_der_Waal_Energy-OPLS-2005>
144.045608520508

> <r_mmod_Electrostatic_Energy-OPLS-2005>
-357.372985839844

> <r_mmod_Solvation_Energy-OPLS-2005>
-222.777954101562

> <b_mmod_Minimization_Converged-OPLS-2005>
0

> <r_mmod_RMS_Derivative-OPLS-2005>
0.348473399877548

$$$$
22
                    3D
 Structure written by MMmdl.
164173  0  0  1  0            999 V2000
  -30.6670  -14.5401   20.5733 C   0  0  0  0  0  0
  -30.4376  -12.3466   19.4356 C   0  0  0  0  0  0
  -29.5065  -12.5024   18.2147 C   0  0  0  0  0  0
  -28.0264  -12.3495   18.6279 C   0  0  0  0  0  0
  -27.6577  -13.2049   19.8693 C   0  0  2  0  0  0
  -28.7004  -13.0131   20.9930 C   0  0  0  0  0  0
  -25.2573  -13.8131   20.5669 C   0  0  0  0  0  0
  -24.1821  -13.0399   20.9199 C   0  0  0  0  0  0
  -24.6385  -11.6879   20.8745 C   0  0  0  0  0  0
  -23.9051  -10.4263   21.0415 C   0  0  0  0  0  0
  -24.3600   -9.4176   21.9189 C   0  0  0  0  0  0
  -23.6278   -8.2210   22.0751 C   0  0  0  0  0  0
  -22.4259   -8.0249   21.3535 C   0  0  0  0  0  0
  -21.9904   -9.0236   20.4638 C   0  0  0  0  0  0
  -22.7242  -10.2114   20.3055 C   0  0  0  0  0  0
  -21.6839   -6.0719   22.5286 C   0  0  0  0  0  0
  -21.3997   -6.5627   23.8220 C   0  0  0  0  0  0
  -21.3670   -5.6786   24.9184 C   0  0  0  0  0  0
  -21.6054   -4.3052   24.7232 C   0  0  0  0  0  0
  -21.8819   -3.8137   23.4355 C   0  0  0  0  0  0
  -21.9183   -4.6947   22.3408 C   0  0  0  0  0  0
  -22.7853  -13.5214   21.1884 C   0  0  0  0  0  0
  -22.1649   -4.2134   21.0983 F   0  0  0  0  0  0
  -21.5646   -3.4538   25.7748 F   0  0  0  0  0  0
  -30.0236  -13.3437   20.4358 N   0  0  0  0  0  0
  -26.2991  -12.9297   20.3322 N   0  0  0  0  0  0
  -25.9307  -11.6459   20.5762 N   0  0  0  0  0  0
  -22.0485  -12.8196   22.0432 N   0  0  0  0  0  0
  -25.4267  -15.1836   20.4019 N   0  0  0  0  0  0
  -31.8214  -14.7196   20.1706 O   0  0  0  0  0  0
  -21.6621   -6.8854   21.4234 O   0  0  0  0  0  0
  -22.3547  -14.5528   20.6753 O   0  0  0  0  0  0
  -24.6092  -31.8707   23.2096 C   0  0  0  0  0  0
  -25.9012  -32.4821   23.8381 C   0  0  1  0  0  0
  -27.2271  -27.4210   20.1129 C   0  0  0  0  0  0
  -25.5895  -33.8612   24.2324 N   0  0  0  0  0  0
  -23.3976  -30.4955   21.5479 C   0  0  2  0  0  0
  -24.8434  -28.9605   20.1083 C   0  0  0  0  0  0
  -22.7383  -29.4660   22.4950 C   0  0  0  0  0  0
  -18.0257  -28.1430   22.8541 C   0  0  0  0  0  0
  -24.1504  -36.7306   23.2646 C   0  0  0  0  0  0
  -25.9248  -30.8360   21.3622 C   0  0  0  0  0  0
  -26.0000  -29.4666   20.7119 C   0  0  0  0  0  0
  -27.1876  -28.6997   20.7169 C   0  0  0  0  0  0
  -26.0508  -26.9309   19.5025 C   0  0  0  0  0  0
  -24.8638  -27.6895   19.5032 C   0  0  0  0  0  0
  -23.6052  -29.8283   20.1589 C   0  0  0  0  0  0
  -25.4127  -36.3088   24.0324 C   0  0  1  0  0  0
  -20.5868  -28.3669   23.1324 C   0  0  2  0  0  0
  -20.6763  -26.9429   22.5353 C   0  0  0  0  0  0
  -19.5677  -26.6443   21.5222 C   0  0  0  0  0  0
  -18.1910  -26.7908   22.1788 C   0  0  0  0  0  0
  -19.1533  -28.8886   23.2912 C   0  0  0  0  0  0
  -18.9495  -30.1518   23.8891 C   0  0  0  0  0  0
  -17.6501  -30.6679   24.0571 C   0  0  0  0  0  0
  -25.9039  -34.9453   23.5112 C   0  0  0  0  0  0
  -16.5376  -29.9174   23.6416 C   0  0  0  0  0  0
  -16.7254  -28.6591   23.0430 C   0  0  0  0  0  0
  -26.4482  -31.6570   25.0671 C   0  0  0  0  0  0
  -25.3783  -31.3624   26.1425 C   0  0  0  0  0  0
  -27.0318  -30.3021   24.6005 C   0  0  0  0  0  0
  -27.6061  -32.4280   25.7442 C   0  0  0  0  0  0
  -27.5577  -37.1800   24.8459 C   0  0  0  0  0  0
  -21.4109  -29.3093   22.3762 N   0  0  0  0  0  0
  -26.4309  -37.3769   23.9391 N   0  0  0  0  0  0
  -24.6631  -31.0791   22.1012 N   0  0  0  0  0  0
  -23.4161  -28.8161   23.2954 O   0  0  0  0  0  0
  -28.4147  -26.7144   20.1524 O   0  0  0  0  0  0
  -26.5589  -34.8885   22.4657 O   0  0  0  0  0  0
  -23.5289  -32.1491   23.7476 O   0  0  0  0  0  0
  -30.5744  -19.7257   21.7476 C   0  0  0  0  0  0
  -31.2888  -17.3852   21.9614 C   0  0  0  0  0  0
  -29.2664  -17.9429   20.7325 C   0  0  0  0  0  0
  -31.4737  -18.7596   22.2515 C   0  0  0  0  0  0
  -29.4516  -19.3296   20.9902 C   0  0  0  0  0  0
  -30.1785  -16.9576   21.1966 C   0  0  0  0  0  0
  -27.8300  -21.8651   22.2968 C   0  0  0  0  0  0
  -27.5073  -23.2796   22.8127 C   0  0  0  0  0  0
  -28.1618  -24.4310   22.0299 C   0  0  0  0  0  0
  -28.6938  -22.8617   20.1858 C   0  0  0  0  0  0
  -27.9936  -24.2104   20.5259 C   0  0  2  0  0  0
  -32.6198  -19.2106   23.1399 C   0  0  0  0  0  0
  -28.4511  -20.3592   20.4165 C   0  0  0  0  0  0
  -28.5312  -25.3769   19.6376 C   0  0  0  0  0  0
  -28.3350  -21.7045   21.0467 N   0  0  0  0  0  0
  -29.8804  -15.5645   20.9907 N   0  0  0  0  0  0
  -27.5601  -20.9137   23.0337 O   0  0  0  0  0  0
  -31.4825  -12.4654   19.1410 H   0  0  0  0  0  0
  -30.3594  -11.3430   19.8551 H   0  0  0  0  0  0
  -29.7643  -11.7662   17.4539 H   0  0  0  0  0  0
  -29.6557  -13.4805   17.7567 H   0  0  0  0  0  0
  -27.8529  -11.2937   18.8439 H   0  0  0  0  0  0
  -27.3740  -12.5977   17.7896 H   0  0  0  0  0  0
  -27.6918  -14.2462   19.5509 H   0  0  0  0  0  0
  -28.6920  -11.9782   21.3404 H   0  0  0  0  0  0
  -28.4519  -13.6169   21.8668 H   0  0  0  0  0  0
  -25.2735   -9.5652   22.4773 H   0  0  0  0  0  0
  -23.9996   -7.4591   22.7448 H   0  0  0  0  0  0
  -21.0864   -8.8764   19.8916 H   0  0  0  0  0  0
  -22.3727  -10.9654   19.6168 H   0  0  0  0  0  0
  -21.1974   -7.6131   23.9725 H   0  0  0  0  0  0
  -21.1507   -6.0508   25.9096 H   0  0  0  0  0  0
  -22.0591   -2.7592   23.2866 H   0  0  0  0  0  0
  -22.4091  -11.9848   22.4811 H   0  0  0  0  0  0
  -21.1087  -13.1200   22.2590 H   0  0  0  0  0  0
  -24.6540  -15.8333   20.4917 H   0  0  0  0  0  0
  -26.2689  -15.6203   20.0515 H   0  0  0  0  0  0
  -26.7065  -32.5550   23.1127 H   0  0  0  0  0  0
  -25.0060  -33.9830   25.0463 H   0  0  0  0  0  0
  -22.6868  -31.3142   21.4056 H   0  0  0  0  0  0
  -23.3748  -35.9654   23.3322 H   0  0  0  0  0  0
  -24.3633  -36.8910   22.2065 H   0  0  0  0  0  0
  -23.7258  -37.6509   23.6667 H   0  0  0  0  0  0
  -26.0236  -31.6080   20.5994 H   0  0  0  0  0  0
  -26.8195  -30.9005   21.9707 H   0  0  0  0  0  0
  -28.0767  -29.0846   21.1976 H   0  0  0  0  0  0
  -26.0289  -25.9637   19.0263 H   0  0  0  0  0  0
  -23.9751  -27.2855   19.0412 H   0  0  0  0  0  0
  -23.7114  -30.6084   19.4014 H   0  0  0  0  0  0
  -22.7306  -29.2450   19.8632 H   0  0  0  0  0  0
  -25.1306  -36.1965   25.0822 H   0  0  0  0  0  0
  -20.9995  -28.3198   24.1422 H   0  0  0  0  0  0
  -20.5726  -26.2254   23.3504 H   0  0  0  0  0  0
  -21.6596  -26.7464   22.1035 H   0  0  0  0  0  0
  -19.6863  -25.6348   21.1295 H   0  0  0  0  0  0
  -19.6515  -27.3238   20.6725 H   0  0  0  0  0  0
  -17.4055  -26.6478   21.4360 H   0  0  0  0  0  0
  -18.0552  -26.0110   22.9299 H   0  0  0  0  0  0
  -19.8021  -30.7311   24.2170 H   0  0  0  0  0  0
  -17.5042  -31.6402   24.5066 H   0  0  0  0  0  0
  -15.5389  -30.3120   23.7758 H   0  0  0  0  0  0
  -15.8587  -28.1006   22.7219 H   0  0  0  0  0  0
  -24.5967  -30.6974   25.7737 H   0  0  0  0  0  0
  -24.8969  -32.2765   26.4907 H   0  0  0  0  0  0
  -25.8197  -30.8757   27.0133 H   0  0  0  0  0  0
  -26.2834  -29.6743   24.1164 H   0  0  0  0  0  0
  -27.4225  -29.7296   25.4426 H   0  0  0  0  0  0
  -27.8609  -30.4351   23.9051 H   0  0  0  0  0  0
  -27.2684  -33.3567   26.2050 H   0  0  0  0  0  0
  -28.3874  -32.6855   25.0279 H   0  0  0  0  0  0
  -28.0722  -31.8367   26.5327 H   0  0  0  0  0  0
  -28.2577  -38.0108   24.7494 H   0  0  0  0  0  0
  -28.1094  -36.2630   24.6320 H   0  0  0  0  0  0
  -27.2300  -37.1469   25.8864 H   0  0  0  0  0  0
  -20.9173  -29.9050   21.7273 H   0  0  0  0  0  0
  -26.0188  -38.2843   24.1398 H   0  0  0  0  0  0
  -30.7473  -20.7732   21.9549 H   0  0  0  0  0  0
  -31.9805  -16.6577   22.3613 H   0  0  0  0  0  0
  -28.4069  -17.6349   20.1555 H   0  0  0  0  0  0
  -27.7657  -23.3547   23.8680 H   0  0  0  0  0  0
  -26.4236  -23.3942   22.7594 H   0  0  0  0  0  0
  -29.2210  -24.5021   22.2816 H   0  0  0  0  0  0
  -27.7063  -25.3763   22.3274 H   0  0  0  0  0  0
  -29.7733  -22.9944   20.2765 H   0  0  0  0  0  0
  -28.4968  -22.6303   19.1407 H   0  0  0  0  0  0
  -26.9241  -24.1160   20.3265 H   0  0  0  0  0  0
  -32.3087  -20.0425   23.7755 H   0  0  0  0  0  0
  -33.4721  -19.5439   22.5461 H   0  0  0  0  0  0
  -32.9510  -18.4061   23.7976 H   0  0  0  0  0  0
  -27.4607  -19.9041   20.4254 H   0  0  0  0  0  0
  -28.7042  -20.4747   19.3611 H   0  0  0  0  0  0
  -28.1168  -25.3064   18.6314 H   0  0  0  0  0  0
  -29.6042  -25.2362   19.5099 H   0  0  0  0  0  0
  -28.9096  -15.3156   21.0940 H   0  0  0  0  0  0
  1 25  1  0  0  0
  1 30  2  0  0  0
  1 86  1  0  0  0
  2  3  1  0  0  0
  2 25  1  0  0  0
  2 88  1  0  0  0
  2 89  1  0  0  0
  3  4  1  0  0  0
  3 90  1  0  0  0
  3 91  1  0  0  0
  4  5  1  0  0  0
  4 92  1  0  0  0
  4 93  1  0  0  0
  5  6  1  0  0  0
  5 26  1  0  0  0
  5 94  1  0  0  0
  6 25  1  0  0  0
  6 95  1  0  0  0
  6 96  1  0  0  0
  7  8  2  0  0  0
  7 26  1  0  0  0
  7 29  1  0  0  0
  8  9  1  0  0  0
  8 22  1  0  0  0
  9 10  1  0  0  0
  9 27  2  0  0  0
 10 11  2  0  0  0
 10 15  1  0  0  0
 11 12  1  0  0  0
 11 97  1  0  0  0
 12 13  2  0  0  0
 12 98  1  0  0  0
 13 14  1  0  0  0
 13 31  1  0  0  0
 14 15  2  0  0  0
 14 99  1  0  0  0
 15100  1  0  0  0
 16 17  2  0  0  0
 16 21  1  0  0  0
 16 31  1  0  0  0
 17 18  1  0  0  0
 17101  1  0  0  0
 18 19  2  0  0  0
 18102  1  0  0  0
 19 20  1  0  0  0
 19 24  1  0  0  0
 20 21  2  0  0  0
 20103  1  0  0  0
 21 23  1  0  0  0
 22 28  1  0  0  0
 22 32  2  0  0  0
 26 27  1  0  0  0
 28104  1  0  0  0
 28105  1  0  0  0
 29106  1  0  0  0
 29107  1  0  0  0
 33 34  1  0  0  0
 33 66  1  0  0  0
 33 70  2  0  0  0
 34 36  1  0  0  0
 34 59  1  0  0  0
 34108  1  0  0  0
 35 44  2  0  0  0
 35 45  1  0  0  0
 35 68  1  0  0  0
 36 56  1  0  0  0
 36109  1  0  0  0
 37 39  1  0  0  0
 37 47  1  0  0  0
 37 66  1  0  0  0
 37110  1  0  0  0
 38 43  2  0  0  0
 38 46  1  0  0  0
 38 47  1  0  0  0
 39 64  1  0  0  0
 39 67  2  0  0  0
 40 52  1  0  0  0
 40 53  2  0  0  0
 40 58  1  0  0  0
 41111  1  0  0  0
 41112  1  0  0  0
 41113  1  0  0  0
 41 48  1  0  0  0
 42 43  1  0  0  0
 42 66  1  0  0  0
 42114  1  0  0  0
 42115  1  0  0  0
 43 44  1  0  0  0
 44116  1  0  0  0
 45 46  2  0  0  0
 45117  1  0  0  0
 46118  1  0  0  0
 47119  1  0  0  0
 47120  1  0  0  0
 48 56  1  0  0  0
 48 65  1  0  0  0
 48121  1  0  0  0
 49 50  1  0  0  0
 49 53  1  0  0  0
 49 64  1  0  0  0
 49122  1  0  0  0
 50 51  1  0  0  0
 50123  1  0  0  0
 50124  1  0  0  0
 51 52  1  0  0  0
 51125  1  0  0  0
 51126  1  0  0  0
 52127  1  0  0  0
 52128  1  0  0  0
 53 54  1  0  0  0
 54 55  2  0  0  0
 54129  1  0  0  0
 55 57  1  0  0  0
 55130  1  0  0  0
 56 69  2  0  0  0
 57 58  2  0  0  0
 57131  1  0  0  0
 58132  1  0  0  0
 59 60  1  0  0  0
 59 61  1  0  0  0
 59 62  1  0  0  0
 60133  1  0  0  0
 60134  1  0  0  0
 60135  1  0  0  0
 61136  1  0  0  0
 61137  1  0  0  0
 61138  1  0  0  0
 62139  1  0  0  0
 62140  1  0  0  0
 62141  1  0  0  0
 63 65  1  0  0  0
 63142  1  0  0  0
 63143  1  0  0  0
 63144  1  0  0  0
 64145  1  0  0  0
 65146  1  0  0  0
 68 84  1  0  0  0
 71 74  2  0  0  0
 71 75  1  0  0  0
 71147  1  0  0  0
 72 74  1  0  0  0
 72 76  2  0  0  0
 72148  1  0  0  0
 73 75  2  0  0  0
 73 76  1  0  0  0
 73149  1  0  0  0
 74 82  1  0  0  0
 75 83  1  0  0  0
 76 86  1  0  0  0
 77 78  1  0  0  0
 77 85  1  0  0  0
 77 87  2  0  0  0
 78 79  1  0  0  0
 78150  1  0  0  0
 78151  1  0  0  0
 79 81  1  0  0  0
 79152  1  0  0  0
 79153  1  0  0  0
 80 81  1  0  0  0
 80 85  1  0  0  0
 80154  1  0  0  0
 80155  1  0  0  0
 81 84  1  0  0  0
 81156  1  0  0  0
 82157  1  0  0  0
 82158  1  0  0  0
 82159  1  0  0  0
 83 85  1  0  0  0
 83160  1  0  0  0
 83161  1  0  0  0
 84162  1  0  0  0
 84163  1  0  0  0
 86164  1  0  0  0
M  ISO  4   1 100  68 101  84 101  86 100
M  END
> <chiral flag>
0

> <version>
0

> <s_m_source_file>
/data/baiqing/PycharmProjects/Reinvent-master-3.2/result/LINK_invent/BTK/process_docking_weight1_custom_product_contain_oxygen_bond_distance_aromatic_linkinvent_7_9_3/rearranged_h_0066.sdf

> <i_m_source_file_index>
23

> <r_mmod_Potential_Energy-OPLS-2005>
-8.65587615966797

> <r_mmod_Stretch_Energy-OPLS-2005>
48.1261863708496

> <r_mmod_Bend_Energy-OPLS-2005>
126.150871276855

> <r_mmod_Torsional_Energy-OPLS-2005>
234.524063110352

> <r_mmod_Improper_Torsional_Energy-OPLS-2005>
5.29790592193604

> <r_mmod_Van_der_Waal_Energy-OPLS-2005>
152.162567138672

> <r_mmod_Electrostatic_Energy-OPLS-2005>
-364.823303222656

> <r_mmod_Solvation_Energy-OPLS-2005>
-230.282562255859

> <b_mmod_Minimization_Converged-OPLS-2005>
0

> <r_mmod_RMS_Derivative-OPLS-2005>
4.29692316055298

$$$$
23
                    3D
 Structure written by MMmdl.
157165  0  0  1  0            999 V2000
  -30.6178  -14.7532   20.4481 C   0  0  0  0  0  0
  -30.4470  -12.4586   19.4785 C   0  0  0  0  0  0
  -29.5264  -12.4561   18.2387 C   0  0  0  0  0  0
  -28.0502  -12.2795   18.6569 C   0  0  0  0  0  0
  -27.6415  -13.2109   19.8298 C   0  0  2  0  0  0
  -28.6807  -13.1908   20.9692 C   0  0  0  0  0  0
  -25.2553  -13.8143   20.5639 C   0  0  0  0  0  0
  -24.1814  -13.0445   20.9149 C   0  0  0  0  0  0
  -24.6342  -11.6898   20.8664 C   0  0  0  0  0  0
  -23.8992  -10.4304   21.0366 C   0  0  0  0  0  0
  -24.3550   -9.4231   21.9151 C   0  0  0  0  0  0
  -23.6263   -8.2254   22.0742 C   0  0  0  0  0  0
  -22.4264   -8.0277   21.3532 C   0  0  0  0  0  0
  -21.9880   -9.0232   20.4623 C   0  0  0  0  0  0
  -22.7162  -10.2126   20.3028 C   0  0  0  0  0  0
  -21.6897   -6.0711   22.5270 C   0  0  0  0  0  0
  -21.4013   -6.5614   23.8184 C   0  0  0  0  0  0
  -21.3649   -5.6764   24.9155 C   0  0  0  0  0  0
  -21.6051   -4.3037   24.7204 C   0  0  0  0  0  0
  -21.8819   -3.8115   23.4333 C   0  0  0  0  0  0
  -21.9189   -4.6934   22.3378 C   0  0  0  0  0  0
  -22.7841  -13.5268   21.1805 C   0  0  0  0  0  0
  -22.1676   -4.2121   21.0966 F   0  0  0  0  0  0
  -21.5630   -3.4533   25.7719 F   0  0  0  0  0  0
  -29.9816  -13.5360   20.3792 N   0  0  0  0  0  0
  -26.2940  -12.9306   20.3164 N   0  0  0  0  0  0
  -25.9264  -11.6487   20.5666 N   0  0  0  0  0  0
  -22.0453  -12.8295   22.0368 N   0  0  0  0  0  0
  -25.4259  -15.1845   20.4031 N   0  0  0  0  0  0
  -31.8207  -14.8284   20.1821 O   0  0  0  0  0  0
  -21.6659   -6.8860   21.4244 O   0  0  0  0  0  0
  -22.3538  -14.5572   20.6629 O   0  0  0  0  0  0
  -24.6311  -31.8543   23.1854 C   0  0  0  0  0  0
  -25.9155  -32.4714   23.8179 C   0  0  1  0  0  0
  -27.2388  -27.2516   20.1308 C   0  0  0  0  0  0
  -25.5972  -33.8509   24.2165 N   0  0  0  0  0  0
  -23.4268  -30.4673   21.5327 C   0  0  2  0  0  0
  -24.8733  -28.8979   20.1084 C   0  0  0  0  0  0
  -22.7478  -29.4613   22.4900 C   0  0  0  0  0  0
  -18.0302  -28.1472   22.8484 C   0  0  0  0  0  0
  -24.1466  -36.7164   23.2632 C   0  0  0  0  0  0
  -25.9709  -30.7521   21.3759 C   0  0  0  0  0  0
  -26.0393  -29.3736   20.7211 C   0  0  0  0  0  0
  -27.2142  -28.5583   20.7285 C   0  0  0  0  0  0
  -26.0454  -26.8315   19.4995 C   0  0  0  0  0  0
  -24.8801  -27.6334   19.4942 C   0  0  0  0  0  0
  -23.6397  -29.7804   20.1567 C   0  0  0  0  0  0
  -25.4120  -36.3005   24.0318 C   0  0  1  0  0  0
  -20.5897  -28.3786   23.1277 C   0  0  2  0  0  0
  -20.6817  -26.9509   22.5429 C   0  0  0  0  0  0
  -19.5794  -26.6459   21.5229 C   0  0  0  0  0  0
  -18.1952  -26.8007   22.1614 C   0  0  0  0  0  0
  -19.1554  -28.8942   23.2858 C   0  0  0  0  0  0
  -18.9487  -30.1537   23.8866 C   0  0  0  0  0  0
  -17.6489  -30.6656   24.0605 C   0  0  0  0  0  0
  -25.9083  -34.9416   23.5035 C   0  0  0  0  0  0
  -16.5367  -29.9151   23.6399 C   0  0  0  0  0  0
  -16.7275  -28.6587   23.0364 C   0  0  0  0  0  0
  -26.4534  -31.6558   25.0595 C   0  0  0  0  0  0
  -25.3725  -31.3793   26.1297 C   0  0  0  0  0  0
  -27.0462  -30.2965   24.6184 C   0  0  0  0  0  0
  -27.6054  -32.4348   25.7385 C   0  0  0  0  0  0
  -27.5571  -37.1702   24.8472 C   0  0  0  0  0  0
  -21.4189  -29.3079   22.3610 N   0  0  0  0  0  0
  -26.4259  -37.3765   23.9442 N   0  0  0  0  0  0
  -24.6933  -31.0456   22.0861 N   0  0  0  0  0  0
  -23.4169  -28.8282   23.3116 O   0  0  0  0  0  0
  -28.3732  -26.4141   20.2197 O   0  0  0  0  0  0
  -26.5646  -34.8939   22.4593 O   0  0  0  0  0  0
  -23.5487  -32.1417   23.7146 O   0  0  0  0  0  0
  -30.7450  -19.9850   21.7444 C   0  0  0  0  0  0
  -31.1326  -17.5553   21.8415 C   0  0  0  0  0  0
  -29.5180  -18.4871   20.2762 C   0  0  0  0  0  0
  -31.3824  -18.8593   22.3208 C   0  0  0  0  0  0
  -29.7841  -19.8556   20.7110 C   0  0  0  0  0  0
  -30.1862  -17.3112   20.8237 C   0  0  0  0  0  0
  -29.3807  -22.4228   20.3063 C   0  0  0  0  0  0
  -31.4953  -18.6990   24.8395 C   0  0  0  0  0  0
  -32.2640  -19.0329   23.5492 C   0  0  0  0  0  0
  -28.3156  -23.6299   20.3908 C   0  0  0  0  0  0
  -28.5191  -25.0460   19.6052 C   0  0  0  0  0  0
  -29.0241  -21.0743   20.2860 N   0  0  0  0  0  0
  -29.8373  -15.8981   20.5243 N   0  0  0  0  0  0
  -30.5729  -22.7367   20.2539 O   0  0  0  0  0  0
  -31.4871  -12.5916   19.1735 H   0  0  0  0  0  0
  -30.4104  -11.4985   19.9927 H   0  0  0  0  0  0
  -29.8185  -11.6479   17.5643 H   0  0  0  0  0  0
  -29.6497  -13.3833   17.6779 H   0  0  0  0  0  0
  -27.9287  -11.2412   18.9659 H   0  0  0  0  0  0
  -27.3877  -12.4190   17.8001 H   0  0  0  0  0  0
  -27.6291  -14.2143   19.4070 H   0  0  0  0  0  0
  -28.7199  -12.2138   21.4522 H   0  0  0  0  0  0
  -28.4043  -13.9100   21.7430 H   0  0  0  0  0  0
  -25.2711   -9.5747   22.4706 H   0  0  0  0  0  0
  -23.9990   -7.4669   22.7483 H   0  0  0  0  0  0
  -21.0812   -8.8702   19.8933 H   0  0  0  0  0  0
  -22.3592  -10.9645   19.6108 H   0  0  0  0  0  0
  -21.2025   -7.6122   23.9673 H   0  0  0  0  0  0
  -21.1481   -6.0509   25.9049 H   0  0  0  0  0  0
  -22.0609   -2.7590   23.2838 H   0  0  0  0  0  0
  -22.4127  -12.0052   22.4892 H   0  0  0  0  0  0
  -21.1026  -13.1284   22.2417 H   0  0  0  0  0  0
  -24.6535  -15.8383   20.4901 H   0  0  0  0  0  0
  -26.2705  -15.6300   20.0699 H   0  0  0  0  0  0
  -26.7203  -32.5340   23.0903 H   0  0  0  0  0  0
  -25.0259  -33.9621   25.0402 H   0  0  0  0  0  0
  -22.7255  -31.2903   21.3742 H   0  0  0  0  0  0
  -23.3783  -35.9431   23.3311 H   0  0  0  0  0  0
  -24.3567  -36.8776   22.2047 H   0  0  0  0  0  0
  -23.7177  -37.6351   23.6640 H   0  0  0  0  0  0
  -26.1381  -31.5133   20.6128 H   0  0  0  0  0  0
  -26.8386  -30.7815   22.0240 H   0  0  0  0  0  0
  -28.1003  -28.9120   21.2359 H   0  0  0  0  0  0
  -25.9867  -25.8598   19.0349 H   0  0  0  0  0  0
  -23.9815  -27.2490   19.0271 H   0  0  0  0  0  0
  -23.7506  -30.5404   19.3833 H   0  0  0  0  0  0
  -22.7602  -29.2004   19.8672 H   0  0  0  0  0  0
  -25.1309  -36.1802   25.0815 H   0  0  0  0  0  0
  -20.9958  -28.3382   24.1405 H   0  0  0  0  0  0
  -20.5817  -26.2374   23.3629 H   0  0  0  0  0  0
  -21.6681  -26.7626   22.1160 H   0  0  0  0  0  0
  -19.6980  -25.6368   21.1268 H   0  0  0  0  0  0
  -19.6736  -27.3271   20.6756 H   0  0  0  0  0  0
  -17.4234  -26.6760   21.3984 H   0  0  0  0  0  0
  -18.0325  -26.0180   22.9046 H   0  0  0  0  0  0
  -19.7971  -30.7385   24.2157 H   0  0  0  0  0  0
  -17.5066  -31.6320   24.5252 H   0  0  0  0  0  0
  -15.5378  -30.3061   23.7786 H   0  0  0  0  0  0
  -15.8657  -28.0925   22.7084 H   0  0  0  0  0  0
  -24.5820  -30.7263   25.7578 H   0  0  0  0  0  0
  -24.9022  -32.3043   26.4644 H   0  0  0  0  0  0
  -25.7982  -30.8965   27.0107 H   0  0  0  0  0  0
  -26.3138  -29.6639   24.1166 H   0  0  0  0  0  0
  -27.4124  -29.7305   25.4760 H   0  0  0  0  0  0
  -27.8993  -30.4250   23.9521 H   0  0  0  0  0  0
  -27.2587  -33.3625   26.1971 H   0  0  0  0  0  0
  -28.3844  -32.6987   25.0200 H   0  0  0  0  0  0
  -28.0764  -31.8496   26.5309 H   0  0  0  0  0  0
  -28.2554  -38.0038   24.7647 H   0  0  0  0  0  0
  -28.1123  -36.2596   24.6151 H   0  0  0  0  0  0
  -27.2307  -37.1158   25.8878 H   0  0  0  0  0  0
  -20.9398  -29.8598   21.6631 H   0  0  0  0  0  0
  -26.0110  -38.2800   24.1576 H   0  0  0  0  0  0
  -30.9535  -20.9586   22.1655 H   0  0  0  0  0  0
  -31.6263  -16.7263   22.3276 H   0  0  0  0  0  0
  -28.7666  -18.3189   19.5159 H   0  0  0  0  0  0
  -32.1197  -18.7949   25.7297 H   0  0  0  0  0  0
  -31.1221  -17.6743   24.8191 H   0  0  0  0  0  0
  -30.6392  -19.3624   24.9714 H   0  0  0  0  0  0
  -32.6398  -20.0566   23.6039 H   0  0  0  0  0  0
  -33.1418  -18.3881   23.4684 H   0  0  0  0  0  0
  -28.2564  -23.8682   21.4565 H   0  0  0  0  0  0
  -27.3342  -23.2290   20.1347 H   0  0  0  0  0  0
  -29.5557  -25.0571   19.2720 H   0  0  0  0  0  0
  -27.9671  -25.0106   18.6674 H   0  0  0  0  0  0
  -28.0540  -20.9035   20.0561 H   0  0  0  0  0  0
  -28.8476  -15.7162   20.4668 H   0  0  0  0  0  0
  1 25  1  0  0  0
  1 30  2  0  0  0
  1 83  1  0  0  0
  2  3  1  0  0  0
  2 25  1  0  0  0
  2 85  1  0  0  0
  2 86  1  0  0  0
  3  4  1  0  0  0
  3 87  1  0  0  0
  3 88  1  0  0  0
  4  5  1  0  0  0
  4 89  1  0  0  0
  4 90  1  0  0  0
  5  6  1  0  0  0
  5 26  1  0  0  0
  5 91  1  0  0  0
  6 25  1  0  0  0
  6 92  1  0  0  0
  6 93  1  0  0  0
  7  8  2  0  0  0
  7 26  1  0  0  0
  7 29  1  0  0  0
  8  9  1  0  0  0
  8 22  1  0  0  0
  9 10  1  0  0  0
  9 27  2  0  0  0
 10 11  2  0  0  0
 10 15  1  0  0  0
 11 12  1  0  0  0
 11 94  1  0  0  0
 12 13  2  0  0  0
 12 95  1  0  0  0
 13 14  1  0  0  0
 13 31  1  0  0  0
 14 15  2  0  0  0
 14 96  1  0  0  0
 15 97  1  0  0  0
 16 17  2  0  0  0
 16 21  1  0  0  0
 16 31  1  0  0  0
 17 18  1  0  0  0
 17 98  1  0  0  0
 18 19  2  0  0  0
 18 99  1  0  0  0
 19 20  1  0  0  0
 19 24  1  0  0  0
 20 21  2  0  0  0
 20100  1  0  0  0
 21 23  1  0  0  0
 22 28  1  0  0  0
 22 32  2  0  0  0
 26 27  1  0  0  0
 28101  1  0  0  0
 28102  1  0  0  0
 29103  1  0  0  0
 29104  1  0  0  0
 33 34  1  0  0  0
 33 66  1  0  0  0
 33 70  2  0  0  0
 34 36  1  0  0  0
 34 59  1  0  0  0
 34105  1  0  0  0
 35 44  2  0  0  0
 35 45  1  0  0  0
 35 68  1  0  0  0
 36 56  1  0  0  0
 36106  1  0  0  0
 37 39  1  0  0  0
 37 47  1  0  0  0
 37 66  1  0  0  0
 37107  1  0  0  0
 38 43  2  0  0  0
 38 46  1  0  0  0
 38 47  1  0  0  0
 39 64  1  0  0  0
 39 67  2  0  0  0
 40 52  1  0  0  0
 40 53  2  0  0  0
 40 58  1  0  0  0
 41108  1  0  0  0
 41109  1  0  0  0
 41110  1  0  0  0
 41 48  1  0  0  0
 42 43  1  0  0  0
 42 66  1  0  0  0
 42111  1  0  0  0
 42112  1  0  0  0
 43 44  1  0  0  0
 44113  1  0  0  0
 45 46  2  0  0  0
 45114  1  0  0  0
 46115  1  0  0  0
 47116  1  0  0  0
 47117  1  0  0  0
 48 56  1  0  0  0
 48 65  1  0  0  0
 48118  1  0  0  0
 49 50  1  0  0  0
 49 53  1  0  0  0
 49 64  1  0  0  0
 49119  1  0  0  0
 50 51  1  0  0  0
 50120  1  0  0  0
 50121  1  0  0  0
 51 52  1  0  0  0
 51122  1  0  0  0
 51123  1  0  0  0
 52124  1  0  0  0
 52125  1  0  0  0
 53 54  1  0  0  0
 54 55  2  0  0  0
 54126  1  0  0  0
 55 57  1  0  0  0
 55127  1  0  0  0
 56 69  2  0  0  0
 57 58  2  0  0  0
 57128  1  0  0  0
 58129  1  0  0  0
 59 60  1  0  0  0
 59 61  1  0  0  0
 59 62  1  0  0  0
 60130  1  0  0  0
 60131  1  0  0  0
 60132  1  0  0  0
 61133  1  0  0  0
 61134  1  0  0  0
 61135  1  0  0  0
 62136  1  0  0  0
 62137  1  0  0  0
 62138  1  0  0  0
 63 65  1  0  0  0
 63139  1  0  0  0
 63140  1  0  0  0
 63141  1  0  0  0
 64142  1  0  0  0
 65143  1  0  0  0
 68 81  1  0  0  0
 71 74  2  0  0  0
 71 75  1  0  0  0
 71144  1  0  0  0
 72 74  1  0  0  0
 72 76  2  0  0  0
 72145  1  0  0  0
 73 75  2  0  0  0
 73 76  1  0  0  0
 73146  1  0  0  0
 74 79  1  0  0  0
 75 82  1  0  0  0
 76 83  1  0  0  0
 77 80  1  0  0  0
 77 82  1  0  0  0
 77 84  2  0  0  0
 78 79  1  0  0  0
 78147  1  0  0  0
 78148  1  0  0  0
 78149  1  0  0  0
 79150  1  0  0  0
 79151  1  0  0  0
 80 81  1  0  0  0
 80152  1  0  0  0
 80153  1  0  0  0
 81154  1  0  0  0
 81155  1  0  0  0
 82156  1  0  0  0
 83157  1  0  0  0
M  ISO  4   1 100  68 101  81 101  83 100
M  END
> <chiral flag>
0

> <version>
0

> <s_m_source_file>
/data/baiqing/PycharmProjects/Reinvent-master-3.2/result/LINK_invent/BTK/process_docking_weight1_custom_product_contain_oxygen_bond_distance_aromatic_linkinvent_7_9_3/rearranged_h_0066.sdf

> <i_m_source_file_index>
24

> <r_mmod_Potential_Energy-OPLS-2005>
179.403717041016

> <r_mmod_Stretch_Energy-OPLS-2005>
129.539093017578

> <r_mmod_Bend_Energy-OPLS-2005>
181.902053833008

> <r_mmod_Torsional_Energy-OPLS-2005>
252.042907714844

> <r_mmod_Improper_Torsional_Energy-OPLS-2005>
9.03383636474609

> <r_mmod_Van_der_Waal_Energy-OPLS-2005>
133.830490112305

> <r_mmod_Electrostatic_Energy-OPLS-2005>
-378.477813720703

> <r_mmod_Solvation_Energy-OPLS-2005>
-241.456451416016

> <b_mmod_Minimization_Converged-OPLS-2005>
0

> <r_mmod_RMS_Derivative-OPLS-2005>
6.25906705856323

$$$$
24
                    3D
 Structure written by MMmdl.
161170  0  0  1  0            999 V2000
  -30.6601  -14.7244   20.4500 C   0  0  0  0  0  0
  -30.4283  -12.4447   19.4504 C   0  0  0  0  0  0
  -29.5014  -12.4919   18.2182 C   0  0  0  0  0  0
  -28.0251  -12.3238   18.6339 C   0  0  0  0  0  0
  -27.6367  -13.2346   19.8312 C   0  0  2  0  0  0
  -28.6933  -13.1876   20.9568 C   0  0  0  0  0  0
  -25.2468  -13.8237   20.5642 C   0  0  0  0  0  0
  -24.1735  -13.0459   20.9216 C   0  0  0  0  0  0
  -24.6358  -11.6973   20.8746 C   0  0  0  0  0  0
  -23.9027  -10.4324   21.0355 C   0  0  0  0  0  0
  -24.3582   -9.4253   21.9125 C   0  0  0  0  0  0
  -23.6286   -8.2267   22.0704 C   0  0  0  0  0  0
  -22.4267   -8.0270   21.3508 C   0  0  0  0  0  0
  -21.9870   -9.0242   20.4622 C   0  0  0  0  0  0
  -22.7183  -10.2144   20.3032 C   0  0  0  0  0  0
  -21.6868   -6.0689   22.5248 C   0  0  0  0  0  0
  -21.4039   -6.5592   23.8185 C   0  0  0  0  0  0
  -21.3677   -5.6754   24.9148 C   0  0  0  0  0  0
  -21.6028   -4.3016   24.7191 C   0  0  0  0  0  0
  -21.8833   -3.8104   23.4328 C   0  0  0  0  0  0
  -21.9211   -4.6910   22.3384 C   0  0  0  0  0  0
  -22.7767  -13.5240   21.1851 C   0  0  0  0  0  0
  -22.1663   -4.2114   21.0938 F   0  0  0  0  0  0
  -21.5643   -3.4500   25.7691 F   0  0  0  0  0  0
  -29.9919  -13.5247   20.3599 N   0  0  0  0  0  0
  -26.2895  -12.9444   20.3203 N   0  0  0  0  0  0
  -25.9291  -11.6608   20.5749 N   0  0  0  0  0  0
  -22.0381  -12.8290   22.0450 N   0  0  0  0  0  0
  -25.4079  -15.1949   20.3982 N   0  0  0  0  0  0
  -31.8677  -14.7738   20.2096 O   0  0  0  0  0  0
  -21.6669   -6.8834   21.4200 O   0  0  0  0  0  0
  -22.3447  -14.5483   20.6609 O   0  0  0  0  0  0
  -24.6288  -31.8506   23.1979 C   0  0  0  0  0  0
  -25.9103  -32.4758   23.8278 C   0  0  1  0  0  0
  -27.2473  -27.2785   20.1486 C   0  0  0  0  0  0
  -25.5904  -33.8549   24.2229 N   0  0  0  0  0  0
  -23.4284  -30.4652   21.5404 C   0  0  2  0  0  0
  -24.8871  -28.8977   20.1284 C   0  0  0  0  0  0
  -22.7455  -29.4581   22.4942 C   0  0  0  0  0  0
  -18.0245  -28.1383   22.8518 C   0  0  0  0  0  0
  -24.1484  -36.7309   23.2633 C   0  0  0  0  0  0
  -25.9688  -30.7675   21.3770 C   0  0  0  0  0  0
  -26.0521  -29.3846   20.7343 C   0  0  0  0  0  0
  -27.2365  -28.5859   20.7357 C   0  0  0  0  0  0
  -26.0651  -26.8462   19.5158 C   0  0  0  0  0  0
  -24.8972  -27.6370   19.5080 C   0  0  0  0  0  0
  -23.6530  -29.7778   20.1656 C   0  0  0  0  0  0
  -25.4130  -36.3108   24.0314 C   0  0  1  0  0  0
  -20.5836  -28.3720   23.1303 C   0  0  2  0  0  0
  -20.6760  -26.9437   22.5452 C   0  0  0  0  0  0
  -19.5751  -26.6403   21.5238 C   0  0  0  0  0  0
  -18.1915  -26.7929   22.1631 C   0  0  0  0  0  0
  -19.1494  -28.8864   23.2900 C   0  0  0  0  0  0
  -18.9430  -30.1454   23.8937 C   0  0  0  0  0  0
  -17.6439  -30.6617   24.0577 C   0  0  0  0  0  0
  -25.9071  -34.9450   23.5106 C   0  0  0  0  0  0
  -16.5319  -29.9119   23.6328 C   0  0  0  0  0  0
  -16.7226  -28.6507   23.0391 C   0  0  0  0  0  0
  -26.4484  -31.6580   25.0667 C   0  0  0  0  0  0
  -25.3719  -31.3734   26.1402 C   0  0  0  0  0  0
  -27.0301  -30.2995   24.6167 C   0  0  0  0  0  0
  -27.6037  -32.4315   25.7446 C   0  0  0  0  0  0
  -27.5599  -37.1824   24.8441 C   0  0  0  0  0  0
  -21.4166  -29.3056   22.3697 N   0  0  0  0  0  0
  -26.4310  -37.3821   23.9393 N   0  0  0  0  0  0
  -24.6948  -31.0431   22.0975 N   0  0  0  0  0  0
  -23.4148  -28.8130   23.3057 O   0  0  0  0  0  0
  -28.3704  -26.4305   20.1221 O   0  0  0  0  0  0
  -26.5650  -34.8916   22.4685 O   0  0  0  0  0  0
  -23.5450  -32.1274   23.7317 O   0  0  0  0  0  0
  -31.7873  -18.7553   22.1153 C   0  0  0  0  0  0
  -31.3687  -17.4712   21.7405 C   0  0  0  0  0  0
  -29.7279  -18.5016   20.2728 C   0  0  0  0  0  0
  -31.2045  -19.9303   21.5839 C   0  0  0  0  0  0
  -30.1218  -19.8678   20.6435 C   0  0  0  0  0  0
  -30.3359  -17.2855   20.8049 C   0  0  0  0  0  0
  -29.5752  -21.2296   18.6606 C   0  0  0  0  0  0
  -29.8416  -22.5900   17.9631 C   0  0  0  0  0  0
  -29.5805  -23.8963   18.7789 C   0  0  0  0  0  0
  -29.1563  -22.4070   20.7693 C   0  0  0  0  0  0
  -28.6068  -23.6897   19.9385 C   0  0  1  0  0  0
  -31.8619  -21.2217   22.0462 C   0  0  0  0  0  0
  -28.3079  -25.0706   20.7407 C   0  0  0  0  0  0
  -29.5643  -21.1295   20.0158 N   0  0  0  0  0  0
  -29.9158  -15.8944   20.5075 N   0  0  0  0  0  0
  -29.3892  -20.2558   17.9242 O   0  0  0  0  0  0
  -31.4709  -12.5458   19.1461 H   0  0  0  0  0  0
  -30.3590  -11.4805   19.9557 H   0  0  0  0  0  0
  -29.7792  -11.7171   17.5021 H   0  0  0  0  0  0
  -29.6209  -13.4453   17.7025 H   0  0  0  0  0  0
  -27.8730  -11.2769   18.8981 H   0  0  0  0  0  0
  -27.3672  -12.5103   17.7839 H   0  0  0  0  0  0
  -27.6196  -14.2506   19.4362 H   0  0  0  0  0  0
  -28.7282  -12.1929   21.4039 H   0  0  0  0  0  0
  -28.4351  -13.8797   21.7613 H   0  0  0  0  0  0
  -25.2715   -9.5760   22.4699 H   0  0  0  0  0  0
  -24.0008   -7.4659   22.7416 H   0  0  0  0  0  0
  -21.0789   -8.8733   19.8943 H   0  0  0  0  0  0
  -22.3574  -10.9654   19.6152 H   0  0  0  0  0  0
  -21.2039   -7.6106   23.9681 H   0  0  0  0  0  0
  -21.1485   -6.0460   25.9041 H   0  0  0  0  0  0
  -22.0612   -2.7565   23.2813 H   0  0  0  0  0  0
  -22.4011  -12.0091   22.5058 H   0  0  0  0  0  0
  -21.0948  -13.1260   22.2480 H   0  0  0  0  0  0
  -24.6217  -15.8329   20.4639 H   0  0  0  0  0  0
  -26.2303  -15.6301   19.9963 H   0  0  0  0  0  0
  -26.7150  -32.5442   23.0984 H   0  0  0  0  0  0
  -25.0016  -33.9628   25.0351 H   0  0  0  0  0  0
  -22.7322  -31.2918   21.3832 H   0  0  0  0  0  0
  -23.3767  -35.9617   23.3280 H   0  0  0  0  0  0
  -24.3570  -36.8990   22.2057 H   0  0  0  0  0  0
  -23.7196  -37.6497   23.6653 H   0  0  0  0  0  0
  -26.0853  -31.5235   20.5987 H   0  0  0  0  0  0
  -26.8503  -30.8367   22.0030 H   0  0  0  0  0  0
  -28.1286  -28.9550   21.2257 H   0  0  0  0  0  0
  -26.0475  -25.8842   19.0219 H   0  0  0  0  0  0
  -24.0071  -27.2601   19.0234 H   0  0  0  0  0  0
  -23.7699  -30.5324   19.3869 H   0  0  0  0  0  0
  -22.7792  -29.1918   19.8794 H   0  0  0  0  0  0
  -25.1324  -36.1994   25.0811 H   0  0  0  0  0  0
  -20.9876  -28.3287   24.1437 H   0  0  0  0  0  0
  -20.5681  -26.2300   23.3647 H   0  0  0  0  0  0
  -21.6636  -26.7506   22.1240 H   0  0  0  0  0  0
  -19.6922  -25.6308   21.1292 H   0  0  0  0  0  0
  -19.6705  -27.3183   20.6739 H   0  0  0  0  0  0
  -17.4205  -26.6664   21.4014 H   0  0  0  0  0  0
  -18.0319  -26.0041   22.8992 H   0  0  0  0  0  0
  -19.7907  -30.7254   24.2344 H   0  0  0  0  0  0
  -17.5005  -31.6309   24.5195 H   0  0  0  0  0  0
  -15.5328  -30.3081   23.7665 H   0  0  0  0  0  0
  -15.8588  -28.0865   22.7139 H   0  0  0  0  0  0
  -24.5793  -30.7226   25.7681 H   0  0  0  0  0  0
  -24.9017  -32.2935   26.4916 H   0  0  0  0  0  0
  -25.8025  -30.8782   27.0126 H   0  0  0  0  0  0
  -26.2850  -29.6779   24.1204 H   0  0  0  0  0  0
  -27.3960  -29.7263   25.4698 H   0  0  0  0  0  0
  -27.8742  -30.4236   23.9374 H   0  0  0  0  0  0
  -27.2577  -33.3522   26.2160 H   0  0  0  0  0  0
  -28.3763  -32.7092   25.0241 H   0  0  0  0  0  0
  -28.0788  -31.8382   26.5282 H   0  0  0  0  0  0
  -28.2650  -38.0104   24.7575 H   0  0  0  0  0  0
  -28.1100  -36.2679   24.6205 H   0  0  0  0  0  0
  -27.2314  -37.1392   25.8838 H   0  0  0  0  0  0
  -20.9340  -29.8775   21.6907 H   0  0  0  0  0  0
  -26.0227  -38.2915   24.1425 H   0  0  0  0  0  0
  -32.6028  -18.8200   22.8270 H   0  0  0  0  0  0
  -31.8634  -16.6265   22.1951 H   0  0  0  0  0  0
  -28.9531  -18.3766   19.5305 H   0  0  0  0  0  0
  -29.2705  -22.5990   17.0242 H   0  0  0  0  0  0
  -30.8940  -22.5648   17.6612 H   0  0  0  0  0  0
  -29.1763  -24.6799   18.1237 H   0  0  0  0  0  0
  -30.5172  -24.2989   19.1842 H   0  0  0  0  0  0
  -28.4094  -22.1328   21.5138 H   0  0  0  0  0  0
  -30.0028  -22.7722   21.3392 H   0  0  0  0  0  0
  -27.6490  -23.4025   19.4960 H   0  0  0  0  0  0
  -32.8222  -21.0199   22.5277 H   0  0  0  0  0  0
  -31.2422  -21.7226   22.7879 H   0  0  0  0  0  0
  -32.0706  -21.8794   21.2028 H   0  0  0  0  0  0
  -27.3510  -24.9652   21.2552 H   0  0  0  0  0  0
  -29.0372  -25.1255   21.5479 H   0  0  0  0  0  0
  -28.9266  -15.7613   20.3781 H   0  0  0  0  0  0
  1 25  1  0  0  0
  1 30  2  0  0  0
  1 85  1  0  0  0
  2  3  1  0  0  0
  2 25  1  0  0  0
  2 87  1  0  0  0
  2 88  1  0  0  0
  3  4  1  0  0  0
  3 89  1  0  0  0
  3 90  1  0  0  0
  4  5  1  0  0  0
  4 91  1  0  0  0
  4 92  1  0  0  0
  5  6  1  0  0  0
  5 26  1  0  0  0
  5 93  1  0  0  0
  6 25  1  0  0  0
  6 94  1  0  0  0
  6 95  1  0  0  0
  7  8  2  0  0  0
  7 26  1  0  0  0
  7 29  1  0  0  0
  8  9  1  0  0  0
  8 22  1  0  0  0
  9 10  1  0  0  0
  9 27  2  0  0  0
 10 11  2  0  0  0
 10 15  1  0  0  0
 11 12  1  0  0  0
 11 96  1  0  0  0
 12 13  2  0  0  0
 12 97  1  0  0  0
 13 14  1  0  0  0
 13 31  1  0  0  0
 14 15  2  0  0  0
 14 98  1  0  0  0
 15 99  1  0  0  0
 16 17  2  0  0  0
 16 21  1  0  0  0
 16 31  1  0  0  0
 17 18  1  0  0  0
 17100  1  0  0  0
 18 19  2  0  0  0
 18101  1  0  0  0
 19 20  1  0  0  0
 19 24  1  0  0  0
 20 21  2  0  0  0
 20102  1  0  0  0
 21 23  1  0  0  0
 22 28  1  0  0  0
 22 32  2  0  0  0
 26 27  1  0  0  0
 28103  1  0  0  0
 28104  1  0  0  0
 29105  1  0  0  0
 29106  1  0  0  0
 33 34  1  0  0  0
 33 66  1  0  0  0
 33 70  2  0  0  0
 34 36  1  0  0  0
 34 59  1  0  0  0
 34107  1  0  0  0
 35 44  2  0  0  0
 35 45  1  0  0  0
 35 68  1  0  0  0
 36 56  1  0  0  0
 36108  1  0  0  0
 37 39  1  0  0  0
 37 47  1  0  0  0
 37 66  1  0  0  0
 37109  1  0  0  0
 38 43  2  0  0  0
 38 46  1  0  0  0
 38 47  1  0  0  0
 39 64  1  0  0  0
 39 67  2  0  0  0
 40 52  1  0  0  0
 40 53  2  0  0  0
 40 58  1  0  0  0
 41110  1  0  0  0
 41111  1  0  0  0
 41112  1  0  0  0
 41 48  1  0  0  0
 42 43  1  0  0  0
 42 66  1  0  0  0
 42113  1  0  0  0
 42114  1  0  0  0
 43 44  1  0  0  0
 44115  1  0  0  0
 45 46  2  0  0  0
 45116  1  0  0  0
 46117  1  0  0  0
 47118  1  0  0  0
 47119  1  0  0  0
 48 56  1  0  0  0
 48 65  1  0  0  0
 48120  1  0  0  0
 49 50  1  0  0  0
 49 53  1  0  0  0
 49 64  1  0  0  0
 49121  1  0  0  0
 50 51  1  0  0  0
 50122  1  0  0  0
 50123  1  0  0  0
 51 52  1  0  0  0
 51124  1  0  0  0
 51125  1  0  0  0
 52126  1  0  0  0
 52127  1  0  0  0
 53 54  1  0  0  0
 54 55  2  0  0  0
 54128  1  0  0  0
 55 57  1  0  0  0
 55129  1  0  0  0
 56 69  2  0  0  0
 57 58  2  0  0  0
 57130  1  0  0  0
 58131  1  0  0  0
 59 60  1  0  0  0
 59 61  1  0  0  0
 59 62  1  0  0  0
 60132  1  0  0  0
 60133  1  0  0  0
 60134  1  0  0  0
 61135  1  0  0  0
 61136  1  0  0  0
 61137  1  0  0  0
 62138  1  0  0  0
 62139  1  0  0  0
 62140  1  0  0  0
 63 65  1  0  0  0
 63141  1  0  0  0
 63142  1  0  0  0
 63143  1  0  0  0
 64144  1  0  0  0
 65145  1  0  0  0
 68 83  1  0  0  0
 71 72  2  0  0  0
 71 74  1  0  0  0
 71146  1  0  0  0
 72 76  1  0  0  0
 72147  1  0  0  0
 73 75  1  0  0  0
 73 76  2  0  0  0
 73148  1  0  0  0
 74 75  2  0  0  0
 74 82  1  0  0  0
 75 84  1  0  0  0
 76 85  1  0  0  0
 77 78  1  0  0  0
 77 84  1  0  0  0
 77 86  2  0  0  0
 78 79  1  0  0  0
 78149  1  0  0  0
 78150  1  0  0  0
 79 81  1  0  0  0
 79151  1  0  0  0
 79152  1  0  0  0
 80 81  1  0  0  0
 80 84  1  0  0  0
 80153  1  0  0  0
 80154  1  0  0  0
 81 83  1  0  0  0
 81155  1  0  0  0
 82156  1  0  0  0
 82157  1  0  0  0
 82158  1  0  0  0
 83159  1  0  0  0
 83160  1  0  0  0
 85161  1  0  0  0
M  ISO  4   1 100  68 101  83 101  85 100
M  END
> <chiral flag>
0

> <version>
0

> <s_m_source_file>
/data/baiqing/PycharmProjects/Reinvent-master-3.2/result/LINK_invent/BTK/process_docking_weight1_custom_product_contain_oxygen_bond_distance_aromatic_linkinvent_7_9_3/rearranged_h_0066.sdf

> <i_m_source_file_index>
25

> <r_mmod_Potential_Energy-OPLS-2005>
318.340942382812

> <r_mmod_Stretch_Energy-OPLS-2005>
139.152084350586

> <r_mmod_Bend_Energy-OPLS-2005>
173.173645019531

> <r_mmod_Torsional_Energy-OPLS-2005>
338.375518798828

> <r_mmod_Improper_Torsional_Energy-OPLS-2005>
8.4428014755249

> <r_mmod_Van_der_Waal_Energy-OPLS-2005>
149.371109008789

> <r_mmod_Electrostatic_Energy-OPLS-2005>
-347.951721191406

> <r_mmod_Solvation_Energy-OPLS-2005>
-220.120315551758

> <b_mmod_Minimization_Converged-OPLS-2005>
0

> <r_mmod_RMS_Derivative-OPLS-2005>
6.59098815917969

$$$$
25
                    3D
 Structure written by MMmdl.
152160  0  0  1  0            999 V2000
  -30.6224  -14.7570   20.4476 C   0  0  0  0  0  0
  -30.4250  -12.4596   19.4827 C   0  0  0  0  0  0
  -29.5064  -12.5027   18.2417 C   0  0  0  0  0  0
  -28.0332  -12.3293   18.6551 C   0  0  0  0  0  0
  -27.6376  -13.2366   19.8501 C   0  0  2  0  0  0
  -28.6817  -13.1880   20.9875 C   0  0  0  0  0  0
  -25.2483  -13.8214   20.5707 C   0  0  0  0  0  0
  -24.1782  -13.0448   20.9216 C   0  0  0  0  0  0
  -24.6384  -11.6933   20.8755 C   0  0  0  0  0  0
  -23.9069  -10.4299   21.0403 C   0  0  0  0  0  0
  -24.3616   -9.4214   21.9179 C   0  0  0  0  0  0
  -23.6288   -8.2249   22.0754 C   0  0  0  0  0  0
  -22.4271   -8.0284   21.3546 C   0  0  0  0  0  0
  -21.9910   -9.0260   20.4649 C   0  0  0  0  0  0
  -22.7242  -10.2135   20.3057 C   0  0  0  0  0  0
  -21.6853   -6.0733   22.5273 C   0  0  0  0  0  0
  -21.4017   -6.5640   23.8205 C   0  0  0  0  0  0
  -21.3657   -5.6793   24.9169 C   0  0  0  0  0  0
  -21.6044   -4.3057   24.7225 C   0  0  0  0  0  0
  -21.8818   -3.8148   23.4346 C   0  0  0  0  0  0
  -21.9193   -4.6962   22.3400 C   0  0  0  0  0  0
  -22.7804  -13.5220   21.1878 C   0  0  0  0  0  0
  -22.1661   -4.2150   21.0976 F   0  0  0  0  0  0
  -21.5628   -3.4542   25.7737 F   0  0  0  0  0  0
  -29.9819  -13.5359   20.4030 N   0  0  0  0  0  0
  -26.2911  -12.9429   20.3290 N   0  0  0  0  0  0
  -25.9316  -11.6568   20.5768 N   0  0  0  0  0  0
  -22.0456  -12.8200   22.0429 N   0  0  0  0  0  0
  -25.4180  -15.1939   20.4139 N   0  0  0  0  0  0
  -31.8176  -14.7996   20.1473 O   0  0  0  0  0  0
  -21.6641   -6.8878   21.4236 O   0  0  0  0  0  0
  -22.3482  -14.5521   20.6723 O   0  0  0  0  0  0
  -24.6317  -31.8520   23.1966 C   0  0  0  0  0  0
  -25.9134  -32.4730   23.8313 C   0  0  1  0  0  0
  -27.2217  -27.2519   20.1338 C   0  0  0  0  0  0
  -25.5929  -33.8538   24.2238 N   0  0  0  0  0  0
  -23.4280  -30.4737   21.5390 C   0  0  2  0  0  0
  -24.8748  -28.9166   20.1073 C   0  0  0  0  0  0
  -22.7503  -29.4578   22.4901 C   0  0  0  0  0  0
  -18.0288  -28.1386   22.8481 C   0  0  0  0  0  0
  -24.1486  -36.7278   23.2641 C   0  0  0  0  0  0
  -25.9731  -30.7628   21.3766 C   0  0  0  0  0  0
  -26.0441  -29.3840   20.7188 C   0  0  0  0  0  0
  -27.2160  -28.5638   20.7195 C   0  0  0  0  0  0
  -26.0264  -26.8458   19.5001 C   0  0  0  0  0  0
  -24.8723  -27.6570   19.4869 C   0  0  0  0  0  0
  -23.6463  -29.8049   20.1548 C   0  0  0  0  0  0
  -25.4112  -36.3051   24.0323 C   0  0  1  0  0  0
  -20.5893  -28.3695   23.1270 C   0  0  2  0  0  0
  -20.6774  -26.9411   22.5415 C   0  0  0  0  0  0
  -19.5751  -26.6378   21.5213 C   0  0  0  0  0  0
  -18.1929  -26.7925   22.1623 C   0  0  0  0  0  0
  -19.1546  -28.8857   23.2861 C   0  0  0  0  0  0
  -18.9469  -30.1455   23.8880 C   0  0  0  0  0  0
  -17.6470  -30.6585   24.0562 C   0  0  0  0  0  0
  -25.9058  -34.9424   23.5086 C   0  0  0  0  0  0
  -16.5359  -29.9086   23.6339 C   0  0  0  0  0  0
  -16.7275  -28.6508   23.0354 C   0  0  0  0  0  0
  -26.4507  -31.6570   25.0715 C   0  0  0  0  0  0
  -25.3729  -31.3736   26.1444 C   0  0  0  0  0  0
  -27.0366  -30.2984   24.6216 C   0  0  0  0  0  0
  -27.6046  -32.4338   25.7488 C   0  0  0  0  0  0
  -27.5572  -37.1788   24.8461 C   0  0  0  0  0  0
  -21.4209  -29.3036   22.3657 N   0  0  0  0  0  0
  -26.4284  -37.3756   23.9408 N   0  0  0  0  0  0
  -24.6964  -31.0488   22.0933 N   0  0  0  0  0  0
  -23.4203  -28.8121   23.3005 O   0  0  0  0  0  0
  -28.3404  -26.3916   20.2327 O   0  0  0  0  0  0
  -26.5636  -34.8907   22.4658 O   0  0  0  0  0  0
  -23.5470  -32.1345   23.7264 O   0  0  0  0  0  0
  -31.7464  -19.0618   19.4596 C   0  0  0  0  0  0
  -30.8919  -20.1245   19.8071 C   0  0  0  0  0  0
  -31.4091  -17.7205   19.7234 C   0  0  0  0  0  0
  -29.6440  -19.8900   20.4233 C   0  0  0  0  0  0
  -30.1975  -17.3623   20.3673 C   0  0  0  0  0  0
  -29.3207  -18.4841   20.6993 C   0  0  0  0  0  0
  -28.8242  -21.1388   20.8207 C   0  0  0  0  0  0
  -28.2897  -23.7270   20.6146 C   0  0  0  0  0  0
  -28.4291  -25.0023   19.6503 C   0  0  0  0  0  0
  -29.8778  -15.9217   20.6430 N   0  0  0  0  0  0
  -28.8961  -22.4041   20.2168 N   0  0  0  0  0  0
  -28.0138  -20.9974   21.8745 N   0  3  0  0  0  0
  -27.6634  -23.8194   21.6777 O   0  0  0  0  0  0
  -28.1541  -18.1955   21.3276 F   0  0  0  0  0  0
  -31.4661  -12.5722   19.1778 H   0  0  0  0  0  0
  -30.3649  -11.4885   19.9763 H   0  0  0  0  0  0
  -29.7891  -11.7221   17.5341 H   0  0  0  0  0  0
  -29.6332  -13.4520   17.7196 H   0  0  0  0  0  0
  -27.8899  -11.2829   18.9254 H   0  0  0  0  0  0
  -27.3755  -12.5147   17.8050 H   0  0  0  0  0  0
  -27.6272  -14.2552   19.4619 H   0  0  0  0  0  0
  -28.7183  -12.1953   21.4396 H   0  0  0  0  0  0
  -28.4156  -13.8793   21.7888 H   0  0  0  0  0  0
  -25.2756   -9.5690   22.4762 H   0  0  0  0  0  0
  -24.0000   -7.4639   22.7472 H   0  0  0  0  0  0
  -21.0845   -8.8776   19.8950 H   0  0  0  0  0  0
  -22.3694  -10.9677   19.6173 H   0  0  0  0  0  0
  -21.2008   -7.6149   23.9709 H   0  0  0  0  0  0
  -21.1479   -6.0525   25.9070 H   0  0  0  0  0  0
  -22.0598   -2.7611   23.2845 H   0  0  0  0  0  0
  -22.4086  -11.9861   22.4808 H   0  0  0  0  0  0
  -21.1070  -13.1210   22.2643 H   0  0  0  0  0  0
  -24.6517  -15.8481   20.5325 H   0  0  0  0  0  0
  -26.2654  -15.6369   20.0834 H   0  0  0  0  0  0
  -26.7194  -32.5368   23.1045 H   0  0  0  0  0  0
  -25.0066  -33.9674   25.0377 H   0  0  0  0  0  0
  -22.7240  -31.2951   21.3901 H   0  0  0  0  0  0
  -23.3741  -35.9617   23.3307 H   0  0  0  0  0  0
  -24.3569  -36.8909   22.2055 H   0  0  0  0  0  0
  -23.7264  -37.6486   23.6675 H   0  0  0  0  0  0
  -26.1141  -31.5217   20.6059 H   0  0  0  0  0  0
  -26.8505  -30.8105   22.0100 H   0  0  0  0  0  0
  -28.1122  -28.9161   21.2113 H   0  0  0  0  0  0
  -25.9406  -25.8749   19.0388 H   0  0  0  0  0  0
  -23.9740  -27.2912   19.0086 H   0  0  0  0  0  0
  -23.7725  -30.5798   19.3979 H   0  0  0  0  0  0
  -22.7645  -29.2383   19.8491 H   0  0  0  0  0  0
  -25.1295  -36.1887   25.0818 H   0  0  0  0  0  0
  -20.9980  -28.3282   24.1393 H   0  0  0  0  0  0
  -20.5687  -26.2300   23.3620 H   0  0  0  0  0  0
  -21.6643  -26.7438   22.1199 H   0  0  0  0  0  0
  -19.6919  -25.6290   21.1244 H   0  0  0  0  0  0
  -19.6695  -27.3194   20.6749 H   0  0  0  0  0  0
  -17.4201  -26.6679   21.4017 H   0  0  0  0  0  0
  -18.0317  -26.0060   22.9014 H   0  0  0  0  0  0
  -19.7945  -30.7267   24.2248 H   0  0  0  0  0  0
  -17.5028  -31.6267   24.5165 H   0  0  0  0  0  0
  -15.5365  -30.2985   23.7670 H   0  0  0  0  0  0
  -15.8673  -28.0826   22.7080 H   0  0  0  0  0  0
  -24.5903  -30.7082   25.7784 H   0  0  0  0  0  0
  -24.8926  -32.2910   26.4851 H   0  0  0  0  0  0
  -25.8051  -30.8931   27.0231 H   0  0  0  0  0  0
  -26.2955  -29.6710   24.1247 H   0  0  0  0  0  0
  -27.4051  -29.7269   25.4746 H   0  0  0  0  0  0
  -27.8825  -30.4250   23.9459 H   0  0  0  0  0  0
  -27.2639  -33.3657   26.2011 H   0  0  0  0  0  0
  -28.3878  -32.6876   25.0332 H   0  0  0  0  0  0
  -28.0678  -31.8501   26.5451 H   0  0  0  0  0  0
  -28.2578  -38.0091   24.7510 H   0  0  0  0  0  0
  -28.1084  -36.2628   24.6286 H   0  0  0  0  0  0
  -27.2290  -37.1437   25.8861 H   0  0  0  0  0  0
  -20.9402  -29.8758   21.6855 H   0  0  0  0  0  0
  -26.0156  -38.2822   24.1425 H   0  0  0  0  0  0
  -32.6946  -19.2777   18.9864 H   0  0  0  0  0  0
  -31.2286  -21.1324   19.6073 H   0  0  0  0  0  0
  -32.1276  -16.9832   19.4080 H   0  0  0  0  0  0
  -27.7690  -24.8711   18.7964 H   0  0  0  0  0  0
  -29.4316  -24.9387   19.2295 H   0  0  0  0  0  0
  -28.9330  -15.7618   20.9557 H   0  0  0  0  0  0
  -29.4255  -22.3559   19.3608 H   0  0  0  0  0  0
  -27.8733  -20.0797   22.2748 H   0  0  0  0  0  0
  -27.5159  -21.7972   22.2412 H   0  0  0  0  0  0
  1 25  1  0  0  0
  1 30  2  0  0  0
  1 80  1  0  0  0
  2  3  1  0  0  0
  2 25  1  0  0  0
  2 85  1  0  0  0
  2 86  1  0  0  0
  3  4  1  0  0  0
  3 87  1  0  0  0
  3 88  1  0  0  0
  4  5  1  0  0  0
  4 89  1  0  0  0
  4 90  1  0  0  0
  5  6  1  0  0  0
  5 26  1  0  0  0
  5 91  1  0  0  0
  6 25  1  0  0  0
  6 92  1  0  0  0
  6 93  1  0  0  0
  7  8  2  0  0  0
  7 26  1  0  0  0
  7 29  1  0  0  0
  8  9  1  0  0  0
  8 22  1  0  0  0
  9 10  1  0  0  0
  9 27  2  0  0  0
 10 11  2  0  0  0
 10 15  1  0  0  0
 11 12  1  0  0  0
 11 94  1  0  0  0
 12 13  2  0  0  0
 12 95  1  0  0  0
 13 14  1  0  0  0
 13 31  1  0  0  0
 14 15  2  0  0  0
 14 96  1  0  0  0
 15 97  1  0  0  0
 16 17  2  0  0  0
 16 21  1  0  0  0
 16 31  1  0  0  0
 17 18  1  0  0  0
 17 98  1  0  0  0
 18 19  2  0  0  0
 18 99  1  0  0  0
 19 20  1  0  0  0
 19 24  1  0  0  0
 20 21  2  0  0  0
 20100  1  0  0  0
 21 23  1  0  0  0
 22 28  1  0  0  0
 22 32  2  0  0  0
 26 27  1  0  0  0
 28101  1  0  0  0
 28102  1  0  0  0
 29103  1  0  0  0
 29104  1  0  0  0
 33 34  1  0  0  0
 33 66  1  0  0  0
 33 70  2  0  0  0
 34 36  1  0  0  0
 34 59  1  0  0  0
 34105  1  0  0  0
 35 44  2  0  0  0
 35 45  1  0  0  0
 35 68  1  0  0  0
 36 56  1  0  0  0
 36106  1  0  0  0
 37 39  1  0  0  0
 37 47  1  0  0  0
 37 66  1  0  0  0
 37107  1  0  0  0
 38 43  2  0  0  0
 38 46  1  0  0  0
 38 47  1  0  0  0
 39 64  1  0  0  0
 39 67  2  0  0  0
 40 52  1  0  0  0
 40 53  2  0  0  0
 40 58  1  0  0  0
 41108  1  0  0  0
 41109  1  0  0  0
 41110  1  0  0  0
 41 48  1  0  0  0
 42 43  1  0  0  0
 42 66  1  0  0  0
 42111  1  0  0  0
 42112  1  0  0  0
 43 44  1  0  0  0
 44113  1  0  0  0
 45 46  2  0  0  0
 45114  1  0  0  0
 46115  1  0  0  0
 47116  1  0  0  0
 47117  1  0  0  0
 48 56  1  0  0  0
 48 65  1  0  0  0
 48118  1  0  0  0
 49 50  1  0  0  0
 49 53  1  0  0  0
 49 64  1  0  0  0
 49119  1  0  0  0
 50 51  1  0  0  0
 50120  1  0  0  0
 50121  1  0  0  0
 51 52  1  0  0  0
 51122  1  0  0  0
 51123  1  0  0  0
 52124  1  0  0  0
 52125  1  0  0  0
 53 54  1  0  0  0
 54 55  2  0  0  0
 54126  1  0  0  0
 55 57  1  0  0  0
 55127  1  0  0  0
 56 69  2  0  0  0
 57 58  2  0  0  0
 57128  1  0  0  0
 58129  1  0  0  0
 59 60  1  0  0  0
 59 61  1  0  0  0
 59 62  1  0  0  0
 60130  1  0  0  0
 60131  1  0  0  0
 60132  1  0  0  0
 61133  1  0  0  0
 61134  1  0  0  0
 61135  1  0  0  0
 62136  1  0  0  0
 62137  1  0  0  0
 62138  1  0  0  0
 63 65  1  0  0  0
 63139  1  0  0  0
 63140  1  0  0  0
 63141  1  0  0  0
 64142  1  0  0  0
 65143  1  0  0  0
 68 79  1  0  0  0
 71 72  2  0  0  0
 71 73  1  0  0  0
 71144  1  0  0  0
 72 74  1  0  0  0
 72145  1  0  0  0
 73 75  2  0  0  0
 73146  1  0  0  0
 74 76  2  0  0  0
 74 77  1  0  0  0
 75 76  1  0  0  0
 75 80  1  0  0  0
 76 84  1  0  0  0
 77 81  1  0  0  0
 77 82  2  0  0  0
 78 79  1  0  0  0
 78 81  1  0  0  0
 78 83  2  0  0  0
 79147  1  0  0  0
 79148  1  0  0  0
 80149  1  0  0  0
 81150  1  0  0  0
 82151  1  0  0  0
 82152  1  0  0  0
M  CHG  1  82   1
M  ISO  4   1 100  68 101  79 101  80 100
M  END
> <chiral flag>
0

> <version>
0

> <s_m_source_file>
/data/baiqing/PycharmProjects/Reinvent-master-3.2/result/LINK_invent/BTK/process_docking_weight1_custom_product_contain_oxygen_bond_distance_aromatic_linkinvent_7_9_3/rearranged_h_0066.sdf

> <i_m_source_file_index>
26

> <r_mmod_Potential_Energy-OPLS-2005>
-131.490936279297

> <r_mmod_Stretch_Energy-OPLS-2005>
136.944076538086

> <r_mmod_Bend_Energy-OPLS-2005>
182.171447753906

> <r_mmod_Torsional_Energy-OPLS-2005>
204.933670043945

> <r_mmod_Improper_Torsional_Energy-OPLS-2005>
4.61625051498413

> <r_mmod_Van_der_Waal_Energy-OPLS-2005>
150.997131347656

> <r_mmod_Electrostatic_Energy-OPLS-2005>
-438.410095214844

> <r_mmod_Solvation_Energy-OPLS-2005>
-462.371429443359

> <b_mmod_Minimization_Converged-OPLS-2005>
0

> <r_mmod_RMS_Derivative-OPLS-2005>
1.34924840927124

$$$$
26
                    3D
 Structure written by MMmdl.
155163  0  0  1  0            999 V2000
  -30.6813  -14.4899   20.3784 C   0  0  0  0  0  0
  -30.4172  -12.2550   19.4716 C   0  0  0  0  0  0
  -29.5171  -12.4656   18.2314 C   0  0  0  0  0  0
  -28.0294  -12.3536   18.6185 C   0  0  0  0  0  0
  -27.6568  -13.2123   19.8574 C   0  0  2  0  0  0
  -28.6996  -13.0524   20.9909 C   0  0  0  0  0  0
  -25.2528  -13.8133   20.5635 C   0  0  0  0  0  0
  -24.1818  -13.0397   20.9208 C   0  0  0  0  0  0
  -24.6392  -11.6877   20.8712 C   0  0  0  0  0  0
  -23.9067  -10.4253   21.0381 C   0  0  0  0  0  0
  -24.3619   -9.4172   21.9161 C   0  0  0  0  0  0
  -23.6283   -8.2220   22.0725 C   0  0  0  0  0  0
  -22.4261   -8.0266   21.3534 C   0  0  0  0  0  0
  -21.9905   -9.0243   20.4636 C   0  0  0  0  0  0
  -22.7241  -10.2107   20.3035 C   0  0  0  0  0  0
  -21.6858   -6.0720   22.5280 C   0  0  0  0  0  0
  -21.4022   -6.5638   23.8214 C   0  0  0  0  0  0
  -21.3650   -5.6793   24.9181 C   0  0  0  0  0  0
  -21.6040   -4.3059   24.7228 C   0  0  0  0  0  0
  -21.8830   -3.8143   23.4360 C   0  0  0  0  0  0
  -21.9198   -4.6952   22.3409 C   0  0  0  0  0  0
  -22.7839  -13.5185   21.1900 C   0  0  0  0  0  0
  -22.1667   -4.2138   21.0986 F   0  0  0  0  0  0
  -21.5616   -3.4535   25.7730 F   0  0  0  0  0  0
  -30.0560  -13.2838   20.4609 N   0  0  0  0  0  0
  -26.2985  -12.9320   20.3264 N   0  0  0  0  0  0
  -25.9308  -11.6480   20.5706 N   0  0  0  0  0  0
  -22.0528  -12.8156   22.0468 N   0  0  0  0  0  0
  -25.4198  -15.1834   20.4000 N   0  0  0  0  0  0
  -31.8918  -14.5134   20.1680 O   0  0  0  0  0  0
  -21.6648   -6.8853   21.4226 O   0  0  0  0  0  0
  -22.3509  -14.5498   20.6762 O   0  0  0  0  0  0
  -24.6106  -31.8705   23.2156 C   0  0  0  0  0  0
  -25.9018  -32.4849   23.8432 C   0  0  1  0  0  0
  -27.2385  -27.4711   20.0965 C   0  0  0  0  0  0
  -25.5874  -33.8650   24.2346 N   0  0  0  0  0  0
  -23.3963  -30.4932   21.5578 C   0  0  2  0  0  0
  -24.8473  -28.9668   20.1173 C   0  0  0  0  0  0
  -22.7386  -29.4665   22.5053 C   0  0  0  0  0  0
  -18.0243  -28.1401   22.8497 C   0  0  0  0  0  0
  -24.1470  -36.7323   23.2637 C   0  0  0  0  0  0
  -25.9229  -30.8456   21.3678 C   0  0  0  0  0  0
  -26.0039  -29.4854   20.7108 C   0  0  0  0  0  0
  -27.2058  -28.7457   20.6974 C   0  0  0  0  0  0
  -26.0680  -26.9601   19.4922 C   0  0  0  0  0  0
  -24.8709  -27.6994   19.5078 C   0  0  0  0  0  0
  -23.6037  -29.8255   20.1724 C   0  0  0  0  0  0
  -25.4092  -36.3132   24.0341 C   0  0  1  0  0  0
  -20.5827  -28.3668   23.1352 C   0  0  2  0  0  0
  -20.6732  -26.9409   22.5446 C   0  0  0  0  0  0
  -19.5721  -26.6391   21.5230 C   0  0  0  0  0  0
  -18.1889  -26.7941   22.1621 C   0  0  0  0  0  0
  -19.1494  -28.8850   23.2911 C   0  0  0  0  0  0
  -18.9429  -30.1443   23.8934 C   0  0  0  0  0  0
  -17.6444  -30.6610   24.0567 C   0  0  0  0  0  0
  -25.9016  -34.9500   23.5140 C   0  0  0  0  0  0
  -16.5328  -29.9117   23.6346 C   0  0  0  0  0  0
  -16.7233  -28.6530   23.0375 C   0  0  0  0  0  0
  -26.4446  -31.6641   25.0769 C   0  0  0  0  0  0
  -25.3695  -31.3837   26.1522 C   0  0  0  0  0  0
  -27.0255  -30.3047   24.6204 C   0  0  0  0  0  0
  -27.6037  -32.4361   25.7512 C   0  0  0  0  0  0
  -27.5577  -37.1813   24.8451 C   0  0  0  0  0  0
  -21.4119  -29.3021   22.3773 N   0  0  0  0  0  0
  -26.4278  -37.3811   23.9418 N   0  0  0  0  0  0
  -24.6607  -31.0835   22.1044 N   0  0  0  0  0  0
  -23.4164  -28.8223   23.3107 O   0  0  0  0  0  0
  -28.3974  -26.7340   20.1070 O   0  0  0  0  0  0
  -26.5589  -34.8942   22.4706 O   0  0  0  0  0  0
  -23.5313  -32.1472   23.7559 O   0  0  0  0  0  0
  -31.1928  -20.2729   20.2313 C   0  0  0  0  0  0
  -31.2005  -18.9105   19.8797 C   0  0  0  0  0  0
  -28.7688  -20.1929   20.4360 C   0  0  0  0  0  0
  -28.7665  -18.8247   20.0833 C   0  0  0  0  0  0
  -29.9739  -20.9369   20.4707 C   0  0  0  0  0  0
  -29.9934  -18.1861   19.7549 C   0  0  0  0  0  0
  -28.2965  -25.4575   20.6021 C   0  0  0  0  0  0
  -29.2787  -24.5478   20.4949 C   0  0  0  0  0  0
  -29.0458  -23.1936   20.9955 C   0  0  0  0  0  0
  -27.4273  -18.1122   20.0147 C   0  0  0  0  0  0
  -29.8771  -15.5641   20.2236 N   0  5  0  0  0  0
  -30.0145  -22.3517   20.6116 N   0  0  0  0  0  0
  -28.0904  -22.8572   21.7032 O   0  0  0  0  0  0
  -28.9499  -16.4894   18.0303 O   0  0  0  0  0  0
  -31.4164  -16.5141   18.3222 O   0  0  0  0  0  0
  -30.4441  -24.8733   19.9065 O   0  0  0  0  0  0
  -30.0894  -16.5562   18.9623 S   0  0  0  0  0  0
  -31.4702  -12.2934   19.1845 H   0  0  0  0  0  0
  -30.2599  -11.2637   19.8995 H   0  0  0  0  0  0
  -29.7581  -11.7311   17.4611 H   0  0  0  0  0  0
  -29.7123  -13.4440   17.7898 H   0  0  0  0  0  0
  -27.8332  -11.3013   18.8265 H   0  0  0  0  0  0
  -27.3995  -12.6272   17.7712 H   0  0  0  0  0  0
  -27.6734  -14.2483   19.5234 H   0  0  0  0  0  0
  -28.6444  -12.0518   21.4210 H   0  0  0  0  0  0
  -28.4914  -13.7417   21.8112 H   0  0  0  0  0  0
  -25.2772   -9.5653   22.4724 H   0  0  0  0  0  0
  -24.0002   -7.4601   22.7419 H   0  0  0  0  0  0
  -21.0844   -8.8795   19.8914 H   0  0  0  0  0  0
  -22.3741  -10.9657   19.6139 H   0  0  0  0  0  0
  -21.2048   -7.6151   23.9731 H   0  0  0  0  0  0
  -21.1447   -6.0520   25.9084 H   0  0  0  0  0  0
  -22.0618   -2.7602   23.2892 H   0  0  0  0  0  0
  -22.4207  -11.9850   22.4860 H   0  0  0  0  0  0
  -21.1131  -13.1107   22.2638 H   0  0  0  0  0  0
  -24.6568  -15.8459   20.4905 H   0  0  0  0  0  0
  -26.2877  -15.6007   20.0880 H   0  0  0  0  0  0
  -26.7111  -32.5584   23.1221 H   0  0  0  0  0  0
  -24.9994  -33.9810   25.0462 H   0  0  0  0  0  0
  -22.6804  -31.3073   21.4213 H   0  0  0  0  0  0
  -23.3731  -35.9654   23.3315 H   0  0  0  0  0  0
  -24.3546  -36.8911   22.2044 H   0  0  0  0  0  0
  -23.7218  -37.6531   23.6639 H   0  0  0  0  0  0
  -26.0296  -31.6143   20.6029 H   0  0  0  0  0  0
  -26.8110  -30.8962   21.9864 H   0  0  0  0  0  0
  -28.1027  -29.1406   21.1545 H   0  0  0  0  0  0
  -26.0806  -25.9882   19.0188 H   0  0  0  0  0  0
  -23.9816  -27.2890   19.0529 H   0  0  0  0  0  0
  -23.6998  -30.6009   19.4111 H   0  0  0  0  0  0
  -22.7297  -29.2390   19.8847 H   0  0  0  0  0  0
  -25.1254  -36.2005   25.0832 H   0  0  0  0  0  0
  -20.9865  -28.3238   24.1489 H   0  0  0  0  0  0
  -20.5632  -26.2275   23.3626 H   0  0  0  0  0  0
  -21.6611  -26.7462   22.1246 H   0  0  0  0  0  0
  -19.6879  -25.6303   21.1253 H   0  0  0  0  0  0
  -19.6675  -27.3215   20.6777 H   0  0  0  0  0  0
  -17.4156  -26.6695   21.4024 H   0  0  0  0  0  0
  -18.0276  -26.0085   22.9016 H   0  0  0  0  0  0
  -19.7910  -30.7232   24.2345 H   0  0  0  0  0  0
  -17.5015  -31.6306   24.5145 H   0  0  0  0  0  0
  -15.5338  -30.3043   23.7672 H   0  0  0  0  0  0
  -15.8614  -28.0858   22.7118 H   0  0  0  0  0  0
  -24.5840  -30.7187   25.7905 H   0  0  0  0  0  0
  -24.8913  -32.3045   26.4899 H   0  0  0  0  0  0
  -25.8014  -30.9074   27.0332 H   0  0  0  0  0  0
  -26.2857  -29.6872   24.1099 H   0  0  0  0  0  0
  -27.3778  -29.7239   25.4741 H   0  0  0  0  0  0
  -27.8799  -30.4292   23.9542 H   0  0  0  0  0  0
  -27.2667  -33.3660   26.2119 H   0  0  0  0  0  0
  -28.3844  -32.6932   25.0335 H   0  0  0  0  0  0
  -28.0724  -31.8472   26.5410 H   0  0  0  0  0  0
  -28.2613  -38.0098   24.7491 H   0  0  0  0  0  0
  -28.1055  -36.2628   24.6268 H   0  0  0  0  0  0
  -27.2302  -37.1459   25.8858 H   0  0  0  0  0  0
  -20.9284  -29.8717   21.6962 H   0  0  0  0  0  0
  -26.0174  -38.2880   24.1451 H   0  0  0  0  0  0
  -32.1293  -20.8146   20.2594 H   0  0  0  0  0  0
  -32.1407  -18.4378   19.6355 H   0  0  0  0  0  0
  -27.8179  -20.6750   20.6116 H   0  0  0  0  0  0
  -27.3435  -25.2464   21.0747 H   0  0  0  0  0  0
  -26.6601  -18.6510   20.5732 H   0  0  0  0  0  0
  -27.4951  -17.1100   20.4375 H   0  0  0  0  0  0
  -27.0888  -18.0386   18.9806 H   0  0  0  0  0  0
  -30.8042  -22.8263   20.1921 H   0  0  0  0  0  0
  -30.3784  -25.7865   19.6576 H   0  0  0  0  0  0
  1 25  1  0  0  0
  1 30  2  0  0  0
  1 81  1  0  0  0
  2  3  1  0  0  0
  2 25  1  0  0  0
  2 88  1  0  0  0
  2 89  1  0  0  0
  3  4  1  0  0  0
  3 90  1  0  0  0
  3 91  1  0  0  0
  4  5  1  0  0  0
  4 92  1  0  0  0
  4 93  1  0  0  0
  5  6  1  0  0  0
  5 26  1  0  0  0
  5 94  1  0  0  0
  6 25  1  0  0  0
  6 95  1  0  0  0
  6 96  1  0  0  0
  7  8  2  0  0  0
  7 26  1  0  0  0
  7 29  1  0  0  0
  8  9  1  0  0  0
  8 22  1  0  0  0
  9 10  1  0  0  0
  9 27  2  0  0  0
 10 11  2  0  0  0
 10 15  1  0  0  0
 11 12  1  0  0  0
 11 97  1  0  0  0
 12 13  2  0  0  0
 12 98  1  0  0  0
 13 14  1  0  0  0
 13 31  1  0  0  0
 14 15  2  0  0  0
 14 99  1  0  0  0
 15100  1  0  0  0
 16 17  2  0  0  0
 16 21  1  0  0  0
 16 31  1  0  0  0
 17 18  1  0  0  0
 17101  1  0  0  0
 18 19  2  0  0  0
 18102  1  0  0  0
 19 20  1  0  0  0
 19 24  1  0  0  0
 20 21  2  0  0  0
 20103  1  0  0  0
 21 23  1  0  0  0
 22 28  1  0  0  0
 22 32  2  0  0  0
 26 27  1  0  0  0
 28104  1  0  0  0
 28105  1  0  0  0
 29106  1  0  0  0
 29107  1  0  0  0
 33 34  1  0  0  0
 33 66  1  0  0  0
 33 70  2  0  0  0
 34 36  1  0  0  0
 34 59  1  0  0  0
 34108  1  0  0  0
 35 44  2  0  0  0
 35 45  1  0  0  0
 35 68  1  0  0  0
 36 56  1  0  0  0
 36109  1  0  0  0
 37 39  1  0  0  0
 37 47  1  0  0  0
 37 66  1  0  0  0
 37110  1  0  0  0
 38 43  2  0  0  0
 38 46  1  0  0  0
 38 47  1  0  0  0
 39 64  1  0  0  0
 39 67  2  0  0  0
 40 52  1  0  0  0
 40 53  2  0  0  0
 40 58  1  0  0  0
 41111  1  0  0  0
 41112  1  0  0  0
 41113  1  0  0  0
 41 48  1  0  0  0
 42 43  1  0  0  0
 42 66  1  0  0  0
 42114  1  0  0  0
 42115  1  0  0  0
 43 44  1  0  0  0
 44116  1  0  0  0
 45 46  2  0  0  0
 45117  1  0  0  0
 46118  1  0  0  0
 47119  1  0  0  0
 47120  1  0  0  0
 48 56  1  0  0  0
 48 65  1  0  0  0
 48121  1  0  0  0
 49 50  1  0  0  0
 49 53  1  0  0  0
 49 64  1  0  0  0
 49122  1  0  0  0
 50 51  1  0  0  0
 50123  1  0  0  0
 50124  1  0  0  0
 51 52  1  0  0  0
 51125  1  0  0  0
 51126  1  0  0  0
 52127  1  0  0  0
 52128  1  0  0  0
 53 54  1  0  0  0
 54 55  2  0  0  0
 54129  1  0  0  0
 55 57  1  0  0  0
 55130  1  0  0  0
 56 69  2  0  0  0
 57 58  2  0  0  0
 57131  1  0  0  0
 58132  1  0  0  0
 59 60  1  0  0  0
 59 61  1  0  0  0
 59 62  1  0  0  0
 60133  1  0  0  0
 60134  1  0  0  0
 60135  1  0  0  0
 61136  1  0  0  0
 61137  1  0  0  0
 61138  1  0  0  0
 62139  1  0  0  0
 62140  1  0  0  0
 62141  1  0  0  0
 63 65  1  0  0  0
 63142  1  0  0  0
 63143  1  0  0  0
 63144  1  0  0  0
 64145  1  0  0  0
 65146  1  0  0  0
 68 77  1  0  0  0
 71 72  2  0  0  0
 71 75  1  0  0  0
 71147  1  0  0  0
 72 76  1  0  0  0
 72148  1  0  0  0
 73 74  1  0  0  0
 73 75  2  0  0  0
 73149  1  0  0  0
 74 76  2  0  0  0
 74 80  1  0  0  0
 75 82  1  0  0  0
 76 87  1  0  0  0
 77 78  2  0  0  0
 77150  1  0  0  0
 78 79  1  0  0  0
 78 86  1  0  0  0
 79 82  1  0  0  0
 79 83  2  0  0  0
 80151  1  0  0  0
 80152  1  0  0  0
 80153  1  0  0  0
 81 87  1  0  0  0
 82154  1  0  0  0
 84 87  2  0  0  0
 85 87  2  0  0  0
 86155  1  0  0  0
M  CHG  1  81  -1
M  ISO  4   1 100  68 101  77 101  81 100
M  END
> <chiral flag>
0

> <version>
0

> <s_m_source_file>
/data/baiqing/PycharmProjects/Reinvent-master-3.2/result/LINK_invent/BTK/process_docking_weight1_custom_product_contain_oxygen_bond_distance_aromatic_linkinvent_7_9_3/rearranged_h_0066.sdf

> <i_m_source_file_index>
27

> <r_mmod_Potential_Energy-OPLS-2005>
-246.678619384766

> <r_mmod_Stretch_Energy-OPLS-2005>
34.5449562072754

> <r_mmod_Bend_Energy-OPLS-2005>
106.538864135742

> <r_mmod_Torsional_Energy-OPLS-2005>
251.314392089844

> <r_mmod_Improper_Torsional_Energy-OPLS-2005>
11.6512994766235

> <r_mmod_Van_der_Waal_Energy-OPLS-2005>
163.627853393555

> <r_mmod_Electrostatic_Energy-OPLS-2005>
-393.416595458984

> <r_mmod_Solvation_Energy-OPLS-2005>
-447.142333984375

> <b_mmod_Minimization_Converged-OPLS-2005>
0

> <r_mmod_RMS_Derivative-OPLS-2005>
3.4178249835968

$$$$
27
                    3D
 Structure written by MMmdl.
159168  0  0  1  0            999 V2000
  -30.5316  -14.8871   20.4741 C   0  0  0  0  0  0
  -30.4591  -12.5565   19.4892 C   0  0  0  0  0  0
  -29.5261  -12.5528   18.2511 C   0  0  0  0  0  0
  -28.0512  -12.3468   18.6548 C   0  0  0  0  0  0
  -27.6465  -13.2301   19.8635 C   0  0  2  0  0  0
  -28.6938  -13.1212   20.9896 C   0  0  0  0  0  0
  -25.2534  -13.8173   20.5720 C   0  0  0  0  0  0
  -24.1803  -13.0423   20.9170 C   0  0  0  0  0  0
  -24.6392  -11.6901   20.8716 C   0  0  0  0  0  0
  -23.9065  -10.4288   21.0390 C   0  0  0  0  0  0
  -24.3616   -9.4208   21.9176 C   0  0  0  0  0  0
  -23.6289   -8.2246   22.0755 C   0  0  0  0  0  0
  -22.4271   -8.0281   21.3546 C   0  0  0  0  0  0
  -21.9905   -9.0250   20.4646 C   0  0  0  0  0  0
  -22.7234  -10.2128   20.3046 C   0  0  0  0  0  0
  -21.6851   -6.0734   22.5278 C   0  0  0  0  0  0
  -21.4014   -6.5640   23.8211 C   0  0  0  0  0  0
  -21.3659   -5.6792   24.9174 C   0  0  0  0  0  0
  -21.6043   -4.3054   24.7225 C   0  0  0  0  0  0
  -21.8820   -3.8146   23.4347 C   0  0  0  0  0  0
  -21.9194   -4.6963   22.3402 C   0  0  0  0  0  0
  -22.7831  -13.5216   21.1843 C   0  0  0  0  0  0
  -22.1662   -4.2148   21.0978 F   0  0  0  0  0  0
  -21.5628   -3.4539   25.7739 F   0  0  0  0  0  0
  -29.9759  -13.6010   20.4391 N   0  0  0  0  0  0
  -26.2965  -12.9372   20.3338 N   0  0  0  0  0  0
  -25.9328  -11.6510   20.5733 N   0  0  0  0  0  0
  -22.0481  -12.8208   22.0405 N   0  0  0  0  0  0
  -25.4260  -15.1899   20.4223 N   0  0  0  0  0  0
  -31.6860  -15.0227   20.0476 O   0  0  0  0  0  0
  -21.6637   -6.8876   21.4242 O   0  0  0  0  0  0
  -22.3512  -14.5526   20.6702 O   0  0  0  0  0  0
  -24.6404  -31.8467   23.1921 C   0  0  0  0  0  0
  -25.9190  -32.4706   23.8293 C   0  0  1  0  0  0
  -27.2227  -27.1696   20.1308 C   0  0  0  0  0  0
  -25.5951  -33.8513   24.2210 N   0  0  0  0  0  0
  -23.4422  -30.4691   21.5368 C   0  0  2  0  0  0
  -24.8922  -28.9070   20.1066 C   0  0  0  0  0  0
  -22.7554  -29.4561   22.4863 C   0  0  0  0  0  0
  -18.0307  -28.1391   22.8476 C   0  0  0  0  0  0
  -24.1490  -36.7268   23.2641 C   0  0  0  0  0  0
  -25.9974  -30.7278   21.3900 C   0  0  0  0  0  0
  -26.0676  -29.3436   20.7300 C   0  0  0  0  0  0
  -27.2286  -28.4872   20.7358 C   0  0  0  0  0  0
  -26.0216  -26.8406   19.4565 C   0  0  0  0  0  0
  -24.8806  -27.6663   19.4579 C   0  0  0  0  0  0
  -23.6667  -29.8036   20.1542 C   0  0  0  0  0  0
  -25.4120  -36.3041   24.0317 C   0  0  1  0  0  0
  -20.5917  -28.3718   23.1236 C   0  0  2  0  0  0
  -20.6792  -26.9425   22.5397 C   0  0  0  0  0  0
  -19.5765  -26.6381   21.5207 C   0  0  0  0  0  0
  -18.1946  -26.7930   22.1621 C   0  0  0  0  0  0
  -19.1562  -28.8873   23.2847 C   0  0  0  0  0  0
  -18.9479  -30.1471   23.8870 C   0  0  0  0  0  0
  -17.6475  -30.6589   24.0561 C   0  0  0  0  0  0
  -25.9068  -34.9413   23.5070 C   0  0  0  0  0  0
  -16.5367  -29.9083   23.6335 C   0  0  0  0  0  0
  -16.7292  -28.6503   23.0353 C   0  0  0  0  0  0
  -26.4524  -31.6563   25.0721 C   0  0  0  0  0  0
  -25.3715  -31.3728   26.1417 C   0  0  0  0  0  0
  -27.0398  -30.2967   24.6284 C   0  0  0  0  0  0
  -27.6054  -32.4332   25.7500 C   0  0  0  0  0  0
  -27.5579  -37.1786   24.8466 C   0  0  0  0  0  0
  -21.4250  -29.3049   22.3612 N   0  0  0  0  0  0
  -26.4287  -37.3751   23.9412 N   0  0  0  0  0  0
  -24.7127  -31.0349   22.0945 N   0  0  0  0  0  0
  -23.4210  -28.8099   23.2994 O   0  0  0  0  0  0
  -28.2828  -26.1986   20.2332 O   0  0  0  0  0  0
  -26.5648  -34.8902   22.4646 O   0  0  0  0  0  0
  -23.5531  -32.1338   23.7156 O   0  0  0  0  0  0
  -29.0204  -18.2382   19.4428 C   0  0  0  0  0  0
  -28.7724  -19.6369   19.1830 C   0  0  0  0  0  0
  -29.9905  -20.2480   21.1001 C   0  0  0  0  0  0
  -29.7572  -17.7358   20.5570 C   0  0  0  0  0  0
  -30.2382  -18.8332   21.3750 C   0  0  0  0  0  0
  -29.2315  -20.7411   19.9871 C   0  0  0  0  0  0
  -28.8321  -23.4160   20.3270 C   0  0  0  0  0  0
  -29.6698  -16.1964   21.0090 C   0  0  0  0  0  0
  -29.2497  -23.6918   17.5600 C   0  0  0  0  0  0
  -28.5382  -24.9118   18.1493 C   0  0  0  0  0  0
  -28.7028  -22.3759   18.1387 C   0  0  0  0  0  0
  -28.1719  -24.7738   19.6430 C   0  0  2  0  0  0
  -31.0131  -18.5045   22.6401 C   0  0  0  0  0  0
  -28.8033  -16.0313   21.9161 N   0  0  0  0  0  0
  -28.9494  -22.2026   19.5881 N   0  0  0  0  0  0
  -29.1826  -23.4758   21.5103 O   0  0  0  0  0  0
  -31.4883  -12.7333   19.1736 H   0  0  0  0  0  0
  -30.4711  -11.5750   19.9660 H   0  0  0  0  0  0
  -29.8339  -11.7775   17.5484 H   0  0  0  0  0  0
  -29.6261  -13.5012   17.7209 H   0  0  0  0  0  0
  -27.9217  -11.2944   18.9101 H   0  0  0  0  0  0
  -27.3934  -12.5368   17.8059 H   0  0  0  0  0  0
  -27.6467  -14.2609   19.5083 H   0  0  0  0  0  0
  -28.7809  -12.0837   21.3158 H   0  0  0  0  0  0
  -28.3815  -13.6473   21.8866 H   0  0  0  0  0  0
  -25.2761   -9.5686   22.4748 H   0  0  0  0  0  0
  -23.9998   -7.4641   22.7477 H   0  0  0  0  0  0
  -21.0835   -8.8765   19.8953 H   0  0  0  0  0  0
  -22.3690  -10.9663   19.6152 H   0  0  0  0  0  0
  -21.2007   -7.6148   23.9714 H   0  0  0  0  0  0
  -21.1480   -6.0523   25.9076 H   0  0  0  0  0  0
  -22.0599   -2.7608   23.2847 H   0  0  0  0  0  0
  -22.4102  -11.9868   22.4789 H   0  0  0  0  0  0
  -21.1101  -13.1235   22.2618 H   0  0  0  0  0  0
  -24.6789  -15.8561   20.5834 H   0  0  0  0  0  0
  -26.3208  -15.6299   20.2462 H   0  0  0  0  0  0
  -26.7257  -32.5322   23.1023 H   0  0  0  0  0  0
  -25.0085  -33.9634   25.0349 H   0  0  0  0  0  0
  -22.7431  -31.2943   21.3854 H   0  0  0  0  0  0
  -23.3755  -35.9598   23.3286 H   0  0  0  0  0  0
  -24.3576  -36.8916   22.2058 H   0  0  0  0  0  0
  -23.7242  -37.6458   23.6689 H   0  0  0  0  0  0
  -26.1507  -31.4833   20.6182 H   0  0  0  0  0  0
  -26.8696  -30.7765   22.0301 H   0  0  0  0  0  0
  -28.1186  -28.8134   21.2554 H   0  0  0  0  0  0
  -25.9044  -25.9087   18.9296 H   0  0  0  0  0  0
  -23.9863  -27.3287   18.9521 H   0  0  0  0  0  0
  -23.7984  -30.5804   19.3998 H   0  0  0  0  0  0
  -22.7829  -29.2429   19.8446 H   0  0  0  0  0  0
  -25.1301  -36.1871   25.0808 H   0  0  0  0  0  0
  -21.0009  -28.3306   24.1357 H   0  0  0  0  0  0
  -20.5690  -26.2328   23.3610 H   0  0  0  0  0  0
  -21.6656  -26.7433   22.1186 H   0  0  0  0  0  0
  -19.6924  -25.6287   21.1247 H   0  0  0  0  0  0
  -19.6699  -27.3182   20.6727 H   0  0  0  0  0  0
  -17.4211  -26.6675   21.4027 H   0  0  0  0  0  0
  -18.0349  -26.0073   22.9019 H   0  0  0  0  0  0
  -19.7956  -30.7298   24.2219 H   0  0  0  0  0  0
  -17.5029  -31.6263   24.5175 H   0  0  0  0  0  0
  -15.5366  -30.2976   23.7673 H   0  0  0  0  0  0
  -15.8692  -28.0818   22.7076 H   0  0  0  0  0  0
  -24.5908  -30.7061   25.7734 H   0  0  0  0  0  0
  -24.8885  -32.2898   26.4805 H   0  0  0  0  0  0
  -25.8005  -30.8926   27.0221 H   0  0  0  0  0  0
  -26.3016  -29.6678   24.1292 H   0  0  0  0  0  0
  -27.4029  -29.7268   25.4847 H   0  0  0  0  0  0
  -27.8911  -30.4219   23.9589 H   0  0  0  0  0  0
  -27.2655  -33.3662   26.2012 H   0  0  0  0  0  0
  -28.3894  -32.6851   25.0343 H   0  0  0  0  0  0
  -28.0690  -31.8497   26.5466 H   0  0  0  0  0  0
  -28.2577  -38.0102   24.7531 H   0  0  0  0  0  0
  -28.1095  -36.2631   24.6273 H   0  0  0  0  0  0
  -27.2295  -37.1406   25.8867 H   0  0  0  0  0  0
  -20.9452  -29.8779   21.6810 H   0  0  0  0  0  0
  -26.0153  -38.2816   24.1425 H   0  0  0  0  0  0
  -28.5515  -17.5193   18.7852 H   0  0  0  0  0  0
  -28.1570  -19.8403   18.3191 H   0  0  0  0  0  0
  -30.3978  -20.9819   21.7822 H   0  0  0  0  0  0
  -30.3205  -23.7552   17.7618 H   0  0  0  0  0  0
  -29.1495  -23.6988   16.4737 H   0  0  0  0  0  0
  -27.6295  -25.1022   17.5785 H   0  0  0  0  0  0
  -29.1702  -25.7876   17.9973 H   0  0  0  0  0  0
  -29.2017  -21.5897   17.5728 H   0  0  0  0  0  0
  -27.6343  -22.2815   17.9375 H   0  0  0  0  0  0
  -27.1279  -24.4760   19.7072 H   0  0  0  0  0  0
  -31.5254  -19.3810   23.0385 H   0  0  0  0  0  0
  -31.7693  -17.7431   22.4456 H   0  0  0  0  0  0
  -30.3402  -18.1304   23.4121 H   0  0  0  0  0  0
  -28.3632  -16.9138   22.1471 H   0  0  0  0  0  0
  1 25  1  0  0  0
  1 30  2  0  0  0
  1 78  1  0  0  0
  2  3  1  0  0  0
  2 25  1  0  0  0
  2 87  1  0  0  0
  2 88  1  0  0  0
  3  4  1  0  0  0
  3 89  1  0  0  0
  3 90  1  0  0  0
  4  5  1  0  0  0
  4 91  1  0  0  0
  4 92  1  0  0  0
  5  6  1  0  0  0
  5 26  1  0  0  0
  5 93  1  0  0  0
  6 25  1  0  0  0
  6 94  1  0  0  0
  6 95  1  0  0  0
  7  8  2  0  0  0
  7 26  1  0  0  0
  7 29  1  0  0  0
  8  9  1  0  0  0
  8 22  1  0  0  0
  9 10  1  0  0  0
  9 27  2  0  0  0
 10 11  2  0  0  0
 10 15  1  0  0  0
 11 12  1  0  0  0
 11 96  1  0  0  0
 12 13  2  0  0  0
 12 97  1  0  0  0
 13 14  1  0  0  0
 13 31  1  0  0  0
 14 15  2  0  0  0
 14 98  1  0  0  0
 15 99  1  0  0  0
 16 17  2  0  0  0
 16 21  1  0  0  0
 16 31  1  0  0  0
 17 18  1  0  0  0
 17100  1  0  0  0
 18 19  2  0  0  0
 18101  1  0  0  0
 19 20  1  0  0  0
 19 24  1  0  0  0
 20 21  2  0  0  0
 20102  1  0  0  0
 21 23  1  0  0  0
 22 28  1  0  0  0
 22 32  2  0  0  0
 26 27  1  0  0  0
 28103  1  0  0  0
 28104  1  0  0  0
 29105  1  0  0  0
 29106  1  0  0  0
 33 34  1  0  0  0
 33 66  1  0  0  0
 33 70  2  0  0  0
 34 36  1  0  0  0
 34 59  1  0  0  0
 34107  1  0  0  0
 35 44  2  0  0  0
 35 45  1  0  0  0
 35 68  1  0  0  0
 36 56  1  0  0  0
 36108  1  0  0  0
 37 39  1  0  0  0
 37 47  1  0  0  0
 37 66  1  0  0  0
 37109  1  0  0  0
 38 43  2  0  0  0
 38 46  1  0  0  0
 38 47  1  0  0  0
 39 64  1  0  0  0
 39 67  2  0  0  0
 40 52  1  0  0  0
 40 53  2  0  0  0
 40 58  1  0  0  0
 41110  1  0  0  0
 41111  1  0  0  0
 41112  1  0  0  0
 41 48  1  0  0  0
 42 43  1  0  0  0
 42 66  1  0  0  0
 42113  1  0  0  0
 42114  1  0  0  0
 43 44  1  0  0  0
 44115  1  0  0  0
 45 46  2  0  0  0
 45116  1  0  0  0
 46117  1  0  0  0
 47118  1  0  0  0
 47119  1  0  0  0
 48 56  1  0  0  0
 48 65  1  0  0  0
 48120  1  0  0  0
 49 50  1  0  0  0
 49 53  1  0  0  0
 49 64  1  0  0  0
 49121  1  0  0  0
 50 51  1  0  0  0
 50122  1  0  0  0
 50123  1  0  0  0
 51 52  1  0  0  0
 51124  1  0  0  0
 51125  1  0  0  0
 52126  1  0  0  0
 52127  1  0  0  0
 53 54  1  0  0  0
 54 55  2  0  0  0
 54128  1  0  0  0
 55 57  1  0  0  0
 55129  1  0  0  0
 56 69  2  0  0  0
 57 58  2  0  0  0
 57130  1  0  0  0
 58131  1  0  0  0
 59 60  1  0  0  0
 59 61  1  0  0  0
 59 62  1  0  0  0
 60132  1  0  0  0
 60133  1  0  0  0
 60134  1  0  0  0
 61135  1  0  0  0
 61136  1  0  0  0
 61137  1  0  0  0
 62138  1  0  0  0
 62139  1  0  0  0
 62140  1  0  0  0
 63 65  1  0  0  0
 63141  1  0  0  0
 63142  1  0  0  0
 63143  1  0  0  0
 64144  1  0  0  0
 65145  1  0  0  0
 68 82  1  0  0  0
 71 72  2  0  0  0
 71 74  1  0  0  0
 71146  1  0  0  0
 72 76  1  0  0  0
 72147  1  0  0  0
 73 75  1  0  0  0
 73 76  2  0  0  0
 73148  1  0  0  0
 74 75  2  0  0  0
 74 78  1  0  0  0
 75 83  1  0  0  0
 76 85  1  0  0  0
 77 82  1  0  0  0
 77 85  1  0  0  0
 77 86  2  0  0  0
 78 84  2  0  0  0
 79 80  1  0  0  0
 79 81  1  0  0  0
 79149  1  0  0  0
 79150  1  0  0  0
 80 82  1  0  0  0
 80151  1  0  0  0
 80152  1  0  0  0
 81 85  1  0  0  0
 81153  1  0  0  0
 81154  1  0  0  0
 82155  1  0  0  0
 83156  1  0  0  0
 83157  1  0  0  0
 83158  1  0  0  0
 84159  1  0  0  0
M  ISO  4   1 100  68 101  78 100  82 101
M  END
> <chiral flag>
0

> <version>
0

> <s_m_source_file>
/data/baiqing/PycharmProjects/Reinvent-master-3.2/result/LINK_invent/BTK/process_docking_weight1_custom_product_contain_oxygen_bond_distance_aromatic_linkinvent_7_9_3/rearranged_h_0066.sdf

> <i_m_source_file_index>
28

> <r_mmod_Potential_Energy-OPLS-2005>
730.281555175781

> <r_mmod_Stretch_Energy-OPLS-2005>
239.673965454102

> <r_mmod_Bend_Energy-OPLS-2005>
265.475799560547

> <r_mmod_Torsional_Energy-OPLS-2005>
263.4775390625

> <r_mmod_Improper_Torsional_Energy-OPLS-2005>
5.85404491424561

> <r_mmod_Van_der_Waal_Energy-OPLS-2005>
161.816192626953

> <r_mmod_Electrostatic_Energy-OPLS-2005>
-145.885009765625

> <r_mmod_Solvation_Energy-OPLS-2005>
-213.482177734375

> <b_mmod_Minimization_Converged-OPLS-2005>
0

> <r_mmod_RMS_Derivative-OPLS-2005>
0.555490076541901

$$$$
28
                    3D
 Structure written by MMmdl.
167176  0  0  1  0            999 V2000
  -30.5972  -14.7380   20.4364 C   0  0  0  0  0  0
  -30.4406  -12.4457   19.4435 C   0  0  0  0  0  0
  -29.5070  -12.4732   18.2149 C   0  0  0  0  0  0
  -28.0381  -12.2903   18.6486 C   0  0  0  0  0  0
  -27.6397  -13.2136   19.8329 C   0  0  2  0  0  0
  -28.6898  -13.1635   20.9577 C   0  0  0  0  0  0
  -25.2545  -13.8140   20.5666 C   0  0  0  0  0  0
  -24.1824  -13.0434   20.9190 C   0  0  0  0  0  0
  -24.6390  -11.6889   20.8776 C   0  0  0  0  0  0
  -23.9064  -10.4288   21.0443 C   0  0  0  0  0  0
  -24.3611   -9.4199   21.9209 C   0  0  0  0  0  0
  -23.6283   -8.2243   22.0778 C   0  0  0  0  0  0
  -22.4260   -8.0294   21.3578 C   0  0  0  0  0  0
  -21.9906   -9.0265   20.4671 C   0  0  0  0  0  0
  -22.7245  -10.2133   20.3086 C   0  0  0  0  0  0
  -21.6834   -6.0749   22.5298 C   0  0  0  0  0  0
  -21.4003   -6.5650   23.8231 C   0  0  0  0  0  0
  -21.3659   -5.6805   24.9190 C   0  0  0  0  0  0
  -21.6033   -4.3065   24.7243 C   0  0  0  0  0  0
  -21.8806   -3.8159   23.4361 C   0  0  0  0  0  0
  -21.9182   -4.6978   22.3418 C   0  0  0  0  0  0
  -22.7846  -13.5246   21.1867 C   0  0  0  0  0  0
  -22.1652   -4.2160   21.0996 F   0  0  0  0  0  0
  -21.5624   -3.4548   25.7756 F   0  0  0  0  0  0
  -29.9808  -13.5126   20.3529 N   0  0  0  0  0  0
  -26.2950  -12.9320   20.3218 N   0  0  0  0  0  0
  -25.9323  -11.6483   20.5748 N   0  0  0  0  0  0
  -22.0466  -12.8269   22.0400 N   0  0  0  0  0  0
  -25.4270  -15.1864   20.4111 N   0  0  0  0  0  0
  -31.8179  -14.8359   20.2942 O   0  0  0  0  0  0
  -21.6619   -6.8895   21.4263 O   0  0  0  0  0  0
  -22.3559  -14.5585   20.6726 O   0  0  0  0  0  0
  -24.6276  -31.8548   23.2019 C   0  0  0  0  0  0
  -25.9134  -32.4722   23.8326 C   0  0  1  0  0  0
  -27.2248  -27.2647   20.1334 C   0  0  0  0  0  0
  -25.5953  -33.8529   24.2213 N   0  0  0  0  0  0
  -23.4234  -30.4830   21.5398 C   0  0  2  0  0  0
  -24.8781  -28.9352   20.1101 C   0  0  0  0  0  0
  -22.7472  -29.4626   22.4876 C   0  0  0  0  0  0
  -18.0290  -28.1386   22.8480 C   0  0  0  0  0  0
  -24.1520  -36.7245   23.2634 C   0  0  0  0  0  0
  -25.9731  -30.7713   21.3880 C   0  0  0  0  0  0
  -26.0501  -29.3952   20.7262 C   0  0  0  0  0  0
  -27.2241  -28.5715   20.7328 C   0  0  0  0  0  0
  -26.0265  -26.8814   19.4876 C   0  0  0  0  0  0
  -24.8732  -27.6844   19.4833 C   0  0  0  0  0  0
  -23.6447  -29.8163   20.1561 C   0  0  0  0  0  0
  -25.4149  -36.3012   24.0295 C   0  0  1  0  0  0
  -20.5900  -28.3692   23.1249 C   0  0  2  0  0  0
  -20.6798  -26.9399   22.5403 C   0  0  0  0  0  0
  -19.5784  -26.6378   21.5207 C   0  0  0  0  0  0
  -18.1948  -26.7920   22.1615 C   0  0  0  0  0  0
  -19.1549  -28.8859   23.2856 C   0  0  0  0  0  0
  -18.9465  -30.1460   23.8869 C   0  0  0  0  0  0
  -17.6467  -30.6589   24.0562 C   0  0  0  0  0  0
  -25.9077  -34.9396   23.5030 C   0  0  0  0  0  0
  -16.5353  -29.9077   23.6356 C   0  0  0  0  0  0
  -16.7270  -28.6505   23.0346 C   0  0  0  0  0  0
  -26.4522  -31.6556   25.0713 C   0  0  0  0  0  0
  -25.3734  -31.3749   26.1425 C   0  0  0  0  0  0
  -27.0400  -30.2953   24.6263 C   0  0  0  0  0  0
  -27.6047  -32.4324   25.7488 C   0  0  0  0  0  0
  -27.5575  -37.1774   24.8452 C   0  0  0  0  0  0
  -21.4186  -29.3032   22.3615 N   0  0  0  0  0  0
  -26.4295  -37.3724   23.9384 N   0  0  0  0  0  0
  -24.6911  -31.0543   22.0978 N   0  0  0  0  0  0
  -23.4179  -28.8146   23.2959 O   0  0  0  0  0  0
  -28.3182  -26.3605   20.1714 O   0  0  0  0  0  0
  -26.5635  -34.8884   22.4592 O   0  0  0  0  0  0
  -23.5439  -32.1348   23.7358 O   0  0  0  0  0  0
  -28.9931  -18.1769   23.0162 C   0  0  0  0  0  0
  -29.4105  -17.0495   22.3022 C   0  0  0  0  0  0
  -29.5678  -18.4678   20.3310 C   0  0  0  0  0  0
  -28.8431  -19.4533   22.4305 C   0  0  0  0  0  0
  -29.2004  -19.6936   21.0579 C   0  0  0  0  0  0
  -29.6735  -17.1379   20.9287 C   0  0  0  0  0  0
  -29.6050  -21.4892   19.2495 C   0  0  0  0  0  0
  -28.6639  -22.3695   21.1086 C   0  0  0  0  0  0
  -29.4700  -23.0203   18.9821 C   0  0  1  0  0  0
  -29.0984  -23.6776   20.3300 C   0  0  1  0  0  0
  -28.2490  -20.4806   23.3828 C   0  0  0  0  0  0
  -30.4656  -25.0873   17.7986 C   0  0  0  0  0  0
  -32.0500  -23.4932   18.9560 C   0  0  0  0  0  0
  -28.0188  -24.8896   20.3175 C   0  0  0  0  0  0
  -30.6933  -23.6306   18.2315 C   0  0  0  0  0  0
  -29.1713  -21.0959   20.4699 N   0  0  0  0  0  0
  -29.7974  -15.8499   20.2185 N   0  0  0  0  0  0
  -30.0675  -20.7429   18.3826 O   0  0  0  0  0  0
  -31.4777  -12.5841   19.1339 H   0  0  0  0  0  0
  -30.3968  -11.4755   19.9423 H   0  0  0  0  0  0
  -29.7899  -11.6879   17.5116 H   0  0  0  0  0  0
  -29.6206  -13.4176   17.6804 H   0  0  0  0  0  0
  -27.9143  -11.2460   18.9413 H   0  0  0  0  0  0
  -27.3697  -12.4415   17.8011 H   0  0  0  0  0  0
  -27.6277  -14.2274   19.4347 H   0  0  0  0  0  0
  -28.7305  -12.1702   21.4057 H   0  0  0  0  0  0
  -28.4286  -13.8595   21.7554 H   0  0  0  0  0  0
  -25.2740   -9.5658   22.4788 H   0  0  0  0  0  0
  -23.9975   -7.4623   22.7494 H   0  0  0  0  0  0
  -21.0828   -8.8797   19.8967 H   0  0  0  0  0  0
  -22.3716  -10.9686   19.6194 H   0  0  0  0  0  0
  -21.1998   -7.6153   23.9744 H   0  0  0  0  0  0
  -21.1488   -6.0531   25.9094 H   0  0  0  0  0  0
  -22.0584   -2.7623   23.2863 H   0  0  0  0  0  0
  -22.4037  -11.9900   22.4784 H   0  0  0  0  0  0
  -21.1106  -13.1351   22.2618 H   0  0  0  0  0  0
  -24.6632  -15.8392   20.5448 H   0  0  0  0  0  0
  -26.2904  -15.6356   20.1400 H   0  0  0  0  0  0
  -26.7180  -32.5398   23.1055 H   0  0  0  0  0  0
  -25.0137  -33.9686   25.0380 H   0  0  0  0  0  0
  -22.7172  -31.3034   21.3934 H   0  0  0  0  0  0
  -23.3763  -35.9594   23.3286 H   0  0  0  0  0  0
  -24.3583  -36.8889   22.2045 H   0  0  0  0  0  0
  -23.7325  -37.6453   23.6685 H   0  0  0  0  0  0
  -26.1216  -31.5431   20.6311 H   0  0  0  0  0  0
  -26.8427  -30.8085   22.0336 H   0  0  0  0  0  0
  -28.1140  -28.9142   21.2416 H   0  0  0  0  0  0
  -25.9387  -25.9405   18.9721 H   0  0  0  0  0  0
  -23.9784  -27.3237   18.9977 H   0  0  0  0  0  0
  -23.7523  -30.5870   19.3908 H   0  0  0  0  0  0
  -22.7671  -29.2336   19.8660 H   0  0  0  0  0  0
  -25.1355  -36.1800   25.0784 H   0  0  0  0  0  0
  -21.0003  -28.3278   24.1371 H   0  0  0  0  0  0
  -20.5714  -26.2271   23.3598 H   0  0  0  0  0  0
  -21.6657  -26.7441   22.1181 H   0  0  0  0  0  0
  -19.6929  -25.6284   21.1234 H   0  0  0  0  0  0
  -19.6738  -27.3201   20.6745 H   0  0  0  0  0  0
  -17.4210  -26.6649   21.4014 H   0  0  0  0  0  0
  -18.0358  -26.0066   22.9027 H   0  0  0  0  0  0
  -19.7934  -30.7300   24.2198 H   0  0  0  0  0  0
  -17.5016  -31.6274   24.5145 H   0  0  0  0  0  0
  -15.5349  -30.2969   23.7724 H   0  0  0  0  0  0
  -15.8660  -28.0845   22.7053 H   0  0  0  0  0  0
  -24.5884  -30.7136   25.7725 H   0  0  0  0  0  0
  -24.9008  -32.2978   26.4795 H   0  0  0  0  0  0
  -25.8053  -30.8921   27.0202 H   0  0  0  0  0  0
  -26.3038  -29.6653   24.1272 H   0  0  0  0  0  0
  -27.4009  -29.7264   25.4837 H   0  0  0  0  0  0
  -27.8928  -30.4156   23.9587 H   0  0  0  0  0  0
  -27.2587  -33.3595   26.2065 H   0  0  0  0  0  0
  -28.3870  -32.6927   25.0342 H   0  0  0  0  0  0
  -28.0700  -31.8457   26.5418 H   0  0  0  0  0  0
  -28.2563  -38.0092   24.7478 H   0  0  0  0  0  0
  -28.1095  -36.2605   24.6307 H   0  0  0  0  0  0
  -27.2255  -37.1445   25.8846 H   0  0  0  0  0  0
  -20.9336  -29.8687   21.6803 H   0  0  0  0  0  0
  -26.0131  -38.2763   24.1429 H   0  0  0  0  0  0
  -28.7308  -18.0373   24.0551 H   0  0  0  0  0  0
  -29.4332  -16.0941   22.8091 H   0  0  0  0  0  0
  -29.7455  -18.5218   19.2685 H   0  0  0  0  0  0
  -27.5768  -22.3070   21.1405 H   0  0  0  0  0  0
  -29.0283  -22.5074   22.1196 H   0  0  0  0  0  0
  -28.6003  -23.0922   18.3300 H   0  0  0  0  0  0
  -30.0049  -24.0363   20.8181 H   0  0  0  0  0  0
  -27.3952  -21.0032   22.9515 H   0  0  0  0  0  0
  -29.0069  -21.1825   23.7190 H   0  0  0  0  0  0
  -27.8687  -20.0144   24.2921 H   0  0  0  0  0  0
  -29.5138  -25.2055   17.2783 H   0  0  0  0  0  0
  -31.2483  -25.4213   17.1144 H   0  0  0  0  0  0
  -30.4780  -25.7660   18.6513 H   0  0  0  0  0  0
  -32.8613  -23.8248   18.3066 H   0  0  0  0  0  0
  -32.2700  -22.4599   19.2259 H   0  0  0  0  0  0
  -32.1000  -24.0938   19.8641 H   0  0  0  0  0  0
  -27.4959  -24.8154   21.2735 H   0  0  0  0  0  0
  -27.2995  -24.5825   19.5631 H   0  0  0  0  0  0
  -30.7836  -23.0586   17.3057 H   0  0  0  0  0  0
  -28.9591  -15.6045   19.7162 H   0  0  0  0  0  0
  1 25  1  0  0  0
  1 30  2  0  0  0
  1 87  1  0  0  0
  2  3  1  0  0  0
  2 25  1  0  0  0
  2 89  1  0  0  0
  2 90  1  0  0  0
  3  4  1  0  0  0
  3 91  1  0  0  0
  3 92  1  0  0  0
  4  5  1  0  0  0
  4 93  1  0  0  0
  4 94  1  0  0  0
  5  6  1  0  0  0
  5 26  1  0  0  0
  5 95  1  0  0  0
  6 25  1  0  0  0
  6 96  1  0  0  0
  6 97  1  0  0  0
  7  8  2  0  0  0
  7 26  1  0  0  0
  7 29  1  0  0  0
  8  9  1  0  0  0
  8 22  1  0  0  0
  9 10  1  0  0  0
  9 27  2  0  0  0
 10 11  2  0  0  0
 10 15  1  0  0  0
 11 12  1  0  0  0
 11 98  1  0  0  0
 12 13  2  0  0  0
 12 99  1  0  0  0
 13 14  1  0  0  0
 13 31  1  0  0  0
 14 15  2  0  0  0
 14100  1  0  0  0
 15101  1  0  0  0
 16 17  2  0  0  0
 16 21  1  0  0  0
 16 31  1  0  0  0
 17 18  1  0  0  0
 17102  1  0  0  0
 18 19  2  0  0  0
 18103  1  0  0  0
 19 20  1  0  0  0
 19 24  1  0  0  0
 20 21  2  0  0  0
 20104  1  0  0  0
 21 23  1  0  0  0
 22 28  1  0  0  0
 22 32  2  0  0  0
 26 27  1  0  0  0
 28105  1  0  0  0
 28106  1  0  0  0
 29107  1  0  0  0
 29108  1  0  0  0
 33 34  1  0  0  0
 33 66  1  0  0  0
 33 70  2  0  0  0
 34 36  1  0  0  0
 34 59  1  0  0  0
 34109  1  0  0  0
 35 44  2  0  0  0
 35 45  1  0  0  0
 35 68  1  0  0  0
 36 56  1  0  0  0
 36110  1  0  0  0
 37 39  1  0  0  0
 37 47  1  0  0  0
 37 66  1  0  0  0
 37111  1  0  0  0
 38 43  2  0  0  0
 38 46  1  0  0  0
 38 47  1  0  0  0
 39 64  1  0  0  0
 39 67  2  0  0  0
 40 52  1  0  0  0
 40 53  2  0  0  0
 40 58  1  0  0  0
 41112  1  0  0  0
 41113  1  0  0  0
 41114  1  0  0  0
 41 48  1  0  0  0
 42 43  1  0  0  0
 42 66  1  0  0  0
 42115  1  0  0  0
 42116  1  0  0  0
 43 44  1  0  0  0
 44117  1  0  0  0
 45 46  2  0  0  0
 45118  1  0  0  0
 46119  1  0  0  0
 47120  1  0  0  0
 47121  1  0  0  0
 48 56  1  0  0  0
 48 65  1  0  0  0
 48122  1  0  0  0
 49 50  1  0  0  0
 49 53  1  0  0  0
 49 64  1  0  0  0
 49123  1  0  0  0
 50 51  1  0  0  0
 50124  1  0  0  0
 50125  1  0  0  0
 51 52  1  0  0  0
 51126  1  0  0  0
 51127  1  0  0  0
 52128  1  0  0  0
 52129  1  0  0  0
 53 54  1  0  0  0
 54 55  2  0  0  0
 54130  1  0  0  0
 55 57  1  0  0  0
 55131  1  0  0  0
 56 69  2  0  0  0
 57 58  2  0  0  0
 57132  1  0  0  0
 58133  1  0  0  0
 59 60  1  0  0  0
 59 61  1  0  0  0
 59 62  1  0  0  0
 60134  1  0  0  0
 60135  1  0  0  0
 60136  1  0  0  0
 61137  1  0  0  0
 61138  1  0  0  0
 61139  1  0  0  0
 62140  1  0  0  0
 62141  1  0  0  0
 62142  1  0  0  0
 63 65  1  0  0  0
 63143  1  0  0  0
 63144  1  0  0  0
 63145  1  0  0  0
 64146  1  0  0  0
 65147  1  0  0  0
 68 84  1  0  0  0
 71 72  2  0  0  0
 71 74  1  0  0  0
 71148  1  0  0  0
 72 76  1  0  0  0
 72149  1  0  0  0
 73 75  1  0  0  0
 73 76  2  0  0  0
 73150  1  0  0  0
 74 75  2  0  0  0
 74 81  1  0  0  0
 75 86  1  0  0  0
 76 87  1  0  0  0
 77 86  1  0  0  0
 77 88  2  0  0  0
 77 79  1  0  0  0
 78 80  1  0  0  0
 78 86  1  0  0  0
 78151  1  0  0  0
 78152  1  0  0  0
 79 80  1  0  0  0
 79 85  1  0  0  0
 79153  1  0  0  0
 80 84  1  0  0  0
 80154  1  0  0  0
 81155  1  0  0  0
 81156  1  0  0  0
 81157  1  0  0  0
 82158  1  0  0  0
 82159  1  0  0  0
 82160  1  0  0  0
 82 85  1  0  0  0
 83 85  1  0  0  0
 83161  1  0  0  0
 83162  1  0  0  0
 83163  1  0  0  0
 84164  1  0  0  0
 84165  1  0  0  0
 85166  1  0  0  0
 87167  1  0  0  0
M  ISO  4   1 100  68 101  84 101  87 100
M  END
> <chiral flag>
0

> <version>
0

> <s_m_source_file>
/data/baiqing/PycharmProjects/Reinvent-master-3.2/result/LINK_invent/BTK/process_docking_weight1_custom_product_contain_oxygen_bond_distance_aromatic_linkinvent_7_9_3/rearranged_h_0066.sdf

> <i_m_source_file_index>
29

> <r_mmod_Potential_Energy-OPLS-2005>
388.851501464844

> <r_mmod_Stretch_Energy-OPLS-2005>
133.970077514648

> <r_mmod_Bend_Energy-OPLS-2005>
218.126617431641

> <r_mmod_Torsional_Energy-OPLS-2005>
325.961822509766

> <r_mmod_Improper_Torsional_Energy-OPLS-2005>
16.0408515930176

> <r_mmod_Van_der_Waal_Energy-OPLS-2005>
149.409820556641

> <r_mmod_Electrostatic_Energy-OPLS-2005>
-327.902313232422

> <r_mmod_Solvation_Energy-OPLS-2005>
-218.018905639648

> <b_mmod_Minimization_Converged-OPLS-2005>
0

> <r_mmod_RMS_Derivative-OPLS-2005>
4.70501756668091

$$$$
29
                    3D
 Structure written by MMmdl.
174183  0  0  1  0            999 V2000
  -30.5892  -14.8116   20.3489 C   0  0  0  0  0  0
  -30.4482  -12.4624   19.5036 C   0  0  0  0  0  0
  -29.5305  -12.3929   18.2618 C   0  0  0  0  0  0
  -28.0418  -12.2941   18.6573 C   0  0  0  0  0  0
  -27.6348  -13.2274   19.8328 C   0  0  2  0  0  0
  -28.6836  -13.2258   20.9628 C   0  0  0  0  0  0
  -25.2487  -13.8184   20.5679 C   0  0  0  0  0  0
  -24.1765  -13.0446   20.9205 C   0  0  0  0  0  0
  -24.6342  -11.6918   20.8744 C   0  0  0  0  0  0
  -23.9023  -10.4305   21.0393 C   0  0  0  0  0  0
  -24.3583   -9.4227   21.9167 C   0  0  0  0  0  0
  -23.6275   -8.2250   22.0723 C   0  0  0  0  0  0
  -22.4259   -8.0270   21.3527 C   0  0  0  0  0  0
  -21.9874   -9.0232   20.4620 C   0  0  0  0  0  0
  -22.7188  -10.2125   20.3044 C   0  0  0  0  0  0
  -21.6856   -6.0712   22.5270 C   0  0  0  0  0  0
  -21.4013   -6.5613   23.8206 C   0  0  0  0  0  0
  -21.3670   -5.6764   24.9168 C   0  0  0  0  0  0
  -21.6047   -4.3030   24.7217 C   0  0  0  0  0  0
  -21.8821   -3.8121   23.4344 C   0  0  0  0  0  0
  -21.9195   -4.6940   22.3396 C   0  0  0  0  0  0
  -22.7802  -13.5232   21.1875 C   0  0  0  0  0  0
  -22.1669   -4.2132   21.0975 F   0  0  0  0  0  0
  -21.5649   -3.4517   25.7739 F   0  0  0  0  0  0
  -29.9754  -13.5747   20.3573 N   0  0  0  0  0  0
  -26.2902  -12.9374   20.3231 N   0  0  0  0  0  0
  -25.9268  -11.6532   20.5739 N   0  0  0  0  0  0
  -22.0429  -12.8239   22.0437 N   0  0  0  0  0  0
  -25.4174  -15.1903   20.4102 N   0  0  0  0  0  0
  -31.8146  -14.8733   20.2316 O   0  0  0  0  0  0
  -21.6640   -6.8855   21.4230 O   0  0  0  0  0  0
  -22.3499  -14.5542   20.6720 O   0  0  0  0  0  0
  -24.6324  -31.8534   23.1954 C   0  0  0  0  0  0
  -25.9141  -32.4750   23.8320 C   0  0  1  0  0  0
  -27.2350  -27.2509   20.1287 C   0  0  0  0  0  0
  -25.5937  -33.8550   24.2272 N   0  0  0  0  0  0
  -23.4296  -30.4734   21.5370 C   0  0  2  0  0  0
  -24.8796  -28.9121   20.1073 C   0  0  0  0  0  0
  -22.7515  -29.4593   22.4892 C   0  0  0  0  0  0
  -18.0294  -28.1398   22.8464 C   0  0  0  0  0  0
  -24.1483  -36.7280   23.2632 C   0  0  0  0  0  0
  -25.9737  -30.7622   21.3743 C   0  0  0  0  0  0
  -26.0471  -29.3799   20.7212 C   0  0  0  0  0  0
  -27.2200  -28.5604   20.7226 C   0  0  0  0  0  0
  -26.0413  -26.8456   19.4901 C   0  0  0  0  0  0
  -24.8835  -27.6545   19.4803 C   0  0  0  0  0  0
  -23.6508  -29.8023   20.1533 C   0  0  0  0  0  0
  -25.4112  -36.3074   24.0332 C   0  0  1  0  0  0
  -20.5894  -28.3711   23.1253 C   0  0  2  0  0  0
  -20.6773  -26.9427   22.5391 C   0  0  0  0  0  0
  -19.5759  -26.6391   21.5181 C   0  0  0  0  0  0
  -18.1941  -26.7943   22.1597 C   0  0  0  0  0  0
  -19.1547  -28.8872   23.2857 C   0  0  0  0  0  0
  -18.9472  -30.1463   23.8894 C   0  0  0  0  0  0
  -17.6470  -30.6594   24.0560 C   0  0  0  0  0  0
  -25.9049  -34.9441   23.5114 C   0  0  0  0  0  0
  -16.5366  -29.9093   23.6318 C   0  0  0  0  0  0
  -16.7279  -28.6509   23.0349 C   0  0  0  0  0  0
  -26.4512  -31.6573   25.0712 C   0  0  0  0  0  0
  -25.3737  -31.3705   26.1440 C   0  0  0  0  0  0
  -27.0345  -30.2999   24.6160 C   0  0  0  0  0  0
  -27.6092  -32.4286   25.7480 C   0  0  0  0  0  0
  -27.5590  -37.1795   24.8464 C   0  0  0  0  0  0
  -21.4216  -29.3060   22.3649 N   0  0  0  0  0  0
  -26.4284  -37.3780   23.9424 N   0  0  0  0  0  0
  -24.6981  -31.0488   22.0930 N   0  0  0  0  0  0
  -23.4220  -28.8131   23.2997 O   0  0  0  0  0  0
  -28.3707  -26.4065   20.2173 O   0  0  0  0  0  0
  -26.5613  -34.8917   22.4679 O   0  0  0  0  0  0
  -23.5475  -32.1362   23.7241 O   0  0  0  0  0  0
  -30.7541  -18.8828   17.8956 C   0  0  0  0  0  0
  -30.3756  -20.0120   18.6252 C   0  0  0  0  0  0
  -30.4722  -17.5491   18.3009 C   0  0  0  0  0  0
  -29.7330  -19.8969   19.8603 C   0  0  0  0  0  0
  -30.0183  -17.3250   19.6635 C   0  0  0  0  0  0
  -29.6128  -18.5385   20.3910 C   0  0  0  0  0  0
  -29.8028  -23.2892   21.3822 C   0  0  0  0  0  0
  -30.1599  -21.8570   21.3182 C   0  0  0  0  0  0
  -30.6404  -24.1375   22.0220 C   0  0  0  0  0  0
  -28.4914  -22.2524   19.7898 C   0  0  0  0  0  0
  -28.5305  -23.6283   20.5972 C   0  0  1  0  0  0
  -30.4846  -25.6338   22.1940 C   0  0  0  0  0  0
  -27.3334  -23.6828   21.5655 C   0  0  0  0  0  0
  -31.6892  -15.5078   17.2325 C   0  0  0  0  0  0
  -30.6435  -17.1175   15.7268 C   0  0  0  0  0  0
  -29.1458  -15.7732   17.0724 C   0  0  0  0  0  0
  -28.4863  -24.9965   19.6953 C   0  0  0  0  0  0
  -30.5054  -16.4916   17.1450 C   0  0  0  0  0  0
  -29.3386  -21.2009   20.4680 N   0  0  0  0  0  0
  -29.7919  -15.9544   20.2499 N   0  0  0  0  0  0
  -31.0646  -21.3036   21.9573 O   0  0  0  0  0  0
  -29.0536  -18.3834   21.6150 F   0  0  0  0  0  0
  -31.4876  -12.5937   19.1989 H   0  0  0  0  0  0
  -30.4188  -11.5260   20.0607 H   0  0  0  0  0  0
  -29.8022  -11.5249   17.6592 H   0  0  0  0  0  0
  -29.7032  -13.2432   17.6119 H   0  0  0  0  0  0
  -27.8601  -11.2559   18.9362 H   0  0  0  0  0  0
  -27.4086  -12.4823   17.7901 H   0  0  0  0  0  0
  -27.6034  -14.2343   19.4227 H   0  0  0  0  0  0
  -28.7270  -12.2506   21.4513 H   0  0  0  0  0  0
  -28.4168  -13.9475   21.7369 H   0  0  0  0  0  0
  -25.2708   -9.5743   22.4760 H   0  0  0  0  0  0
  -23.9998   -7.4640   22.7422 H   0  0  0  0  0  0
  -21.0819   -8.8721   19.8907 H   0  0  0  0  0  0
  -22.3604  -10.9660   19.6170 H   0  0  0  0  0  0
  -21.1984   -7.6110   23.9711 H   0  0  0  0  0  0
  -21.1508   -6.0487   25.9081 H   0  0  0  0  0  0
  -22.0591   -2.7576   23.2839 H   0  0  0  0  0  0
  -22.4016  -11.9901   22.4853 H   0  0  0  0  0  0
  -21.1046  -13.1279   22.2620 H   0  0  0  0  0  0
  -24.6418  -15.8375   20.5141 H   0  0  0  0  0  0
  -26.2593  -15.6377   20.0732 H   0  0  0  0  0  0
  -26.7203  -32.5405   23.1055 H   0  0  0  0  0  0
  -25.0133  -33.9675   25.0454 H   0  0  0  0  0  0
  -22.7263  -31.2954   21.3868 H   0  0  0  0  0  0
  -23.3765  -35.9590   23.3279 H   0  0  0  0  0  0
  -24.3570  -36.8914   22.2046 H   0  0  0  0  0  0
  -23.7205  -37.6465   23.6666 H   0  0  0  0  0  0
  -26.1068  -31.5169   20.5980 H   0  0  0  0  0  0
  -26.8536  -30.8210   22.0027 H   0  0  0  0  0  0
  -28.1127  -28.9119   21.2198 H   0  0  0  0  0  0
  -25.9627  -25.8843   19.0087 H   0  0  0  0  0  0
  -23.9902  -27.2943   18.9884 H   0  0  0  0  0  0
  -23.7814  -30.5773   19.3965 H   0  0  0  0  0  0
  -22.7679  -29.2377   19.8454 H   0  0  0  0  0  0
  -25.1280  -36.1925   25.0819 H   0  0  0  0  0  0
  -20.9981  -28.3286   24.1374 H   0  0  0  0  0  0
  -20.5627  -26.2326   23.3597 H   0  0  0  0  0  0
  -21.6651  -26.7422   22.1221 H   0  0  0  0  0  0
  -19.6920  -25.6291   21.1232 H   0  0  0  0  0  0
  -19.6703  -27.3174   20.6690 H   0  0  0  0  0  0
  -17.4202  -26.6674   21.4012 H   0  0  0  0  0  0
  -18.0360  -26.0092   22.9001 H   0  0  0  0  0  0
  -19.7947  -30.7270   24.2283 H   0  0  0  0  0  0
  -17.5026  -31.6270   24.5175 H   0  0  0  0  0  0
  -15.5367  -30.3003   23.7640 H   0  0  0  0  0  0
  -15.8675  -28.0813   22.7099 H   0  0  0  0  0  0
  -24.5947  -30.7005   25.7782 H   0  0  0  0  0  0
  -24.8878  -32.2851   26.4854 H   0  0  0  0  0  0
  -25.8067  -30.8916   27.0231 H   0  0  0  0  0  0
  -26.2901  -29.6752   24.1204 H   0  0  0  0  0  0
  -27.4080  -29.7255   25.4648 H   0  0  0  0  0  0
  -27.8764  -30.4309   23.9354 H   0  0  0  0  0  0
  -27.2762  -33.3620   26.2037 H   0  0  0  0  0  0
  -28.3925  -32.6776   25.0304 H   0  0  0  0  0  0
  -28.0737  -31.8401   26.5407 H   0  0  0  0  0  0
  -28.2591  -38.0110   24.7549 H   0  0  0  0  0  0
  -28.1103  -36.2649   24.6241 H   0  0  0  0  0  0
  -27.2317  -37.1384   25.8865 H   0  0  0  0  0  0
  -20.9418  -29.8806   21.6857 H   0  0  0  0  0  0
  -26.0173  -38.2850   24.1453 H   0  0  0  0  0  0
  -31.1999  -19.1155   16.9436 H   0  0  0  0  0  0
  -30.5737  -20.9875   18.2023 H   0  0  0  0  0  0
  -31.5522  -23.7437   22.4530 H   0  0  0  0  0  0
  -28.8855  -22.4178   18.7860 H   0  0  0  0  0  0
  -27.4727  -21.8839   19.6644 H   0  0  0  0  0  0
  -29.4458  -25.9043   22.3778 H   0  0  0  0  0  0
  -30.8449  -26.1640   21.3114 H   0  0  0  0  0  0
  -31.0664  -25.9698   23.0531 H   0  0  0  0  0  0
  -27.2826  -22.7981   22.2028 H   0  0  0  0  0  0
  -26.3922  -23.7497   21.0187 H   0  0  0  0  0  0
  -27.3931  -24.5569   22.2153 H   0  0  0  0  0  0
  -32.6043  -16.0028   17.5586 H   0  0  0  0  0  0
  -31.9055  -15.0500   16.2669 H   0  0  0  0  0  0
  -31.4951  -14.6657   17.8793 H   0  0  0  0  0  0
  -31.6206  -17.5761   15.5683 H   0  0  0  0  0  0
  -29.8721  -17.8631   15.5259 H   0  0  0  0  0  0
  -30.5455  -16.3628   14.9455 H   0  0  0  0  0  0
  -28.9021  -15.2375   17.9787 H   0  0  0  0  0  0
  -29.1112  -15.0544   16.2532 H   0  0  0  0  0  0
  -28.3381  -16.4884   16.9111 H   0  0  0  0  0  0
  -27.7444  -24.8417   18.9161 H   0  0  0  0  0  0
  -29.4244  -25.0066   19.1395 H   0  0  0  0  0  0
  -28.8432  -15.7998   20.5527 H   0  0  0  0  0  0
  1 25  1  0  0  0
  1 30  2  0  0  0
  1 90  1  0  0  0
  2  3  1  0  0  0
  2 25  1  0  0  0
  2 93  1  0  0  0
  2 94  1  0  0  0
  3  4  1  0  0  0
  3 95  1  0  0  0
  3 96  1  0  0  0
  4  5  1  0  0  0
  4 97  1  0  0  0
  4 98  1  0  0  0
  5  6  1  0  0  0
  5 26  1  0  0  0
  5 99  1  0  0  0
  6 25  1  0  0  0
  6100  1  0  0  0
  6101  1  0  0  0
  7  8  2  0  0  0
  7 26  1  0  0  0
  7 29  1  0  0  0
  8  9  1  0  0  0
  8 22  1  0  0  0
  9 10  1  0  0  0
  9 27  2  0  0  0
 10 11  2  0  0  0
 10 15  1  0  0  0
 11 12  1  0  0  0
 11102  1  0  0  0
 12 13  2  0  0  0
 12103  1  0  0  0
 13 14  1  0  0  0
 13 31  1  0  0  0
 14 15  2  0  0  0
 14104  1  0  0  0
 15105  1  0  0  0
 16 17  2  0  0  0
 16 21  1  0  0  0
 16 31  1  0  0  0
 17 18  1  0  0  0
 17106  1  0  0  0
 18 19  2  0  0  0
 18107  1  0  0  0
 19 20  1  0  0  0
 19 24  1  0  0  0
 20 21  2  0  0  0
 20108  1  0  0  0
 21 23  1  0  0  0
 22 28  1  0  0  0
 22 32  2  0  0  0
 26 27  1  0  0  0
 28109  1  0  0  0
 28110  1  0  0  0
 29111  1  0  0  0
 29112  1  0  0  0
 33 34  1  0  0  0
 33 66  1  0  0  0
 33 70  2  0  0  0
 34 36  1  0  0  0
 34 59  1  0  0  0
 34113  1  0  0  0
 35 44  2  0  0  0
 35 45  1  0  0  0
 35 68  1  0  0  0
 36 56  1  0  0  0
 36114  1  0  0  0
 37 39  1  0  0  0
 37 47  1  0  0  0
 37 66  1  0  0  0
 37115  1  0  0  0
 38 43  2  0  0  0
 38 46  1  0  0  0
 38 47  1  0  0  0
 39 64  1  0  0  0
 39 67  2  0  0  0
 40 52  1  0  0  0
 40 53  2  0  0  0
 40 58  1  0  0  0
 41116  1  0  0  0
 41117  1  0  0  0
 41118  1  0  0  0
 41 48  1  0  0  0
 42 43  1  0  0  0
 42 66  1  0  0  0
 42119  1  0  0  0
 42120  1  0  0  0
 43 44  1  0  0  0
 44121  1  0  0  0
 45 46  2  0  0  0
 45122  1  0  0  0
 46123  1  0  0  0
 47124  1  0  0  0
 47125  1  0  0  0
 48 56  1  0  0  0
 48 65  1  0  0  0
 48126  1  0  0  0
 49 50  1  0  0  0
 49 53  1  0  0  0
 49 64  1  0  0  0
 49127  1  0  0  0
 50 51  1  0  0  0
 50128  1  0  0  0
 50129  1  0  0  0
 51 52  1  0  0  0
 51130  1  0  0  0
 51131  1  0  0  0
 52132  1  0  0  0
 52133  1  0  0  0
 53 54  1  0  0  0
 54 55  2  0  0  0
 54134  1  0  0  0
 55 57  1  0  0  0
 55135  1  0  0  0
 56 69  2  0  0  0
 57 58  2  0  0  0
 57136  1  0  0  0
 58137  1  0  0  0
 59 60  1  0  0  0
 59 61  1  0  0  0
 59 62  1  0  0  0
 60138  1  0  0  0
 60139  1  0  0  0
 60140  1  0  0  0
 61141  1  0  0  0
 61142  1  0  0  0
 61143  1  0  0  0
 62144  1  0  0  0
 62145  1  0  0  0
 62146  1  0  0  0
 63 65  1  0  0  0
 63147  1  0  0  0
 63148  1  0  0  0
 63149  1  0  0  0
 64150  1  0  0  0
 65151  1  0  0  0
 68 87  1  0  0  0
 71 72  2  0  0  0
 71 73  1  0  0  0
 71152  1  0  0  0
 72 74  1  0  0  0
 72153  1  0  0  0
 73 75  2  0  0  0
 73 88  1  0  0  0
 74 76  2  0  0  0
 74 89  1  0  0  0
 75 76  1  0  0  0
 75 90  1  0  0  0
 76 92  1  0  0  0
 77 78  1  0  0  0
 77 79  2  0  0  0
 77 81  1  0  0  0
 78 89  1  0  0  0
 78 91  2  0  0  0
 79 82  1  0  0  0
 79154  1  0  0  0
 80 81  1  0  0  0
 80 89  1  0  0  0
 80155  1  0  0  0
 80156  1  0  0  0
 81 83  1  0  0  0
 81 87  1  0  0  0
 82157  1  0  0  0
 82158  1  0  0  0
 82159  1  0  0  0
 83160  1  0  0  0
 83161  1  0  0  0
 83162  1  0  0  0
 84163  1  0  0  0
 84164  1  0  0  0
 84165  1  0  0  0
 84 88  1  0  0  0
 85 88  1  0  0  0
 85166  1  0  0  0
 85167  1  0  0  0
 85168  1  0  0  0
 86 88  1  0  0  0
 86169  1  0  0  0
 86170  1  0  0  0
 86171  1  0  0  0
 87172  1  0  0  0
 87173  1  0  0  0
 90174  1  0  0  0
M  ISO  4   1 100  68 101  87 101  90 100
M  END
> <chiral flag>
0

> <version>
0

> <s_m_source_file>
/data/baiqing/PycharmProjects/Reinvent-master-3.2/result/LINK_invent/BTK/process_docking_weight1_custom_product_contain_oxygen_bond_distance_aromatic_linkinvent_7_9_3/rearranged_h_0066.sdf

> <i_m_source_file_index>
30

> <r_mmod_Potential_Energy-OPLS-2005>
447.956665039062

> <r_mmod_Stretch_Energy-OPLS-2005>
151.971099853516

> <r_mmod_Bend_Energy-OPLS-2005>
254.889434814453

> <r_mmod_Torsional_Energy-OPLS-2005>
353.184844970703

> <r_mmod_Improper_Torsional_Energy-OPLS-2005>
8.58456707000732

> <r_mmod_Van_der_Waal_Energy-OPLS-2005>
147.044876098633

> <r_mmod_Electrostatic_Energy-OPLS-2005>
-372.151947021484

> <r_mmod_Solvation_Energy-OPLS-2005>
-208.644577026367

> <b_mmod_Minimization_Converged-OPLS-2005>
0

> <r_mmod_RMS_Derivative-OPLS-2005>
2.6344997882843

$$$$
30
                    3D
 Structure written by MMmdl.
155163  0  0  1  0            999 V2000
  -30.4588  -15.1888   20.3960 C   0  0  0  0  0  0
  -30.4486  -12.7639   19.4973 C   0  0  0  0  0  0
  -29.5282  -12.5496   18.2708 C   0  0  0  0  0  0
  -28.0771  -12.2839   18.7098 C   0  0  0  0  0  0
  -27.6154  -13.2599   19.8206 C   0  0  2  0  0  0
  -28.6595  -13.4069   20.9452 C   0  0  0  0  0  0
  -25.2422  -13.8227   20.5761 C   0  0  0  0  0  0
  -24.1751  -13.0432   20.9255 C   0  0  0  0  0  0
  -24.6383  -11.6922   20.8766 C   0  0  0  0  0  0
  -23.9076  -10.4284   21.0403 C   0  0  0  0  0  0
  -24.3626   -9.4195   21.9177 C   0  0  0  0  0  0
  -23.6299   -8.2233   22.0742 C   0  0  0  0  0  0
  -22.4280   -8.0277   21.3532 C   0  0  0  0  0  0
  -21.9923   -9.0255   20.4634 C   0  0  0  0  0  0
  -22.7251  -10.2130   20.3045 C   0  0  0  0  0  0
  -21.6857   -6.0731   22.5280 C   0  0  0  0  0  0
  -21.4017   -6.5636   23.8214 C   0  0  0  0  0  0
  -21.3660   -5.6785   24.9176 C   0  0  0  0  0  0
  -21.6039   -4.3047   24.7228 C   0  0  0  0  0  0
  -21.8820   -3.8141   23.4350 C   0  0  0  0  0  0
  -21.9198   -4.6958   22.3405 C   0  0  0  0  0  0
  -22.7767  -13.5190   21.1916 C   0  0  0  0  0  0
  -22.1661   -4.2141   21.0983 F   0  0  0  0  0  0
  -21.5633   -3.4534   25.7745 F   0  0  0  0  0  0
  -29.8902  -13.8974   20.3081 N   0  0  0  0  0  0
  -26.2840  -12.9466   20.3244 N   0  0  0  0  0  0
  -25.9312  -11.6584   20.5741 N   0  0  0  0  0  0
  -22.0434  -12.8160   22.0472 N   0  0  0  0  0  0
  -25.4046  -15.1964   20.4218 N   0  0  0  0  0  0
  -31.6905  -15.2030   20.2642 O   0  0  0  0  0  0
  -21.6639   -6.8876   21.4238 O   0  0  0  0  0  0
  -22.3437  -14.5488   20.6756 O   0  0  0  0  0  0
  -24.6583  -31.8283   23.1744 C   0  0  0  0  0  0
  -25.9286  -32.4618   23.8198 C   0  0  1  0  0  0
  -27.2157  -26.9794   20.1875 C   0  0  0  0  0  0
  -25.5972  -33.8431   24.2105 N   0  0  0  0  0  0
  -23.4691  -30.4407   21.5242 C   0  0  2  0  0  0
  -24.9175  -28.8312   20.1187 C   0  0  0  0  0  0
  -22.7639  -29.4469   22.4824 C   0  0  0  0  0  0
  -18.0311  -28.1402   22.8473 C   0  0  0  0  0  0
  -24.1476  -36.7212   23.2646 C   0  0  0  0  0  0
  -26.0351  -30.6516   21.3925 C   0  0  0  0  0  0
  -26.1016  -29.2454   20.7424 C   0  0  0  0  0  0
  -27.2512  -28.3431   20.7446 C   0  0  0  0  0  0
  -26.0006  -26.6967   19.5276 C   0  0  0  0  0  0
  -24.8895  -27.5755   19.4920 C   0  0  0  0  0  0
  -23.7034  -29.7571   20.1499 C   0  0  0  0  0  0
  -25.4119  -36.2991   24.0310 C   0  0  1  0  0  0
  -20.5926  -28.3734   23.1204 C   0  0  2  0  0  0
  -20.6787  -26.9429   22.5393 C   0  0  0  0  0  0
  -19.5765  -26.6375   21.5204 C   0  0  0  0  0  0
  -18.1949  -26.7939   22.1612 C   0  0  0  0  0  0
  -19.1573  -28.8887   23.2817 C   0  0  0  0  0  0
  -18.9492  -30.1478   23.8847 C   0  0  0  0  0  0
  -17.6488  -30.6596   24.0566 C   0  0  0  0  0  0
  -25.9086  -34.9368   23.5020 C   0  0  0  0  0  0
  -16.5372  -29.9092   23.6350 C   0  0  0  0  0  0
  -16.7293  -28.6506   23.0374 C   0  0  0  0  0  0
  -26.4554  -31.6539   25.0702 C   0  0  0  0  0  0
  -25.3688  -31.3795   26.1369 C   0  0  0  0  0  0
  -27.0447  -30.2915   24.6392 C   0  0  0  0  0  0
  -27.6047  -32.4359   25.7499 C   0  0  0  0  0  0
  -27.5573  -37.1763   24.8479 C   0  0  0  0  0  0
  -21.4308  -29.3037   22.3575 N   0  0  0  0  0  0
  -26.4274  -37.3724   23.9439 N   0  0  0  0  0  0
  -24.7419  -31.0008   22.0837 N   0  0  0  0  0  0
  -23.4217  -28.8043   23.3043 O   0  0  0  0  0  0
  -28.2503  -25.9261   20.1814 O   0  0  0  0  0  0
  -26.5711  -34.8899   22.4630 O   0  0  0  0  0  0
  -23.5669  -32.1224   23.6868 O   0  0  0  0  0  0
  -30.5674  -18.2727   21.8117 C   0  0  0  0  0  0
  -30.6639  -19.5777   22.3558 C   0  0  0  0  0  0
  -29.1864  -19.2570   20.0933 C   0  0  0  0  0  0
  -29.8057  -17.9755   20.6645 C   0  0  0  0  0  0
  -30.0540  -20.7449   21.8127 C   0  0  0  0  0  0
  -29.2912  -20.6978   20.6096 C   0  0  0  0  0  0
  -31.2273  -22.5544   25.0660 C   0  0  0  0  0  0
  -28.0779  -24.3583   20.6094 C   0  0  0  0  0  0
  -29.6657  -16.4248   20.3081 N   0  0  0  0  0  0
  -30.2497  -21.9309   22.5294 N   0  0  0  0  0  0
  -27.6356  -22.1377   18.8246 O   0  0  0  0  0  0
  -29.9871  -22.9187   19.0245 O   0  0  0  0  0  0
  -28.9357  -23.5214   24.0268 O   0  0  0  0  0  0
  -29.0493  -21.0389   24.6098 O   0  0  0  0  0  0
  -28.7485  -22.5126   19.7182 S   0  0  0  0  0  0
  -29.6984  -22.2692   24.1276 S   0  0  0  0  0  0
  -31.4607  -12.9838   19.1541 H   0  0  0  0  0  0
  -30.5296  -11.8549   20.0961 H   0  0  0  0  0  0
  -29.8937  -11.7245   17.6573 H   0  0  0  0  0  0
  -29.5571  -13.4383   17.6406 H   0  0  0  0  0  0
  -28.0275  -11.2604   19.0811 H   0  0  0  0  0  0
  -27.4027  -12.3274   17.8542 H   0  0  0  0  0  0
  -27.5372  -14.2288   19.3272 H   0  0  0  0  0  0
  -28.8199  -12.4619   21.4664 H   0  0  0  0  0  0
  -28.3174  -14.1254   21.6922 H   0  0  0  0  0  0
  -25.2768   -9.5678   22.4752 H   0  0  0  0  0  0
  -24.0011   -7.4618   22.7448 H   0  0  0  0  0  0
  -21.0863   -8.8759   19.8936 H   0  0  0  0  0  0
  -22.3702  -10.9661   19.6152 H   0  0  0  0  0  0
  -21.1995   -7.6144   23.9720 H   0  0  0  0  0  0
  -21.1486   -6.0515   25.9082 H   0  0  0  0  0  0
  -22.0597   -2.7606   23.2855 H   0  0  0  0  0  0
  -22.4077  -11.9826   22.4849 H   0  0  0  0  0  0
  -21.1037  -13.1135   22.2681 H   0  0  0  0  0  0
  -24.6315  -15.8421   20.5372 H   0  0  0  0  0  0
  -26.2519  -15.6479   20.1041 H   0  0  0  0  0  0
  -26.7352  -32.5147   23.0920 H   0  0  0  0  0  0
  -25.0105  -33.9529   25.0250 H   0  0  0  0  0  0
  -22.7805  -31.2716   21.3587 H   0  0  0  0  0  0
  -23.3751  -35.9530   23.3281 H   0  0  0  0  0  0
  -24.3562  -36.8883   22.2070 H   0  0  0  0  0  0
  -23.7215  -37.6387   23.6708 H   0  0  0  0  0  0
  -26.2106  -31.3924   20.6110 H   0  0  0  0  0  0
  -26.8978  -30.7059   22.0441 H   0  0  0  0  0  0
  -28.1563  -28.6704   21.2349 H   0  0  0  0  0  0
  -25.8978  -25.7374   19.0402 H   0  0  0  0  0  0
  -23.9887  -27.2550   18.9851 H   0  0  0  0  0  0
  -23.8579  -30.5284   19.3939 H   0  0  0  0  0  0
  -22.8106  -29.2155   19.8310 H   0  0  0  0  0  0
  -25.1304  -36.1785   25.0800 H   0  0  0  0  0  0
  -21.0001  -28.3305   24.1329 H   0  0  0  0  0  0
  -20.5672  -26.2354   23.3618 H   0  0  0  0  0  0
  -21.6660  -26.7428   22.1206 H   0  0  0  0  0  0
  -19.6955  -25.6275   21.1265 H   0  0  0  0  0  0
  -19.6712  -27.3160   20.6713 H   0  0  0  0  0  0
  -17.4230  -26.6667   21.4012 H   0  0  0  0  0  0
  -18.0350  -26.0085   22.9003 H   0  0  0  0  0  0
  -19.7972  -30.7311   24.2180 H   0  0  0  0  0  0
  -17.5055  -31.6277   24.5177 H   0  0  0  0  0  0
  -15.5379  -30.3010   23.7699 H   0  0  0  0  0  0
  -15.8678  -28.0830   22.7128 H   0  0  0  0  0  0
  -24.5865  -30.7152   25.7689 H   0  0  0  0  0  0
  -24.8880  -32.2993   26.4680 H   0  0  0  0  0  0
  -25.7906  -30.9041   27.0222 H   0  0  0  0  0  0
  -26.3104  -29.6612   24.1363 H   0  0  0  0  0  0
  -27.3977  -29.7254   25.5016 H   0  0  0  0  0  0
  -27.9038  -30.4135   23.9802 H   0  0  0  0  0  0
  -27.2595  -33.3698   26.1954 H   0  0  0  0  0  0
  -28.3900  -32.6868   25.0352 H   0  0  0  0  0  0
  -28.0664  -31.8574   26.5512 H   0  0  0  0  0  0
  -28.2561  -38.0082   24.7540 H   0  0  0  0  0  0
  -28.1081  -36.2613   24.6252 H   0  0  0  0  0  0
  -27.2311  -37.1357   25.8884 H   0  0  0  0  0  0
  -20.9543  -29.8734   21.6719 H   0  0  0  0  0  0
  -26.0109  -38.2778   24.1446 H   0  0  0  0  0  0
  -31.0647  -17.4722   22.3403 H   0  0  0  0  0  0
  -31.2507  -19.6857   23.2584 H   0  0  0  0  0  0
  -28.6101  -19.1451   19.1866 H   0  0  0  0  0  0
  -31.7295  -23.4427   24.6892 H   0  0  0  0  0  0
  -31.8791  -21.6885   24.9783 H   0  0  0  0  0  0
  -30.9743  -22.7060   26.1135 H   0  0  0  0  0  0
  -28.5223  -24.3123   21.6006 H   0  0  0  0  0  0
  -27.0224  -24.1883   20.8103 H   0  0  0  0  0  0
  -28.7269  -16.1931   20.0239 H   0  0  0  0  0  0
  -30.4625  -22.7569   21.9890 H   0  0  0  0  0  0
  1 25  1  0  0  0
  1 30  2  0  0  0
  1 79  1  0  0  0
  2  3  1  0  0  0
  2 25  1  0  0  0
  2 87  1  0  0  0
  2 88  1  0  0  0
  3  4  1  0  0  0
  3 89  1  0  0  0
  3 90  1  0  0  0
  4  5  1  0  0  0
  4 91  1  0  0  0
  4 92  1  0  0  0
  5  6  1  0  0  0
  5 26  1  0  0  0
  5 93  1  0  0  0
  6 25  1  0  0  0
  6 94  1  0  0  0
  6 95  1  0  0  0
  7  8  2  0  0  0
  7 26  1  0  0  0
  7 29  1  0  0  0
  8  9  1  0  0  0
  8 22  1  0  0  0
  9 10  1  0  0  0
  9 27  2  0  0  0
 10 11  2  0  0  0
 10 15  1  0  0  0
 11 12  1  0  0  0
 11 96  1  0  0  0
 12 13  2  0  0  0
 12 97  1  0  0  0
 13 14  1  0  0  0
 13 31  1  0  0  0
 14 15  2  0  0  0
 14 98  1  0  0  0
 15 99  1  0  0  0
 16 17  2  0  0  0
 16 21  1  0  0  0
 16 31  1  0  0  0
 17 18  1  0  0  0
 17100  1  0  0  0
 18 19  2  0  0  0
 18101  1  0  0  0
 19 20  1  0  0  0
 19 24  1  0  0  0
 20 21  2  0  0  0
 20102  1  0  0  0
 21 23  1  0  0  0
 22 28  1  0  0  0
 22 32  2  0  0  0
 26 27  1  0  0  0
 28103  1  0  0  0
 28104  1  0  0  0
 29105  1  0  0  0
 29106  1  0  0  0
 33 34  1  0  0  0
 33 66  1  0  0  0
 33 70  2  0  0  0
 34 36  1  0  0  0
 34 59  1  0  0  0
 34107  1  0  0  0
 35 44  2  0  0  0
 35 45  1  0  0  0
 35 68  1  0  0  0
 36 56  1  0  0  0
 36108  1  0  0  0
 37 39  1  0  0  0
 37 47  1  0  0  0
 37 66  1  0  0  0
 37109  1  0  0  0
 38 43  2  0  0  0
 38 46  1  0  0  0
 38 47  1  0  0  0
 39 64  1  0  0  0
 39 67  2  0  0  0
 40 52  1  0  0  0
 40 53  2  0  0  0
 40 58  1  0  0  0
 41110  1  0  0  0
 41111  1  0  0  0
 41112  1  0  0  0
 41 48  1  0  0  0
 42 43  1  0  0  0
 42 66  1  0  0  0
 42113  1  0  0  0
 42114  1  0  0  0
 43 44  1  0  0  0
 44115  1  0  0  0
 45 46  2  0  0  0
 45116  1  0  0  0
 46117  1  0  0  0
 47118  1  0  0  0
 47119  1  0  0  0
 48 56  1  0  0  0
 48 65  1  0  0  0
 48120  1  0  0  0
 49 50  1  0  0  0
 49 53  1  0  0  0
 49 64  1  0  0  0
 49121  1  0  0  0
 50 51  1  0  0  0
 50122  1  0  0  0
 50123  1  0  0  0
 51 52  1  0  0  0
 51124  1  0  0  0
 51125  1  0  0  0
 52126  1  0  0  0
 52127  1  0  0  0
 53 54  1  0  0  0
 54 55  2  0  0  0
 54128  1  0  0  0
 55 57  1  0  0  0
 55129  1  0  0  0
 56 69  2  0  0  0
 57 58  2  0  0  0
 57130  1  0  0  0
 58131  1  0  0  0
 59 60  1  0  0  0
 59 61  1  0  0  0
 59 62  1  0  0  0
 60132  1  0  0  0
 60133  1  0  0  0
 60134  1  0  0  0
 61135  1  0  0  0
 61136  1  0  0  0
 61137  1  0  0  0
 62138  1  0  0  0
 62139  1  0  0  0
 62140  1  0  0  0
 63 65  1  0  0  0
 63141  1  0  0  0
 63142  1  0  0  0
 63143  1  0  0  0
 64144  1  0  0  0
 65145  1  0  0  0
 68 78  1  0  0  0
 71 72  2  0  0  0
 71 74  1  0  0  0
 71146  1  0  0  0
 72 75  1  0  0  0
 72147  1  0  0  0
 73 74  2  0  0  0
 73 76  1  0  0  0
 73148  1  0  0  0
 74 79  1  0  0  0
 75 76  2  0  0  0
 75 80  1  0  0  0
 76 85  1  0  0  0
 77149  1  0  0  0
 77150  1  0  0  0
 77151  1  0  0  0
 77 86  1  0  0  0
 78152  1  0  0  0
 78153  1  0  0  0
 78 85  1  0  0  0
 79154  1  0  0  0
 80 86  1  0  0  0
 80155  1  0  0  0
 81 85  2  0  0  0
 82 85  2  0  0  0
 83 86  2  0  0  0
 84 86  2  0  0  0
M  ISO  4   1 100  68 101  78 101  79 100
M  END
> <chiral flag>
0

> <version>
0

> <s_m_source_file>
/data/baiqing/PycharmProjects/Reinvent-master-3.2/result/LINK_invent/BTK/process_docking_weight1_custom_product_contain_oxygen_bond_distance_aromatic_linkinvent_7_9_3/rearranged_h_0066.sdf

> <i_m_source_file_index>
31

> <r_mmod_Potential_Energy-OPLS-2005>
780.640808105469

> <r_mmod_Stretch_Energy-OPLS-2005>
507.867248535156

> <r_mmod_Bend_Energy-OPLS-2005>
386.006134033203

> <r_mmod_Torsional_Energy-OPLS-2005>
275.336975097656

> <r_mmod_Improper_Torsional_Energy-OPLS-2005>
10.4080181121826

> <r_mmod_Van_der_Waal_Energy-OPLS-2005>
109.288848876953

> <r_mmod_Electrostatic_Energy-OPLS-2005>
-570.856750488281

> <r_mmod_Solvation_Energy-OPLS-2005>
-318.227264404297

> <b_mmod_Minimization_Converged-OPLS-2005>
0

> <r_mmod_RMS_Derivative-OPLS-2005>
2.5828058719635

$$$$
31
                    3D
 Structure written by MMmdl.
161169  0  0  1  0            999 V2000
  -29.8520  -15.5836   20.2680 C   0  0  0  0  0  0
  -30.3602  -13.0552   19.5601 C   0  0  0  0  0  0
  -29.5229  -12.6250   18.3223 C   0  0  0  0  0  0
  -28.0865  -12.2539   18.7377 C   0  0  0  0  0  0
  -27.5411  -13.2464   19.7906 C   0  0  2  0  0  0
  -28.5048  -13.4815   20.9518 C   0  0  0  0  0  0
  -25.2108  -13.8104   20.5605 C   0  0  0  0  0  0
  -24.1521  -13.0360   20.9310 C   0  0  0  0  0  0
  -24.6158  -11.6848   20.8814 C   0  0  0  0  0  0
  -23.8924  -10.4229   21.0467 C   0  0  0  0  0  0
  -24.3533   -9.4153   21.9219 C   0  0  0  0  0  0
  -23.6240   -8.2174   22.0762 C   0  0  0  0  0  0
  -22.4225   -8.0216   21.3548 C   0  0  0  0  0  0
  -21.9837   -9.0172   20.4647 C   0  0  0  0  0  0
  -22.7130  -10.2069   20.3078 C   0  0  0  0  0  0
  -21.6828   -6.0698   22.5282 C   0  0  0  0  0  0
  -21.3996   -6.5613   23.8209 C   0  0  0  0  0  0
  -21.3656   -5.6777   24.9177 C   0  0  0  0  0  0
  -21.6046   -4.3039   24.7237 C   0  0  0  0  0  0
  -21.8817   -3.8120   23.4360 C   0  0  0  0  0  0
  -21.9183   -4.6930   22.3411 C   0  0  0  0  0  0
  -22.7591  -13.5173   21.1984 C   0  0  0  0  0  0
  -22.1656   -4.2110   21.0992 F   0  0  0  0  0  0
  -21.5637   -3.4532   25.7759 F   0  0  0  0  0  0
  -29.6194  -14.1583   20.3184 N   0  0  0  0  0  0
  -26.2317  -12.9254   20.2847 N   0  0  0  0  0  0
  -25.9010  -11.6425   20.5582 N   0  0  0  0  0  0
  -22.0266  -12.8167   22.0550 N   0  0  0  0  0  0
  -25.3828  -15.1813   20.3922 N   0  0  0  0  0  0
  -31.0818  -15.7264   20.0484 O   0  0  0  0  0  0
  -21.6605   -6.8819   21.4239 O   0  0  0  0  0  0
  -22.3305  -14.5476   20.6801 O   0  0  0  0  0  0
  -24.5716  -31.7360   22.9661 C   0  0  0  0  0  0
  -25.8634  -32.3927   23.6429 C   0  0  1  0  0  0
  -27.9304  -27.9596   20.0820 C   0  0  0  0  0  0
  -25.5227  -33.7814   24.0487 N   0  0  0  0  0  0
  -23.9939  -29.3517   22.4952 C   0  0  2  0  0  0
  -25.5761  -27.7834   20.0265 C   0  0  0  0  0  0
  -22.6759  -29.1704   23.1082 C   0  0  0  0  0  0
  -17.9561  -28.1572   22.8197 C   0  0  0  0  0  0
  -24.1459  -36.7041   23.2703 C   0  0  0  0  0  0
  -25.4310  -30.7974   20.4711 C   0  0  0  0  0  0
  -26.0320  -29.3007   19.6025 C   0  0  0  0  0  0
  -27.4457  -29.1947   19.6293 C   0  0  0  0  0  0
  -27.3251  -26.8742   19.3739 C   0  0  0  0  0  0
  -25.9816  -26.8985   19.1179 C   0  0  0  0  0  0
  -24.5090  -27.5844   21.7564 C   0  0  0  0  0  0
  -25.4198  -36.2644   24.0115 C   0  0  1  0  0  0
  -20.4664  -28.3554   23.1226 C   0  0  2  0  0  0
  -20.5825  -26.9369   22.5294 C   0  0  0  0  0  0
  -19.5012  -26.6388   21.5034 C   0  0  0  0  0  0
  -18.1247  -26.7995   22.1512 C   0  0  0  0  0  0
  -19.0745  -28.9170   23.2320 C   0  0  0  0  0  0
  -18.8957  -30.1713   23.8488 C   0  0  0  0  0  0
  -17.6016  -30.6789   24.0453 C   0  0  0  0  0  0
  -25.9131  -34.9110   23.4422 C   0  0  0  0  0  0
  -16.4856  -29.9289   23.6347 C   0  0  0  0  0  0
  -16.6614  -28.6711   23.0291 C   0  0  0  0  0  0
  -26.4209  -31.6788   24.9779 C   0  0  0  0  0  0
  -25.3320  -31.4285   26.0515 C   0  0  0  0  0  0
  -27.0890  -30.3218   24.7126 C   0  0  0  0  0  0
  -27.5438  -32.5240   25.6471 C   0  0  0  0  0  0
  -27.5551  -37.1572   24.8449 C   0  0  0  0  0  0
  -21.4674  -29.2629   22.5445 N   0  0  0  0  0  0
  -26.4267  -37.3503   23.9384 N   0  0  0  0  0  0
  -24.5531  -30.7847   21.9113 N   0  0  0  0  0  0
  -22.8476  -28.6435   24.1834 O   0  0  0  0  0  0
  -27.5190  -27.9962   21.4051 O   0  0  0  0  0  0
  -26.6309  -34.8984   22.4424 O   0  0  0  0  0  0
  -23.5176  -32.0175   23.5593 O   0  0  0  0  0  0
  -25.1569  -20.4470   21.8498 C   0  0  0  0  0  0
  -24.8374  -21.7421   21.3177 C   0  0  0  0  0  0
  -26.6304  -21.2703   19.8077 C   0  0  0  0  0  0
  -26.1970  -19.5403   21.4416 C   0  0  0  0  0  0
  -27.0599  -19.7897   20.3397 C   0  0  0  0  0  0
  -25.5117  -22.3711   20.2385 C   0  0  0  0  0  0
  -25.4210  -17.5596   22.7789 C   0  0  0  0  0  0
  -26.3848  -18.2870   22.1923 C   0  0  0  0  0  0
  -23.8960  -25.1034   20.1784 C   0  0  0  0  0  0
  -28.3298  -18.4383   19.9450 C   0  0  0  0  0  0
  -23.2881  -26.9038   19.6609 C   0  0  0  0  0  0
  -23.7027  -28.9340   20.1928 C   0  0  0  0  0  0
  -26.2665  -28.9890   21.8581 C   0  0  0  0  0  0
  -24.9389  -23.9684   19.8012 N   0  0  0  0  0  0
  -28.7608  -16.7239   20.3107 N   0  0  0  0  0  0
  -23.1743  -24.7040   21.0935 O   0  0  0  0  0  0
  -31.3450  -13.3915   19.2342 H   0  0  0  0  0  0
  -30.5554  -12.1965   20.2043 H   0  0  0  0  0  0
  -29.9961  -11.7922   17.7979 H   0  0  0  0  0  0
  -29.4878  -13.4543   17.6147 H   0  0  0  0  0  0
  -28.1083  -11.2497   19.1652 H   0  0  0  0  0  0
  -27.4311  -12.2016   17.8679 H   0  0  0  0  0  0
  -27.4276  -14.1823   19.2399 H   0  0  0  0  0  0
  -28.7778  -12.5513   21.4544 H   0  0  0  0  0  0
  -28.0627  -14.1352   21.7070 H   0  0  0  0  0  0
  -25.2679   -9.5648   22.4788 H   0  0  0  0  0  0
  -23.9955   -7.4563   22.7475 H   0  0  0  0  0  0
  -21.0766   -8.8659   19.8955 H   0  0  0  0  0  0
  -22.3572  -10.9602   19.6182 H   0  0  0  0  0  0
  -21.1982   -7.6119   23.9698 H   0  0  0  0  0  0
  -21.1488   -6.0515   25.9078 H   0  0  0  0  0  0
  -22.0606   -2.7580   23.2873 H   0  0  0  0  0  0
  -22.3891  -11.9838   22.4937 H   0  0  0  0  0  0
  -21.0895  -13.1181   22.2785 H   0  0  0  0  0  0
  -24.6100  -15.8258   20.5138 H   0  0  0  0  0  0
  -26.1473  -15.5877   19.8734 H   0  0  0  0  0  0
  -26.6581  -32.4075   22.8960 H   0  0  0  0  0  0
  -24.8716  -33.8660   24.8163 H   0  0  0  0  0  0
  -24.5753  -29.4156   23.4194 H   0  0  0  0  0  0
  -23.3785  -35.9292   23.3149 H   0  0  0  0  0  0
  -24.3422  -36.9063   22.2167 H   0  0  0  0  0  0
  -23.7161  -37.6053   23.7084 H   0  0  0  0  0  0
  -24.8067  -31.3377   19.7584 H   0  0  0  0  0  0
  -26.2698  -31.4827   20.6004 H   0  0  0  0  0  0
  -28.0119  -30.0876   19.8572 H   0  0  0  0  0  0
  -27.9301  -26.0520   19.0180 H   0  0  0  0  0  0
  -25.5731  -26.0114   18.6920 H   0  0  0  0  0  0
  -23.6313  -26.9707   21.8889 H   0  0  0  0  0  0
  -25.1018  -26.9844   22.4543 H   0  0  0  0  0  0
  -25.1498  -36.1159   25.0590 H   0  0  0  0  0  0
  -20.6299  -28.2169   24.1956 H   0  0  0  0  0  0
  -20.4883  -26.2145   23.3397 H   0  0  0  0  0  0
  -21.5568  -26.7485   22.0983 H   0  0  0  0  0  0
  -19.6177  -25.6314   21.1041 H   0  0  0  0  0  0
  -19.6018  -27.3218   20.6588 H   0  0  0  0  0  0
  -17.3475  -26.6553   21.3978 H   0  0  0  0  0  0
  -17.9702  -26.0275   22.9084 H   0  0  0  0  0  0
  -19.7525  -30.7416   24.1849 H   0  0  0  0  0  0
  -17.4602  -31.6403   24.5174 H   0  0  0  0  0  0
  -15.4880  -30.3206   23.7864 H   0  0  0  0  0  0
  -15.7918  -28.1079   22.7221 H   0  0  0  0  0  0
  -24.5602  -30.7443   25.6961 H   0  0  0  0  0  0
  -24.8349  -32.3540   26.3452 H   0  0  0  0  0  0
  -25.7521  -30.9874   26.9561 H   0  0  0  0  0  0
  -26.3556  -29.5288   24.6423 H   0  0  0  0  0  0
  -27.7038  -30.0155   25.5608 H   0  0  0  0  0  0
  -27.7616  -30.3406   23.8575 H   0  0  0  0  0  0
  -27.1819  -33.4866   26.0107 H   0  0  0  0  0  0
  -28.3524  -32.7295   24.9431 H   0  0  0  0  0  0
  -27.9836  -32.0235   26.5120 H   0  0  0  0  0  0
  -28.2491  -37.9948   24.7595 H   0  0  0  0  0  0
  -28.1112  -36.2467   24.6168 H   0  0  0  0  0  0
  -27.2235  -37.1052   25.8838 H   0  0  0  0  0  0
  -21.3344  -29.6525   21.6208 H   0  0  0  0  0  0
  -26.0020  -38.2488   24.1509 H   0  0  0  0  0  0
  -24.5526  -20.1369   22.6906 H   0  0  0  0  0  0
  -24.0212  -22.2749   21.7849 H   0  0  0  0  0  0
  -27.2393  -21.6017   18.9797 H   0  0  0  0  0  0
  -25.6700  -16.6641   23.3330 H   0  0  0  0  0  0
  -24.3760  -17.8229   22.7141 H   0  0  0  0  0  0
  -27.4044  -17.9451   22.3088 H   0  0  0  0  0  0
  -29.2811  -18.9572   20.0537 H   0  0  0  0  0  0
  -28.1985  -18.3687   18.8649 H   0  0  0  0  0  0
  -22.2139  -26.8276   19.8277 H   0  0  0  0  0  0
  -23.3400  -26.8829   18.5727 H   0  0  0  0  0  0
  -22.7971  -29.4520   20.4983 H   0  0  0  0  0  0
  -23.7359  -29.4214   19.2108 H   0  0  0  0  0  0
  -26.8002  -29.9207   22.0597 H   0  0  0  0  0  0
  -26.2782  -28.5909   22.8717 H   0  0  0  0  0  0
  -25.4845  -24.3064   19.0200 H   0  0  0  0  0  0
  -27.9004  -16.2637   20.5683 H   0  0  0  0  0  0
  1 25  1  0  0  0
  1 30  2  0  0  0
  1 85  1  0  0  0
  2  3  1  0  0  0
  2 25  1  0  0  0
  2 87  1  0  0  0
  2 88  1  0  0  0
  3  4  1  0  0  0
  3 89  1  0  0  0
  3 90  1  0  0  0
  4  5  1  0  0  0
  4 91  1  0  0  0
  4 92  1  0  0  0
  5  6  1  0  0  0
  5 26  1  0  0  0
  5 93  1  0  0  0
  6 25  1  0  0  0
  6 94  1  0  0  0
  6 95  1  0  0  0
  7  8  2  0  0  0
  7 26  1  0  0  0
  7 29  1  0  0  0
  8  9  1  0  0  0
  8 22  1  0  0  0
  9 10  1  0  0  0
  9 27  2  0  0  0
 10 11  2  0  0  0
 10 15  1  0  0  0
 11 12  1  0  0  0
 11 96  1  0  0  0
 12 13  2  0  0  0
 12 97  1  0  0  0
 13 14  1  0  0  0
 13 31  1  0  0  0
 14 15  2  0  0  0
 14 98  1  0  0  0
 15 99  1  0  0  0
 16 17  2  0  0  0
 16 21  1  0  0  0
 16 31  1  0  0  0
 17 18  1  0  0  0
 17100  1  0  0  0
 18 19  2  0  0  0
 18101  1  0  0  0
 19 20  1  0  0  0
 19 24  1  0  0  0
 20 21  2  0  0  0
 20102  1  0  0  0
 21 23  1  0  0  0
 22 28  1  0  0  0
 22 32  2  0  0  0
 26 27  1  0  0  0
 28103  1  0  0  0
 28104  1  0  0  0
 29105  1  0  0  0
 29106  1  0  0  0
 33 34  1  0  0  0
 33 66  1  0  0  0
 33 70  2  0  0  0
 34 36  1  0  0  0
 34 59  1  0  0  0
 34107  1  0  0  0
 35 44  2  0  0  0
 35 45  1  0  0  0
 35 68  1  0  0  0
 36 56  1  0  0  0
 36108  1  0  0  0
 37 39  1  0  0  0
 37 47  1  0  0  0
 37 66  1  0  0  0
 37109  1  0  0  0
 38 43  2  0  0  0
 38 46  1  0  0  0
 38 47  1  0  0  0
 39 64  1  0  0  0
 39 67  2  0  0  0
 40 52  1  0  0  0
 40 53  2  0  0  0
 40 58  1  0  0  0
 41110  1  0  0  0
 41111  1  0  0  0
 41112  1  0  0  0
 41 48  1  0  0  0
 42 43  1  0  0  0
 42 66  1  0  0  0
 42113  1  0  0  0
 42114  1  0  0  0
 43 44  1  0  0  0
 44115  1  0  0  0
 45 46  2  0  0  0
 45116  1  0  0  0
 46117  1  0  0  0
 47118  1  0  0  0
 47119  1  0  0  0
 48 56  1  0  0  0
 48 65  1  0  0  0
 48120  1  0  0  0
 49 50  1  0  0  0
 49 53  1  0  0  0
 49 64  1  0  0  0
 49121  1  0  0  0
 50 51  1  0  0  0
 50122  1  0  0  0
 50123  1  0  0  0
 51 52  1  0  0  0
 51124  1  0  0  0
 51125  1  0  0  0
 52126  1  0  0  0
 52127  1  0  0  0
 53 54  1  0  0  0
 54 55  2  0  0  0
 54128  1  0  0  0
 55 57  1  0  0  0
 55129  1  0  0  0
 56 69  2  0  0  0
 57 58  2  0  0  0
 57130  1  0  0  0
 58131  1  0  0  0
 59 60  1  0  0  0
 59 61  1  0  0  0
 59 62  1  0  0  0
 60132  1  0  0  0
 60133  1  0  0  0
 60134  1  0  0  0
 61135  1  0  0  0
 61136  1  0  0  0
 61137  1  0  0  0
 62138  1  0  0  0
 62139  1  0  0  0
 62140  1  0  0  0
 63 65  1  0  0  0
 63141  1  0  0  0
 63142  1  0  0  0
 63143  1  0  0  0
 64144  1  0  0  0
 65145  1  0  0  0
 68 83  1  0  0  0
 71 72  2  0  0  0
 71 74  1  0  0  0
 71146  1  0  0  0
 72 76  1  0  0  0
 72147  1  0  0  0
 73 75  1  0  0  0
 73 76  2  0  0  0
 73148  1  0  0  0
 74 75  2  0  0  0
 74 78  1  0  0  0
 75 80  1  0  0  0
 76 84  1  0  0  0
 77 78  2  0  0  0
 77149  1  0  0  0
 77150  1  0  0  0
 78151  1  0  0  0
 79 81  1  0  0  0
 79 84  1  0  0  0
 79 86  2  0  0  0
 80 85  1  0  0  0
 80152  1  0  0  0
 80153  1  0  0  0
 81 82  1  0  0  0
 81154  1  0  0  0
 81155  1  0  0  0
 82 83  1  0  0  0
 82156  1  0  0  0
 82157  1  0  0  0
 83158  1  0  0  0
 83159  1  0  0  0
 84160  1  0  0  0
 85161  1  0  0  0
M  ISO  4   1 100  68 101  83 101  85 100
M  END
> <chiral flag>
0

> <version>
0

> <s_m_source_file>
/data/baiqing/PycharmProjects/Reinvent-master-3.2/result/LINK_invent/BTK/process_docking_weight1_custom_product_contain_oxygen_bond_distance_aromatic_linkinvent_7_9_3/rearranged_h_0066.sdf

> <i_m_source_file_index>
32

> <r_mmod_Potential_Energy-OPLS-2005>
12174.154296875

> <r_mmod_Stretch_Energy-OPLS-2005>
5504.88916015625

> <r_mmod_Bend_Energy-OPLS-2005>
1063.14562988281

> <r_mmod_Torsional_Energy-OPLS-2005>
678.82080078125

> <r_mmod_Improper_Torsional_Energy-OPLS-2005>
66.3019943237305

> <r_mmod_Van_der_Waal_Energy-OPLS-2005>
2204.16772460938

> <r_mmod_Electrostatic_Energy-OPLS-2005>
-463.876403808594

> <r_mmod_Solvation_Energy-OPLS-2005>
-232.004318237305

> <b_mmod_Minimization_Converged-OPLS-2005>
0

> <r_mmod_RMS_Derivative-OPLS-2005>
5.42895889282227

$$$$
32
                    3D
 Structure written by MMmdl.
158167  0  0  1  0            999 V2000
  -30.6400  -14.6362   20.4847 C   0  0  0  0  0  0
  -30.4393  -12.3861   19.4467 C   0  0  0  0  0  0
  -29.5047  -12.4990   18.2211 C   0  0  0  0  0  0
  -28.0292  -12.3443   18.6380 C   0  0  0  0  0  0
  -27.6562  -13.2186   19.8648 C   0  0  2  0  0  0
  -28.7066  -13.0777   20.9915 C   0  0  0  0  0  0
  -25.2557  -13.8163   20.5661 C   0  0  0  0  0  0
  -24.1834  -13.0430   20.9205 C   0  0  0  0  0  0
  -24.6408  -11.6907   20.8759 C   0  0  0  0  0  0
  -23.9069  -10.4294   21.0423 C   0  0  0  0  0  0
  -24.3617   -9.4202   21.9197 C   0  0  0  0  0  0
  -23.6292   -8.2237   22.0758 C   0  0  0  0  0  0
  -22.4272   -8.0282   21.3547 C   0  0  0  0  0  0
  -21.9915   -9.0257   20.4646 C   0  0  0  0  0  0
  -22.7244  -10.2139   20.3069 C   0  0  0  0  0  0
  -21.6845   -6.0734   22.5277 C   0  0  0  0  0  0
  -21.4008   -6.5640   23.8207 C   0  0  0  0  0  0
  -21.3661   -5.6793   24.9170 C   0  0  0  0  0  0
  -21.6048   -4.3058   24.7223 C   0  0  0  0  0  0
  -21.8816   -3.8148   23.4342 C   0  0  0  0  0  0
  -21.9192   -4.6964   22.3401 C   0  0  0  0  0  0
  -22.7852  -13.5228   21.1871 C   0  0  0  0  0  0
  -22.1659   -4.2151   21.0979 F   0  0  0  0  0  0
  -21.5637   -3.4545   25.7736 F   0  0  0  0  0  0
  -30.0231  -13.4124   20.4232 N   0  0  0  0  0  0
  -26.3014  -12.9363   20.3347 N   0  0  0  0  0  0
  -25.9351  -11.6514   20.5802 N   0  0  0  0  0  0
  -22.0494  -12.8214   22.0422 N   0  0  0  0  0  0
  -25.4229  -15.1865   20.3959 N   0  0  0  0  0  0
  -31.7982  -14.7908   20.0886 O   0  0  0  0  0  0
  -21.6639   -6.8878   21.4238 O   0  0  0  0  0  0
  -22.3537  -14.5536   20.6724 O   0  0  0  0  0  0
  -24.6242  -31.8602   23.2064 C   0  0  0  0  0  0
  -25.9106  -32.4775   23.8393 C   0  0  1  0  0  0
  -27.2354  -27.3323   20.1196 C   0  0  0  0  0  0
  -25.5936  -33.8577   24.2314 N   0  0  0  0  0  0
  -23.4219  -30.4853   21.5440 C   0  0  2  0  0  0
  -24.8743  -28.9474   20.1123 C   0  0  0  0  0  0
  -22.7490  -29.4628   22.4897 C   0  0  0  0  0  0
  -18.0297  -28.1395   22.8474 C   0  0  0  0  0  0
  -24.1494  -36.7273   23.2643 C   0  0  0  0  0  0
  -25.9637  -30.7946   21.3836 C   0  0  0  0  0  0
  -26.0409  -29.4254   20.7215 C   0  0  0  0  0  0
  -27.2237  -28.6280   20.7194 C   0  0  0  0  0  0
  -26.0427  -26.9095   19.4837 C   0  0  0  0  0  0
  -24.8771  -27.6932   19.4867 C   0  0  0  0  0  0
  -23.6429  -29.8256   20.1582 C   0  0  0  0  0  0
  -25.4105  -36.3071   24.0343 C   0  0  1  0  0  0
  -20.5899  -28.3699   23.1266 C   0  0  2  0  0  0
  -20.6792  -26.9417   22.5402 C   0  0  0  0  0  0
  -19.5769  -26.6381   21.5212 C   0  0  0  0  0  0
  -18.1942  -26.7933   22.1615 C   0  0  0  0  0  0
  -19.1552  -28.8858   23.2869 C   0  0  0  0  0  0
  -18.9477  -30.1448   23.8896 C   0  0  0  0  0  0
  -17.6477  -30.6588   24.0561 C   0  0  0  0  0  0
  -25.9038  -34.9443   23.5124 C   0  0  0  0  0  0
  -16.5369  -29.9090   23.6340 C   0  0  0  0  0  0
  -16.7287  -28.6517   23.0338 C   0  0  0  0  0  0
  -26.4503  -31.6577   25.0757 C   0  0  0  0  0  0
  -25.3747  -31.3726   26.1497 C   0  0  0  0  0  0
  -27.0360  -30.3004   24.6213 C   0  0  0  0  0  0
  -27.6057  -32.4320   25.7517 C   0  0  0  0  0  0
  -27.5571  -37.1784   24.8468 C   0  0  0  0  0  0
  -21.4199  -29.3055   22.3651 N   0  0  0  0  0  0
  -26.4281  -37.3765   23.9418 N   0  0  0  0  0  0
  -24.6879  -31.0627   22.1020 N   0  0  0  0  0  0
  -23.4206  -28.8149   23.2969 O   0  0  0  0  0  0
  -28.3521  -26.4814   20.1760 O   0  0  0  0  0  0
  -26.5579  -34.8910   22.4674 O   0  0  0  0  0  0
  -23.5401  -32.1388   23.7380 O   0  0  0  0  0  0
  -30.8070  -19.2150   19.6444 C   0  0  0  0  0  0
  -30.8449  -17.8019   19.8378 C   0  0  0  0  0  0
  -28.9506  -19.3933   21.1461 C   0  0  0  0  0  0
  -28.9822  -17.9769   21.3487 C   0  0  0  0  0  0
  -29.8629  -20.0716   20.2926 C   0  0  0  0  0  0
  -29.9261  -17.1369   20.6899 C   0  0  0  0  0  0
  -30.7185  -22.3254   19.4595 C   0  0  0  0  0  0
  -30.3313  -23.8088   19.4298 C   0  0  0  0  0  0
  -28.7312  -22.4487   20.5861 C   0  0  0  0  0  0
  -29.1973  -23.9522   20.4424 C   0  0  2  0  0  0
  -27.9701  -17.3633   22.3032 C   0  0  0  0  0  0
  -28.0938  -25.0294   20.0600 C   0  0  0  0  0  0
  -29.8164  -21.5453   20.1060 N   0  0  0  0  0  0
  -29.8483  -15.6834   20.8727 N   0  0  0  0  0  0
  -31.7682  -21.9575   18.9263 O   0  0  0  0  0  0
  -31.4805  -12.5014   19.1393 H   0  0  0  0  0  0
  -30.3682  -11.3927   19.8923 H   0  0  0  0  0  0
  -29.7610  -11.7384   17.4820 H   0  0  0  0  0  0
  -29.6487  -13.4637   17.7314 H   0  0  0  0  0  0
  -27.8651  -11.2918   18.8727 H   0  0  0  0  0  0
  -27.3713  -12.5724   17.7987 H   0  0  0  0  0  0
  -27.6734  -14.2542   19.5237 H   0  0  0  0  0  0
  -28.7177  -12.0588   21.3808 H   0  0  0  0  0  0
  -28.4561  -13.7157   21.8404 H   0  0  0  0  0  0
  -25.2760   -9.5675   22.4775 H   0  0  0  0  0  0
  -23.9997   -7.4628   22.7475 H   0  0  0  0  0  0
  -21.0850   -8.8772   19.8952 H   0  0  0  0  0  0
  -22.3698  -10.9679   19.6184 H   0  0  0  0  0  0
  -21.1988   -7.6148   23.9708 H   0  0  0  0  0  0
  -21.1491   -6.0529   25.9071 H   0  0  0  0  0  0
  -22.0596   -2.7613   23.2842 H   0  0  0  0  0  0
  -22.4098  -11.9865   22.4803 H   0  0  0  0  0  0
  -21.1120  -13.1251   22.2646 H   0  0  0  0  0  0
  -24.6467  -15.8335   20.4793 H   0  0  0  0  0  0
  -26.2533  -15.6142   20.0075 H   0  0  0  0  0  0
  -26.7171  -32.5466   23.1135 H   0  0  0  0  0  0
  -25.0178  -33.9726   25.0527 H   0  0  0  0  0  0
  -22.7165  -31.3050   21.3968 H   0  0  0  0  0  0
  -23.3766  -35.9597   23.3305 H   0  0  0  0  0  0
  -24.3609  -36.8889   22.2064 H   0  0  0  0  0  0
  -23.7247  -37.6478   23.6654 H   0  0  0  0  0  0
  -26.1000  -31.5628   20.6215 H   0  0  0  0  0  0
  -26.8417  -30.8387   22.0165 H   0  0  0  0  0  0
  -28.1145  -28.9826   21.2197 H   0  0  0  0  0  0
  -25.9771  -25.9557   18.9849 H   0  0  0  0  0  0
  -23.9868  -27.3170   19.0036 H   0  0  0  0  0  0
  -23.7709  -30.6049   19.4052 H   0  0  0  0  0  0
  -22.7671  -29.2543   19.8464 H   0  0  0  0  0  0
  -25.1287  -36.1918   25.0834 H   0  0  0  0  0  0
  -20.9983  -28.3271   24.1388 H   0  0  0  0  0  0
  -20.5715  -26.2301   23.3597 H   0  0  0  0  0  0
  -21.6654  -26.7455   22.1175 H   0  0  0  0  0  0
  -19.6940  -25.6293   21.1241 H   0  0  0  0  0  0
  -19.6716  -27.3186   20.6737 H   0  0  0  0  0  0
  -17.4213  -26.6680   21.4021 H   0  0  0  0  0  0
  -18.0342  -26.0078   22.9017 H   0  0  0  0  0  0
  -19.7958  -30.7257   24.2263 H   0  0  0  0  0  0
  -17.5046  -31.6271   24.5154 H   0  0  0  0  0  0
  -15.5373  -30.2987   23.7667 H   0  0  0  0  0  0
  -15.8689  -28.0836   22.7040 H   0  0  0  0  0  0
  -24.5914  -30.7078   25.7843 H   0  0  0  0  0  0
  -24.8952  -32.2909   26.4901 H   0  0  0  0  0  0
  -25.8076  -30.8928   27.0285 H   0  0  0  0  0  0
  -26.2951  -29.6740   24.1238 H   0  0  0  0  0  0
  -27.4092  -29.7266   25.4703 H   0  0  0  0  0  0
  -27.8803  -30.4326   23.9440 H   0  0  0  0  0  0
  -27.2666  -33.3628   26.2075 H   0  0  0  0  0  0
  -28.3865  -32.6864   25.0339 H   0  0  0  0  0  0
  -28.0732  -31.8476   26.5451 H   0  0  0  0  0  0
  -28.2556  -38.0103   24.7503 H   0  0  0  0  0  0
  -28.1091  -36.2627   24.6291 H   0  0  0  0  0  0
  -27.2297  -37.1434   25.8874 H   0  0  0  0  0  0
  -20.9358  -29.8813   21.6904 H   0  0  0  0  0  0
  -26.0161  -38.2837   24.1437 H   0  0  0  0  0  0
  -31.5317  -19.6156   18.9538 H   0  0  0  0  0  0
  -31.5903  -17.2373   19.2960 H   0  0  0  0  0  0
  -28.1989  -19.9646   21.6715 H   0  0  0  0  0  0
  -29.9962  -24.0572   18.4225 H   0  0  0  0  0  0
  -31.1784  -24.4497   19.6757 H   0  0  0  0  0  0
  -27.8452  -22.2709   19.9760 H   0  0  0  0  0  0
  -28.4668  -22.2287   21.6199 H   0  0  0  0  0  0
  -29.6333  -24.2486   21.3989 H   0  0  0  0  0  0
  -27.5054  -18.1203   22.9343 H   0  0  0  0  0  0
  -28.4455  -16.6376   22.9648 H   0  0  0  0  0  0
  -27.1811  -16.8594   21.7471 H   0  0  0  0  0  0
  -27.2275  -24.8069   20.6850 H   0  0  0  0  0  0
  -27.7953  -24.8213   19.0319 H   0  0  0  0  0  0
  -28.9738  -15.3678   21.2615 H   0  0  0  0  0  0
  1 25  1  0  0  0
  1 30  2  0  0  0
  1 84  1  0  0  0
  2  3  1  0  0  0
  2 25  1  0  0  0
  2 86  1  0  0  0
  2 87  1  0  0  0
  3  4  1  0  0  0
  3 88  1  0  0  0
  3 89  1  0  0  0
  4  5  1  0  0  0
  4 90  1  0  0  0
  4 91  1  0  0  0
  5  6  1  0  0  0
  5 26  1  0  0  0
  5 92  1  0  0  0
  6 25  1  0  0  0
  6 93  1  0  0  0
  6 94  1  0  0  0
  7  8  2  0  0  0
  7 26  1  0  0  0
  7 29  1  0  0  0
  8  9  1  0  0  0
  8 22  1  0  0  0
  9 10  1  0  0  0
  9 27  2  0  0  0
 10 11  2  0  0  0
 10 15  1  0  0  0
 11 12  1  0  0  0
 11 95  1  0  0  0
 12 13  2  0  0  0
 12 96  1  0  0  0
 13 14  1  0  0  0
 13 31  1  0  0  0
 14 15  2  0  0  0
 14 97  1  0  0  0
 15 98  1  0  0  0
 16 17  2  0  0  0
 16 21  1  0  0  0
 16 31  1  0  0  0
 17 18  1  0  0  0
 17 99  1  0  0  0
 18 19  2  0  0  0
 18100  1  0  0  0
 19 20  1  0  0  0
 19 24  1  0  0  0
 20 21  2  0  0  0
 20101  1  0  0  0
 21 23  1  0  0  0
 22 28  1  0  0  0
 22 32  2  0  0  0
 26 27  1  0  0  0
 28102  1  0  0  0
 28103  1  0  0  0
 29104  1  0  0  0
 29105  1  0  0  0
 33 34  1  0  0  0
 33 66  1  0  0  0
 33 70  2  0  0  0
 34 36  1  0  0  0
 34 59  1  0  0  0
 34106  1  0  0  0
 35 44  2  0  0  0
 35 45  1  0  0  0
 35 68  1  0  0  0
 36 56  1  0  0  0
 36107  1  0  0  0
 37 39  1  0  0  0
 37 47  1  0  0  0
 37 66  1  0  0  0
 37108  1  0  0  0
 38 43  2  0  0  0
 38 46  1  0  0  0
 38 47  1  0  0  0
 39 64  1  0  0  0
 39 67  2  0  0  0
 40 52  1  0  0  0
 40 53  2  0  0  0
 40 58  1  0  0  0
 41109  1  0  0  0
 41110  1  0  0  0
 41111  1  0  0  0
 41 48  1  0  0  0
 42 43  1  0  0  0
 42 66  1  0  0  0
 42112  1  0  0  0
 42113  1  0  0  0
 43 44  1  0  0  0
 44114  1  0  0  0
 45 46  2  0  0  0
 45115  1  0  0  0
 46116  1  0  0  0
 47117  1  0  0  0
 47118  1  0  0  0
 48 56  1  0  0  0
 48 65  1  0  0  0
 48119  1  0  0  0
 49 50  1  0  0  0
 49 53  1  0  0  0
 49 64  1  0  0  0
 49120  1  0  0  0
 50 51  1  0  0  0
 50121  1  0  0  0
 50122  1  0  0  0
 51 52  1  0  0  0
 51123  1  0  0  0
 51124  1  0  0  0
 52125  1  0  0  0
 52126  1  0  0  0
 53 54  1  0  0  0
 54 55  2  0  0  0
 54127  1  0  0  0
 55 57  1  0  0  0
 55128  1  0  0  0
 56 69  2  0  0  0
 57 58  2  0  0  0
 57129  1  0  0  0
 58130  1  0  0  0
 59 60  1  0  0  0
 59 61  1  0  0  0
 59 62  1  0  0  0
 60131  1  0  0  0
 60132  1  0  0  0
 60133  1  0  0  0
 61134  1  0  0  0
 61135  1  0  0  0
 61136  1  0  0  0
 62137  1  0  0  0
 62138  1  0  0  0
 62139  1  0  0  0
 63 65  1  0  0  0
 63140  1  0  0  0
 63141  1  0  0  0
 63142  1  0  0  0
 64143  1  0  0  0
 65144  1  0  0  0
 68 82  1  0  0  0
 71 72  2  0  0  0
 71 75  1  0  0  0
 71145  1  0  0  0
 72 76  1  0  0  0
 72146  1  0  0  0
 73 74  1  0  0  0
 73 75  2  0  0  0
 73147  1  0  0  0
 74 76  2  0  0  0
 74 81  1  0  0  0
 75 83  1  0  0  0
 76 84  1  0  0  0
 77 78  1  0  0  0
 77 83  1  0  0  0
 77 85  2  0  0  0
 78 80  1  0  0  0
 78148  1  0  0  0
 78149  1  0  0  0
 79 80  1  0  0  0
 79 83  1  0  0  0
 79150  1  0  0  0
 79151  1  0  0  0
 80 82  1  0  0  0
 80152  1  0  0  0
 81153  1  0  0  0
 81154  1  0  0  0
 81155  1  0  0  0
 82156  1  0  0  0
 82157  1  0  0  0
 84158  1  0  0  0
M  ISO  4   1 100  68 101  82 101  84 100
M  END
> <chiral flag>
0

> <version>
0

> <s_m_source_file>
/data/baiqing/PycharmProjects/Reinvent-master-3.2/result/LINK_invent/BTK/process_docking_weight1_custom_product_contain_oxygen_bond_distance_aromatic_linkinvent_7_9_3/rearranged_h_0066.sdf

> <i_m_source_file_index>
33

> <r_mmod_Potential_Energy-OPLS-2005>
91.8441772460938

> <r_mmod_Stretch_Energy-OPLS-2005>
81.2082214355469

> <r_mmod_Bend_Energy-OPLS-2005>
162.249145507812

> <r_mmod_Torsional_Energy-OPLS-2005>
260.222961425781

> <r_mmod_Improper_Torsional_Energy-OPLS-2005>
3.88173055648804

> <r_mmod_Van_der_Waal_Energy-OPLS-2005>
151.824859619141

> <r_mmod_Electrostatic_Energy-OPLS-2005>
-391.161529541016

> <r_mmod_Solvation_Energy-OPLS-2005>
-222.845413208008

> <b_mmod_Minimization_Converged-OPLS-2005>
0

> <r_mmod_RMS_Derivative-OPLS-2005>
2.02838850021362

$$$$
33
                    3D
 Structure written by MMmdl.
154162  0  0  1  0            999 V2000
  -30.5121  -14.9245   20.4110 C   0  0  0  0  0  0
  -30.4535  -12.5665   19.4802 C   0  0  0  0  0  0
  -29.5212  -12.5218   18.2464 C   0  0  0  0  0  0
  -28.0538  -12.3138   18.6682 C   0  0  0  0  0  0
  -27.6365  -13.2352   19.8438 C   0  0  2  0  0  0
  -28.6861  -13.2286   20.9752 C   0  0  0  0  0  0
  -25.2509  -13.8184   20.5754 C   0  0  0  0  0  0
  -24.1804  -13.0424   20.9221 C   0  0  0  0  0  0
  -24.6404  -11.6909   20.8755 C   0  0  0  0  0  0
  -23.9079  -10.4290   21.0418 C   0  0  0  0  0  0
  -24.3638   -9.4193   21.9178 C   0  0  0  0  0  0
  -23.6310   -8.2233   22.0756 C   0  0  0  0  0  0
  -22.4287   -8.0293   21.3552 C   0  0  0  0  0  0
  -21.9925   -9.0265   20.4656 C   0  0  0  0  0  0
  -22.7256  -10.2130   20.3067 C   0  0  0  0  0  0
  -21.6849   -6.0738   22.5291 C   0  0  0  0  0  0
  -21.4011   -6.5642   23.8220 C   0  0  0  0  0  0
  -21.3664   -5.6801   24.9191 C   0  0  0  0  0  0
  -21.6048   -4.3061   24.7236 C   0  0  0  0  0  0
  -21.8820   -3.8163   23.4346 C   0  0  0  0  0  0
  -21.9193   -4.6974   22.3400 C   0  0  0  0  0  0
  -22.7826  -13.5198   21.1881 C   0  0  0  0  0  0
  -22.1664   -4.2156   21.0975 F   0  0  0  0  0  0
  -21.5634   -3.4551   25.7752 F   0  0  0  0  0  0
  -29.9644  -13.6453   20.3802 N   0  0  0  0  0  0
  -26.2933  -12.9401   20.3289 N   0  0  0  0  0  0
  -25.9333  -11.6538   20.5754 N   0  0  0  0  0  0
  -22.0482  -12.8195   22.0443 N   0  0  0  0  0  0
  -25.4184  -15.1917   20.4278 N   0  0  0  0  0  0
  -31.7142  -15.0519   20.1603 O   0  0  0  0  0  0
  -21.6651   -6.8883   21.4256 O   0  0  0  0  0  0
  -22.3503  -14.5501   20.6739 O   0  0  0  0  0  0
  -24.6436  -31.8452   23.1878 C   0  0  0  0  0  0
  -25.9221  -32.4704   23.8280 C   0  0  1  0  0  0
  -27.2317  -27.1436   20.1660 C   0  0  0  0  0  0
  -25.5984  -33.8513   24.2215 N   0  0  0  0  0  0
  -23.4490  -30.4615   21.5322 C   0  0  2  0  0  0
  -24.9036  -28.8838   20.1183 C   0  0  0  0  0  0
  -22.7570  -29.4561   22.4863 C   0  0  0  0  0  0
  -18.0312  -28.1396   22.8490 C   0  0  0  0  0  0
  -24.1491  -36.7242   23.2643 C   0  0  0  0  0  0
  -26.0031  -30.7219   21.3878 C   0  0  0  0  0  0
  -26.0801  -29.3303   20.7335 C   0  0  0  0  0  0
  -27.2464  -28.4767   20.7391 C   0  0  0  0  0  0
  -26.0328  -26.7975   19.5071 C   0  0  0  0  0  0
  -24.8916  -27.6297   19.4898 C   0  0  0  0  0  0
  -23.6782  -29.7835   20.1552 C   0  0  0  0  0  0
  -25.4128  -36.3037   24.0323 C   0  0  1  0  0  0
  -20.5912  -28.3741   23.1238 C   0  0  2  0  0  0
  -20.6786  -26.9441   22.5431 C   0  0  0  0  0  0
  -19.5775  -26.6385   21.5227 C   0  0  0  0  0  0
  -18.1942  -26.7946   22.1618 C   0  0  0  0  0  0
  -19.1566  -28.8888   23.2851 C   0  0  0  0  0  0
  -18.9482  -30.1476   23.8888 C   0  0  0  0  0  0
  -17.6481  -30.6591   24.0567 C   0  0  0  0  0  0
  -25.9087  -34.9411   23.5065 C   0  0  0  0  0  0
  -16.5374  -29.9084   23.6332 C   0  0  0  0  0  0
  -16.7297  -28.6492   23.0375 C   0  0  0  0  0  0
  -26.4549  -31.6548   25.0706 C   0  0  0  0  0  0
  -25.3761  -31.3791   26.1446 C   0  0  0  0  0  0
  -27.0358  -30.2909   24.6305 C   0  0  0  0  0  0
  -27.6129  -32.4278   25.7445 C   0  0  0  0  0  0
  -27.5592  -37.1774   24.8459 C   0  0  0  0  0  0
  -21.4263  -29.3060   22.3608 N   0  0  0  0  0  0
  -26.4291  -37.3752   23.9422 N   0  0  0  0  0  0
  -24.7167  -31.0318   22.0906 N   0  0  0  0  0  0
  -23.4190  -28.8138   23.3056 O   0  0  0  0  0  0
  -28.2871  -26.1639   20.1945 O   0  0  0  0  0  0
  -26.5662  -34.8900   22.4635 O   0  0  0  0  0  0
  -23.5556  -32.1343   23.7090 O   0  0  0  0  0  0
  -28.3529  -18.1721   19.9474 C   0  0  0  0  0  0
  -28.0965  -19.5965   19.9369 C   0  0  0  0  0  0
  -30.5067  -18.5509   20.8167 C   0  0  0  0  0  0
  -30.2442  -20.0000   20.8300 C   0  0  0  0  0  0
  -29.5608  -17.5465   20.3967 C   0  0  0  0  0  0
  -29.0089  -20.6105   20.3753 C   0  0  0  0  0  0
  -28.9388  -23.3984   20.2619 C   0  0  0  0  0  0
  -31.3063  -20.8851   21.4515 C   0  0  0  0  0  0
  -28.0378  -24.8243   22.1984 C   0  0  0  0  0  0
  -28.0003  -24.7083   20.6662 C   0  0  1  0  0  0
  -28.5106  -22.0636   20.4953 N   0  0  0  0  0  0
  -29.6107  -16.0163   20.4972 N   0  0  0  0  0  0
  -30.0421  -23.6199   19.7560 O   0  0  0  0  0  0
  -31.4837  -12.7429   19.1659 H   0  0  0  0  0  0
  -30.4566  -11.6079   20.0017 H   0  0  0  0  0  0
  -29.8274  -11.7265   17.5673 H   0  0  0  0  0  0
  -29.6111  -13.4532   17.6872 H   0  0  0  0  0  0
  -27.9420  -11.2706   18.9653 H   0  0  0  0  0  0
  -27.3881  -12.4600   17.8167 H   0  0  0  0  0  0
  -27.6035  -14.2426   19.4291 H   0  0  0  0  0  0
  -28.7680  -12.2399   21.4291 H   0  0  0  0  0  0
  -28.3981  -13.9095   21.7784 H   0  0  0  0  0  0
  -25.2782   -9.5670   22.4744 H   0  0  0  0  0  0
  -24.0035   -7.4619   22.7475 H   0  0  0  0  0  0
  -21.0849   -8.8791   19.8959 H   0  0  0  0  0  0
  -22.3719  -10.9690   19.6198 H   0  0  0  0  0  0
  -21.1994   -7.6145   23.9724 H   0  0  0  0  0  0
  -21.1485   -6.0534   25.9088 H   0  0  0  0  0  0
  -22.0584   -2.7633   23.2862 H   0  0  0  0  0  0
  -22.4118  -11.9862   22.4840 H   0  0  0  0  0  0
  -21.1103  -13.1229   22.2676 H   0  0  0  0  0  0
  -24.6542  -15.8433   20.5695 H   0  0  0  0  0  0
  -26.2692  -15.6464   20.1320 H   0  0  0  0  0  0
  -26.7298  -32.5316   23.1022 H   0  0  0  0  0  0
  -25.0162  -33.9637   25.0389 H   0  0  0  0  0  0
  -22.7525  -31.2862   21.3701 H   0  0  0  0  0  0
  -23.3793  -35.9524   23.3241 H   0  0  0  0  0  0
  -24.3588  -36.8946   22.2069 H   0  0  0  0  0  0
  -23.7190  -37.6393   23.6726 H   0  0  0  0  0  0
  -26.1623  -31.4770   20.6167 H   0  0  0  0  0  0
  -26.8726  -30.7726   22.0330 H   0  0  0  0  0  0
  -28.1428  -28.8181   21.2362 H   0  0  0  0  0  0
  -25.9592  -25.8403   19.0121 H   0  0  0  0  0  0
  -23.9958  -27.2810   18.9949 H   0  0  0  0  0  0
  -23.8183  -30.5536   19.3935 H   0  0  0  0  0  0
  -22.7957  -29.2212   19.8427 H   0  0  0  0  0  0
  -25.1308  -36.1862   25.0815 H   0  0  0  0  0  0
  -21.0014  -28.3352   24.1358 H   0  0  0  0  0  0
  -20.5674  -26.2371   23.3664 H   0  0  0  0  0  0
  -21.6654  -26.7435   22.1254 H   0  0  0  0  0  0
  -19.6939  -25.6291   21.1279 H   0  0  0  0  0  0
  -19.6703  -27.3176   20.6737 H   0  0  0  0  0  0
  -17.4232  -26.6747   21.3984 H   0  0  0  0  0  0
  -18.0292  -26.0059   22.8973 H   0  0  0  0  0  0
  -19.7950  -30.7297   24.2254 H   0  0  0  0  0  0
  -17.5023  -31.6267   24.5189 H   0  0  0  0  0  0
  -15.5368  -30.2989   23.7650 H   0  0  0  0  0  0
  -15.8698  -28.0793   22.7124 H   0  0  0  0  0  0
  -24.5849  -30.7243   25.7781 H   0  0  0  0  0  0
  -24.9077  -32.3006   26.4914 H   0  0  0  0  0  0
  -25.8051  -30.8898   27.0205 H   0  0  0  0  0  0
  -26.2930  -29.6651   24.1342 H   0  0  0  0  0  0
  -27.3956  -29.7219   25.4896 H   0  0  0  0  0  0
  -27.8874  -30.4102   23.9602 H   0  0  0  0  0  0
  -27.2799  -33.3639   26.1958 H   0  0  0  0  0  0
  -28.3956  -32.6751   25.0245 H   0  0  0  0  0  0
  -28.0783  -31.8428   26.5405 H   0  0  0  0  0  0
  -28.2609  -38.0077   24.7525 H   0  0  0  0  0  0
  -28.1091  -36.2616   24.6235 H   0  0  0  0  0  0
  -27.2332  -37.1360   25.8868 H   0  0  0  0  0  0
  -20.9504  -29.8733   21.6739 H   0  0  0  0  0  0
  -26.0160  -38.2811   24.1451 H   0  0  0  0  0  0
  -27.5469  -17.5338   19.6145 H   0  0  0  0  0  0
  -27.1157  -19.9087   19.6016 H   0  0  0  0  0  0
  -31.4513  -18.1994   21.2116 H   0  0  0  0  0  0
  -32.2739  -20.3858   21.4895 H   0  0  0  0  0  0
  -31.0237  -21.1490   22.4703 H   0  0  0  0  0  0
  -31.4396  -21.8029   20.8860 H   0  0  0  0  0  0
  -27.8430  -23.8688   22.6848 H   0  0  0  0  0  0
  -27.3011  -25.5372   22.5652 H   0  0  0  0  0  0
  -29.0199  -25.1641   22.5316 H   0  0  0  0  0  0
  -26.9892  -24.4311   20.3736 H   0  0  0  0  0  0
  -27.5413  -22.0901   20.7833 H   0  0  0  0  0  0
  -28.6837  -15.6278   20.5541 H   0  0  0  0  0  0
  1 25  1  0  0  0
  1 30  2  0  0  0
  1 82  1  0  0  0
  2  3  1  0  0  0
  2 25  1  0  0  0
  2 84  1  0  0  0
  2 85  1  0  0  0
  3  4  1  0  0  0
  3 86  1  0  0  0
  3 87  1  0  0  0
  4  5  1  0  0  0
  4 88  1  0  0  0
  4 89  1  0  0  0
  5  6  1  0  0  0
  5 26  1  0  0  0
  5 90  1  0  0  0
  6 25  1  0  0  0
  6 91  1  0  0  0
  6 92  1  0  0  0
  7  8  2  0  0  0
  7 26  1  0  0  0
  7 29  1  0  0  0
  8  9  1  0  0  0
  8 22  1  0  0  0
  9 10  1  0  0  0
  9 27  2  0  0  0
 10 11  2  0  0  0
 10 15  1  0  0  0
 11 12  1  0  0  0
 11 93  1  0  0  0
 12 13  2  0  0  0
 12 94  1  0  0  0
 13 14  1  0  0  0
 13 31  1  0  0  0
 14 15  2  0  0  0
 14 95  1  0  0  0
 15 96  1  0  0  0
 16 17  2  0  0  0
 16 21  1  0  0  0
 16 31  1  0  0  0
 17 18  1  0  0  0
 17 97  1  0  0  0
 18 19  2  0  0  0
 18 98  1  0  0  0
 19 20  1  0  0  0
 19 24  1  0  0  0
 20 21  2  0  0  0
 20 99  1  0  0  0
 21 23  1  0  0  0
 22 28  1  0  0  0
 22 32  2  0  0  0
 26 27  1  0  0  0
 28100  1  0  0  0
 28101  1  0  0  0
 29102  1  0  0  0
 29103  1  0  0  0
 33 34  1  0  0  0
 33 66  1  0  0  0
 33 70  2  0  0  0
 34 36  1  0  0  0
 34 59  1  0  0  0
 34104  1  0  0  0
 35 44  2  0  0  0
 35 45  1  0  0  0
 35 68  1  0  0  0
 36 56  1  0  0  0
 36105  1  0  0  0
 37 39  1  0  0  0
 37 47  1  0  0  0
 37 66  1  0  0  0
 37106  1  0  0  0
 38 43  2  0  0  0
 38 46  1  0  0  0
 38 47  1  0  0  0
 39 64  1  0  0  0
 39 67  2  0  0  0
 40 52  1  0  0  0
 40 53  2  0  0  0
 40 58  1  0  0  0
 41107  1  0  0  0
 41108  1  0  0  0
 41109  1  0  0  0
 41 48  1  0  0  0
 42 43  1  0  0  0
 42 66  1  0  0  0
 42110  1  0  0  0
 42111  1  0  0  0
 43 44  1  0  0  0
 44112  1  0  0  0
 45 46  2  0  0  0
 45113  1  0  0  0
 46114  1  0  0  0
 47115  1  0  0  0
 47116  1  0  0  0
 48 56  1  0  0  0
 48 65  1  0  0  0
 48117  1  0  0  0
 49 50  1  0  0  0
 49 53  1  0  0  0
 49 64  1  0  0  0
 49118  1  0  0  0
 50 51  1  0  0  0
 50119  1  0  0  0
 50120  1  0  0  0
 51 52  1  0  0  0
 51121  1  0  0  0
 51122  1  0  0  0
 52123  1  0  0  0
 52124  1  0  0  0
 53 54  1  0  0  0
 54 55  2  0  0  0
 54125  1  0  0  0
 55 57  1  0  0  0
 55126  1  0  0  0
 56 69  2  0  0  0
 57 58  2  0  0  0
 57127  1  0  0  0
 58128  1  0  0  0
 59 60  1  0  0  0
 59 61  1  0  0  0
 59 62  1  0  0  0
 60129  1  0  0  0
 60130  1  0  0  0
 60131  1  0  0  0
 61132  1  0  0  0
 61133  1  0  0  0
 61134  1  0  0  0
 62135  1  0  0  0
 62136  1  0  0  0
 62137  1  0  0  0
 63 65  1  0  0  0
 63138  1  0  0  0
 63139  1  0  0  0
 63140  1  0  0  0
 64141  1  0  0  0
 65142  1  0  0  0
 68 80  1  0  0  0
 71 72  2  0  0  0
 71 75  1  0  0  0
 71143  1  0  0  0
 72 76  1  0  0  0
 72144  1  0  0  0
 73 74  1  0  0  0
 73 75  2  0  0  0
 73145  1  0  0  0
 74 76  2  0  0  0
 74 78  1  0  0  0
 75 82  1  0  0  0
 76 81  1  0  0  0
 77 80  1  0  0  0
 77 81  1  0  0  0
 77 83  2  0  0  0
 78146  1  0  0  0
 78147  1  0  0  0
 78148  1  0  0  0
 79149  1  0  0  0
 79150  1  0  0  0
 79151  1  0  0  0
 79 80  1  0  0  0
 80152  1  0  0  0
 81153  1  0  0  0
 82154  1  0  0  0
M  ISO  4   1 100  68 101  80 101  82 100
M  END
> <chiral flag>
0

> <version>
0

> <s_m_source_file>
/data/baiqing/PycharmProjects/Reinvent-master-3.2/result/LINK_invent/BTK/process_docking_weight1_custom_product_contain_oxygen_bond_distance_aromatic_linkinvent_7_9_3/rearranged_h_0066.sdf

> <i_m_source_file_index>
34

> <r_mmod_Potential_Energy-OPLS-2005>
433.936798095703

> <r_mmod_Stretch_Energy-OPLS-2005>
224.924453735352

> <r_mmod_Bend_Energy-OPLS-2005>
273.810089111328

> <r_mmod_Torsional_Energy-OPLS-2005>
263.374572753906

> <r_mmod_Improper_Torsional_Energy-OPLS-2005>
7.22907543182373

> <r_mmod_Van_der_Waal_Energy-OPLS-2005>
123.732200622559

> <r_mmod_Electrostatic_Energy-OPLS-2005>
-397.115447998047

> <r_mmod_Solvation_Energy-OPLS-2005>
-244.145355224609

> <b_mmod_Minimization_Converged-OPLS-2005>
0

> <r_mmod_RMS_Derivative-OPLS-2005>
3.66035723686218

$$$$
34
                    3D
 Structure written by MMmdl.
158166  0  0  1  0            999 V2000
  -30.5922  -14.6407   20.5330 C   0  0  0  0  0  0
  -30.4463  -12.4012   19.4436 C   0  0  0  0  0  0
  -29.5092  -12.5199   18.2202 C   0  0  0  0  0  0
  -28.0283  -12.3613   18.6274 C   0  0  0  0  0  0
  -27.6541  -13.2126   19.8686 C   0  0  2  0  0  0
  -28.6968  -13.0326   20.9944 C   0  0  0  0  0  0
  -25.2570  -13.8157   20.5722 C   0  0  0  0  0  0
  -24.1831  -13.0418   20.9198 C   0  0  0  0  0  0
  -24.6388  -11.6891   20.8727 C   0  0  0  0  0  0
  -23.9051  -10.4278   21.0388 C   0  0  0  0  0  0
  -24.3591   -9.4200   21.9179 C   0  0  0  0  0  0
  -23.6266   -8.2237   22.0749 C   0  0  0  0  0  0
  -22.4254   -8.0265   21.3538 C   0  0  0  0  0  0
  -21.9884   -9.0245   20.4649 C   0  0  0  0  0  0
  -22.7212  -10.2127   20.3046 C   0  0  0  0  0  0
  -21.6859   -6.0724   22.5283 C   0  0  0  0  0  0
  -21.4012   -6.5623   23.8215 C   0  0  0  0  0  0
  -21.3659   -5.6768   24.9172 C   0  0  0  0  0  0
  -21.6051   -4.3043   24.7220 C   0  0  0  0  0  0
  -21.8818   -3.8133   23.4340 C   0  0  0  0  0  0
  -21.9197   -4.6945   22.3401 C   0  0  0  0  0  0
  -22.7853  -13.5233   21.1848 C   0  0  0  0  0  0
  -22.1669   -4.2138   21.0987 F   0  0  0  0  0  0
  -21.5623   -3.4531   25.7731 F   0  0  0  0  0  0
  -30.0131  -13.4005   20.4422 N   0  0  0  0  0  0
  -26.2988  -12.9328   20.3326 N   0  0  0  0  0  0
  -25.9310  -11.6487   20.5703 N   0  0  0  0  0  0
  -22.0483  -12.8239   22.0390 N   0  0  0  0  0  0
  -25.4275  -15.1871   20.4165 N   0  0  0  0  0  0
  -31.7310  -14.8577   20.1052 O   0  0  0  0  0  0
  -21.6635   -6.8858   21.4236 O   0  0  0  0  0  0
  -22.3558  -14.5555   20.6683 O   0  0  0  0  0  0
  -24.6261  -31.8617   23.2030 C   0  0  0  0  0  0
  -25.9111  -32.4786   23.8364 C   0  0  1  0  0  0
  -27.2194  -27.3169   20.1285 C   0  0  0  0  0  0
  -25.5935  -33.8578   24.2310 N   0  0  0  0  0  0
  -23.4190  -30.4874   21.5474 C   0  0  2  0  0  0
  -24.8649  -28.9424   20.1102 C   0  0  0  0  0  0
  -22.7485  -29.4638   22.4952 C   0  0  0  0  0  0
  -18.0304  -28.1388   22.8534 C   0  0  0  0  0  0
  -24.1472  -36.7268   23.2630 C   0  0  0  0  0  0
  -25.9592  -30.7964   21.3687 C   0  0  0  0  0  0
  -26.0331  -29.4218   20.7153 C   0  0  0  0  0  0
  -27.2137  -28.6211   20.7133 C   0  0  0  0  0  0
  -26.0336  -26.8932   19.4890 C   0  0  0  0  0  0
  -24.8686  -27.6850   19.4846 C   0  0  0  0  0  0
  -23.6311  -29.8232   20.1613 C   0  0  0  0  0  0
  -25.4086  -36.3083   24.0347 C   0  0  1  0  0  0
  -20.5918  -28.3682   23.1317 C   0  0  2  0  0  0
  -20.6777  -26.9403   22.5438 C   0  0  0  0  0  0
  -19.5732  -26.6408   21.5244 C   0  0  0  0  0  0
  -18.1920  -26.7942   22.1654 C   0  0  0  0  0  0
  -19.1563  -28.8852   23.2924 C   0  0  0  0  0  0
  -18.9458  -30.1468   23.8924 C   0  0  0  0  0  0
  -17.6446  -30.6581   24.0587 C   0  0  0  0  0  0
  -25.9047  -34.9456   23.5127 C   0  0  0  0  0  0
  -16.5343  -29.9075   23.6343 C   0  0  0  0  0  0
  -16.7291  -28.6493   23.0369 C   0  0  0  0  0  0
  -26.4488  -31.6584   25.0722 C   0  0  0  0  0  0
  -25.3727  -31.3690   26.1459 C   0  0  0  0  0  0
  -27.0315  -30.3034   24.6100 C   0  0  0  0  0  0
  -27.6085  -32.4288   25.7466 C   0  0  0  0  0  0
  -27.5594  -37.1750   24.8433 C   0  0  0  0  0  0
  -21.4201  -29.3023   22.3687 N   0  0  0  0  0  0
  -26.4252  -37.3810   23.9473 N   0  0  0  0  0  0
  -24.6879  -31.0646   22.0964 N   0  0  0  0  0  0
  -23.4208  -28.8165   23.3024 O   0  0  0  0  0  0
  -28.3352  -26.4702   20.2084 O   0  0  0  0  0  0
  -26.5631  -34.8918   22.4699 O   0  0  0  0  0  0
  -23.5435  -32.1394   23.7372 O   0  0  0  0  0  0
  -28.6311  -19.1267   21.8998 C   0  0  0  0  0  0
  -28.7721  -17.7133   21.8293 C   0  0  0  0  0  0
  -30.5468  -17.9593   20.2276 C   0  0  0  0  0  0
  -29.4327  -20.0135   21.1350 C   0  0  0  0  0  0
  -29.7412  -17.0810   21.0099 C   0  0  0  0  0  0
  -30.3939  -19.3888   20.2828 C   0  0  0  0  0  0
  -29.3180  -21.5098   21.3946 C   0  0  0  0  0  0
  -30.6512  -24.4482   20.2292 C   0  0  0  0  0  0
  -31.2250  -25.7645   20.7331 C   0  0  0  0  0  0
  -28.1582  -25.0011   20.0642 C   0  0  0  0  0  0
  -29.2507  -24.0389   20.7189 C   0  0  1  0  0  0
  -29.4025  -21.8838   22.6755 N   0  0  0  0  0  0
  -29.7647  -15.6161   21.0196 N   0  0  0  0  0  0
  -29.1054  -22.5279   20.4936 N   0  3  0  0  0  0
  -31.3151  -23.7567   19.4524 O   0  0  0  0  0  0
  -31.2240  -20.1606   19.5389 F   0  0  0  0  0  0
  -31.4831  -12.5503   19.1351 H   0  0  0  0  0  0
  -30.3979  -11.3974   19.8653 H   0  0  0  0  0  0
  -29.7722  -11.7762   17.4656 H   0  0  0  0  0  0
  -29.6548  -13.4919   17.7454 H   0  0  0  0  0  0
  -27.8458  -11.3056   18.8344 H   0  0  0  0  0  0
  -27.3818  -12.6228   17.7889 H   0  0  0  0  0  0
  -27.6818  -14.2536   19.5476 H   0  0  0  0  0  0
  -28.7085  -11.9977   21.3391 H   0  0  0  0  0  0
  -28.4291  -13.6250   21.8703 H   0  0  0  0  0  0
  -25.2723   -9.5707   22.4759 H   0  0  0  0  0  0
  -23.9997   -7.4636   22.7469 H   0  0  0  0  0  0
  -21.0816   -8.8740   19.8963 H   0  0  0  0  0  0
  -22.3642  -10.9642   19.6155 H   0  0  0  0  0  0
  -21.2006   -7.6123   23.9699 H   0  0  0  0  0  0
  -21.1485   -6.0512   25.9080 H   0  0  0  0  0  0
  -22.0601   -2.7589   23.2844 H   0  0  0  0  0  0
  -22.4050  -11.9872   22.4761 H   0  0  0  0  0  0
  -21.1104  -13.1282   22.2596 H   0  0  0  0  0  0
  -24.6501  -15.8309   20.5123 H   0  0  0  0  0  0
  -26.2581  -15.6233   20.0356 H   0  0  0  0  0  0
  -26.7172  -32.5473   23.1109 H   0  0  0  0  0  0
  -25.0097  -33.9728   25.0464 H   0  0  0  0  0  0
  -22.7115  -31.3088   21.4117 H   0  0  0  0  0  0
  -23.3786  -35.9542   23.3192 H   0  0  0  0  0  0
  -24.3612  -36.8979   22.2069 H   0  0  0  0  0  0
  -23.7121  -37.6398   23.6698 H   0  0  0  0  0  0
  -26.0877  -31.5541   20.5943 H   0  0  0  0  0  0
  -26.8416  -30.8542   21.9938 H   0  0  0  0  0  0
  -28.1079  -28.9835   21.2008 H   0  0  0  0  0  0
  -25.9824  -25.9313   18.9989 H   0  0  0  0  0  0
  -23.9749  -27.3161   19.0017 H   0  0  0  0  0  0
  -23.7446  -30.5993   19.4035 H   0  0  0  0  0  0
  -22.7478  -29.2522   19.8670 H   0  0  0  0  0  0
  -25.1233  -36.1939   25.0836 H   0  0  0  0  0  0
  -21.0062  -28.3235   24.1414 H   0  0  0  0  0  0
  -20.5736  -26.2247   23.3612 H   0  0  0  0  0  0
  -21.6637  -26.7444   22.1200 H   0  0  0  0  0  0
  -19.6862  -25.6335   21.1227 H   0  0  0  0  0  0
  -19.6652  -27.3248   20.6796 H   0  0  0  0  0  0
  -17.4210  -26.6788   21.4023 H   0  0  0  0  0  0
  -18.0247  -26.0061   22.9018 H   0  0  0  0  0  0
  -19.7915  -30.7335   24.2268 H   0  0  0  0  0  0
  -17.4973  -31.6264   24.5180 H   0  0  0  0  0  0
  -15.5336  -30.2966   23.7646 H   0  0  0  0  0  0
  -15.8699  -28.0816   22.7055 H   0  0  0  0  0  0
  -24.5927  -30.7010   25.7780 H   0  0  0  0  0  0
  -24.8875  -32.2833   26.4892 H   0  0  0  0  0  0
  -25.8083  -30.8876   27.0231 H   0  0  0  0  0  0
  -26.2854  -29.6804   24.1162 H   0  0  0  0  0  0
  -27.4098  -29.7270   25.4550 H   0  0  0  0  0  0
  -27.8682  -30.4361   23.9239 H   0  0  0  0  0  0
  -27.2771  -33.3621   26.2024 H   0  0  0  0  0  0
  -28.3891  -32.6798   25.0272 H   0  0  0  0  0  0
  -28.0749  -31.8415   26.5382 H   0  0  0  0  0  0
  -28.2491  -38.0177   24.7751 H   0  0  0  0  0  0
  -28.1233  -36.2750   24.5921 H   0  0  0  0  0  0
  -27.2396  -37.0980   25.8844 H   0  0  0  0  0  0
  -20.9351  -29.8718   21.6900 H   0  0  0  0  0  0
  -26.0120  -38.2855   24.1626 H   0  0  0  0  0  0
  -27.8945  -19.5333   22.5792 H   0  0  0  0  0  0
  -28.1174  -17.1105   22.4443 H   0  0  0  0  0  0
  -31.2982  -17.5463   19.5711 H   0  0  0  0  0  0
  -30.6255  -26.1685   21.5501 H   0  0  0  0  0  0
  -31.2393  -26.4943   19.9229 H   0  0  0  0  0  0
  -32.2444  -25.6165   21.0889 H   0  0  0  0  0  0
  -27.2084  -24.7319   20.5300 H   0  0  0  0  0  0
  -28.0554  -24.7622   19.0055 H   0  0  0  0  0  0
  -29.2068  -24.2255   21.7910 H   0  0  0  0  0  0
  -29.5650  -21.1871   23.3872 H   0  0  0  0  0  0
  -29.2564  -22.8354   22.9633 H   0  0  0  0  0  0
  -28.9326  -15.2052   21.4111 H   0  0  0  0  0  0
  -29.0847  -22.2346   19.5252 H   0  0  0  0  0  0
  1 25  1  0  0  0
  1 30  2  0  0  0
  1 83  1  0  0  0
  2  3  1  0  0  0
  2 25  1  0  0  0
  2 87  1  0  0  0
  2 88  1  0  0  0
  3  4  1  0  0  0
  3 89  1  0  0  0
  3 90  1  0  0  0
  4  5  1  0  0  0
  4 91  1  0  0  0
  4 92  1  0  0  0
  5  6  1  0  0  0
  5 26  1  0  0  0
  5 93  1  0  0  0
  6 25  1  0  0  0
  6 94  1  0  0  0
  6 95  1  0  0  0
  7  8  2  0  0  0
  7 26  1  0  0  0
  7 29  1  0  0  0
  8  9  1  0  0  0
  8 22  1  0  0  0
  9 10  1  0  0  0
  9 27  2  0  0  0
 10 11  2  0  0  0
 10 15  1  0  0  0
 11 12  1  0  0  0
 11 96  1  0  0  0
 12 13  2  0  0  0
 12 97  1  0  0  0
 13 14  1  0  0  0
 13 31  1  0  0  0
 14 15  2  0  0  0
 14 98  1  0  0  0
 15 99  1  0  0  0
 16 17  2  0  0  0
 16 21  1  0  0  0
 16 31  1  0  0  0
 17 18  1  0  0  0
 17100  1  0  0  0
 18 19  2  0  0  0
 18101  1  0  0  0
 19 20  1  0  0  0
 19 24  1  0  0  0
 20 21  2  0  0  0
 20102  1  0  0  0
 21 23  1  0  0  0
 22 28  1  0  0  0
 22 32  2  0  0  0
 26 27  1  0  0  0
 28103  1  0  0  0
 28104  1  0  0  0
 29105  1  0  0  0
 29106  1  0  0  0
 33 34  1  0  0  0
 33 66  1  0  0  0
 33 70  2  0  0  0
 34 36  1  0  0  0
 34 59  1  0  0  0
 34107  1  0  0  0
 35 44  2  0  0  0
 35 45  1  0  0  0
 35 68  1  0  0  0
 36 56  1  0  0  0
 36108  1  0  0  0
 37 39  1  0  0  0
 37 47  1  0  0  0
 37 66  1  0  0  0
 37109  1  0  0  0
 38 43  2  0  0  0
 38 46  1  0  0  0
 38 47  1  0  0  0
 39 64  1  0  0  0
 39 67  2  0  0  0
 40 52  1  0  0  0
 40 53  2  0  0  0
 40 58  1  0  0  0
 41110  1  0  0  0
 41111  1  0  0  0
 41112  1  0  0  0
 41 48  1  0  0  0
 42 43  1  0  0  0
 42 66  1  0  0  0
 42113  1  0  0  0
 42114  1  0  0  0
 43 44  1  0  0  0
 44115  1  0  0  0
 45 46  2  0  0  0
 45116  1  0  0  0
 46117  1  0  0  0
 47118  1  0  0  0
 47119  1  0  0  0
 48 56  1  0  0  0
 48 65  1  0  0  0
 48120  1  0  0  0
 49 50  1  0  0  0
 49 53  1  0  0  0
 49 64  1  0  0  0
 49121  1  0  0  0
 50 51  1  0  0  0
 50122  1  0  0  0
 50123  1  0  0  0
 51 52  1  0  0  0
 51124  1  0  0  0
 51125  1  0  0  0
 52126  1  0  0  0
 52127  1  0  0  0
 53 54  1  0  0  0
 54 55  2  0  0  0
 54128  1  0  0  0
 55 57  1  0  0  0
 55129  1  0  0  0
 56 69  2  0  0  0
 57 58  2  0  0  0
 57130  1  0  0  0
 58131  1  0  0  0
 59 60  1  0  0  0
 59 61  1  0  0  0
 59 62  1  0  0  0
 60132  1  0  0  0
 60133  1  0  0  0
 60134  1  0  0  0
 61135  1  0  0  0
 61136  1  0  0  0
 61137  1  0  0  0
 62138  1  0  0  0
 62139  1  0  0  0
 62140  1  0  0  0
 63 65  1  0  0  0
 63141  1  0  0  0
 63142  1  0  0  0
 63143  1  0  0  0
 64144  1  0  0  0
 65145  1  0  0  0
 68 80  1  0  0  0
 71 72  2  0  0  0
 71 74  1  0  0  0
 71146  1  0  0  0
 72 75  1  0  0  0
 72147  1  0  0  0
 73 75  2  0  0  0
 73 76  1  0  0  0
 73148  1  0  0  0
 74 76  2  0  0  0
 74 77  1  0  0  0
 75 83  1  0  0  0
 76 86  1  0  0  0
 77 82  1  0  0  0
 77 84  2  0  0  0
 78 79  1  0  0  0
 78 81  1  0  0  0
 78 85  2  0  0  0
 79149  1  0  0  0
 79150  1  0  0  0
 79151  1  0  0  0
 80152  1  0  0  0
 80153  1  0  0  0
 80 81  1  0  0  0
 81 84  1  0  0  0
 81154  1  0  0  0
 82155  1  0  0  0
 82156  1  0  0  0
 83157  1  0  0  0
 84158  1  0  0  0
M  CHG  1  84   1
M  ISO  4   1 100  68 101  80 101  83 100
M  END
> <chiral flag>
0

> <version>
0

> <s_m_source_file>
/data/baiqing/PycharmProjects/Reinvent-master-3.2/result/LINK_invent/BTK/process_docking_weight1_custom_product_contain_oxygen_bond_distance_aromatic_linkinvent_7_9_3/rearranged_h_0066.sdf

> <i_m_source_file_index>
35

> <r_mmod_Potential_Energy-OPLS-2005>
-237.953842163086

> <r_mmod_Stretch_Energy-OPLS-2005>
84.0987777709961

> <r_mmod_Bend_Energy-OPLS-2005>
149.771926879883

> <r_mmod_Torsional_Energy-OPLS-2005>
214.788452148438

> <r_mmod_Improper_Torsional_Energy-OPLS-2005>
4.69685077667236

> <r_mmod_Van_der_Waal_Energy-OPLS-2005>
146.259429931641

> <r_mmod_Electrostatic_Energy-OPLS-2005>
-438.207366943359

> <r_mmod_Solvation_Energy-OPLS-2005>
-449.919464111328

> <b_mmod_Minimization_Converged-OPLS-2005>
0

> <r_mmod_RMS_Derivative-OPLS-2005>
3.32712078094482

$$$$
35
                    3D
 Structure written by MMmdl.
166175  0  0  1  0            999 V2000
  -30.5409  -14.7999   20.4537 C   0  0  0  0  0  0
  -30.4456  -12.4769   19.5050 C   0  0  0  0  0  0
  -29.5304  -12.4902   18.2591 C   0  0  0  0  0  0
  -28.0590  -12.2697   18.6662 C   0  0  0  0  0  0
  -27.6406  -13.1683   19.8553 C   0  0  2  0  0  0
  -28.6765  -13.1519   21.0003 C   0  0  0  0  0  0
  -25.2632  -13.7913   20.5826 C   0  0  0  0  0  0
  -24.1789  -13.0284   20.9107 C   0  0  0  0  0  0
  -24.6332  -11.6753   20.8741 C   0  0  0  0  0  0
  -23.9028  -10.4190   21.0455 C   0  0  0  0  0  0
  -24.3624   -9.4112   21.9220 C   0  0  0  0  0  0
  -23.6276   -8.2182   22.0781 C   0  0  0  0  0  0
  -22.4252   -8.0270   21.3569 C   0  0  0  0  0  0
  -21.9891   -9.0233   20.4666 C   0  0  0  0  0  0
  -22.7245  -10.2074   20.3080 C   0  0  0  0  0  0
  -21.6808   -6.0738   22.5289 C   0  0  0  0  0  0
  -21.3975   -6.5626   23.8221 C   0  0  0  0  0  0
  -21.3638   -5.6776   24.9169 C   0  0  0  0  0  0
  -21.6052   -4.3046   24.7185 C   0  0  0  0  0  0
  -21.8807   -3.8139   23.4302 C   0  0  0  0  0  0
  -21.9164   -4.6983   22.3366 C   0  0  0  0  0  0
  -22.7871  -13.5221   21.1782 C   0  0  0  0  0  0
  -22.1654   -4.2206   21.0930 F   0  0  0  0  0  0
  -21.5637   -3.4509   25.7684 F   0  0  0  0  0  0
  -29.9757  -13.5391   20.4342 N   0  0  0  0  0  0
  -26.2938  -12.8988   20.3344 N   0  0  0  0  0  0
  -25.9240  -11.6214   20.5759 N   0  0  0  0  0  0
  -22.0446  -12.8285   22.0337 N   0  0  0  0  0  0
  -25.4727  -15.1612   20.4716 N   0  0  0  0  0  0
  -31.6893  -14.9511   20.0287 O   0  0  0  0  0  0
  -21.6591   -6.8903   21.4264 O   0  0  0  0  0  0
  -22.3667  -14.5594   20.6645 O   0  0  0  0  0  0
  -24.6308  -31.8544   23.1976 C   0  0  0  0  0  0
  -25.9132  -32.4748   23.8332 C   0  0  1  0  0  0
  -27.2253  -27.2544   20.1317 C   0  0  0  0  0  0
  -25.5913  -33.8553   24.2262 N   0  0  0  0  0  0
  -23.4292  -30.4742   21.5415 C   0  0  2  0  0  0
  -24.8766  -28.9211   20.1101 C   0  0  0  0  0  0
  -22.7503  -29.4587   22.4924 C   0  0  0  0  0  0
  -18.0284  -28.1391   22.8452 C   0  0  0  0  0  0
  -24.1481  -36.7282   23.2645 C   0  0  0  0  0  0
  -25.9751  -30.7630   21.3789 C   0  0  0  0  0  0
  -26.0484  -29.3839   20.7240 C   0  0  0  0  0  0
  -27.2219  -28.5623   20.7281 C   0  0  0  0  0  0
  -26.0345  -26.8733   19.4667 C   0  0  0  0  0  0
  -24.8755  -27.6734   19.4707 C   0  0  0  0  0  0
  -23.6453  -29.8056   20.1581 C   0  0  0  0  0  0
  -25.4099  -36.3067   24.0342 C   0  0  1  0  0  0
  -20.5879  -28.3697   23.1249 C   0  0  2  0  0  0
  -20.6769  -26.9416   22.5397 C   0  0  0  0  0  0
  -19.5747  -26.6367   21.5192 C   0  0  0  0  0  0
  -18.1926  -26.7932   22.1610 C   0  0  0  0  0  0
  -19.1544  -28.8863   23.2833 C   0  0  0  0  0  0
  -18.9485  -30.1459   23.8872 C   0  0  0  0  0  0
  -17.6486  -30.6601   24.0538 C   0  0  0  0  0  0
  -25.9042  -34.9437   23.5112 C   0  0  0  0  0  0
  -16.5368  -29.9090   23.6328 C   0  0  0  0  0  0
  -16.7265  -28.6497   23.0350 C   0  0  0  0  0  0
  -26.4481  -31.6584   25.0740 C   0  0  0  0  0  0
  -25.3711  -31.3738   26.1475 C   0  0  0  0  0  0
  -27.0343  -30.3005   24.6239 C   0  0  0  0  0  0
  -27.6047  -32.4318   25.7493 C   0  0  0  0  0  0
  -27.5569  -37.1795   24.8460 C   0  0  0  0  0  0
  -21.4214  -29.3023   22.3634 N   0  0  0  0  0  0
  -26.4262  -37.3773   23.9419 N   0  0  0  0  0  0
  -24.6971  -31.0495   22.0954 N   0  0  0  0  0  0
  -23.4194  -28.8125   23.3029 O   0  0  0  0  0  0
  -28.3188  -26.3510   20.2224 O   0  0  0  0  0  0
  -26.5624  -34.8909   22.4692 O   0  0  0  0  0  0
  -23.5448  -32.1370   23.7258 O   0  0  0  0  0  0
  -27.7562  -19.4552   19.4365 C   0  0  0  0  0  0
  -28.0800  -17.0520   19.5631 C   0  0  0  0  0  0
  -29.6831  -18.5379   20.6198 C   0  0  0  0  0  0
  -27.2921  -18.1579   19.1620 C   0  0  0  0  0  0
  -28.9248  -19.7161   20.1869 C   0  0  0  0  0  0
  -29.2788  -17.1596   20.3133 C   0  0  0  0  0  0
  -28.3091  -22.2121   20.5796 C   0  0  0  0  0  0
  -21.8294  -20.2205   17.2796 C   0  0  0  0  0  0
  -23.0292  -20.2058   17.8820 C   0  0  0  0  0  0
  -23.8903  -19.0175   17.9138 C   0  0  0  0  0  0
  -25.9361  -17.9994   18.5311 C   0  0  0  0  0  0
  -30.3334  -23.3000   20.0987 C   0  0  0  0  0  0
  -30.5379  -21.7685   20.3481 C   0  0  0  0  0  0
  -28.9356  -23.6545   20.6391 C   0  0  1  0  0  0
  -28.0999  -24.8790   19.9642 C   0  0  0  0  0  0
  -25.0982  -19.0688   18.3358 N   0  0  0  0  0  0
  -29.2078  -21.1691   20.4294 N   0  0  0  0  0  0
  -29.7783  -15.8763   20.9235 N   0  0  0  0  0  0
  -25.5364  -16.7969   18.2452 N   0  3  0  0  0  0
  -27.0866  -22.0659   20.7002 O   0  0  0  0  0  0
  -31.4892  -12.6176   19.2117 H   0  0  0  0  0  0
  -30.4068  -11.5016   19.9951 H   0  0  0  0  0  0
  -29.8412  -11.7169   17.5566 H   0  0  0  0  0  0
  -29.6345  -13.4404   17.7318 H   0  0  0  0  0  0
  -27.9472  -11.2198   18.9414 H   0  0  0  0  0  0
  -27.4066  -12.4353   17.8109 H   0  0  0  0  0  0
  -27.6124  -14.1526   19.4237 H   0  0  0  0  0  0
  -28.7297  -12.1546   21.4411 H   0  0  0  0  0  0
  -28.3736  -13.8199   21.8078 H   0  0  0  0  0  0
  -25.2786   -9.5549   22.4778 H   0  0  0  0  0  0
  -23.9953   -7.4531   22.7469 H   0  0  0  0  0  0
  -21.0830   -8.8785   19.8930 H   0  0  0  0  0  0
  -22.3800  -10.9630   19.6173 H   0  0  0  0  0  0
  -21.1982   -7.6140   23.9741 H   0  0  0  0  0  0
  -21.1502   -6.0505   25.9086 H   0  0  0  0  0  0
  -22.0625   -2.7613   23.2773 H   0  0  0  0  0  0
  -22.3902  -11.9854   22.4648 H   0  0  0  0  0  0
  -21.1092  -13.1397   22.2555 H   0  0  0  0  0  0
  -24.6496  -15.6421   20.8316 H   0  0  0  0  0  0
  -26.2445  -15.3738   21.0925 H   0  0  0  0  0  0
  -26.7219  -32.5386   23.1082 H   0  0  0  0  0  0
  -25.0020  -33.9679   25.0376 H   0  0  0  0  0  0
  -22.7260  -31.2970   21.3951 H   0  0  0  0  0  0
  -23.3745  -35.9612   23.3295 H   0  0  0  0  0  0
  -24.3574  -36.8913   22.2064 H   0  0  0  0  0  0
  -23.7235  -37.6483   23.6674 H   0  0  0  0  0  0
  -26.1134  -31.5172   20.6033 H   0  0  0  0  0  0
  -26.8535  -30.8147   22.0097 H   0  0  0  0  0  0
  -28.1147  -28.9035   21.2351 H   0  0  0  0  0  0
  -25.9639  -25.9313   18.9449 H   0  0  0  0  0  0
  -23.9843  -27.3140   18.9744 H   0  0  0  0  0  0
  -23.7646  -30.5814   19.4006 H   0  0  0  0  0  0
  -22.7609  -29.2386   19.8577 H   0  0  0  0  0  0
  -25.1269  -36.1925   25.0828 H   0  0  0  0  0  0
  -20.9948  -28.3301   24.1378 H   0  0  0  0  0  0
  -20.5618  -26.2331   23.3610 H   0  0  0  0  0  0
  -21.6650  -26.7398   22.1233 H   0  0  0  0  0  0
  -19.6906  -25.6271   21.1239 H   0  0  0  0  0  0
  -19.6677  -27.3142   20.6696 H   0  0  0  0  0  0
  -17.4175  -26.6631   21.4036 H   0  0  0  0  0  0
  -18.0334  -26.0086   22.9020 H   0  0  0  0  0  0
  -19.7962  -30.7251   24.2255 H   0  0  0  0  0  0
  -17.5050  -31.6290   24.5119 H   0  0  0  0  0  0
  -15.5385  -30.2990   23.7664 H   0  0  0  0  0  0
  -15.8655  -28.0792   22.7120 H   0  0  0  0  0  0
  -24.5864  -30.7101   25.7820 H   0  0  0  0  0  0
  -24.8922  -32.2907   26.4924 H   0  0  0  0  0  0
  -25.8027  -30.8910   27.0254 H   0  0  0  0  0  0
  -26.2947  -29.6739   24.1241 H   0  0  0  0  0  0
  -27.4004  -29.7270   25.4766 H   0  0  0  0  0  0
  -27.8819  -30.4286   23.9504 H   0  0  0  0  0  0
  -27.2682  -33.3620   26.2072 H   0  0  0  0  0  0
  -28.3849  -32.6878   25.0316 H   0  0  0  0  0  0
  -28.0729  -31.8455   26.5405 H   0  0  0  0  0  0
  -28.2592  -38.0088   24.7513 H   0  0  0  0  0  0
  -28.1068  -36.2633   24.6269 H   0  0  0  0  0  0
  -27.2298  -37.1423   25.8863 H   0  0  0  0  0  0
  -20.9427  -29.8786   21.6862 H   0  0  0  0  0  0
  -26.0153  -38.2845   24.1437 H   0  0  0  0  0  0
  -27.1609  -20.2763   19.0775 H   0  0  0  0  0  0
  -27.6937  -16.0892   19.3330 H   0  0  0  0  0  0
  -30.5564  -18.6923   21.2405 H   0  0  0  0  0  0
  -21.2226  -21.1146   17.2856 H   0  0  0  0  0  0
  -21.4310  -19.3539   16.7696 H   0  0  0  0  0  0
  -23.4062  -21.0780   18.3948 H   0  0  0  0  0  0
  -23.4024  -18.0951   17.5810 H   0  0  0  0  0  0
  -30.3858  -23.5168   19.0286 H   0  0  0  0  0  0
  -31.1146  -23.8836   20.5876 H   0  0  0  0  0  0
  -31.0584  -21.6003   21.2926 H   0  0  0  0  0  0
  -31.1303  -21.3105   19.5556 H   0  0  0  0  0  0
  -29.0212  -23.8731   21.7038 H   0  0  0  0  0  0
  -27.0720  -24.6589   20.2533 H   0  0  0  0  0  0
  -28.1390  -24.7465   18.8829 H   0  0  0  0  0  0
  -29.0695  -15.4751   21.5177 H   0  0  0  0  0  0
  -25.7601  -16.0162   18.8840 H   0  0  0  0  0  0
  -24.6947  -16.6156   17.7094 H   0  0  0  0  0  0
  1 25  1  0  0  0
  1 30  2  0  0  0
  1 88  1  0  0  0
  2  3  1  0  0  0
  2 25  1  0  0  0
  2 91  1  0  0  0
  2 92  1  0  0  0
  3  4  1  0  0  0
  3 93  1  0  0  0
  3 94  1  0  0  0
  4  5  1  0  0  0
  4 95  1  0  0  0
  4 96  1  0  0  0
  5  6  1  0  0  0
  5 26  1  0  0  0
  5 97  1  0  0  0
  6 25  1  0  0  0
  6 98  1  0  0  0
  6 99  1  0  0  0
  7  8  2  0  0  0
  7 26  1  0  0  0
  7 29  1  0  0  0
  8  9  1  0  0  0
  8 22  1  0  0  0
  9 10  1  0  0  0
  9 27  2  0  0  0
 10 11  2  0  0  0
 10 15  1  0  0  0
 11 12  1  0  0  0
 11100  1  0  0  0
 12 13  2  0  0  0
 12101  1  0  0  0
 13 14  1  0  0  0
 13 31  1  0  0  0
 14 15  2  0  0  0
 14102  1  0  0  0
 15103  1  0  0  0
 16 17  2  0  0  0
 16 21  1  0  0  0
 16 31  1  0  0  0
 17 18  1  0  0  0
 17104  1  0  0  0
 18 19  2  0  0  0
 18105  1  0  0  0
 19 20  1  0  0  0
 19 24  1  0  0  0
 20 21  2  0  0  0
 20106  1  0  0  0
 21 23  1  0  0  0
 22 28  1  0  0  0
 22 32  2  0  0  0
 26 27  1  0  0  0
 28107  1  0  0  0
 28108  1  0  0  0
 29109  1  0  0  0
 29110  1  0  0  0
 33 34  1  0  0  0
 33 66  1  0  0  0
 33 70  2  0  0  0
 34 36  1  0  0  0
 34 59  1  0  0  0
 34111  1  0  0  0
 35 44  2  0  0  0
 35 45  1  0  0  0
 35 68  1  0  0  0
 36 56  1  0  0  0
 36112  1  0  0  0
 37 39  1  0  0  0
 37 47  1  0  0  0
 37 66  1  0  0  0
 37113  1  0  0  0
 38 43  2  0  0  0
 38 46  1  0  0  0
 38 47  1  0  0  0
 39 64  1  0  0  0
 39 67  2  0  0  0
 40 52  1  0  0  0
 40 53  2  0  0  0
 40 58  1  0  0  0
 41114  1  0  0  0
 41115  1  0  0  0
 41116  1  0  0  0
 41 48  1  0  0  0
 42 43  1  0  0  0
 42 66  1  0  0  0
 42117  1  0  0  0
 42118  1  0  0  0
 43 44  1  0  0  0
 44119  1  0  0  0
 45 46  2  0  0  0
 45120  1  0  0  0
 46121  1  0  0  0
 47122  1  0  0  0
 47123  1  0  0  0
 48 56  1  0  0  0
 48 65  1  0  0  0
 48124  1  0  0  0
 49 50  1  0  0  0
 49 53  1  0  0  0
 49 64  1  0  0  0
 49125  1  0  0  0
 50 51  1  0  0  0
 50126  1  0  0  0
 50127  1  0  0  0
 51 52  1  0  0  0
 51128  1  0  0  0
 51129  1  0  0  0
 52130  1  0  0  0
 52131  1  0  0  0
 53 54  1  0  0  0
 54 55  2  0  0  0
 54132  1  0  0  0
 55 57  1  0  0  0
 55133  1  0  0  0
 56 69  2  0  0  0
 57 58  2  0  0  0
 57134  1  0  0  0
 58135  1  0  0  0
 59 60  1  0  0  0
 59 61  1  0  0  0
 59 62  1  0  0  0
 60136  1  0  0  0
 60137  1  0  0  0
 60138  1  0  0  0
 61139  1  0  0  0
 61140  1  0  0  0
 61141  1  0  0  0
 62142  1  0  0  0
 62143  1  0  0  0
 62144  1  0  0  0
 63 65  1  0  0  0
 63145  1  0  0  0
 63146  1  0  0  0
 63147  1  0  0  0
 64148  1  0  0  0
 65149  1  0  0  0
 68 85  1  0  0  0
 71 74  2  0  0  0
 71 75  1  0  0  0
 71150  1  0  0  0
 72 74  1  0  0  0
 72 76  2  0  0  0
 72151  1  0  0  0
 73 75  2  0  0  0
 73 76  1  0  0  0
 73152  1  0  0  0
 74 81  1  0  0  0
 75 87  1  0  0  0
 76 88  1  0  0  0
 77 84  1  0  0  0
 77 87  1  0  0  0
 77 90  2  0  0  0
 78 79  2  0  0  0
 78153  1  0  0  0
 78154  1  0  0  0
 79 80  1  0  0  0
 79155  1  0  0  0
 80 86  2  0  0  0
 80156  1  0  0  0
 81 86  1  0  0  0
 81 89  2  0  0  0
 82 83  1  0  0  0
 82 84  1  0  0  0
 82157  1  0  0  0
 82158  1  0  0  0
 83 87  1  0  0  0
 83159  1  0  0  0
 83160  1  0  0  0
 84 85  1  0  0  0
 84161  1  0  0  0
 85162  1  0  0  0
 85163  1  0  0  0
 88164  1  0  0  0
 89165  1  0  0  0
 89166  1  0  0  0
M  CHG  1  89   1
M  ISO  4   1 100  68 101  85 101  88 100
M  END
> <chiral flag>
0

> <version>
0

> <s_m_source_file>
/data/baiqing/PycharmProjects/Reinvent-master-3.2/result/LINK_invent/BTK/process_docking_weight1_custom_product_contain_oxygen_bond_distance_aromatic_linkinvent_7_9_3/rearranged_h_0066.sdf

> <i_m_source_file_index>
36

> <r_mmod_Potential_Energy-OPLS-2005>
420.168487548828

> <r_mmod_Stretch_Energy-OPLS-2005>
147.269760131836

> <r_mmod_Bend_Energy-OPLS-2005>
232.915451049805

> <r_mmod_Torsional_Energy-OPLS-2005>
351.98193359375

> <r_mmod_Improper_Torsional_Energy-OPLS-2005>
17.0408058166504

> <r_mmod_Van_der_Waal_Energy-OPLS-2005>
172.532455444336

> <r_mmod_Electrostatic_Energy-OPLS-2005>
-152.655151367188

> <r_mmod_Solvation_Energy-OPLS-2005>
-456.258117675781

> <b_mmod_Minimization_Converged-OPLS-2005>
0

> <r_mmod_RMS_Derivative-OPLS-2005>
5.2219614982605

$$$$
36
                    3D
 Structure written by MMmdl.
159168  0  0  1  0            999 V2000
  -30.6255  -14.6307   20.5153 C   0  0  0  0  0  0
  -30.4422  -12.3889   19.4513 C   0  0  0  0  0  0
  -29.5099  -12.5090   18.2249 C   0  0  0  0  0  0
  -28.0317  -12.3498   18.6353 C   0  0  0  0  0  0
  -27.6558  -13.2154   19.8667 C   0  0  2  0  0  0
  -28.7008  -13.0560   20.9940 C   0  0  0  0  0  0
  -25.2547  -13.8149   20.5642 C   0  0  0  0  0  0
  -24.1827  -13.0424   20.9195 C   0  0  0  0  0  0
  -24.6398  -11.6898   20.8755 C   0  0  0  0  0  0
  -23.9059  -10.4286   21.0414 C   0  0  0  0  0  0
  -24.3614   -9.4195   21.9191 C   0  0  0  0  0  0
  -23.6284   -8.2232   22.0750 C   0  0  0  0  0  0
  -22.4266   -8.0275   21.3538 C   0  0  0  0  0  0
  -21.9903   -9.0252   20.4646 C   0  0  0  0  0  0
  -22.7234  -10.2130   20.3062 C   0  0  0  0  0  0
  -21.6847   -6.0730   22.5277 C   0  0  0  0  0  0
  -21.4017   -6.5635   23.8210 C   0  0  0  0  0  0
  -21.3657   -5.6786   24.9171 C   0  0  0  0  0  0
  -21.6040   -4.3049   24.7225 C   0  0  0  0  0  0
  -21.8822   -3.8138   23.4345 C   0  0  0  0  0  0
  -21.9190   -4.6956   22.3402 C   0  0  0  0  0  0
  -22.7848  -13.5223   21.1856 C   0  0  0  0  0  0
  -22.1658   -4.2140   21.0979 F   0  0  0  0  0  0
  -21.5622   -3.4535   25.7737 F   0  0  0  0  0  0
  -30.0190  -13.4035   20.4365 N   0  0  0  0  0  0
  -26.2995  -12.9340   20.3322 N   0  0  0  0  0  0
  -25.9333  -11.6501   20.5781 N   0  0  0  0  0  0
  -22.0482  -12.8226   22.0418 N   0  0  0  0  0  0
  -25.4216  -15.1852   20.3951 N   0  0  0  0  0  0
  -31.7804  -14.8023   20.1130 O   0  0  0  0  0  0
  -21.6630   -6.8872   21.4236 O   0  0  0  0  0  0
  -22.3536  -14.5529   20.6701 O   0  0  0  0  0  0
  -24.6264  -31.8605   23.2048 C   0  0  0  0  0  0
  -25.9113  -32.4780   23.8372 C   0  0  1  0  0  0
  -27.2180  -27.3233   20.1050 C   0  0  0  0  0  0
  -25.5932  -33.8579   24.2298 N   0  0  0  0  0  0
  -23.4191  -30.4877   21.5476 C   0  0  2  0  0  0
  -24.8621  -28.9468   20.1115 C   0  0  0  0  0  0
  -22.7475  -29.4631   22.4930 C   0  0  0  0  0  0
  -18.0293  -28.1385   22.8483 C   0  0  0  0  0  0
  -24.1488  -36.7293   23.2639 C   0  0  0  0  0  0
  -25.9618  -30.7920   21.3761 C   0  0  0  0  0  0
  -26.0338  -29.4216   20.7141 C   0  0  0  0  0  0
  -27.2160  -28.6228   20.6995 C   0  0  0  0  0  0
  -26.0169  -26.9000   19.4868 C   0  0  0  0  0  0
  -24.8549  -27.6905   19.4906 C   0  0  0  0  0  0
  -23.6331  -29.8293   20.1608 C   0  0  0  0  0  0
  -25.4109  -36.3082   24.0333 C   0  0  1  0  0  0
  -20.5892  -28.3691   23.1273 C   0  0  2  0  0  0
  -20.6779  -26.9415   22.5401 C   0  0  0  0  0  0
  -19.5756  -26.6386   21.5202 C   0  0  0  0  0  0
  -18.1938  -26.7926   22.1622 C   0  0  0  0  0  0
  -19.1546  -28.8854   23.2877 C   0  0  0  0  0  0
  -18.9469  -30.1452   23.8903 C   0  0  0  0  0  0
  -17.6468  -30.6581   24.0569 C   0  0  0  0  0  0
  -25.9046  -34.9449   23.5114 C   0  0  0  0  0  0
  -16.5359  -29.9083   23.6328 C   0  0  0  0  0  0
  -16.7281  -28.6502   23.0347 C   0  0  0  0  0  0
  -26.4500  -31.6582   25.0736 C   0  0  0  0  0  0
  -25.3742  -31.3726   26.1473 C   0  0  0  0  0  0
  -27.0340  -30.3006   24.6183 C   0  0  0  0  0  0
  -27.6068  -32.4313   25.7493 C   0  0  0  0  0  0
  -27.5577  -37.1803   24.8467 C   0  0  0  0  0  0
  -21.4191  -29.3047   22.3668 N   0  0  0  0  0  0
  -26.4291  -37.3770   23.9409 N   0  0  0  0  0  0
  -24.6881  -31.0623   22.0998 N   0  0  0  0  0  0
  -23.4198  -28.8163   23.3002 O   0  0  0  0  0  0
  -28.3375  -26.4753   20.1362 O   0  0  0  0  0  0
  -26.5608  -34.8911   22.4675 O   0  0  0  0  0  0
  -23.5430  -32.1405   23.7379 O   0  0  0  0  0  0
  -30.9586  -19.2800   20.2316 C   0  0  0  0  0  0
  -30.9517  -17.8521   20.2603 C   0  0  0  0  0  0
  -28.8035  -19.3271   21.2920 C   0  0  0  0  0  0
  -28.7965  -17.9007   21.3456 C   0  0  0  0  0  0
  -29.8960  -20.0605   20.7687 C   0  0  0  0  0  0
  -29.8798  -17.1171   20.8370 C   0  0  0  0  0  0
  -30.8562  -23.4296   22.1410 C   0  0  0  0  0  0
  -30.1526  -24.3385   21.4461 C   0  0  0  0  0  0
  -30.8902  -22.0014   21.8305 C   0  0  0  0  0  0
  -28.9388  -22.4414   20.3353 C   0  0  0  0  0  0
  -29.2921  -23.9946   20.2643 C   0  0  1  0  0  0
  -27.5889  -17.2554   22.0094 C   0  0  0  0  0  0
  -28.0891  -25.0151   20.0905 C   0  0  0  0  0  0
  -29.9831  -21.5234   20.9217 N   0  0  0  0  0  0
  -29.8184  -15.6561   20.9302 N   0  0  0  0  0  0
  -31.7218  -21.2707   22.3811 O   0  0  0  0  0  0
  -31.4826  -12.5175   19.1483 H   0  0  0  0  0  0
  -30.3799  -11.3909   19.8880 H   0  0  0  0  0  0
  -29.7712  -11.7579   17.4782 H   0  0  0  0  0  0
  -29.6553  -13.4796   17.7468 H   0  0  0  0  0  0
  -27.8664  -11.2960   18.8640 H   0  0  0  0  0  0
  -27.3788  -12.5842   17.7938 H   0  0  0  0  0  0
  -27.6776  -14.2536   19.5340 H   0  0  0  0  0  0
  -28.7099  -12.0282   21.3602 H   0  0  0  0  0  0
  -28.4453  -13.6719   21.8571 H   0  0  0  0  0  0
  -25.2762   -9.5660   22.4767 H   0  0  0  0  0  0
  -23.9986   -7.4619   22.7473 H   0  0  0  0  0  0
  -21.0824   -8.8780   19.8959 H   0  0  0  0  0  0
  -22.3698  -10.9673   19.6171 H   0  0  0  0  0  0
  -21.2020   -7.6149   23.9713 H   0  0  0  0  0  0
  -21.1471   -6.0519   25.9072 H   0  0  0  0  0  0
  -22.0605   -2.7598   23.2853 H   0  0  0  0  0  0
  -22.4089  -11.9895   22.4827 H   0  0  0  0  0  0
  -21.1102  -13.1266   22.2613 H   0  0  0  0  0  0
  -24.6468  -15.8332   20.4859 H   0  0  0  0  0  0
  -26.2532  -15.6138   20.0108 H   0  0  0  0  0  0
  -26.7180  -32.5452   23.1121 H   0  0  0  0  0  0
  -25.0082  -33.9724   25.0447 H   0  0  0  0  0  0
  -22.7131  -31.3088   21.4084 H   0  0  0  0  0  0
  -23.3729  -35.9651   23.3330 H   0  0  0  0  0  0
  -24.3579  -36.8876   22.2048 H   0  0  0  0  0  0
  -23.7265  -37.6518   23.6634 H   0  0  0  0  0  0
  -26.0960  -31.5577   20.6107 H   0  0  0  0  0  0
  -26.8417  -30.8366   22.0060 H   0  0  0  0  0  0
  -28.1161  -28.9837   21.1776 H   0  0  0  0  0  0
  -25.9365  -25.9452   18.9919 H   0  0  0  0  0  0
  -23.9562  -27.3219   19.0145 H   0  0  0  0  0  0
  -23.7576  -30.6107   19.4102 H   0  0  0  0  0  0
  -22.7515  -29.2648   19.8524 H   0  0  0  0  0  0
  -25.1286  -36.1943   25.0825 H   0  0  0  0  0  0
  -20.9992  -28.3269   24.1391 H   0  0  0  0  0  0
  -20.5668  -26.2307   23.3603 H   0  0  0  0  0  0
  -21.6648  -26.7433   22.1205 H   0  0  0  0  0  0
  -19.6917  -25.6297   21.1228 H   0  0  0  0  0  0
  -19.6687  -27.3198   20.6733 H   0  0  0  0  0  0
  -17.4202  -26.6666   21.4032 H   0  0  0  0  0  0
  -18.0351  -26.0069   22.9021 H   0  0  0  0  0  0
  -19.7945  -30.7264   24.2276 H   0  0  0  0  0  0
  -17.5021  -31.6259   24.5176 H   0  0  0  0  0  0
  -15.5359  -30.2988   23.7638 H   0  0  0  0  0  0
  -15.8683  -28.0818   22.7056 H   0  0  0  0  0  0
  -24.5917  -30.7066   25.7819 H   0  0  0  0  0  0
  -24.8938  -32.2896   26.4896 H   0  0  0  0  0  0
  -25.8077  -30.8915   27.0251 H   0  0  0  0  0  0
  -26.2914  -29.6753   24.1211 H   0  0  0  0  0  0
  -27.4050  -29.7260   25.4680 H   0  0  0  0  0  0
  -27.8780  -30.4298   23.9402 H   0  0  0  0  0  0
  -27.2687  -33.3606   26.2090 H   0  0  0  0  0  0
  -28.3861  -32.6882   25.0305 H   0  0  0  0  0  0
  -28.0758  -31.8430   26.5392 H   0  0  0  0  0  0
  -28.2606  -38.0087   24.7484 H   0  0  0  0  0  0
  -28.1059  -36.2616   24.6318 H   0  0  0  0  0  0
  -27.2299  -37.1486   25.8873 H   0  0  0  0  0  0
  -20.9364  -29.8788   21.6896 H   0  0  0  0  0  0
  -26.0172  -38.2849   24.1393 H   0  0  0  0  0  0
  -31.8244  -19.7826   19.8236 H   0  0  0  0  0  0
  -31.8042  -17.3312   19.8497 H   0  0  0  0  0  0
  -27.9752  -19.8693   21.7265 H   0  0  0  0  0  0
  -31.4514  -23.7753   22.9729 H   0  0  0  0  0  0
  -30.2007  -25.3815   21.7273 H   0  0  0  0  0  0
  -28.6739  -22.0819   19.3405 H   0  0  0  0  0  0
  -28.0413  -22.3209   20.9428 H   0  0  0  0  0  0
  -29.9403  -24.1396   19.3986 H   0  0  0  0  0  0
  -27.5067  -17.5975   23.0414 H   0  0  0  0  0  0
  -27.6160  -16.1680   22.0310 H   0  0  0  0  0  0
  -26.6783  -17.5524   21.4889 H   0  0  0  0  0  0
  -27.3372  -24.7813   20.8460 H   0  0  0  0  0  0
  -27.6484  -24.7672   19.1255 H   0  0  0  0  0  0
  -28.9405  -15.3120   21.2842 H   0  0  0  0  0  0
  1 25  1  0  0  0
  1 30  2  0  0  0
  1 85  1  0  0  0
  2  3  1  0  0  0
  2 25  1  0  0  0
  2 87  1  0  0  0
  2 88  1  0  0  0
  3  4  1  0  0  0
  3 89  1  0  0  0
  3 90  1  0  0  0
  4  5  1  0  0  0
  4 91  1  0  0  0
  4 92  1  0  0  0
  5  6  1  0  0  0
  5 26  1  0  0  0
  5 93  1  0  0  0
  6 25  1  0  0  0
  6 94  1  0  0  0
  6 95  1  0  0  0
  7  8  2  0  0  0
  7 26  1  0  0  0
  7 29  1  0  0  0
  8  9  1  0  0  0
  8 22  1  0  0  0
  9 10  1  0  0  0
  9 27  2  0  0  0
 10 11  2  0  0  0
 10 15  1  0  0  0
 11 12  1  0  0  0
 11 96  1  0  0  0
 12 13  2  0  0  0
 12 97  1  0  0  0
 13 14  1  0  0  0
 13 31  1  0  0  0
 14 15  2  0  0  0
 14 98  1  0  0  0
 15 99  1  0  0  0
 16 17  2  0  0  0
 16 21  1  0  0  0
 16 31  1  0  0  0
 17 18  1  0  0  0
 17100  1  0  0  0
 18 19  2  0  0  0
 18101  1  0  0  0
 19 20  1  0  0  0
 19 24  1  0  0  0
 20 21  2  0  0  0
 20102  1  0  0  0
 21 23  1  0  0  0
 22 28  1  0  0  0
 22 32  2  0  0  0
 26 27  1  0  0  0
 28103  1  0  0  0
 28104  1  0  0  0
 29105  1  0  0  0
 29106  1  0  0  0
 33 34  1  0  0  0
 33 66  1  0  0  0
 33 70  2  0  0  0
 34 36  1  0  0  0
 34 59  1  0  0  0
 34107  1  0  0  0
 35 44  2  0  0  0
 35 45  1  0  0  0
 35 68  1  0  0  0
 36 56  1  0  0  0
 36108  1  0  0  0
 37 39  1  0  0  0
 37 47  1  0  0  0
 37 66  1  0  0  0
 37109  1  0  0  0
 38 43  2  0  0  0
 38 46  1  0  0  0
 38 47  1  0  0  0
 39 64  1  0  0  0
 39 67  2  0  0  0
 40 52  1  0  0  0
 40 53  2  0  0  0
 40 58  1  0  0  0
 41110  1  0  0  0
 41111  1  0  0  0
 41112  1  0  0  0
 41 48  1  0  0  0
 42 43  1  0  0  0
 42 66  1  0  0  0
 42113  1  0  0  0
 42114  1  0  0  0
 43 44  1  0  0  0
 44115  1  0  0  0
 45 46  2  0  0  0
 45116  1  0  0  0
 46117  1  0  0  0
 47118  1  0  0  0
 47119  1  0  0  0
 48 56  1  0  0  0
 48 65  1  0  0  0
 48120  1  0  0  0
 49 50  1  0  0  0
 49 53  1  0  0  0
 49 64  1  0  0  0
 49121  1  0  0  0
 50 51  1  0  0  0
 50122  1  0  0  0
 50123  1  0  0  0
 51 52  1  0  0  0
 51124  1  0  0  0
 51125  1  0  0  0
 52126  1  0  0  0
 52127  1  0  0  0
 53 54  1  0  0  0
 54 55  2  0  0  0
 54128  1  0  0  0
 55 57  1  0  0  0
 55129  1  0  0  0
 56 69  2  0  0  0
 57 58  2  0  0  0
 57130  1  0  0  0
 58131  1  0  0  0
 59 60  1  0  0  0
 59 61  1  0  0  0
 59 62  1  0  0  0
 60132  1  0  0  0
 60133  1  0  0  0
 60134  1  0  0  0
 61135  1  0  0  0
 61136  1  0  0  0
 61137  1  0  0  0
 62138  1  0  0  0
 62139  1  0  0  0
 62140  1  0  0  0
 63 65  1  0  0  0
 63141  1  0  0  0
 63142  1  0  0  0
 63143  1  0  0  0
 64144  1  0  0  0
 65145  1  0  0  0
 68 83  1  0  0  0
 71 72  2  0  0  0
 71 75  1  0  0  0
 71146  1  0  0  0
 72 76  1  0  0  0
 72147  1  0  0  0
 73 74  1  0  0  0
 73 75  2  0  0  0
 73148  1  0  0  0
 74 76  2  0  0  0
 74 82  1  0  0  0
 75 84  1  0  0  0
 76 85  1  0  0  0
 77 78  2  0  0  0
 77 79  1  0  0  0
 77149  1  0  0  0
 78 81  1  0  0  0
 78150  1  0  0  0
 79 84  1  0  0  0
 79 86  2  0  0  0
 80 81  1  0  0  0
 80 84  1  0  0  0
 80151  1  0  0  0
 80152  1  0  0  0
 81 83  1  0  0  0
 81153  1  0  0  0
 82154  1  0  0  0
 82155  1  0  0  0
 82156  1  0  0  0
 83157  1  0  0  0
 83158  1  0  0  0
 85159  1  0  0  0
M  ISO  4   1 100  68 101  83 101  85 100
M  END
> <chiral flag>
0

> <version>
0

> <s_m_source_file>
/data/baiqing/PycharmProjects/Reinvent-master-3.2/result/LINK_invent/BTK/process_docking_weight1_custom_product_contain_oxygen_bond_distance_aromatic_linkinvent_7_9_3/rearranged_h_0066.sdf

> <i_m_source_file_index>
37

> <r_mmod_Potential_Energy-OPLS-2005>
138.4501953125

> <r_mmod_Stretch_Energy-OPLS-2005>
84.3356628417969

> <r_mmod_Bend_Energy-OPLS-2005>
145.016967773438

> <r_mmod_Torsional_Energy-OPLS-2005>
277.273315429688

> <r_mmod_Improper_Torsional_Energy-OPLS-2005>
4.72305583953857

> <r_mmod_Van_der_Waal_Energy-OPLS-2005>
161.094009399414

> <r_mmod_Electrostatic_Energy-OPLS-2005>
-358.998840332031

> <r_mmod_Solvation_Energy-OPLS-2005>
-220.474670410156

> <b_mmod_Minimization_Converged-OPLS-2005>
0

> <r_mmod_RMS_Derivative-OPLS-2005>
1.08574688434601

$$$$
37
                    3D
 Structure written by MMmdl.
154162  0  0  1  0            999 V2000
  -30.5053  -15.0198   20.4115 C   0  0  0  0  0  0
  -30.4463  -12.6434   19.4791 C   0  0  0  0  0  0
  -29.5197  -12.5259   18.2471 C   0  0  0  0  0  0
  -28.0581  -12.2953   18.6793 C   0  0  0  0  0  0
  -27.6216  -13.2464   19.8235 C   0  0  2  0  0  0
  -28.6688  -13.3141   20.9517 C   0  0  0  0  0  0
  -25.2449  -13.8203   20.5716 C   0  0  0  0  0  0
  -24.1767  -13.0428   20.9233 C   0  0  0  0  0  0
  -24.6388  -11.6914   20.8769 C   0  0  0  0  0  0
  -23.9075  -10.4287   21.0417 C   0  0  0  0  0  0
  -24.3623   -9.4201   21.9192 C   0  0  0  0  0  0
  -23.6294   -8.2240   22.0759 C   0  0  0  0  0  0
  -22.4278   -8.0284   21.3548 C   0  0  0  0  0  0
  -21.9918   -9.0254   20.4647 C   0  0  0  0  0  0
  -22.7251  -10.2128   20.3060 C   0  0  0  0  0  0
  -21.6853   -6.0740   22.5280 C   0  0  0  0  0  0
  -21.4012   -6.5642   23.8214 C   0  0  0  0  0  0
  -21.3657   -5.6793   24.9175 C   0  0  0  0  0  0
  -21.6044   -4.3057   24.7224 C   0  0  0  0  0  0
  -21.8818   -3.8149   23.4345 C   0  0  0  0  0  0
  -21.9191   -4.6967   22.3403 C   0  0  0  0  0  0
  -22.7789  -13.5204   21.1884 C   0  0  0  0  0  0
  -22.1661   -4.2153   21.0981 F   0  0  0  0  0  0
  -21.5626   -3.4539   25.7737 F   0  0  0  0  0  0
  -29.9228  -13.7525   20.3268 N   0  0  0  0  0  0
  -26.2857  -12.9425   20.3215 N   0  0  0  0  0  0
  -25.9315  -11.6559   20.5730 N   0  0  0  0  0  0
  -22.0436  -12.8197   22.0440 N   0  0  0  0  0  0
  -25.4114  -15.1933   20.4149 N   0  0  0  0  0  0
  -31.7331  -15.0699   20.2719 O   0  0  0  0  0  0
  -21.6639   -6.8884   21.4243 O   0  0  0  0  0  0
  -22.3477  -14.5507   20.6726 O   0  0  0  0  0  0
  -24.6473  -31.8387   23.1818 C   0  0  0  0  0  0
  -25.9222  -32.4667   23.8225 C   0  0  1  0  0  0
  -27.2217  -27.0856   20.1811 C   0  0  0  0  0  0
  -25.5957  -33.8475   24.2149 N   0  0  0  0  0  0
  -23.4533  -30.4532   21.5289 C   0  0  2  0  0  0
  -24.9017  -28.8554   20.1268 C   0  0  0  0  0  0
  -22.7571  -29.4522   22.4857 C   0  0  0  0  0  0
  -18.0301  -28.1404   22.8481 C   0  0  0  0  0  0
  -24.1487  -36.7238   23.2646 C   0  0  0  0  0  0
  -26.0102  -30.6984   21.3828 C   0  0  0  0  0  0
  -26.0805  -29.2975   20.7412 C   0  0  0  0  0  0
  -27.2430  -28.4330   20.7393 C   0  0  0  0  0  0
  -26.0121  -26.7407   19.5458 C   0  0  0  0  0  0
  -24.8810  -27.5906   19.5152 C   0  0  0  0  0  0
  -23.6828  -29.7678   20.1548 C   0  0  0  0  0  0
  -25.4122  -36.3014   24.0313 C   0  0  1  0  0  0
  -20.5914  -28.3722   23.1231 C   0  0  2  0  0  0
  -20.6784  -26.9422   22.5402 C   0  0  0  0  0  0
  -19.5759  -26.6383   21.5213 C   0  0  0  0  0  0
  -18.1942  -26.7947   22.1620 C   0  0  0  0  0  0
  -19.1562  -28.8882   23.2847 C   0  0  0  0  0  0
  -18.9481  -30.1480   23.8869 C   0  0  0  0  0  0
  -17.6480  -30.6601   24.0561 C   0  0  0  0  0  0
  -25.9071  -34.9390   23.5038 C   0  0  0  0  0  0
  -16.5365  -29.9095   23.6345 C   0  0  0  0  0  0
  -16.7286  -28.6513   23.0363 C   0  0  0  0  0  0
  -26.4533  -31.6555   25.0685 C   0  0  0  0  0  0
  -25.3711  -31.3762   26.1377 C   0  0  0  0  0  0
  -27.0409  -30.2954   24.6282 C   0  0  0  0  0  0
  -27.6056  -32.4330   25.7481 C   0  0  0  0  0  0
  -27.5569  -37.1775   24.8470 C   0  0  0  0  0  0
  -21.4260  -29.3050   22.3608 N   0  0  0  0  0  0
  -26.4279  -37.3735   23.9417 N   0  0  0  0  0  0
  -24.7240  -31.0199   22.0865 N   0  0  0  0  0  0
  -23.4192  -28.8082   23.3034 O   0  0  0  0  0  0
  -28.3231  -26.1540   20.0736 O   0  0  0  0  0  0
  -26.5666  -34.8904   22.4623 O   0  0  0  0  0  0
  -23.5584  -32.1271   23.7017 O   0  0  0  0  0  0
  -30.3261  -19.1988   22.6174 C   0  0  0  0  0  0
  -30.3369  -17.9183   22.0218 C   0  0  0  0  0  0
  -29.3139  -20.3351   20.6548 C   0  0  0  0  0  0
  -29.8303  -20.3667   21.9841 C   0  0  0  0  0  0
  -29.8124  -17.6888   20.7371 C   0  0  0  0  0  0
  -29.3137  -18.9423   20.0747 C   0  0  0  0  0  0
  -29.0341  -21.7647   19.8888 C   0  0  0  0  0  0
  -26.9797  -22.6384   21.2738 C   0  0  0  0  0  0
  -28.5230  -24.7086   20.6764 C   0  0  0  0  0  0
  -28.0787  -23.0950   20.2976 C   0  0  1  0  0  0
  -29.9302  -21.5453   22.7320 N   0  0  0  0  0  0
  -29.7019  -16.2058   20.3003 N   0  0  0  0  0  0
  -29.5769  -21.8978   18.7874 O   0  0  0  0  0  0
  -28.8113  -18.7921   18.8249 F   0  0  0  0  0  0
  -31.4705  -12.8349   19.1552 H   0  0  0  0  0  0
  -30.4761  -11.7071   20.0392 H   0  0  0  0  0  0
  -29.8516  -11.7130   17.5993 H   0  0  0  0  0  0
  -29.5851  -13.4387   17.6530 H   0  0  0  0  0  0
  -27.9775  -11.2602   19.0149 H   0  0  0  0  0  0
  -27.3864  -12.3913   17.8253 H   0  0  0  0  0  0
  -27.5692  -14.2360   19.3688 H   0  0  0  0  0  0
  -28.7839  -12.3490   21.4473 H   0  0  0  0  0  0
  -28.3592  -14.0271   21.7184 H   0  0  0  0  0  0
  -25.2765   -9.5671   22.4769 H   0  0  0  0  0  0
  -23.9997   -7.4628   22.7477 H   0  0  0  0  0  0
  -21.0854   -8.8776   19.8948 H   0  0  0  0  0  0
  -22.3719  -10.9668   19.6166 H   0  0  0  0  0  0
  -21.2008   -7.6151   23.9720 H   0  0  0  0  0  0
  -21.1476   -6.0524   25.9079 H   0  0  0  0  0  0
  -22.0600   -2.7612   23.2843 H   0  0  0  0  0  0
  -22.4053  -11.9853   22.4819 H   0  0  0  0  0  0
  -21.1053  -13.1213   22.2644 H   0  0  0  0  0  0
  -24.6415  -15.8441   20.5286 H   0  0  0  0  0  0
  -26.2587  -15.6392   20.0903 H   0  0  0  0  0  0
  -26.7289  -32.5257   23.0952 H   0  0  0  0  0  0
  -25.0113  -33.9586   25.0305 H   0  0  0  0  0  0
  -22.7589  -31.2798   21.3645 H   0  0  0  0  0  0
  -23.3758  -35.9561   23.3291 H   0  0  0  0  0  0
  -24.3575  -36.8887   22.2065 H   0  0  0  0  0  0
  -23.7230  -37.6424   23.6692 H   0  0  0  0  0  0
  -26.1623  -31.4414   20.5987 H   0  0  0  0  0  0
  -26.8828  -30.7607   22.0216 H   0  0  0  0  0  0
  -28.1556  -28.7843   21.1999 H   0  0  0  0  0  0
  -25.9402  -25.7763   19.0631 H   0  0  0  0  0  0
  -23.9812  -27.2464   19.0236 H   0  0  0  0  0  0
  -23.8274  -30.5331   19.3914 H   0  0  0  0  0  0
  -22.7955  -29.2117   19.8455 H   0  0  0  0  0  0
  -25.1315  -36.1827   25.0805 H   0  0  0  0  0  0
  -21.0004  -28.3313   24.1352 H   0  0  0  0  0  0
  -20.5674  -26.2339   23.3624 H   0  0  0  0  0  0
  -21.6650  -26.7428   22.1199 H   0  0  0  0  0  0
  -19.6915  -25.6289   21.1258 H   0  0  0  0  0  0
  -19.6700  -27.3182   20.6736 H   0  0  0  0  0  0
  -17.4209  -26.6698   21.4023 H   0  0  0  0  0  0
  -18.0329  -26.0102   22.9022 H   0  0  0  0  0  0
  -19.7956  -30.7308   24.2218 H   0  0  0  0  0  0
  -17.5033  -31.6280   24.5167 H   0  0  0  0  0  0
  -15.5365  -30.2990   23.7691 H   0  0  0  0  0  0
  -15.8682  -28.0823   22.7094 H   0  0  0  0  0  0
  -24.5906  -30.7089   25.7706 H   0  0  0  0  0  0
  -24.8886  -32.2951   26.4709 H   0  0  0  0  0  0
  -25.7993  -30.9002   27.0206 H   0  0  0  0  0  0
  -26.3037  -29.6669   24.1283 H   0  0  0  0  0  0
  -27.4025  -29.7259   25.4851 H   0  0  0  0  0  0
  -27.8931  -30.4204   23.9604 H   0  0  0  0  0  0
  -27.2651  -33.3673   26.1958 H   0  0  0  0  0  0
  -28.3929  -32.6816   25.0349 H   0  0  0  0  0  0
  -28.0653  -31.8510   26.5482 H   0  0  0  0  0  0
  -28.2572  -38.0082   24.7514 H   0  0  0  0  0  0
  -28.1071  -36.2609   24.6292 H   0  0  0  0  0  0
  -27.2288  -37.1421   25.8872 H   0  0  0  0  0  0
  -20.9477  -29.8761   21.6779 H   0  0  0  0  0  0
  -26.0131  -38.2794   24.1431 H   0  0  0  0  0  0
  -30.7283  -19.2738   23.6183 H   0  0  0  0  0  0
  -30.7183  -17.0881   22.5988 H   0  0  0  0  0  0
  -26.6220  -21.6337   21.0464 H   0  0  0  0  0  0
  -26.1196  -23.3051   21.2232 H   0  0  0  0  0  0
  -27.3343  -22.6390   22.3041 H   0  0  0  0  0  0
  -29.6110  -24.6490   20.6997 H   0  0  0  0  0  0
  -28.2704  -24.8443   21.7281 H   0  0  0  0  0  0
  -27.5466  -23.2259   19.3553 H   0  0  0  0  0  0
  -30.1352  -21.4640   23.7234 H   0  0  0  0  0  0
  -29.3123  -22.3239   22.5368 H   0  0  0  0  0  0
  -28.7820  -15.9852   19.9523 H   0  0  0  0  0  0
  1 25  1  0  0  0
  1 30  2  0  0  0
  1 82  1  0  0  0
  2  3  1  0  0  0
  2 25  1  0  0  0
  2 85  1  0  0  0
  2 86  1  0  0  0
  3  4  1  0  0  0
  3 87  1  0  0  0
  3 88  1  0  0  0
  4  5  1  0  0  0
  4 89  1  0  0  0
  4 90  1  0  0  0
  5  6  1  0  0  0
  5 26  1  0  0  0
  5 91  1  0  0  0
  6 25  1  0  0  0
  6 92  1  0  0  0
  6 93  1  0  0  0
  7  8  2  0  0  0
  7 26  1  0  0  0
  7 29  1  0  0  0
  8  9  1  0  0  0
  8 22  1  0  0  0
  9 10  1  0  0  0
  9 27  2  0  0  0
 10 11  2  0  0  0
 10 15  1  0  0  0
 11 12  1  0  0  0
 11 94  1  0  0  0
 12 13  2  0  0  0
 12 95  1  0  0  0
 13 14  1  0  0  0
 13 31  1  0  0  0
 14 15  2  0  0  0
 14 96  1  0  0  0
 15 97  1  0  0  0
 16 17  2  0  0  0
 16 21  1  0  0  0
 16 31  1  0  0  0
 17 18  1  0  0  0
 17 98  1  0  0  0
 18 19  2  0  0  0
 18 99  1  0  0  0
 19 20  1  0  0  0
 19 24  1  0  0  0
 20 21  2  0  0  0
 20100  1  0  0  0
 21 23  1  0  0  0
 22 28  1  0  0  0
 22 32  2  0  0  0
 26 27  1  0  0  0
 28101  1  0  0  0
 28102  1  0  0  0
 29103  1  0  0  0
 29104  1  0  0  0
 33 34  1  0  0  0
 33 66  1  0  0  0
 33 70  2  0  0  0
 34 36  1  0  0  0
 34 59  1  0  0  0
 34105  1  0  0  0
 35 44  2  0  0  0
 35 45  1  0  0  0
 35 68  1  0  0  0
 36 56  1  0  0  0
 36106  1  0  0  0
 37 39  1  0  0  0
 37 47  1  0  0  0
 37 66  1  0  0  0
 37107  1  0  0  0
 38 43  2  0  0  0
 38 46  1  0  0  0
 38 47  1  0  0  0
 39 64  1  0  0  0
 39 67  2  0  0  0
 40 52  1  0  0  0
 40 53  2  0  0  0
 40 58  1  0  0  0
 41108  1  0  0  0
 41109  1  0  0  0
 41110  1  0  0  0
 41 48  1  0  0  0
 42 43  1  0  0  0
 42 66  1  0  0  0
 42111  1  0  0  0
 42112  1  0  0  0
 43 44  1  0  0  0
 44113  1  0  0  0
 45 46  2  0  0  0
 45114  1  0  0  0
 46115  1  0  0  0
 47116  1  0  0  0
 47117  1  0  0  0
 48 56  1  0  0  0
 48 65  1  0  0  0
 48118  1  0  0  0
 49 50  1  0  0  0
 49 53  1  0  0  0
 49 64  1  0  0  0
 49119  1  0  0  0
 50 51  1  0  0  0
 50120  1  0  0  0
 50121  1  0  0  0
 51 52  1  0  0  0
 51122  1  0  0  0
 51123  1  0  0  0
 52124  1  0  0  0
 52125  1  0  0  0
 53 54  1  0  0  0
 54 55  2  0  0  0
 54126  1  0  0  0
 55 57  1  0  0  0
 55127  1  0  0  0
 56 69  2  0  0  0
 57 58  2  0  0  0
 57128  1  0  0  0
 58129  1  0  0  0
 59 60  1  0  0  0
 59 61  1  0  0  0
 59 62  1  0  0  0
 60130  1  0  0  0
 60131  1  0  0  0
 60132  1  0  0  0
 61133  1  0  0  0
 61134  1  0  0  0
 61135  1  0  0  0
 62136  1  0  0  0
 62137  1  0  0  0
 62138  1  0  0  0
 63 65  1  0  0  0
 63139  1  0  0  0
 63140  1  0  0  0
 63141  1  0  0  0
 64142  1  0  0  0
 65143  1  0  0  0
 68 79  1  0  0  0
 71 72  2  0  0  0
 71 74  1  0  0  0
 71144  1  0  0  0
 72 75  1  0  0  0
 72145  1  0  0  0
 73 74  2  0  0  0
 73 76  1  0  0  0
 73 77  1  0  0  0
 74 81  1  0  0  0
 75 76  2  0  0  0
 75 82  1  0  0  0
 76 84  1  0  0  0
 77 80  1  0  0  0
 77 83  2  0  0  0
 78146  1  0  0  0
 78147  1  0  0  0
 78148  1  0  0  0
 78 80  1  0  0  0
 79 80  1  0  0  0
 79149  1  0  0  0
 79150  1  0  0  0
 80151  1  0  0  0
 81152  1  0  0  0
 81153  1  0  0  0
 82154  1  0  0  0
M  ISO  4   1 100  68 101  79 101  82 100
M  END
> <chiral flag>
0

> <version>
0

> <s_m_source_file>
/data/baiqing/PycharmProjects/Reinvent-master-3.2/result/LINK_invent/BTK/process_docking_weight1_custom_product_contain_oxygen_bond_distance_aromatic_linkinvent_7_9_3/rearranged_h_0066.sdf

> <i_m_source_file_index>
38

> <r_mmod_Potential_Energy-OPLS-2005>
799.2919921875

> <r_mmod_Stretch_Energy-OPLS-2005>
320.150085449219

> <r_mmod_Bend_Energy-OPLS-2005>
352.107208251953

> <r_mmod_Torsional_Energy-OPLS-2005>
306.152679443359

> <r_mmod_Improper_Torsional_Energy-OPLS-2005>
14.8163890838623

> <r_mmod_Van_der_Waal_Energy-OPLS-2005>
120.778511047363

> <r_mmod_Electrostatic_Energy-OPLS-2005>
-317.651702880859

> <r_mmod_Solvation_Energy-OPLS-2005>
-232.137664794922

> <b_mmod_Minimization_Converged-OPLS-2005>
0

> <r_mmod_RMS_Derivative-OPLS-2005>
1.14183866977692

$$$$
38
                    3D
 Structure written by MMmdl.
167176  0  0  1  0            999 V2000
  -30.5652  -14.7323   20.5011 C   0  0  0  0  0  0
  -30.4429  -12.4536   19.4557 C   0  0  0  0  0  0
  -29.5089  -12.4993   18.2236 C   0  0  0  0  0  0
  -28.0358  -12.3120   18.6440 C   0  0  0  0  0  0
  -27.6395  -13.2141   19.8433 C   0  0  2  0  0  0
  -28.6827  -13.1185   20.9764 C   0  0  0  0  0  0
  -25.2520  -13.8139   20.5660 C   0  0  0  0  0  0
  -24.1809  -13.0437   20.9206 C   0  0  0  0  0  0
  -24.6369  -11.6886   20.8744 C   0  0  0  0  0  0
  -23.9041  -10.4277   21.0416 C   0  0  0  0  0  0
  -24.3606   -9.4196   21.9197 C   0  0  0  0  0  0
  -23.6293   -8.2233   22.0755 C   0  0  0  0  0  0
  -22.4266   -8.0264   21.3548 C   0  0  0  0  0  0
  -21.9908   -9.0235   20.4649 C   0  0  0  0  0  0
  -22.7228  -10.2107   20.3066 C   0  0  0  0  0  0
  -21.6844   -6.0733   22.5292 C   0  0  0  0  0  0
  -21.4005   -6.5652   23.8214 C   0  0  0  0  0  0
  -21.3650   -5.6803   24.9185 C   0  0  0  0  0  0
  -21.6026   -4.3064   24.7239 C   0  0  0  0  0  0
  -21.8822   -3.8160   23.4357 C   0  0  0  0  0  0
  -21.9194   -4.6970   22.3419 C   0  0  0  0  0  0
  -22.7830  -13.5227   21.1886 C   0  0  0  0  0  0
  -22.1667   -4.2165   21.0993 F   0  0  0  0  0  0
  -21.5630   -3.4542   25.7749 F   0  0  0  0  0  0
  -29.9809  -13.4931   20.3992 N   0  0  0  0  0  0
  -26.2919  -12.9312   20.3234 N   0  0  0  0  0  0
  -25.9288  -11.6468   20.5709 N   0  0  0  0  0  0
  -22.0481  -12.8210   22.0431 N   0  0  0  0  0  0
  -25.4276  -15.1852   20.4013 N   0  0  0  0  0  0
  -31.7666  -14.8865   20.2504 O   0  0  0  0  0  0
  -21.6631   -6.8859   21.4233 O   0  0  0  0  0  0
  -22.3531  -14.5551   20.6745 O   0  0  0  0  0  0
  -24.6367  -31.8456   23.1947 C   0  0  0  0  0  0
  -25.9171  -32.4719   23.8310 C   0  0  1  0  0  0
  -27.2347  -27.2136   20.1607 C   0  0  0  0  0  0
  -25.5939  -33.8525   24.2221 N   0  0  0  0  0  0
  -23.4359  -30.4676   21.5360 C   0  0  2  0  0  0
  -24.8949  -28.9102   20.1043 C   0  0  0  0  0  0
  -22.7523  -29.4544   22.4857 C   0  0  0  0  0  0
  -18.0285  -28.1376   22.8456 C   0  0  0  0  0  0
  -24.1485  -36.7263   23.2642 C   0  0  0  0  0  0
  -25.9867  -30.7465   21.3832 C   0  0  0  0  0  0
  -26.0632  -29.3697   20.7204 C   0  0  0  0  0  0
  -27.2300  -28.5333   20.7372 C   0  0  0  0  0  0
  -26.0465  -26.8375   19.4945 C   0  0  0  0  0  0
  -24.8958  -27.6558   19.4762 C   0  0  0  0  0  0
  -23.6608  -29.7961   20.1549 C   0  0  0  0  0  0
  -25.4118  -36.3036   24.0318 C   0  0  1  0  0  0
  -20.5891  -28.3666   23.1288 C   0  0  2  0  0  0
  -20.6793  -26.9363   22.5439 C   0  0  0  0  0  0
  -19.5763  -26.6342   21.5250 C   0  0  0  0  0  0
  -18.1918  -26.7920   22.1611 C   0  0  0  0  0  0
  -19.1545  -28.8838   23.2857 C   0  0  0  0  0  0
  -18.9471  -30.1452   23.8849 C   0  0  0  0  0  0
  -17.6487  -30.6585   24.0525 C   0  0  0  0  0  0
  -25.9072  -34.9417   23.5080 C   0  0  0  0  0  0
  -16.5360  -29.9070   23.6349 C   0  0  0  0  0  0
  -16.7276  -28.6488   23.0348 C   0  0  0  0  0  0
  -26.4521  -31.6591   25.0738 C   0  0  0  0  0  0
  -25.3732  -31.3797   26.1469 C   0  0  0  0  0  0
  -27.0440  -30.3014   24.6297 C   0  0  0  0  0  0
  -27.6015  -32.4407   25.7510 C   0  0  0  0  0  0
  -27.5564  -37.1780   24.8468 C   0  0  0  0  0  0
  -21.4219  -29.3013   22.3667 N   0  0  0  0  0  0
  -26.4280  -37.3762   23.9409 N   0  0  0  0  0  0
  -24.7048  -31.0411   22.0913 N   0  0  0  0  0  0
  -23.4232  -28.8039   23.2909 O   0  0  0  0  0  0
  -28.3210  -26.2967   20.2826 O   0  0  0  0  0  0
  -26.5654  -34.8900   22.4663 O   0  0  0  0  0  0
  -23.5502  -32.1243   23.7229 O   0  0  0  0  0  0
  -29.3262  -18.2361   23.3493 C   0  0  0  0  0  0
  -29.5314  -17.0650   22.6011 C   0  0  0  0  0  0
  -29.2791  -19.5132   22.7465 C   0  0  0  0  0  0
  -29.4149  -19.6627   21.3350 C   0  0  0  0  0  0
  -29.6995  -17.1089   21.2046 C   0  0  0  0  0  0
  -29.6228  -18.4272   20.5796 C   0  0  0  0  0  0
  -30.5741  -21.6900   20.4804 C   0  0  0  0  0  0
  -28.3428  -22.0794   20.7503 C   0  0  0  0  0  0
  -30.4275  -23.2441   20.3732 C   0  0  1  0  0  0
  -28.9556  -23.5624   20.8008 C   0  0  1  0  0  0
  -29.1434  -20.7046   23.6815 C   0  0  0  0  0  0
  -32.9647  -23.7972   20.7262 C   0  0  0  0  0  0
  -31.2362  -25.5230   21.2993 C   0  0  0  0  0  0
  -28.1241  -24.7971   20.0827 C   0  0  0  0  0  0
  -31.5095  -24.0119   21.2108 C   0  0  0  0  0  0
  -29.4303  -21.0413   20.7569 N   0  0  0  0  0  0
  -29.6849  -15.7988   20.5264 N   0  0  0  0  0  0
  -31.6496  -21.1124   20.2968 O   0  0  0  0  0  0
  -29.7111  -18.5056   19.2309 F   0  0  0  0  0  0
  -31.4784  -12.6100   19.1536 H   0  0  0  0  0  0
  -30.4111  -11.4722   19.9286 H   0  0  0  0  0  0
  -29.7964  -11.7316   17.5029 H   0  0  0  0  0  0
  -29.6182  -13.4532   17.7061 H   0  0  0  0  0  0
  -27.9019  -11.2634   18.9093 H   0  0  0  0  0  0
  -27.3726  -12.4868   17.7966 H   0  0  0  0  0  0
  -27.6339  -14.2359   19.4611 H   0  0  0  0  0  0
  -28.7214  -12.1053   21.3815 H   0  0  0  0  0  0
  -28.4123  -13.7696   21.8092 H   0  0  0  0  0  0
  -25.2737   -9.5679   22.4772 H   0  0  0  0  0  0
  -24.0008   -7.4612   22.7468 H   0  0  0  0  0  0
  -21.0860   -8.8742   19.8941 H   0  0  0  0  0  0
  -22.3698  -10.9649   19.6178 H   0  0  0  0  0  0
  -21.1981   -7.6157   23.9730 H   0  0  0  0  0  0
  -21.1467   -6.0530   25.9080 H   0  0  0  0  0  0
  -22.0603   -2.7625   23.2865 H   0  0  0  0  0  0
  -22.4105  -11.9856   22.4792 H   0  0  0  0  0  0
  -21.1091  -13.1215   22.2619 H   0  0  0  0  0  0
  -24.6546  -15.8345   20.4847 H   0  0  0  0  0  0
  -26.2656  -15.6157   20.0362 H   0  0  0  0  0  0
  -26.7168  -32.5347   23.0970 H   0  0  0  0  0  0
  -25.0156  -33.9642   25.0414 H   0  0  0  0  0  0
  -22.7370  -31.2947   21.3836 H   0  0  0  0  0  0
  -23.3785  -35.9567   23.3333 H   0  0  0  0  0  0
  -24.3548  -36.8877   22.2041 H   0  0  0  0  0  0
  -23.7225  -37.6455   23.6691 H   0  0  0  0  0  0
  -26.1474  -31.5076   20.6200 H   0  0  0  0  0  0
  -26.8551  -30.7859   22.0294 H   0  0  0  0  0  0
  -28.1125  -28.8668   21.2621 H   0  0  0  0  0  0
  -25.9718  -25.8779   19.0058 H   0  0  0  0  0  0
  -23.9983  -27.3040   18.9858 H   0  0  0  0  0  0
  -23.7815  -30.5732   19.4014 H   0  0  0  0  0  0
  -22.7835  -29.2255   19.8458 H   0  0  0  0  0  0
  -25.1297  -36.1832   25.0811 H   0  0  0  0  0  0
  -20.9937  -28.3204   24.1432 H   0  0  0  0  0  0
  -20.5717  -26.2192   23.3600 H   0  0  0  0  0  0
  -21.6637  -26.7399   22.1163 H   0  0  0  0  0  0
  -19.6930  -25.6262   21.1248 H   0  0  0  0  0  0
  -19.6769  -27.3174   20.6801 H   0  0  0  0  0  0
  -17.4197  -26.6671   21.3996 H   0  0  0  0  0  0
  -18.0247  -26.0104   22.9022 H   0  0  0  0  0  0
  -19.7962  -30.7268   24.2154 H   0  0  0  0  0  0
  -17.5059  -31.6268   24.5138 H   0  0  0  0  0  0
  -15.5361  -30.2957   23.7782 H   0  0  0  0  0  0
  -15.8632  -28.0845   22.7090 H   0  0  0  0  0  0
  -24.5855  -30.7202   25.7812 H   0  0  0  0  0  0
  -24.9036  -32.3023   26.4884 H   0  0  0  0  0  0
  -25.8031  -30.8960   27.0251 H   0  0  0  0  0  0
  -26.3081  -29.6694   24.1318 H   0  0  0  0  0  0
  -27.4125  -29.7319   25.4838 H   0  0  0  0  0  0
  -27.8922  -30.4309   23.9578 H   0  0  0  0  0  0
  -27.2567  -33.3725   26.2008 H   0  0  0  0  0  0
  -28.3873  -32.6961   25.0391 H   0  0  0  0  0  0
  -28.0663  -31.8642   26.5509 H   0  0  0  0  0  0
  -28.2571  -38.0072   24.7537 H   0  0  0  0  0  0
  -28.1062  -36.2624   24.6277 H   0  0  0  0  0  0
  -27.2307  -37.1388   25.8872 H   0  0  0  0  0  0
  -20.9369  -29.8738   21.6898 H   0  0  0  0  0  0
  -26.0158  -38.2832   24.1463 H   0  0  0  0  0  0
  -29.2045  -18.1422   24.4210 H   0  0  0  0  0  0
  -29.5127  -16.1127   23.1127 H   0  0  0  0  0  0
  -27.7847  -21.9458   19.8228 H   0  0  0  0  0  0
  -27.6304  -21.9150   21.5554 H   0  0  0  0  0  0
  -30.5548  -23.4801   19.3181 H   0  0  0  0  0  0
  -28.9757  -23.8069   21.8623 H   0  0  0  0  0  0
  -29.1515  -20.3753   24.7230 H   0  0  0  0  0  0
  -28.2053  -21.2373   23.5329 H   0  0  0  0  0  0
  -29.9758  -21.3998   23.5605 H   0  0  0  0  0  0
  -33.3359  -22.7916   20.9312 H   0  0  0  0  0  0
  -33.6489  -24.4740   21.2443 H   0  0  0  0  0  0
  -33.0657  -23.9723   19.6512 H   0  0  0  0  0  0
  -30.2970  -25.7324   21.8105 H   0  0  0  0  0  0
  -31.1864  -25.9802   20.3124 H   0  0  0  0  0  0
  -32.0140  -26.0332   21.8684 H   0  0  0  0  0  0
  -27.0915  -24.5817   20.3594 H   0  0  0  0  0  0
  -28.1731  -24.6372   19.0047 H   0  0  0  0  0  0
  -31.4647  -23.6462   22.2393 H   0  0  0  0  0  0
  -28.7470  -15.4553   20.3946 H   0  0  0  0  0  0
  1 25  1  0  0  0
  1 30  2  0  0  0
  1 87  1  0  0  0
  2  3  1  0  0  0
  2 25  1  0  0  0
  2 90  1  0  0  0
  2 91  1  0  0  0
  3  4  1  0  0  0
  3 92  1  0  0  0
  3 93  1  0  0  0
  4  5  1  0  0  0
  4 94  1  0  0  0
  4 95  1  0  0  0
  5  6  1  0  0  0
  5 26  1  0  0  0
  5 96  1  0  0  0
  6 25  1  0  0  0
  6 97  1  0  0  0
  6 98  1  0  0  0
  7  8  2  0  0  0
  7 26  1  0  0  0
  7 29  1  0  0  0
  8  9  1  0  0  0
  8 22  1  0  0  0
  9 10  1  0  0  0
  9 27  2  0  0  0
 10 11  2  0  0  0
 10 15  1  0  0  0
 11 12  1  0  0  0
 11 99  1  0  0  0
 12 13  2  0  0  0
 12100  1  0  0  0
 13 14  1  0  0  0
 13 31  1  0  0  0
 14 15  2  0  0  0
 14101  1  0  0  0
 15102  1  0  0  0
 16 17  2  0  0  0
 16 21  1  0  0  0
 16 31  1  0  0  0
 17 18  1  0  0  0
 17103  1  0  0  0
 18 19  2  0  0  0
 18104  1  0  0  0
 19 20  1  0  0  0
 19 24  1  0  0  0
 20 21  2  0  0  0
 20105  1  0  0  0
 21 23  1  0  0  0
 22 28  1  0  0  0
 22 32  2  0  0  0
 26 27  1  0  0  0
 28106  1  0  0  0
 28107  1  0  0  0
 29108  1  0  0  0
 29109  1  0  0  0
 33 34  1  0  0  0
 33 66  1  0  0  0
 33 70  2  0  0  0
 34 36  1  0  0  0
 34 59  1  0  0  0
 34110  1  0  0  0
 35 44  2  0  0  0
 35 45  1  0  0  0
 35 68  1  0  0  0
 36 56  1  0  0  0
 36111  1  0  0  0
 37 39  1  0  0  0
 37 47  1  0  0  0
 37 66  1  0  0  0
 37112  1  0  0  0
 38 43  2  0  0  0
 38 46  1  0  0  0
 38 47  1  0  0  0
 39 64  1  0  0  0
 39 67  2  0  0  0
 40 52  1  0  0  0
 40 53  2  0  0  0
 40 58  1  0  0  0
 41113  1  0  0  0
 41114  1  0  0  0
 41115  1  0  0  0
 41 48  1  0  0  0
 42 43  1  0  0  0
 42 66  1  0  0  0
 42116  1  0  0  0
 42117  1  0  0  0
 43 44  1  0  0  0
 44118  1  0  0  0
 45 46  2  0  0  0
 45119  1  0  0  0
 46120  1  0  0  0
 47121  1  0  0  0
 47122  1  0  0  0
 48 56  1  0  0  0
 48 65  1  0  0  0
 48123  1  0  0  0
 49 50  1  0  0  0
 49 53  1  0  0  0
 49 64  1  0  0  0
 49124  1  0  0  0
 50 51  1  0  0  0
 50125  1  0  0  0
 50126  1  0  0  0
 51 52  1  0  0  0
 51127  1  0  0  0
 51128  1  0  0  0
 52129  1  0  0  0
 52130  1  0  0  0
 53 54  1  0  0  0
 54 55  2  0  0  0
 54131  1  0  0  0
 55 57  1  0  0  0
 55132  1  0  0  0
 56 69  2  0  0  0
 57 58  2  0  0  0
 57133  1  0  0  0
 58134  1  0  0  0
 59 60  1  0  0  0
 59 61  1  0  0  0
 59 62  1  0  0  0
 60135  1  0  0  0
 60136  1  0  0  0
 60137  1  0  0  0
 61138  1  0  0  0
 61139  1  0  0  0
 61140  1  0  0  0
 62141  1  0  0  0
 62142  1  0  0  0
 62143  1  0  0  0
 63 65  1  0  0  0
 63144  1  0  0  0
 63145  1  0  0  0
 63146  1  0  0  0
 64147  1  0  0  0
 65148  1  0  0  0
 68 84  1  0  0  0
 71 72  2  0  0  0
 71 73  1  0  0  0
 71149  1  0  0  0
 72 75  1  0  0  0
 72150  1  0  0  0
 73 74  2  0  0  0
 73 81  1  0  0  0
 74 76  1  0  0  0
 74 86  1  0  0  0
 75 76  2  0  0  0
 75 87  1  0  0  0
 76 89  1  0  0  0
 77 86  1  0  0  0
 77 88  2  0  0  0
 77 79  1  0  0  0
 78 80  1  0  0  0
 78 86  1  0  0  0
 78151  1  0  0  0
 78152  1  0  0  0
 79 80  1  0  0  0
 79 85  1  0  0  0
 79153  1  0  0  0
 80 84  1  0  0  0
 80154  1  0  0  0
 81155  1  0  0  0
 81156  1  0  0  0
 81157  1  0  0  0
 82158  1  0  0  0
 82159  1  0  0  0
 82160  1  0  0  0
 82 85  1  0  0  0
 83 85  1  0  0  0
 83161  1  0  0  0
 83162  1  0  0  0
 83163  1  0  0  0
 84164  1  0  0  0
 84165  1  0  0  0
 85166  1  0  0  0
 87167  1  0  0  0
M  ISO  4   1 100  68 101  84 101  87 100
M  END
> <chiral flag>
0

> <version>
0

> <s_m_source_file>
/data/baiqing/PycharmProjects/Reinvent-master-3.2/result/LINK_invent/BTK/process_docking_weight1_custom_product_contain_oxygen_bond_distance_aromatic_linkinvent_7_9_3/rearranged_h_0066.sdf

> <i_m_source_file_index>
39

> <r_mmod_Potential_Energy-OPLS-2005>
365.006072998047

> <r_mmod_Stretch_Energy-OPLS-2005>
140.94938659668

> <r_mmod_Bend_Energy-OPLS-2005>
209.885498046875

> <r_mmod_Torsional_Energy-OPLS-2005>
338.978149414062

> <r_mmod_Improper_Torsional_Energy-OPLS-2005>
14.3871212005615

> <r_mmod_Van_der_Waal_Energy-OPLS-2005>
131.680084228516

> <r_mmod_Electrostatic_Energy-OPLS-2005>
-349.692352294922

> <r_mmod_Solvation_Energy-OPLS-2005>
-224.765228271484

> <b_mmod_Minimization_Converged-OPLS-2005>
0

> <r_mmod_RMS_Derivative-OPLS-2005>
5.58220291137695

$$$$
39
                    3D
 Structure written by MMmdl.
175184  0  0  1  0            999 V2000
  -30.6216  -14.6779   20.5118 C   0  0  0  0  0  0
  -30.4418  -12.4216   19.4558 C   0  0  0  0  0  0
  -29.5149  -12.5357   18.2236 C   0  0  0  0  0  0
  -28.0342  -12.3755   18.6240 C   0  0  0  0  0  0
  -27.6553  -13.2275   19.8657 C   0  0  2  0  0  0
  -28.7042  -13.0896   20.9933 C   0  0  0  0  0  0
  -25.2556  -13.8169   20.5689 C   0  0  0  0  0  0
  -24.1849  -13.0444   20.9187 C   0  0  0  0  0  0
  -24.6436  -11.6900   20.8714 C   0  0  0  0  0  0
  -23.9101  -10.4294   21.0373 C   0  0  0  0  0  0
  -24.3631   -9.4211   21.9168 C   0  0  0  0  0  0
  -23.6302   -8.2248   22.0751 C   0  0  0  0  0  0
  -22.4285   -8.0276   21.3550 C   0  0  0  0  0  0
  -21.9932   -9.0252   20.4653 C   0  0  0  0  0  0
  -22.7255  -10.2127   20.3040 C   0  0  0  0  0  0
  -21.6863   -6.0733   22.5270 C   0  0  0  0  0  0
  -21.4008   -6.5633   23.8197 C   0  0  0  0  0  0
  -21.3668   -5.6788   24.9169 C   0  0  0  0  0  0
  -21.6059   -4.3054   24.7222 C   0  0  0  0  0  0
  -21.8822   -3.8140   23.4349 C   0  0  0  0  0  0
  -21.9197   -4.6961   22.3395 C   0  0  0  0  0  0
  -22.7859  -13.5231   21.1848 C   0  0  0  0  0  0
  -22.1665   -4.2148   21.0975 F   0  0  0  0  0  0
  -21.5641   -3.4542   25.7741 F   0  0  0  0  0  0
  -30.0153  -13.4476   20.4307 N   0  0  0  0  0  0
  -26.3026  -12.9387   20.3335 N   0  0  0  0  0  0
  -25.9365  -11.6524   20.5736 N   0  0  0  0  0  0
  -22.0505  -12.8217   22.0391 N   0  0  0  0  0  0
  -25.4264  -15.1902   20.4086 N   0  0  0  0  0  0
  -31.7865  -14.8407   20.1324 O   0  0  0  0  0  0
  -21.6652   -6.8874   21.4241 O   0  0  0  0  0  0
  -22.3554  -14.5549   20.6688 O   0  0  0  0  0  0
  -24.6242  -31.8634   23.2065 C   0  0  0  0  0  0
  -25.9103  -32.4816   23.8369 C   0  0  1  0  0  0
  -27.2202  -27.3492   20.1245 C   0  0  0  0  0  0
  -25.5905  -33.8611   24.2293 N   0  0  0  0  0  0
  -23.4125  -30.4839   21.5577 C   0  0  2  0  0  0
  -24.8501  -28.9376   20.1208 C   0  0  0  0  0  0
  -22.7437  -29.4659   22.5101 C   0  0  0  0  0  0
  -18.0272  -28.1410   22.8510 C   0  0  0  0  0  0
  -24.1457  -36.7325   23.2641 C   0  0  0  0  0  0
  -25.9466  -30.7997   21.3647 C   0  0  0  0  0  0
  -26.0183  -29.4282   20.7170 C   0  0  0  0  0  0
  -27.2074  -28.6481   20.7040 C   0  0  0  0  0  0
  -26.0330  -26.8971   19.5063 C   0  0  0  0  0  0
  -24.8569  -27.6746   19.5041 C   0  0  0  0  0  0
  -23.6133  -29.8106   20.1748 C   0  0  0  0  0  0
  -25.4092  -36.3139   24.0341 C   0  0  1  0  0  0
  -20.5858  -28.3696   23.1355 C   0  0  2  0  0  0
  -20.6774  -26.9435   22.5455 C   0  0  0  0  0  0
  -19.5752  -26.6405   21.5258 C   0  0  0  0  0  0
  -18.1922  -26.7966   22.1633 C   0  0  0  0  0  0
  -19.1520  -28.8876   23.2915 C   0  0  0  0  0  0
  -18.9438  -30.1486   23.8929 C   0  0  0  0  0  0
  -17.6437  -30.6619   24.0586 C   0  0  0  0  0  0
  -25.9044  -34.9490   23.5134 C   0  0  0  0  0  0
  -16.5331  -29.9106   23.6359 C   0  0  0  0  0  0
  -16.7251  -28.6521   23.0381 C   0  0  0  0  0  0
  -26.4452  -31.6629   25.0746 C   0  0  0  0  0  0
  -25.3672  -31.3728   26.1462 C   0  0  0  0  0  0
  -27.0262  -30.3073   24.6135 C   0  0  0  0  0  0
  -27.6010  -32.4359   25.7522 C   0  0  0  0  0  0
  -27.5581  -37.1829   24.8461 C   0  0  0  0  0  0
  -21.4177  -29.3038   22.3772 N   0  0  0  0  0  0
  -26.4285  -37.3830   23.9417 N   0  0  0  0  0  0
  -24.6819  -31.0644   22.1014 N   0  0  0  0  0  0
  -23.4144  -28.8262   23.3244 O   0  0  0  0  0  0
  -28.3567  -26.5393   20.1277 O   0  0  0  0  0  0
  -26.5635  -34.8957   22.4719 O   0  0  0  0  0  0
  -23.5424  -32.1448   23.7409 O   0  0  0  0  0  0
  -30.9685  -19.3921   21.1905 C   0  0  0  0  0  0
  -30.9616  -17.9662   21.2872 C   0  0  0  0  0  0
  -28.9236  -17.9215   20.0233 C   0  0  0  0  0  0
  -28.9412  -19.3509   19.8726 C   0  0  0  0  0  0
  -29.9858  -20.1335   20.4672 C   0  0  0  0  0  0
  -29.9374  -17.1846   20.6936 C   0  0  0  0  0  0
  -31.2239  -22.0204   19.5388 C   0  0  0  0  0  0
  -27.8816  -19.9871   19.0451 C   0  0  0  0  0  0
  -29.1513  -22.5988   20.8269 C   0  0  0  0  0  0
  -29.2155  -24.0589   20.2046 C   0  0  2  0  0  0
  -30.6830  -24.4477   19.9110 C   0  0  1  0  0  0
  -31.0585  -26.1402   21.8138 C   0  0  0  0  0  0
  -32.9445  -25.5547   20.3187 C   0  0  0  0  0  0
  -32.1898  -23.9247   22.0173 C   0  0  0  0  0  0
  -31.9051  -23.7019   17.8872 C   0  0  0  0  0  0
  -28.2376  -25.2007   20.7322 C   0  0  0  0  0  0
  -31.6820  -24.9826   21.0159 C   0  0  0  0  0  0
  -26.7610  -19.4698   18.7613 N   0  0  0  0  0  0
  -30.1437  -21.5971   20.2715 N   0  0  0  0  0  0
  -31.2435  -23.3241   19.1428 N   0  0  0  0  0  0
  -29.8064  -15.7306   20.8547 N   0  0  0  0  0  0
  -32.0726  -21.2334   19.1049 O   0  0  0  0  0  0
  -31.4832  -12.5534   19.1578 H   0  0  0  0  0  0
  -30.3788  -11.4239   19.8956 H   0  0  0  0  0  0
  -29.7893  -11.7891   17.4769 H   0  0  0  0  0  0
  -29.6621  -13.5067   17.7474 H   0  0  0  0  0  0
  -27.8622  -11.3194   18.8308 H   0  0  0  0  0  0
  -27.3881  -12.6356   17.7836 H   0  0  0  0  0  0
  -27.6664  -14.2650   19.5318 H   0  0  0  0  0  0
  -28.7271  -12.0696   21.3811 H   0  0  0  0  0  0
  -28.4492  -13.7241   21.8410 H   0  0  0  0  0  0
  -25.2767   -9.5700   22.4766 H   0  0  0  0  0  0
  -24.0010   -7.4660   22.7472 H   0  0  0  0  0  0
  -21.0849   -8.8758   19.8960 H   0  0  0  0  0  0
  -22.3698  -10.9663   19.6148 H   0  0  0  0  0  0
  -21.1981   -7.6136   23.9710 H   0  0  0  0  0  0
  -21.1491   -6.0516   25.9078 H   0  0  0  0  0  0
  -22.0599   -2.7607   23.2844 H   0  0  0  0  0  0
  -22.4097  -11.9850   22.4764 H   0  0  0  0  0  0
  -21.1117  -13.1242   22.2574 H   0  0  0  0  0  0
  -24.6568  -15.8412   20.5082 H   0  0  0  0  0  0
  -26.2699  -15.6231   20.0606 H   0  0  0  0  0  0
  -26.7173  -32.5468   23.1121 H   0  0  0  0  0  0
  -24.9977  -33.9729   25.0385 H   0  0  0  0  0  0
  -22.7068  -31.3061   21.4239 H   0  0  0  0  0  0
  -23.3752  -35.9627   23.3292 H   0  0  0  0  0  0
  -24.3552  -36.8963   22.2061 H   0  0  0  0  0  0
  -23.7146  -37.6497   23.6662 H   0  0  0  0  0  0
  -26.0526  -31.5484   20.5784 H   0  0  0  0  0  0
  -26.8385  -30.8640   21.9759 H   0  0  0  0  0  0
  -28.1119  -29.0233   21.1603 H   0  0  0  0  0  0
  -26.0051  -25.9320   19.0207 H   0  0  0  0  0  0
  -23.9585  -27.2957   19.0297 H   0  0  0  0  0  0
  -23.7063  -30.5833   19.4102 H   0  0  0  0  0  0
  -22.7307  -29.2269   19.9007 H   0  0  0  0  0  0
  -25.1272  -36.2017   25.0841 H   0  0  0  0  0  0
  -20.9908  -28.3266   24.1491 H   0  0  0  0  0  0
  -20.5720  -26.2311   23.3649 H   0  0  0  0  0  0
  -21.6643  -26.7525   22.1214 H   0  0  0  0  0  0
  -19.6912  -25.6309   21.1304 H   0  0  0  0  0  0
  -19.6716  -27.3207   20.6787 H   0  0  0  0  0  0
  -17.4215  -26.6763   21.4004 H   0  0  0  0  0  0
  -18.0273  -26.0091   22.8996 H   0  0  0  0  0  0
  -19.7905  -30.7310   24.2298 H   0  0  0  0  0  0
  -17.4984  -31.6308   24.5156 H   0  0  0  0  0  0
  -15.5329  -30.3009   23.7700 H   0  0  0  0  0  0
  -15.8643  -28.0839   22.7115 H   0  0  0  0  0  0
  -24.5893  -30.7028   25.7783 H   0  0  0  0  0  0
  -24.8788  -32.2858   26.4881 H   0  0  0  0  0  0
  -25.7992  -30.8922   27.0250 H   0  0  0  0  0  0
  -26.2803  -29.6904   24.1112 H   0  0  0  0  0  0
  -27.3929  -29.7255   25.4603 H   0  0  0  0  0  0
  -27.8682  -30.4406   23.9343 H   0  0  0  0  0  0
  -27.2611  -33.3648   26.2115 H   0  0  0  0  0  0
  -28.3801  -32.6954   25.0345 H   0  0  0  0  0  0
  -28.0693  -31.8482   26.5426 H   0  0  0  0  0  0
  -28.2614  -38.0119   24.7557 H   0  0  0  0  0  0
  -28.1069  -36.2673   24.6225 H   0  0  0  0  0  0
  -27.2316  -37.1395   25.8865 H   0  0  0  0  0  0
  -20.9385  -29.8636   21.6857 H   0  0  0  0  0  0
  -26.0193  -38.2914   24.1433 H   0  0  0  0  0  0
  -31.7785  -19.9313   21.6653 H   0  0  0  0  0  0
  -31.7471  -17.4808   21.8486 H   0  0  0  0  0  0
  -28.1168  -17.3596   19.5741 H   0  0  0  0  0  0
  -28.1063  -20.9829   18.6520 H   0  0  0  0  0  0
  -28.1384  -22.2260   20.6852 H   0  0  0  0  0  0
  -29.2901  -22.6502   21.9077 H   0  0  0  0  0  0
  -28.8079  -23.9080   19.2034 H   0  0  0  0  0  0
  -30.5582  -25.2977   19.2422 H   0  0  0  0  0  0
  -30.6196  -26.8864   21.1509 H   0  0  0  0  0  0
  -31.7965  -26.6578   22.4263 H   0  0  0  0  0  0
  -30.2916  -25.7920   22.5015 H   0  0  0  0  0  0
  -32.6854  -26.2019   19.4802 H   0  0  0  0  0  0
  -33.5927  -24.7677   19.9310 H   0  0  0  0  0  0
  -33.5658  -26.1487   20.9914 H   0  0  0  0  0  0
  -31.3780  -23.3891   22.5044 H   0  0  0  0  0  0
  -32.7819  -24.4011   22.8015 H   0  0  0  0  0  0
  -32.8484  -23.1893   21.5535 H   0  0  0  0  0  0
  -32.9828  -23.7370   18.0346 H   0  0  0  0  0  0
  -31.5838  -24.6762   17.5143 H   0  0  0  0  0  0
  -31.6936  -22.9843   17.0933 H   0  0  0  0  0  0
  -28.3291  -25.3164   21.8091 H   0  0  0  0  0  0
  -27.2246  -24.8236   20.5954 H   0  0  0  0  0  0
  -26.6524  -18.5541   19.1811 H   0  0  0  0  0  0
  -28.8713  -15.4197   21.0719 H   0  0  0  0  0  0
  1 25  1  0  0  0
  1 30  2  0  0  0
  1 91  1  0  0  0
  2  3  1  0  0  0
  2 25  1  0  0  0
  2 93  1  0  0  0
  2 94  1  0  0  0
  3  4  1  0  0  0
  3 95  1  0  0  0
  3 96  1  0  0  0
  4  5  1  0  0  0
  4 97  1  0  0  0
  4 98  1  0  0  0
  5  6  1  0  0  0
  5 26  1  0  0  0
  5 99  1  0  0  0
  6 25  1  0  0  0
  6100  1  0  0  0
  6101  1  0  0  0
  7  8  2  0  0  0
  7 26  1  0  0  0
  7 29  1  0  0  0
  8  9  1  0  0  0
  8 22  1  0  0  0
  9 10  1  0  0  0
  9 27  2  0  0  0
 10 11  2  0  0  0
 10 15  1  0  0  0
 11 12  1  0  0  0
 11102  1  0  0  0
 12 13  2  0  0  0
 12103  1  0  0  0
 13 14  1  0  0  0
 13 31  1  0  0  0
 14 15  2  0  0  0
 14104  1  0  0  0
 15105  1  0  0  0
 16 17  2  0  0  0
 16 21  1  0  0  0
 16 31  1  0  0  0
 17 18  1  0  0  0
 17106  1  0  0  0
 18 19  2  0  0  0
 18107  1  0  0  0
 19 20  1  0  0  0
 19 24  1  0  0  0
 20 21  2  0  0  0
 20108  1  0  0  0
 21 23  1  0  0  0
 22 28  1  0  0  0
 22 32  2  0  0  0
 26 27  1  0  0  0
 28109  1  0  0  0
 28110  1  0  0  0
 29111  1  0  0  0
 29112  1  0  0  0
 33 34  1  0  0  0
 33 66  1  0  0  0
 33 70  2  0  0  0
 34 36  1  0  0  0
 34 59  1  0  0  0
 34113  1  0  0  0
 35 44  2  0  0  0
 35 45  1  0  0  0
 35 68  1  0  0  0
 36 56  1  0  0  0
 36114  1  0  0  0
 37 39  1  0  0  0
 37 47  1  0  0  0
 37 66  1  0  0  0
 37115  1  0  0  0
 38 43  2  0  0  0
 38 46  1  0  0  0
 38 47  1  0  0  0
 39 64  1  0  0  0
 39 67  2  0  0  0
 40 52  1  0  0  0
 40 53  2  0  0  0
 40 58  1  0  0  0
 41116  1  0  0  0
 41117  1  0  0  0
 41118  1  0  0  0
 41 48  1  0  0  0
 42 43  1  0  0  0
 42 66  1  0  0  0
 42119  1  0  0  0
 42120  1  0  0  0
 43 44  1  0  0  0
 44121  1  0  0  0
 45 46  2  0  0  0
 45122  1  0  0  0
 46123  1  0  0  0
 47124  1  0  0  0
 47125  1  0  0  0
 48 56  1  0  0  0
 48 65  1  0  0  0
 48126  1  0  0  0
 49 50  1  0  0  0
 49 53  1  0  0  0
 49 64  1  0  0  0
 49127  1  0  0  0
 50 51  1  0  0  0
 50128  1  0  0  0
 50129  1  0  0  0
 51 52  1  0  0  0
 51130  1  0  0  0
 51131  1  0  0  0
 52132  1  0  0  0
 52133  1  0  0  0
 53 54  1  0  0  0
 54 55  2  0  0  0
 54134  1  0  0  0
 55 57  1  0  0  0
 55135  1  0  0  0
 56 69  2  0  0  0
 57 58  2  0  0  0
 57136  1  0  0  0
 58137  1  0  0  0
 59 60  1  0  0  0
 59 61  1  0  0  0
 59 62  1  0  0  0
 60138  1  0  0  0
 60139  1  0  0  0
 60140  1  0  0  0
 61141  1  0  0  0
 61142  1  0  0  0
 61143  1  0  0  0
 62144  1  0  0  0
 62145  1  0  0  0
 62146  1  0  0  0
 63 65  1  0  0  0
 63147  1  0  0  0
 63148  1  0  0  0
 63149  1  0  0  0
 64150  1  0  0  0
 65151  1  0  0  0
 68 86  1  0  0  0
 71 72  2  0  0  0
 71 75  1  0  0  0
 71152  1  0  0  0
 72 76  1  0  0  0
 72153  1  0  0  0
 73 74  1  0  0  0
 73 76  2  0  0  0
 73154  1  0  0  0
 74 75  2  0  0  0
 74 78  1  0  0  0
 75 89  1  0  0  0
 76 91  1  0  0  0
 77 89  1  0  0  0
 77 90  1  0  0  0
 77 92  2  0  0  0
 78 88  2  0  0  0
 78155  1  0  0  0
 79 80  1  0  0  0
 79 89  1  0  0  0
 79156  1  0  0  0
 79157  1  0  0  0
 80 81  1  0  0  0
 80 86  1  0  0  0
 80158  1  0  0  0
 81 87  1  0  0  0
 81 90  1  0  0  0
 81159  1  0  0  0
 82160  1  0  0  0
 82161  1  0  0  0
 82162  1  0  0  0
 82 87  1  0  0  0
 83 87  1  0  0  0
 83163  1  0  0  0
 83164  1  0  0  0
 83165  1  0  0  0
 84 87  1  0  0  0
 84166  1  0  0  0
 84167  1  0  0  0
 84168  1  0  0  0
 85 90  1  0  0  0
 85169  1  0  0  0
 85170  1  0  0  0
 85171  1  0  0  0
 86172  1  0  0  0
 86173  1  0  0  0
 88174  1  0  0  0
 91175  1  0  0  0
M  ISO  4   1 100  68 101  86 101  91 100
M  END
> <chiral flag>
0

> <version>
0

> <s_m_source_file>
/data/baiqing/PycharmProjects/Reinvent-master-3.2/result/LINK_invent/BTK/process_docking_weight1_custom_product_contain_oxygen_bond_distance_aromatic_linkinvent_7_9_3/rearranged_h_0066.sdf

> <i_m_source_file_index>
40

> <r_mmod_Potential_Energy-OPLS-2005>
318.431091308594

> <r_mmod_Stretch_Energy-OPLS-2005>
95.9297790527344

> <r_mmod_Bend_Energy-OPLS-2005>
174.073928833008

> <r_mmod_Torsional_Energy-OPLS-2005>
427.499114990234

> <r_mmod_Improper_Torsional_Energy-OPLS-2005>
7.57364797592163

> <r_mmod_Van_der_Waal_Energy-OPLS-2005>
165.495864868164

> <r_mmod_Electrostatic_Energy-OPLS-2005>
-365.128723144531

> <r_mmod_Solvation_Energy-OPLS-2005>
-234.54020690918

> <b_mmod_Minimization_Converged-OPLS-2005>
0

> <r_mmod_RMS_Derivative-OPLS-2005>
4.70631742477417

$$$$
40
                    3D
 Structure written by MMmdl.
161170  0  0  1  0            999 V2000
  -30.5677  -14.7556   20.5378 C   0  0  0  0  0  0
  -30.4519  -12.4759   19.4790 C   0  0  0  0  0  0
  -29.5222  -12.5416   18.2439 C   0  0  0  0  0  0
  -28.0472  -12.3522   18.6483 C   0  0  0  0  0  0
  -27.6536  -13.2260   19.8673 C   0  0  2  0  0  0
  -28.6929  -13.0999   21.0048 C   0  0  0  0  0  0
  -25.2532  -13.8155   20.5588 C   0  0  0  0  0  0
  -24.1833  -13.0436   20.9195 C   0  0  0  0  0  0
  -24.6415  -11.6912   20.8751 C   0  0  0  0  0  0
  -23.9079  -10.4297   21.0414 C   0  0  0  0  0  0
  -24.3625   -9.4209   21.9190 C   0  0  0  0  0  0
  -23.6293   -8.2250   22.0759 C   0  0  0  0  0  0
  -22.4275   -8.0295   21.3547 C   0  0  0  0  0  0
  -21.9910   -9.0271   20.4648 C   0  0  0  0  0  0
  -22.7249  -10.2144   20.3060 C   0  0  0  0  0  0
  -21.6857   -6.0738   22.5275 C   0  0  0  0  0  0
  -21.4017   -6.5637   23.8213 C   0  0  0  0  0  0
  -21.3656   -5.6783   24.9172 C   0  0  0  0  0  0
  -21.6047   -4.3048   24.7220 C   0  0  0  0  0  0
  -21.8820   -3.8143   23.4340 C   0  0  0  0  0  0
  -21.9195   -4.6964   22.3396 C   0  0  0  0  0  0
  -22.7862  -13.5250   21.1854 C   0  0  0  0  0  0
  -22.1665   -4.2152   21.0973 F   0  0  0  0  0  0
  -21.5626   -3.4528   25.7732 F   0  0  0  0  0  0
  -30.0050  -13.4950   20.4618 N   0  0  0  0  0  0
  -26.2990  -12.9361   20.3287 N   0  0  0  0  0  0
  -25.9347  -11.6514   20.5750 N   0  0  0  0  0  0
  -22.0491  -12.8249   22.0405 N   0  0  0  0  0  0
  -25.4187  -15.1833   20.3767 N   0  0  0  0  0  0
  -31.6591  -14.9795   20.0040 O   0  0  0  0  0  0
  -21.6646   -6.8885   21.4240 O   0  0  0  0  0  0
  -22.3541  -14.5546   20.6686 O   0  0  0  0  0  0
  -24.6342  -31.8534   23.1980 C   0  0  0  0  0  0
  -25.9159  -32.4742   23.8330 C   0  0  1  0  0  0
  -27.2208  -27.2433   20.1260 C   0  0  0  0  0  0
  -25.5943  -33.8544   24.2252 N   0  0  0  0  0  0
  -23.4321  -30.4777   21.5410 C   0  0  2  0  0  0
  -24.8800  -28.9266   20.1085 C   0  0  0  0  0  0
  -22.7520  -29.4594   22.4890 C   0  0  0  0  0  0
  -18.0296  -28.1389   22.8478 C   0  0  0  0  0  0
  -24.1489  -36.7278   23.2640 C   0  0  0  0  0  0
  -25.9813  -30.7606   21.3824 C   0  0  0  0  0  0
  -26.0540  -29.3834   20.7206 C   0  0  0  0  0  0
  -27.2267  -28.5553   20.7181 C   0  0  0  0  0  0
  -26.0207  -26.8676   19.4764 C   0  0  0  0  0  0
  -24.8700  -27.6771   19.4748 C   0  0  0  0  0  0
  -23.6524  -29.8159   20.1563 C   0  0  0  0  0  0
  -25.4114  -36.3058   24.0326 C   0  0  1  0  0  0
  -20.5903  -28.3698   23.1253 C   0  0  2  0  0  0
  -20.6785  -26.9406   22.5407 C   0  0  0  0  0  0
  -19.5759  -26.6372   21.5211 C   0  0  0  0  0  0
  -18.1938  -26.7927   22.1622 C   0  0  0  0  0  0
  -19.1553  -28.8861   23.2858 C   0  0  0  0  0  0
  -18.9475  -30.1459   23.8884 C   0  0  0  0  0  0
  -17.6473  -30.6585   24.0561 C   0  0  0  0  0  0
  -25.9059  -34.9431   23.5092 C   0  0  0  0  0  0
  -16.5364  -29.9082   23.6331 C   0  0  0  0  0  0
  -16.7282  -28.6503   23.0347 C   0  0  0  0  0  0
  -26.4518  -31.6576   25.0732 C   0  0  0  0  0  0
  -25.3738  -31.3730   26.1452 C   0  0  0  0  0  0
  -27.0374  -30.2985   24.6246 C   0  0  0  0  0  0
  -27.6057  -32.4330   25.7510 C   0  0  0  0  0  0
  -27.5574  -37.1794   24.8462 C   0  0  0  0  0  0
  -21.4223  -29.3043   22.3638 N   0  0  0  0  0  0
  -26.4280  -37.3764   23.9411 N   0  0  0  0  0  0
  -24.7016  -31.0488   22.0965 N   0  0  0  0  0  0
  -23.4211  -28.8129   23.2993 O   0  0  0  0  0  0
  -28.2994  -26.3172   20.1941 O   0  0  0  0  0  0
  -26.5627  -34.8911   22.4658 O   0  0  0  0  0  0
  -23.5485  -32.1365   23.7260 O   0  0  0  0  0  0
  -27.9212  -16.9275   21.7138 C   0  0  0  0  0  0
  -29.6231  -18.3540   20.7171 C   0  0  0  0  0  0
  -27.0700  -18.0362   21.8557 C   0  0  0  0  0  0
  -28.7609  -19.5505   20.8462 C   0  0  0  0  0  0
  -29.2065  -17.0104   21.1431 C   0  0  0  0  0  0
  -27.4719  -19.3069   21.4032 C   0  0  0  0  0  0
  -30.0535  -21.4755   19.7087 C   0  0  0  0  0  0
  -28.2109  -22.2029   20.8091 C   0  0  0  0  0  0
  -29.9492  -23.0131   19.4459 C   0  0  1  0  0  0
  -28.9333  -23.5758   20.4683 C   0  0  1  0  0  0
  -31.3123  -23.7245   19.4948 C   0  0  0  0  0  0
  -27.9920  -24.8423   20.0386 C   0  0  0  0  0  0
  -25.7044  -17.8743   22.5217 C   0  0  0  0  0  0
  -29.0665  -20.9925   20.4921 N   0  0  0  0  0  0
  -29.9062  -15.6980   21.3073 N   0  0  0  0  0  0
  -30.9635  -20.7998   19.2201 O   0  0  0  0  0  0
  -26.5631  -20.3034   21.5218 F   0  0  0  0  0  0
  -25.5716  -16.6858   23.1140 F   0  0  0  0  0  0
  -25.5271  -18.8020   23.4640 F   0  0  0  0  0  0
  -24.7371  -18.0005   21.6127 F   0  0  0  0  0  0
  -31.4894  -12.6303   19.1790 H   0  0  0  0  0  0
  -30.4201  -11.4826   19.9289 H   0  0  0  0  0  0
  -29.8085  -11.7840   17.5128 H   0  0  0  0  0  0
  -29.6431  -13.5051   17.7463 H   0  0  0  0  0  0
  -27.9006  -11.2979   18.8866 H   0  0  0  0  0  0
  -27.3936  -12.5676   17.8022 H   0  0  0  0  0  0
  -27.6652  -14.2603   19.5222 H   0  0  0  0  0  0
  -28.7309  -12.0735   21.3726 H   0  0  0  0  0  0
  -28.3988  -13.7042   21.8626 H   0  0  0  0  0  0
  -25.2768   -9.5685   22.4765 H   0  0  0  0  0  0
  -24.0001   -7.4640   22.7473 H   0  0  0  0  0  0
  -21.0842   -8.8797   19.8951 H   0  0  0  0  0  0
  -22.3713  -10.9690   19.6175 H   0  0  0  0  0  0
  -21.2007   -7.6143   23.9717 H   0  0  0  0  0  0
  -21.1477   -6.0510   25.9074 H   0  0  0  0  0  0
  -22.0598   -2.7604   23.2838 H   0  0  0  0  0  0
  -22.4107  -11.9927   22.4821 H   0  0  0  0  0  0
  -21.1116  -13.1294   22.2604 H   0  0  0  0  0  0
  -24.6401  -15.8247   20.4724 H   0  0  0  0  0  0
  -26.2269  -15.5942   19.9311 H   0  0  0  0  0  0
  -26.7224  -32.5387   23.1067 H   0  0  0  0  0  0
  -25.0081  -33.9671   25.0392 H   0  0  0  0  0  0
  -22.7296  -31.3009   21.3947 H   0  0  0  0  0  0
  -23.3749  -35.9611   23.3296 H   0  0  0  0  0  0
  -24.3584  -36.8912   22.2058 H   0  0  0  0  0  0
  -23.7250  -37.6479   23.6674 H   0  0  0  0  0  0
  -26.1266  -31.5223   20.6152 H   0  0  0  0  0  0
  -26.8563  -30.8056   22.0191 H   0  0  0  0  0  0
  -28.1220  -28.8988   21.2176 H   0  0  0  0  0  0
  -25.9312  -25.9174   18.9730 H   0  0  0  0  0  0
  -23.9740  -27.3233   18.9836 H   0  0  0  0  0  0
  -23.7799  -30.5944   19.4029 H   0  0  0  0  0  0
  -22.7700  -29.2524   19.8478 H   0  0  0  0  0  0
  -25.1296  -36.1898   25.0816 H   0  0  0  0  0  0
  -20.9991  -28.3287   24.1375 H   0  0  0  0  0  0
  -20.5676  -26.2310   23.3619 H   0  0  0  0  0  0
  -21.6656  -26.7420   22.1213 H   0  0  0  0  0  0
  -19.6919  -25.6279   21.1250 H   0  0  0  0  0  0
  -19.6697  -27.3173   20.6734 H   0  0  0  0  0  0
  -17.4205  -26.6665   21.4028 H   0  0  0  0  0  0
  -18.0332  -26.0077   22.9026 H   0  0  0  0  0  0
  -19.7949  -30.7273   24.2256 H   0  0  0  0  0  0
  -17.5028  -31.6264   24.5159 H   0  0  0  0  0  0
  -15.5366  -30.2979   23.7668 H   0  0  0  0  0  0
  -15.8679  -28.0821   22.7066 H   0  0  0  0  0  0
  -24.5915  -30.7070   25.7793 H   0  0  0  0  0  0
  -24.8929  -32.2899   26.4869 H   0  0  0  0  0  0
  -25.8065  -30.8925   27.0236 H   0  0  0  0  0  0
  -26.2972  -29.6716   24.1260 H   0  0  0  0  0  0
  -27.4026  -29.7268   25.4789 H   0  0  0  0  0  0
  -27.8863  -30.4246   23.9523 H   0  0  0  0  0  0
  -27.2650  -33.3636   26.2061 H   0  0  0  0  0  0
  -28.3885  -32.6883   25.0355 H   0  0  0  0  0  0
  -28.0704  -31.8476   26.5454 H   0  0  0  0  0  0
  -28.2583  -38.0097   24.7513 H   0  0  0  0  0  0
  -28.1077  -36.2630   24.6278 H   0  0  0  0  0  0
  -27.2294  -37.1433   25.8864 H   0  0  0  0  0  0
  -20.9407  -29.8779   21.6855 H   0  0  0  0  0  0
  -26.0154  -38.2833   24.1421 H   0  0  0  0  0  0
  -27.5655  -15.9793   22.0883 H   0  0  0  0  0  0
  -30.6247  -18.4762   20.3288 H   0  0  0  0  0  0
  -27.2995  -22.1379   20.2122 H   0  0  0  0  0  0
  -27.9167  -22.2065   21.8593 H   0  0  0  0  0  0
  -29.5309  -23.1226   18.4446 H   0  0  0  0  0  0
  -29.4748  -23.8714   21.3675 H   0  0  0  0  0  0
  -31.7957  -23.5918   20.4635 H   0  0  0  0  0  0
  -31.1986  -24.7951   19.3227 H   0  0  0  0  0  0
  -31.9870  -23.3386   18.7297 H   0  0  0  0  0  0
  -27.0713  -24.6873   20.6034 H   0  0  0  0  0  0
  -27.7238  -24.6811   18.9942 H   0  0  0  0  0  0
  -29.3761  -15.1395   21.9582 H   0  0  0  0  0  0
  1 25  1  0  0  0
  1 30  2  0  0  0
  1 85  1  0  0  0
  2  3  1  0  0  0
  2 25  1  0  0  0
  2 91  1  0  0  0
  2 92  1  0  0  0
  3  4  1  0  0  0
  3 93  1  0  0  0
  3 94  1  0  0  0
  4  5  1  0  0  0
  4 95  1  0  0  0
  4 96  1  0  0  0
  5  6  1  0  0  0
  5 26  1  0  0  0
  5 97  1  0  0  0
  6 25  1  0  0  0
  6 98  1  0  0  0
  6 99  1  0  0  0
  7  8  2  0  0  0
  7 26  1  0  0  0
  7 29  1  0  0  0
  8  9  1  0  0  0
  8 22  1  0  0  0
  9 10  1  0  0  0
  9 27  2  0  0  0
 10 11  2  0  0  0
 10 15  1  0  0  0
 11 12  1  0  0  0
 11100  1  0  0  0
 12 13  2  0  0  0
 12101  1  0  0  0
 13 14  1  0  0  0
 13 31  1  0  0  0
 14 15  2  0  0  0
 14102  1  0  0  0
 15103  1  0  0  0
 16 17  2  0  0  0
 16 21  1  0  0  0
 16 31  1  0  0  0
 17 18  1  0  0  0
 17104  1  0  0  0
 18 19  2  0  0  0
 18105  1  0  0  0
 19 20  1  0  0  0
 19 24  1  0  0  0
 20 21  2  0  0  0
 20106  1  0  0  0
 21 23  1  0  0  0
 22 28  1  0  0  0
 22 32  2  0  0  0
 26 27  1  0  0  0
 28107  1  0  0  0
 28108  1  0  0  0
 29109  1  0  0  0
 29110  1  0  0  0
 33 34  1  0  0  0
 33 66  1  0  0  0
 33 70  2  0  0  0
 34 36  1  0  0  0
 34 59  1  0  0  0
 34111  1  0  0  0
 35 44  2  0  0  0
 35 45  1  0  0  0
 35 68  1  0  0  0
 36 56  1  0  0  0
 36112  1  0  0  0
 37 39  1  0  0  0
 37 47  1  0  0  0
 37 66  1  0  0  0
 37113  1  0  0  0
 38 43  2  0  0  0
 38 46  1  0  0  0
 38 47  1  0  0  0
 39 64  1  0  0  0
 39 67  2  0  0  0
 40 52  1  0  0  0
 40 53  2  0  0  0
 40 58  1  0  0  0
 41114  1  0  0  0
 41115  1  0  0  0
 41116  1  0  0  0
 41 48  1  0  0  0
 42 43  1  0  0  0
 42 66  1  0  0  0
 42117  1  0  0  0
 42118  1  0  0  0
 43 44  1  0  0  0
 44119  1  0  0  0
 45 46  2  0  0  0
 45120  1  0  0  0
 46121  1  0  0  0
 47122  1  0  0  0
 47123  1  0  0  0
 48 56  1  0  0  0
 48 65  1  0  0  0
 48124  1  0  0  0
 49 50  1  0  0  0
 49 53  1  0  0  0
 49 64  1  0  0  0
 49125  1  0  0  0
 50 51  1  0  0  0
 50126  1  0  0  0
 50127  1  0  0  0
 51 52  1  0  0  0
 51128  1  0  0  0
 51129  1  0  0  0
 52130  1  0  0  0
 52131  1  0  0  0
 53 54  1  0  0  0
 54 55  2  0  0  0
 54132  1  0  0  0
 55 57  1  0  0  0
 55133  1  0  0  0
 56 69  2  0  0  0
 57 58  2  0  0  0
 57134  1  0  0  0
 58135  1  0  0  0
 59 60  1  0  0  0
 59 61  1  0  0  0
 59 62  1  0  0  0
 60136  1  0  0  0
 60137  1  0  0  0
 60138  1  0  0  0
 61139  1  0  0  0
 61140  1  0  0  0
 61141  1  0  0  0
 62142  1  0  0  0
 62143  1  0  0  0
 62144  1  0  0  0
 63 65  1  0  0  0
 63145  1  0  0  0
 63146  1  0  0  0
 63147  1  0  0  0
 64148  1  0  0  0
 65149  1  0  0  0
 68 82  1  0  0  0
 71 73  2  0  0  0
 71 75  1  0  0  0
 71150  1  0  0  0
 72 74  1  0  0  0
 72 75  2  0  0  0
 72151  1  0  0  0
 73 76  1  0  0  0
 73 83  1  0  0  0
 74 76  2  0  0  0
 74 84  1  0  0  0
 75 85  1  0  0  0
 76 87  1  0  0  0
 77 79  1  0  0  0
 77 84  1  0  0  0
 77 86  2  0  0  0
 78 80  1  0  0  0
 78 84  1  0  0  0
 78152  1  0  0  0
 78153  1  0  0  0
 79 80  1  0  0  0
 79 81  1  0  0  0
 79154  1  0  0  0
 80 82  1  0  0  0
 80155  1  0  0  0
 81156  1  0  0  0
 81157  1  0  0  0
 81158  1  0  0  0
 82159  1  0  0  0
 82160  1  0  0  0
 83 88  1  0  0  0
 83 89  1  0  0  0
 83 90  1  0  0  0
 85161  1  0  0  0
M  ISO  4   1 100  68 101  82 101  85 100
M  END
> <chiral flag>
0

> <version>
0

> <s_m_source_file>
/data/baiqing/PycharmProjects/Reinvent-master-3.2/result/LINK_invent/BTK/process_docking_weight1_custom_product_contain_oxygen_bond_distance_aromatic_linkinvent_7_9_3/rearranged_h_0066.sdf

> <i_m_source_file_index>
41

> <r_mmod_Potential_Energy-OPLS-2005>
371.594085693359

> <r_mmod_Stretch_Energy-OPLS-2005>
149.427749633789

> <r_mmod_Bend_Energy-OPLS-2005>
262.627593994141

> <r_mmod_Torsional_Energy-OPLS-2005>
290.886596679688

> <r_mmod_Improper_Torsional_Energy-OPLS-2005>
7.98035717010498

> <r_mmod_Van_der_Waal_Energy-OPLS-2005>
142.458587646484

> <r_mmod_Electrostatic_Energy-OPLS-2005>
-357.049865722656

> <r_mmod_Solvation_Energy-OPLS-2005>
-221.493392944336

> <b_mmod_Minimization_Converged-OPLS-2005>
0

> <r_mmod_RMS_Derivative-OPLS-2005>
1.16556262969971

$$$$
41
                    3D
 Structure written by MMmdl.
156165  0  0  1  0            999 V2000
  -30.5936  -14.6747   20.5057 C   0  0  0  0  0  0
  -30.4433  -12.4155   19.4608 C   0  0  0  0  0  0
  -29.5144  -12.5171   18.2293 C   0  0  0  0  0  0
  -28.0361  -12.3500   18.6362 C   0  0  0  0  0  0
  -27.6529  -13.2184   19.8634 C   0  0  2  0  0  0
  -28.6951  -13.0727   20.9953 C   0  0  0  0  0  0
  -25.2546  -13.8164   20.5650 C   0  0  0  0  0  0
  -24.1820  -13.0437   20.9190 C   0  0  0  0  0  0
  -24.6393  -11.6910   20.8734 C   0  0  0  0  0  0
  -23.9066  -10.4297   21.0400 C   0  0  0  0  0  0
  -24.3620   -9.4214   21.9177 C   0  0  0  0  0  0
  -23.6295   -8.2251   22.0751 C   0  0  0  0  0  0
  -22.4276   -8.0285   21.3544 C   0  0  0  0  0  0
  -21.9908   -9.0256   20.4643 C   0  0  0  0  0  0
  -22.7239  -10.2133   20.3050 C   0  0  0  0  0  0
  -21.6855   -6.0732   22.5277 C   0  0  0  0  0  0
  -21.4014   -6.5634   23.8209 C   0  0  0  0  0  0
  -21.3659   -5.6784   24.9168 C   0  0  0  0  0  0
  -21.6043   -4.3046   24.7225 C   0  0  0  0  0  0
  -21.8822   -3.8141   23.4342 C   0  0  0  0  0  0
  -21.9196   -4.6958   22.3394 C   0  0  0  0  0  0
  -22.7844  -13.5237   21.1856 C   0  0  0  0  0  0
  -22.1667   -4.2146   21.0970 F   0  0  0  0  0  0
  -21.5623   -3.4531   25.7741 F   0  0  0  0  0  0
  -30.0080  -13.4345   20.4387 N   0  0  0  0  0  0
  -26.2982  -12.9351   20.3294 N   0  0  0  0  0  0
  -25.9323  -11.6507   20.5744 N   0  0  0  0  0  0
  -22.0473  -12.8239   22.0408 N   0  0  0  0  0  0
  -25.4230  -15.1881   20.4012 N   0  0  0  0  0  0
  -31.7481  -14.8502   20.0997 O   0  0  0  0  0  0
  -21.6639   -6.8882   21.4243 O   0  0  0  0  0  0
  -22.3539  -14.5540   20.6698 O   0  0  0  0  0  0
  -24.6262  -31.8596   23.2020 C   0  0  0  0  0  0
  -25.9101  -32.4783   23.8357 C   0  0  1  0  0  0
  -27.2223  -27.3125   20.1264 C   0  0  0  0  0  0
  -25.5910  -33.8578   24.2281 N   0  0  0  0  0  0
  -23.4215  -30.4822   21.5444 C   0  0  2  0  0  0
  -24.8696  -28.9341   20.1124 C   0  0  0  0  0  0
  -22.7485  -29.4611   22.4935 C   0  0  0  0  0  0
  -18.0290  -28.1390   22.8492 C   0  0  0  0  0  0
  -24.1489  -36.7289   23.2646 C   0  0  0  0  0  0
  -25.9627  -30.7891   21.3738 C   0  0  0  0  0  0
  -26.0386  -29.4136   20.7202 C   0  0  0  0  0  0
  -27.2206  -28.6131   20.7188 C   0  0  0  0  0  0
  -26.0356  -26.8863   19.4926 C   0  0  0  0  0  0
  -24.8697  -27.6757   19.4897 C   0  0  0  0  0  0
  -23.6380  -29.8166   20.1594 C   0  0  0  0  0  0
  -25.4111  -36.3083   24.0333 C   0  0  1  0  0  0
  -20.5891  -28.3690   23.1290 C   0  0  2  0  0  0
  -20.6777  -26.9414   22.5415 C   0  0  0  0  0  0
  -19.5749  -26.6390   21.5221 C   0  0  0  0  0  0
  -18.1929  -26.7933   22.1632 C   0  0  0  0  0  0
  -19.1545  -28.8858   23.2889 C   0  0  0  0  0  0
  -18.9465  -30.1459   23.8917 C   0  0  0  0  0  0
  -17.6462  -30.6587   24.0571 C   0  0  0  0  0  0
  -25.9049  -34.9453   23.5116 C   0  0  0  0  0  0
  -16.5353  -29.9092   23.6322 C   0  0  0  0  0  0
  -16.7274  -28.6503   23.0350 C   0  0  0  0  0  0
  -26.4479  -31.6586   25.0725 C   0  0  0  0  0  0
  -25.3711  -31.3712   26.1451 C   0  0  0  0  0  0
  -27.0311  -30.3015   24.6163 C   0  0  0  0  0  0
  -27.6056  -32.4302   25.7485 C   0  0  0  0  0  0
  -27.5565  -37.1812   24.8465 C   0  0  0  0  0  0
  -21.4199  -29.3038   22.3674 N   0  0  0  0  0  0
  -26.4289  -37.3773   23.9398 N   0  0  0  0  0  0
  -24.6889  -31.0607   22.0972 N   0  0  0  0  0  0
  -23.4199  -28.8159   23.3022 O   0  0  0  0  0  0
  -28.3151  -26.4345   20.1423 O   0  0  0  0  0  0
  -26.5627  -34.8916   22.4688 O   0  0  0  0  0  0
  -23.5424  -32.1389   23.7346 O   0  0  0  0  0  0
  -30.5812  -19.2724   19.6644 C   0  0  0  0  0  0
  -30.6709  -17.8607   19.8683 C   0  0  0  0  0  0
  -28.7245  -19.4001   21.1591 C   0  0  0  0  0  0
  -28.8040  -17.9832   21.3715 C   0  0  0  0  0  0
  -29.6002  -20.1076   20.2887 C   0  0  0  0  0  0
  -29.7822  -17.1633   20.7248 C   0  0  0  0  0  0
  -28.7552  -23.9590   20.2453 C   0  0  0  0  0  0
  -30.1944  -22.3311   19.1765 C   0  0  0  0  0  0
  -28.0968  -25.1155   20.6024 C   0  0  0  0  0  0
  -29.8462  -23.8229   19.2292 C   0  0  0  0  0  0
  -28.5398  -22.5080   20.7710 C   0  0  0  0  0  0
  -27.8091  -17.3554   22.3354 C   0  0  0  0  0  0
  -29.4872  -21.5801   20.0654 N   0  0  0  0  0  0
  -29.7827  -15.7033   20.9278 N   0  0  0  0  0  0
  -31.0357  -21.9291   18.3686 O   0  0  0  0  0  0
  -31.4832  -12.5525   19.1605 H   0  0  0  0  0  0
  -30.3902  -11.4203   19.9050 H   0  0  0  0  0  0
  -29.7856  -11.7637   17.4886 H   0  0  0  0  0  0
  -29.6549  -13.4850   17.7448 H   0  0  0  0  0  0
  -27.8733  -11.2967   18.8646 H   0  0  0  0  0  0
  -27.3871  -12.5811   17.7906 H   0  0  0  0  0  0
  -27.6705  -14.2541   19.5240 H   0  0  0  0  0  0
  -28.7162  -12.0477   21.3661 H   0  0  0  0  0  0
  -28.4317  -13.6907   21.8548 H   0  0  0  0  0  0
  -25.2765   -9.5688   22.4752 H   0  0  0  0  0  0
  -24.0001   -7.4645   22.7475 H   0  0  0  0  0  0
  -21.0833   -8.8785   19.8951 H   0  0  0  0  0  0
  -22.3704  -10.9673   19.6157 H   0  0  0  0  0  0
  -21.2003   -7.6144   23.9714 H   0  0  0  0  0  0
  -21.1473   -6.0508   25.9070 H   0  0  0  0  0  0
  -22.0602   -2.7607   23.2846 H   0  0  0  0  0  0
  -22.4080  -11.9897   22.4799 H   0  0  0  0  0  0
  -21.1088  -13.1272   22.2594 H   0  0  0  0  0  0
  -24.6500  -15.8364   20.4983 H   0  0  0  0  0  0
  -26.2557  -15.6230   20.0252 H   0  0  0  0  0  0
  -26.7179  -32.5452   23.1115 H   0  0  0  0  0  0
  -24.9999  -33.9722   25.0388 H   0  0  0  0  0  0
  -22.7149  -31.3022   21.4012 H   0  0  0  0  0  0
  -23.3734  -35.9642   23.3346 H   0  0  0  0  0  0
  -24.3575  -36.8861   22.2050 H   0  0  0  0  0  0
  -23.7267  -37.6518   23.6636 H   0  0  0  0  0  0
  -26.0906  -31.5495   20.6022 H   0  0  0  0  0  0
  -26.8452  -30.8440   21.9993 H   0  0  0  0  0  0
  -28.1187  -28.9735   21.2008 H   0  0  0  0  0  0
  -26.0036  -25.9179   19.0135 H   0  0  0  0  0  0
  -23.9740  -27.3021   19.0119 H   0  0  0  0  0  0
  -23.7594  -30.5937   19.4038 H   0  0  0  0  0  0
  -22.7572  -29.2482   19.8550 H   0  0  0  0  0  0
  -25.1295  -36.1950   25.0829 H   0  0  0  0  0  0
  -20.9983  -28.3273   24.1412 H   0  0  0  0  0  0
  -20.5683  -26.2303   23.3614 H   0  0  0  0  0  0
  -21.6648  -26.7445   22.1207 H   0  0  0  0  0  0
  -19.6909  -25.6311   21.1228 H   0  0  0  0  0  0
  -19.6675  -27.3219   20.6763 H   0  0  0  0  0  0
  -17.4197  -26.6684   21.4038 H   0  0  0  0  0  0
  -18.0326  -26.0076   22.9029 H   0  0  0  0  0  0
  -19.7942  -30.7274   24.2292 H   0  0  0  0  0  0
  -17.5014  -31.6263   24.5179 H   0  0  0  0  0  0
  -15.5353  -30.2997   23.7637 H   0  0  0  0  0  0
  -15.8671  -28.0821   22.7065 H   0  0  0  0  0  0
  -24.5886  -30.7067   25.7766 H   0  0  0  0  0  0
  -24.8906  -32.2873   26.4897 H   0  0  0  0  0  0
  -25.8038  -30.8861   27.0209 H   0  0  0  0  0  0
  -26.2875  -29.6781   24.1185 H   0  0  0  0  0  0
  -27.4012  -29.7260   25.4658 H   0  0  0  0  0  0
  -27.8745  -30.4313   23.9378 H   0  0  0  0  0  0
  -27.2693  -33.3609   26.2065 H   0  0  0  0  0  0
  -28.3860  -32.6836   25.0298 H   0  0  0  0  0  0
  -28.0720  -31.8410   26.5389 H   0  0  0  0  0  0
  -28.2619  -38.0073   24.7466 H   0  0  0  0  0  0
  -28.1023  -36.2604   24.6349 H   0  0  0  0  0  0
  -27.2275  -37.1538   25.8869 H   0  0  0  0  0  0
  -20.9388  -29.8753   21.6872 H   0  0  0  0  0  0
  -26.0169  -38.2853   24.1378 H   0  0  0  0  0  0
  -31.3118  -19.6910   18.9923 H   0  0  0  0  0  0
  -31.4368  -17.3149   19.3358 H   0  0  0  0  0  0
  -27.9579  -19.9550   21.6824 H   0  0  0  0  0  0
  -27.3104  -25.0917   21.3452 H   0  0  0  0  0  0
  -30.7180  -24.4069   19.5235 H   0  0  0  0  0  0
  -29.5029  -24.1684   18.2538 H   0  0  0  0  0  0
  -27.5100  -22.1994   20.5883 H   0  0  0  0  0  0
  -28.7180  -22.4758   21.8467 H   0  0  0  0  0  0
  -28.2815  -17.1864   23.3032 H   0  0  0  0  0  0
  -27.4354  -16.4007   21.9677 H   0  0  0  0  0  0
  -26.9440  -18.0008   22.4934 H   0  0  0  0  0  0
  -28.9373  -15.3570   21.3539 H   0  0  0  0  0  0
  1 25  1  0  0  0
  1 30  2  0  0  0
  1 84  1  0  0  0
  2  3  1  0  0  0
  2 25  1  0  0  0
  2 86  1  0  0  0
  2 87  1  0  0  0
  3  4  1  0  0  0
  3 88  1  0  0  0
  3 89  1  0  0  0
  4  5  1  0  0  0
  4 90  1  0  0  0
  4 91  1  0  0  0
  5  6  1  0  0  0
  5 26  1  0  0  0
  5 92  1  0  0  0
  6 25  1  0  0  0
  6 93  1  0  0  0
  6 94  1  0  0  0
  7  8  2  0  0  0
  7 26  1  0  0  0
  7 29  1  0  0  0
  8  9  1  0  0  0
  8 22  1  0  0  0
  9 10  1  0  0  0
  9 27  2  0  0  0
 10 11  2  0  0  0
 10 15  1  0  0  0
 11 12  1  0  0  0
 11 95  1  0  0  0
 12 13  2  0  0  0
 12 96  1  0  0  0
 13 14  1  0  0  0
 13 31  1  0  0  0
 14 15  2  0  0  0
 14 97  1  0  0  0
 15 98  1  0  0  0
 16 17  2  0  0  0
 16 21  1  0  0  0
 16 31  1  0  0  0
 17 18  1  0  0  0
 17 99  1  0  0  0
 18 19  2  0  0  0
 18100  1  0  0  0
 19 20  1  0  0  0
 19 24  1  0  0  0
 20 21  2  0  0  0
 20101  1  0  0  0
 21 23  1  0  0  0
 22 28  1  0  0  0
 22 32  2  0  0  0
 26 27  1  0  0  0
 28102  1  0  0  0
 28103  1  0  0  0
 29104  1  0  0  0
 29105  1  0  0  0
 33 34  1  0  0  0
 33 66  1  0  0  0
 33 70  2  0  0  0
 34 36  1  0  0  0
 34 59  1  0  0  0
 34106  1  0  0  0
 35 44  2  0  0  0
 35 45  1  0  0  0
 35 68  1  0  0  0
 36 56  1  0  0  0
 36107  1  0  0  0
 37 39  1  0  0  0
 37 47  1  0  0  0
 37 66  1  0  0  0
 37108  1  0  0  0
 38 43  2  0  0  0
 38 46  1  0  0  0
 38 47  1  0  0  0
 39 64  1  0  0  0
 39 67  2  0  0  0
 40 52  1  0  0  0
 40 53  2  0  0  0
 40 58  1  0  0  0
 41109  1  0  0  0
 41110  1  0  0  0
 41111  1  0  0  0
 41 48  1  0  0  0
 42 43  1  0  0  0
 42 66  1  0  0  0
 42112  1  0  0  0
 42113  1  0  0  0
 43 44  1  0  0  0
 44114  1  0  0  0
 45 46  2  0  0  0
 45115  1  0  0  0
 46116  1  0  0  0
 47117  1  0  0  0
 47118  1  0  0  0
 48 56  1  0  0  0
 48 65  1  0  0  0
 48119  1  0  0  0
 49 50  1  0  0  0
 49 53  1  0  0  0
 49 64  1  0  0  0
 49120  1  0  0  0
 50 51  1  0  0  0
 50121  1  0  0  0
 50122  1  0  0  0
 51 52  1  0  0  0
 51123  1  0  0  0
 51124  1  0  0  0
 52125  1  0  0  0
 52126  1  0  0  0
 53 54  1  0  0  0
 54 55  2  0  0  0
 54127  1  0  0  0
 55 57  1  0  0  0
 55128  1  0  0  0
 56 69  2  0  0  0
 57 58  2  0  0  0
 57129  1  0  0  0
 58130  1  0  0  0
 59 60  1  0  0  0
 59 61  1  0  0  0
 59 62  1  0  0  0
 60131  1  0  0  0
 60132  1  0  0  0
 60133  1  0  0  0
 61134  1  0  0  0
 61135  1  0  0  0
 61136  1  0  0  0
 62137  1  0  0  0
 62138  1  0  0  0
 62139  1  0  0  0
 63 65  1  0  0  0
 63140  1  0  0  0
 63141  1  0  0  0
 63142  1  0  0  0
 64143  1  0  0  0
 65144  1  0  0  0
 68 79  1  0  0  0
 71 72  2  0  0  0
 71 75  1  0  0  0
 71145  1  0  0  0
 72 76  1  0  0  0
 72146  1  0  0  0
 73 74  1  0  0  0
 73 75  2  0  0  0
 73147  1  0  0  0
 74 76  2  0  0  0
 74 82  1  0  0  0
 75 83  1  0  0  0
 76 84  1  0  0  0
 77 79  2  0  0  0
 77 80  1  0  0  0
 77 81  1  0  0  0
 78 80  1  0  0  0
 78 83  1  0  0  0
 78 85  2  0  0  0
 79148  1  0  0  0
 80149  1  0  0  0
 80150  1  0  0  0
 81 83  1  0  0  0
 81151  1  0  0  0
 81152  1  0  0  0
 82153  1  0  0  0
 82154  1  0  0  0
 82155  1  0  0  0
 84156  1  0  0  0
M  ISO  4   1 100  68 101  79 101  84 100
M  END
> <chiral flag>
0

> <version>
0

> <s_m_source_file>
/data/baiqing/PycharmProjects/Reinvent-master-3.2/result/LINK_invent/BTK/process_docking_weight1_custom_product_contain_oxygen_bond_distance_aromatic_linkinvent_7_9_3/rearranged_h_0066.sdf

> <i_m_source_file_index>
42

> <r_mmod_Potential_Energy-OPLS-2005>
111.286033630371

> <r_mmod_Stretch_Energy-OPLS-2005>
87.9873962402344

> <r_mmod_Bend_Energy-OPLS-2005>
170.850601196289

> <r_mmod_Torsional_Energy-OPLS-2005>
247.053359985352

> <r_mmod_Improper_Torsional_Energy-OPLS-2005>
3.57072520256042

> <r_mmod_Van_der_Waal_Energy-OPLS-2005>
141.605041503906

> <r_mmod_Electrostatic_Energy-OPLS-2005>
-381.152465820312

> <r_mmod_Solvation_Energy-OPLS-2005>
-215.733856201172

> <b_mmod_Minimization_Converged-OPLS-2005>
0

> <r_mmod_RMS_Derivative-OPLS-2005>
1.53880906105042

$$$$
42
                    3D
 Structure written by MMmdl.
159167  0  0  1  0            999 V2000
  -30.6967  -14.4613   20.5902 C   0  0  0  0  0  0
  -30.4222  -12.3045   19.4184 C   0  0  0  0  0  0
  -29.4935  -12.5180   18.2036 C   0  0  0  0  0  0
  -28.0136  -12.3738   18.6114 C   0  0  0  0  0  0
  -27.6626  -13.2043   19.8750 C   0  0  2  0  0  0
  -28.7022  -12.9669   20.9940 C   0  0  0  0  0  0
  -25.2601  -13.8152   20.5672 C   0  0  0  0  0  0
  -24.1846  -13.0431   20.9159 C   0  0  0  0  0  0
  -24.6401  -11.6894   20.8718 C   0  0  0  0  0  0
  -23.9076  -10.4281   21.0400 C   0  0  0  0  0  0
  -24.3621   -9.4202   21.9181 C   0  0  0  0  0  0
  -23.6296   -8.2237   22.0754 C   0  0  0  0  0  0
  -22.4280   -8.0281   21.3548 C   0  0  0  0  0  0
  -21.9918   -9.0252   20.4644 C   0  0  0  0  0  0
  -22.7247  -10.2125   20.3052 C   0  0  0  0  0  0
  -21.6857   -6.0748   22.5291 C   0  0  0  0  0  0
  -21.4002   -6.5648   23.8219 C   0  0  0  0  0  0
  -21.3656   -5.6796   24.9181 C   0  0  0  0  0  0
  -21.6047   -4.3060   24.7230 C   0  0  0  0  0  0
  -21.8818   -3.8156   23.4349 C   0  0  0  0  0  0
  -21.9185   -4.6973   22.3410 C   0  0  0  0  0  0
  -22.7870  -13.5235   21.1831 C   0  0  0  0  0  0
  -22.1660   -4.2157   21.0987 F   0  0  0  0  0  0
  -21.5629   -3.4549   25.7745 F   0  0  0  0  0  0
  -30.0377  -13.2776   20.4526 N   0  0  0  0  0  0
  -26.3028  -12.9316   20.3346 N   0  0  0  0  0  0
  -25.9324  -11.6479   20.5743 N   0  0  0  0  0  0
  -22.0527  -12.8221   22.0395 N   0  0  0  0  0  0
  -25.4367  -15.1873   20.4097 N   0  0  0  0  0  0
  -31.8100  -14.6608   20.0950 O   0  0  0  0  0  0
  -21.6640   -6.8890   21.4252 O   0  0  0  0  0  0
  -22.3551  -14.5557   20.6705 O   0  0  0  0  0  0
  -24.6143  -31.8682   23.2109 C   0  0  0  0  0  0
  -25.9040  -32.4827   23.8408 C   0  0  1  0  0  0
  -27.2366  -27.4388   20.1080 C   0  0  0  0  0  0
  -25.5896  -33.8626   24.2337 N   0  0  0  0  0  0
  -23.4030  -30.4904   21.5491 C   0  0  2  0  0  0
  -24.8526  -28.9543   20.1175 C   0  0  0  0  0  0
  -22.7407  -29.4667   22.4989 C   0  0  0  0  0  0
  -18.0272  -28.1385   22.8491 C   0  0  0  0  0  0
  -24.1476  -36.7308   23.2641 C   0  0  0  0  0  0
  -25.9299  -30.8350   21.3658 C   0  0  0  0  0  0
  -26.0100  -29.4671   20.7200 C   0  0  0  0  0  0
  -27.2058  -28.7128   20.7184 C   0  0  0  0  0  0
  -26.0726  -26.9450   19.4866 C   0  0  0  0  0  0
  -24.8780  -27.6915   19.4998 C   0  0  0  0  0  0
  -23.6132  -29.8191   20.1650 C   0  0  0  0  0  0
  -25.4104  -36.3113   24.0338 C   0  0  1  0  0  0
  -20.5862  -28.3666   23.1302 C   0  0  2  0  0  0
  -20.6762  -26.9394   22.5413 C   0  0  0  0  0  0
  -19.5738  -26.6380   21.5210 C   0  0  0  0  0  0
  -18.1913  -26.7934   22.1615 C   0  0  0  0  0  0
  -19.1523  -28.8841   23.2899 C   0  0  0  0  0  0
  -18.9448  -30.1448   23.8913 C   0  0  0  0  0  0
  -17.6451  -30.6582   24.0564 C   0  0  0  0  0  0
  -25.9033  -34.9478   23.5136 C   0  0  0  0  0  0
  -16.5344  -29.9088   23.6328 C   0  0  0  0  0  0
  -16.7263  -28.6504   23.0353 C   0  0  0  0  0  0
  -26.4477  -31.6600   25.0728 C   0  0  0  0  0  0
  -25.3752  -31.3698   26.1477 C   0  0  0  0  0  0
  -27.0303  -30.3037   24.6104 C   0  0  0  0  0  0
  -27.6056  -32.4318   25.7491 C   0  0  0  0  0  0
  -27.5580  -37.1808   24.8469 C   0  0  0  0  0  0
  -21.4135  -29.3036   22.3711 N   0  0  0  0  0  0
  -26.4297  -37.3794   23.9406 N   0  0  0  0  0  0
  -24.6668  -31.0792   22.1006 N   0  0  0  0  0  0
  -23.4168  -28.8221   23.3046 O   0  0  0  0  0  0
  -28.3876  -26.6850   20.0739 O   0  0  0  0  0  0
  -26.5594  -34.8925   22.4696 O   0  0  0  0  0  0
  -23.5337  -32.1435   23.7499 O   0  0  0  0  0  0
  -29.0107  -19.0418   21.2780 C   0  0  0  0  0  0
  -31.3984  -18.9311   20.8687 C   0  0  0  0  0  0
  -28.9629  -17.6294   21.3430 C   0  0  0  0  0  0
  -31.3502  -17.5196   20.9242 C   0  0  0  0  0  0
  -30.2315  -19.7174   21.0370 C   0  0  0  0  0  0
  -30.1252  -16.8473   21.1504 C   0  0  0  0  0  0
  -30.3477  -21.2217   20.9977 C   0  0  0  0  0  0
  -29.1341  -22.1034   20.5351 C   0  0  0  0  0  0
  -30.0936  -25.9190   21.5370 C   0  0  0  0  0  0
  -28.0702  -24.3511   20.9363 C   0  0  2  0  0  0
  -28.5957  -25.8115   21.1972 C   0  0  2  0  0  0
  -26.8584  -24.0117   21.8455 C   0  0  0  0  0  0
  -29.9942  -15.4236   21.2247 N   0  0  0  0  0  0
  -29.1148  -23.3226   21.1067 N   0  0  0  0  0  0
  -31.4067  -21.7881   21.2990 O   0  0  0  0  0  0
  -28.2995  -21.7248   19.7075 O   0  0  0  0  0  0
  -26.3541  -22.8102   21.5633 F   0  0  0  0  0  0
  -27.2364  -24.0099   23.1256 F   0  0  0  0  0  0
  -25.8804  -24.9015   21.6929 F   0  0  0  0  0  0
  -31.4673  -12.4014   19.1225 H   0  0  0  0  0  0
  -30.3184  -11.2888   19.8039 H   0  0  0  0  0  0
  -29.7355  -11.8071   17.4125 H   0  0  0  0  0  0
  -29.6607  -13.5104   17.7817 H   0  0  0  0  0  0
  -27.8214  -11.3159   18.7950 H   0  0  0  0  0  0
  -27.3667  -12.6611   17.7806 H   0  0  0  0  0  0
  -27.7112  -14.2554   19.5880 H   0  0  0  0  0  0
  -28.6752  -11.9232   21.3130 H   0  0  0  0  0  0
  -28.4550  -13.5436   21.8869 H   0  0  0  0  0  0
  -25.2770   -9.5670   22.4755 H   0  0  0  0  0  0
  -24.0007   -7.4630   22.7469 H   0  0  0  0  0  0
  -21.0853   -8.8761   19.8949 H   0  0  0  0  0  0
  -22.3718  -10.9657   19.6150 H   0  0  0  0  0  0
  -21.1991   -7.6151   23.9730 H   0  0  0  0  0  0
  -21.1482   -6.0527   25.9082 H   0  0  0  0  0  0
  -22.0600   -2.7619   23.2856 H   0  0  0  0  0  0
  -22.4142  -11.9859   22.4740 H   0  0  0  0  0  0
  -21.1154  -13.1245   22.2630 H   0  0  0  0  0  0
  -24.6762  -15.8490   20.5203 H   0  0  0  0  0  0
  -26.2941  -15.6208   20.0911 H   0  0  0  0  0  0
  -26.7111  -32.5548   23.1179 H   0  0  0  0  0  0
  -25.0074  -33.9791   25.0500 H   0  0  0  0  0  0
  -22.6931  -31.3074   21.4061 H   0  0  0  0  0  0
  -23.3750  -35.9630   23.3317 H   0  0  0  0  0  0
  -24.3574  -36.8919   22.2054 H   0  0  0  0  0  0
  -23.7208  -37.6505   23.6653 H   0  0  0  0  0  0
  -26.0424  -31.5988   20.5951 H   0  0  0  0  0  0
  -26.8173  -30.8920   21.9842 H   0  0  0  0  0  0
  -28.1019  -29.1043   21.1799 H   0  0  0  0  0  0
  -26.0870  -25.9809   18.9988 H   0  0  0  0  0  0
  -23.9898  -27.2926   19.0287 H   0  0  0  0  0  0
  -23.7186  -30.5905   19.4013 H   0  0  0  0  0  0
  -22.7398  -29.2347   19.8702 H   0  0  0  0  0  0
  -25.1287  -36.1990   25.0835 H   0  0  0  0  0  0
  -20.9958  -28.3231   24.1419 H   0  0  0  0  0  0
  -20.5643  -26.2279   23.3609 H   0  0  0  0  0  0
  -21.6637  -26.7430   22.1206 H   0  0  0  0  0  0
  -19.6892  -25.6287   21.1244 H   0  0  0  0  0  0
  -19.6685  -27.3196   20.6743 H   0  0  0  0  0  0
  -17.4183  -26.6693   21.4009 H   0  0  0  0  0  0
  -18.0302  -26.0066   22.8995 H   0  0  0  0  0  0
  -19.7927  -30.7259   24.2289 H   0  0  0  0  0  0
  -17.5004  -31.6272   24.5150 H   0  0  0  0  0  0
  -15.5347  -30.2995   23.7645 H   0  0  0  0  0  0
  -15.8659  -28.0829   22.7071 H   0  0  0  0  0  0
  -24.5919  -30.7063   25.7798 H   0  0  0  0  0  0
  -24.8966  -32.2854   26.4955 H   0  0  0  0  0  0
  -25.8106  -30.8829   27.0209 H   0  0  0  0  0  0
  -26.2837  -29.6795   24.1179 H   0  0  0  0  0  0
  -27.4083  -29.7280   25.4563 H   0  0  0  0  0  0
  -27.8674  -30.4347   23.9245 H   0  0  0  0  0  0
  -27.2684  -33.3615   26.2084 H   0  0  0  0  0  0
  -28.3867  -32.6882   25.0323 H   0  0  0  0  0  0
  -28.0720  -31.8433   26.5399 H   0  0  0  0  0  0
  -28.2611  -38.0091   24.7519 H   0  0  0  0  0  0
  -28.1067  -36.2632   24.6306 H   0  0  0  0  0  0
  -27.2298  -37.1464   25.8871 H   0  0  0  0  0  0
  -20.9289  -29.8757   21.6939 H   0  0  0  0  0  0
  -26.0196  -38.2875   24.1418 H   0  0  0  0  0  0
  -28.0968  -19.6005   21.4287 H   0  0  0  0  0  0
  -32.3516  -19.4115   20.6933 H   0  0  0  0  0  0
  -28.0121  -17.1509   21.5364 H   0  0  0  0  0  0
  -32.2732  -16.9723   20.7993 H   0  0  0  0  0  0
  -30.3385  -25.3675   22.4458 H   0  0  0  0  0  0
  -30.3741  -26.9583   21.7104 H   0  0  0  0  0  0
  -30.7218  -25.5426   20.7287 H   0  0  0  0  0  0
  -27.7321  -24.3049   19.8992 H   0  0  0  0  0  0
  -28.0654  -26.2175   22.0621 H   0  0  0  0  0  0
  -29.1188  -15.0901   21.5965 H   0  0  0  0  0  0
  -29.8658  -23.5266   21.7498 H   0  0  0  0  0  0
  1 25  1  0  0  0
  1 30  2  0  0  0
  1 83  1  0  0  0
  2  3  1  0  0  0
  2 25  1  0  0  0
  2 90  1  0  0  0
  2 91  1  0  0  0
  3  4  1  0  0  0
  3 92  1  0  0  0
  3 93  1  0  0  0
  4  5  1  0  0  0
  4 94  1  0  0  0
  4 95  1  0  0  0
  5  6  1  0  0  0
  5 26  1  0  0  0
  5 96  1  0  0  0
  6 25  1  0  0  0
  6 97  1  0  0  0
  6 98  1  0  0  0
  7  8  2  0  0  0
  7 26  1  0  0  0
  7 29  1  0  0  0
  8  9  1  0  0  0
  8 22  1  0  0  0
  9 10  1  0  0  0
  9 27  2  0  0  0
 10 11  2  0  0  0
 10 15  1  0  0  0
 11 12  1  0  0  0
 11 99  1  0  0  0
 12 13  2  0  0  0
 12100  1  0  0  0
 13 14  1  0  0  0
 13 31  1  0  0  0
 14 15  2  0  0  0
 14101  1  0  0  0
 15102  1  0  0  0
 16 17  2  0  0  0
 16 21  1  0  0  0
 16 31  1  0  0  0
 17 18  1  0  0  0
 17103  1  0  0  0
 18 19  2  0  0  0
 18104  1  0  0  0
 19 20  1  0  0  0
 19 24  1  0  0  0
 20 21  2  0  0  0
 20105  1  0  0  0
 21 23  1  0  0  0
 22 28  1  0  0  0
 22 32  2  0  0  0
 26 27  1  0  0  0
 28106  1  0  0  0
 28107  1  0  0  0
 29108  1  0  0  0
 29109  1  0  0  0
 33 34  1  0  0  0
 33 66  1  0  0  0
 33 70  2  0  0  0
 34 36  1  0  0  0
 34 59  1  0  0  0
 34110  1  0  0  0
 35 44  2  0  0  0
 35 45  1  0  0  0
 35 68  1  0  0  0
 36 56  1  0  0  0
 36111  1  0  0  0
 37 39  1  0  0  0
 37 47  1  0  0  0
 37 66  1  0  0  0
 37112  1  0  0  0
 38 43  2  0  0  0
 38 46  1  0  0  0
 38 47  1  0  0  0
 39 64  1  0  0  0
 39 67  2  0  0  0
 40 52  1  0  0  0
 40 53  2  0  0  0
 40 58  1  0  0  0
 41113  1  0  0  0
 41114  1  0  0  0
 41115  1  0  0  0
 41 48  1  0  0  0
 42 43  1  0  0  0
 42 66  1  0  0  0
 42116  1  0  0  0
 42117  1  0  0  0
 43 44  1  0  0  0
 44118  1  0  0  0
 45 46  2  0  0  0
 45119  1  0  0  0
 46120  1  0  0  0
 47121  1  0  0  0
 47122  1  0  0  0
 48 56  1  0  0  0
 48 65  1  0  0  0
 48123  1  0  0  0
 49 50  1  0  0  0
 49 53  1  0  0  0
 49 64  1  0  0  0
 49124  1  0  0  0
 50 51  1  0  0  0
 50125  1  0  0  0
 50126  1  0  0  0
 51 52  1  0  0  0
 51127  1  0  0  0
 51128  1  0  0  0
 52129  1  0  0  0
 52130  1  0  0  0
 53 54  1  0  0  0
 54 55  2  0  0  0
 54131  1  0  0  0
 55 57  1  0  0  0
 55132  1  0  0  0
 56 69  2  0  0  0
 57 58  2  0  0  0
 57133  1  0  0  0
 58134  1  0  0  0
 59 60  1  0  0  0
 59 61  1  0  0  0
 59 62  1  0  0  0
 60135  1  0  0  0
 60136  1  0  0  0
 60137  1  0  0  0
 61138  1  0  0  0
 61139  1  0  0  0
 61140  1  0  0  0
 62141  1  0  0  0
 62142  1  0  0  0
 62143  1  0  0  0
 63 65  1  0  0  0
 63144  1  0  0  0
 63145  1  0  0  0
 63146  1  0  0  0
 64147  1  0  0  0
 65148  1  0  0  0
 68 81  1  0  0  0
 71 73  2  0  0  0
 71 75  1  0  0  0
 71149  1  0  0  0
 72 74  1  0  0  0
 72 75  2  0  0  0
 72150  1  0  0  0
 73 76  1  0  0  0
 73151  1  0  0  0
 74 76  2  0  0  0
 74152  1  0  0  0
 75 77  1  0  0  0
 76 83  1  0  0  0
 77 78  1  0  0  0
 77 85  2  0  0  0
 78 84  1  0  0  0
 78 86  2  0  0  0
 79153  1  0  0  0
 79154  1  0  0  0
 79155  1  0  0  0
 79 81  1  0  0  0
 80 81  1  0  0  0
 80 82  1  0  0  0
 80 84  1  0  0  0
 80156  1  0  0  0
 81157  1  0  0  0
 82 87  1  0  0  0
 82 88  1  0  0  0
 82 89  1  0  0  0
 83158  1  0  0  0
 84159  1  0  0  0
M  ISO  4   1 100  68 101  81 101  83 100
M  END
> <chiral flag>
0

> <version>
0

> <s_m_source_file>
/data/baiqing/PycharmProjects/Reinvent-master-3.2/result/LINK_invent/BTK/process_docking_weight1_custom_product_contain_oxygen_bond_distance_aromatic_linkinvent_7_9_3/rearranged_h_0066.sdf

> <i_m_source_file_index>
43

> <r_mmod_Potential_Energy-OPLS-2005>
11.813271522522

> <r_mmod_Stretch_Energy-OPLS-2005>
43.5607261657715

> <r_mmod_Bend_Energy-OPLS-2005>
102.854972839355

> <r_mmod_Torsional_Energy-OPLS-2005>
265.276092529297

> <r_mmod_Improper_Torsional_Energy-OPLS-2005>
3.60291433334351

> <r_mmod_Van_der_Waal_Energy-OPLS-2005>
154.248092651367

> <r_mmod_Electrostatic_Energy-OPLS-2005>
-347.371887207031

> <r_mmod_Solvation_Energy-OPLS-2005>
-220.870452880859

> <b_mmod_Minimization_Converged-OPLS-2005>
0

> <r_mmod_RMS_Derivative-OPLS-2005>
1.59434425830841

$$$$
43
                    3D
 Structure written by MMmdl.
167175  0  0  1  0            999 V2000
  -30.6202  -14.7726   20.4683 C   0  0  0  0  0  0
  -30.4369  -12.4781   19.4706 C   0  0  0  0  0  0
  -29.5093  -12.4940   18.2365 C   0  0  0  0  0  0
  -28.0388  -12.3122   18.6579 C   0  0  0  0  0  0
  -27.6372  -13.2325   19.8414 C   0  0  2  0  0  0
  -28.6847  -13.2001   20.9757 C   0  0  0  0  0  0
  -25.2491  -13.8202   20.5674 C   0  0  0  0  0  0
  -24.1795  -13.0435   20.9214 C   0  0  0  0  0  0
  -24.6398  -11.6918   20.8764 C   0  0  0  0  0  0
  -23.9077  -10.4294   21.0425 C   0  0  0  0  0  0
  -24.3626   -9.4206   21.9202 C   0  0  0  0  0  0
  -23.6298   -8.2239   22.0762 C   0  0  0  0  0  0
  -22.4284   -8.0286   21.3541 C   0  0  0  0  0  0
  -21.9928   -9.0265   20.4642 C   0  0  0  0  0  0
  -22.7260  -10.2139   20.3063 C   0  0  0  0  0  0
  -21.6855   -6.0745   22.5290 C   0  0  0  0  0  0
  -21.4011   -6.5645   23.8227 C   0  0  0  0  0  0
  -21.3652   -5.6793   24.9186 C   0  0  0  0  0  0
  -21.6050   -4.3057   24.7233 C   0  0  0  0  0  0
  -21.8815   -3.8149   23.4351 C   0  0  0  0  0  0
  -21.9191   -4.6968   22.3410 C   0  0  0  0  0  0
  -22.7812  -13.5214   21.1883 C   0  0  0  0  0  0
  -22.1659   -4.2155   21.0989 F   0  0  0  0  0  0
  -21.5626   -3.4538   25.7743 F   0  0  0  0  0  0
  -29.9802  -13.5545   20.3812 N   0  0  0  0  0  0
  -26.2918  -12.9414   20.3254 N   0  0  0  0  0  0
  -25.9318  -11.6558   20.5761 N   0  0  0  0  0  0
  -22.0460  -12.8199   22.0432 N   0  0  0  0  0  0
  -25.4137  -15.1931   20.4059 N   0  0  0  0  0  0
  -31.8226  -14.8402   20.1965 O   0  0  0  0  0  0
  -21.6637   -6.8890   21.4247 O   0  0  0  0  0  0
  -22.3503  -14.5531   20.6754 O   0  0  0  0  0  0
  -24.6338  -31.8546   23.1944 C   0  0  0  0  0  0
  -25.9146  -32.4750   23.8321 C   0  0  1  0  0  0
  -27.2311  -27.2558   20.1329 C   0  0  0  0  0  0
  -25.5932  -33.8544   24.2232 N   0  0  0  0  0  0
  -23.4310  -30.4705   21.5411 C   0  0  2  0  0  0
  -24.8805  -28.9064   20.1198 C   0  0  0  0  0  0
  -22.7519  -29.4561   22.4925 C   0  0  0  0  0  0
  -18.0267  -28.1372   22.8476 C   0  0  0  0  0  0
  -24.1491  -36.7281   23.2647 C   0  0  0  0  0  0
  -25.9774  -30.7622   21.3769 C   0  0  0  0  0  0
  -26.0537  -29.3828   20.7216 C   0  0  0  0  0  0
  -27.2346  -28.5725   20.7078 C   0  0  0  0  0  0
  -26.0350  -26.8366   19.5181 C   0  0  0  0  0  0
  -24.8750  -27.6393   19.5083 C   0  0  0  0  0  0
  -23.6533  -29.7994   20.1600 C   0  0  0  0  0  0
  -25.4121  -36.3067   24.0315 C   0  0  1  0  0  0
  -20.5879  -28.3690   23.1251 C   0  0  2  0  0  0
  -20.6778  -26.9398   22.5403 C   0  0  0  0  0  0
  -19.5761  -26.6367   21.5195 C   0  0  0  0  0  0
  -18.1923  -26.7915   22.1597 C   0  0  0  0  0  0
  -19.1523  -28.8842   23.2860 C   0  0  0  0  0  0
  -18.9465  -30.1447   23.8878 C   0  0  0  0  0  0
  -17.6467  -30.6595   24.0538 C   0  0  0  0  0  0
  -25.9068  -34.9436   23.5081 C   0  0  0  0  0  0
  -16.5353  -29.9084   23.6333 C   0  0  0  0  0  0
  -16.7250  -28.6494   23.0359 C   0  0  0  0  0  0
  -26.4517  -31.6590   25.0724 C   0  0  0  0  0  0
  -25.3719  -31.3740   26.1433 C   0  0  0  0  0  0
  -27.0396  -30.3011   24.6223 C   0  0  0  0  0  0
  -27.6054  -32.4376   25.7474 C   0  0  0  0  0  0
  -27.5585  -37.1783   24.8450 C   0  0  0  0  0  0
  -21.4215  -29.3042   22.3660 N   0  0  0  0  0  0
  -26.4291  -37.3762   23.9406 N   0  0  0  0  0  0
  -24.6997  -31.0489   22.0931 N   0  0  0  0  0  0
  -23.4193  -28.8106   23.3056 O   0  0  0  0  0  0
  -28.3509  -26.3992   20.0882 O   0  0  0  0  0  0
  -26.5655  -34.8923   22.4661 O   0  0  0  0  0  0
  -23.5473  -32.1369   23.7222 O   0  0  0  0  0  0
  -31.7280  -18.8910   22.0442 C   0  0  0  0  0  0
  -31.3904  -17.5942   21.6133 C   0  0  0  0  0  0
  -29.4552  -18.5448   20.5042 C   0  0  0  0  0  0
  -30.9524  -20.0323   21.7405 C   0  0  0  0  0  0
  -30.2259  -17.3508   20.8598 C   0  0  0  0  0  0
  -29.8117  -19.9180   20.8809 C   0  0  0  0  0  0
  -30.6102  -21.8098   23.4023 C   0  0  0  0  0  0
  -31.3676  -21.2752   22.4285 C   0  0  0  0  0  0
  -29.3281  -22.4424   20.2075 C   0  0  0  0  0  0
  -33.8517  -21.6985   22.9099 C   0  0  0  0  0  0
  -26.8354  -23.0022   20.0311 C   0  0  0  0  0  0
  -28.4513  -23.9366   18.3661 C   0  0  0  0  0  0
  -32.6596  -21.9416   21.9760 C   0  0  0  0  0  0
  -28.3222  -25.0152   20.6861 C   0  0  0  0  0  0
  -28.2482  -23.6012   19.8619 C   0  0  0  0  0  0
  -28.9906  -21.1172   20.5015 N   0  0  0  0  0  0
  -29.8489  -15.9313   20.5834 N   0  0  0  0  0  0
  -30.5072  -22.7690   20.0763 O   0  0  0  0  0  0
  -31.4736  -12.6135   19.1584 H   0  0  0  0  0  0
  -30.3993  -11.5123   19.9768 H   0  0  0  0  0  0
  -29.7972  -11.7052   17.5398 H   0  0  0  0  0  0
  -29.6250  -13.4366   17.6988 H   0  0  0  0  0  0
  -27.9088  -11.2682   18.9466 H   0  0  0  0  0  0
  -27.3775  -12.4730   17.8061 H   0  0  0  0  0  0
  -27.6199  -14.2441   19.4363 H   0  0  0  0  0  0
  -28.7270  -12.2158   21.4413 H   0  0  0  0  0  0
  -28.4145  -13.9026   21.7661 H   0  0  0  0  0  0
  -25.2766   -9.5684   22.4787 H   0  0  0  0  0  0
  -24.0006   -7.4631   22.7481 H   0  0  0  0  0  0
  -21.0861   -8.8791   19.8936 H   0  0  0  0  0  0
  -22.3732  -10.9688   19.6171 H   0  0  0  0  0  0
  -21.2004   -7.6149   23.9729 H   0  0  0  0  0  0
  -21.1477   -6.0523   25.9092 H   0  0  0  0  0  0
  -22.0598   -2.7613   23.2855 H   0  0  0  0  0  0
  -22.4071  -11.9843   22.4798 H   0  0  0  0  0  0
  -21.1085  -13.1228   22.2657 H   0  0  0  0  0  0
  -24.6357  -15.8373   20.5004 H   0  0  0  0  0  0
  -26.2512  -15.6372   20.0533 H   0  0  0  0  0  0
  -26.7211  -32.5402   23.1067 H   0  0  0  0  0  0
  -25.0027  -33.9671   25.0343 H   0  0  0  0  0  0
  -22.7285  -31.2918   21.3899 H   0  0  0  0  0  0
  -23.3760  -35.9608   23.3281 H   0  0  0  0  0  0
  -24.3584  -36.8953   22.2070 H   0  0  0  0  0  0
  -23.7241  -37.6461   23.6715 H   0  0  0  0  0  0
  -26.1211  -31.5271   20.6115 H   0  0  0  0  0  0
  -26.8492  -30.8076   22.0192 H   0  0  0  0  0  0
  -28.1429  -28.9418   21.1651 H   0  0  0  0  0  0
  -25.9954  -25.8718   19.0376 H   0  0  0  0  0  0
  -23.9766  -27.2674   19.0342 H   0  0  0  0  0  0
  -23.7875  -30.5752   19.4044 H   0  0  0  0  0  0
  -22.7725  -29.2359   19.8529 H   0  0  0  0  0  0
  -25.1303  -36.1911   25.0805 H   0  0  0  0  0  0
  -20.9929  -28.3277   24.1386 H   0  0  0  0  0  0
  -20.5673  -26.2293   23.3614 H   0  0  0  0  0  0
  -21.6646  -26.7442   22.1191 H   0  0  0  0  0  0
  -19.6912  -25.6264   21.1260 H   0  0  0  0  0  0
  -19.6693  -27.3166   20.6711 H   0  0  0  0  0  0
  -17.4193  -26.6641   21.4003 H   0  0  0  0  0  0
  -18.0301  -26.0058   22.8998 H   0  0  0  0  0  0
  -19.7960  -30.7242   24.2245 H   0  0  0  0  0  0
  -17.5047  -31.6274   24.5154 H   0  0  0  0  0  0
  -15.5362  -30.2992   23.7688 H   0  0  0  0  0  0
  -15.8647  -28.0827   22.7089 H   0  0  0  0  0  0
  -24.5884  -30.7112   25.7747 H   0  0  0  0  0  0
  -24.8917  -32.2910   26.4870 H   0  0  0  0  0  0
  -25.8019  -30.8908   27.0211 H   0  0  0  0  0  0
  -26.2997  -29.6703   24.1288 H   0  0  0  0  0  0
  -27.4120  -29.7349   25.4764 H   0  0  0  0  0  0
  -27.8844  -30.4283   23.9443 H   0  0  0  0  0  0
  -27.2648  -33.3703   26.1989 H   0  0  0  0  0  0
  -28.3868  -32.6907   25.0294 H   0  0  0  0  0  0
  -28.0712  -31.8555   26.5441 H   0  0  0  0  0  0
  -28.2563  -38.0122   24.7564 H   0  0  0  0  0  0
  -28.1131  -36.2657   24.6205 H   0  0  0  0  0  0
  -27.2308  -37.1324   25.8852 H   0  0  0  0  0  0
  -20.9398  -29.8799   21.6887 H   0  0  0  0  0  0
  -26.0171  -38.2823   24.1459 H   0  0  0  0  0  0
  -32.5923  -18.9976   22.6836 H   0  0  0  0  0  0
  -32.0215  -16.7776   21.9310 H   0  0  0  0  0  0
  -28.5535  -18.4039   19.9234 H   0  0  0  0  0  0
  -29.6876  -21.3468   23.7231 H   0  0  0  0  0  0
  -30.9061  -22.7226   23.8992 H   0  0  0  0  0  0
  -34.7437  -22.1925   22.5241 H   0  0  0  0  0  0
  -34.0829  -20.6395   23.0113 H   0  0  0  0  0  0
  -33.6634  -22.0996   23.9057 H   0  0  0  0  0  0
  -26.6846  -22.1240   19.4016 H   0  0  0  0  0  0
  -26.0618  -23.7200   19.7630 H   0  0  0  0  0  0
  -26.6524  -22.7070   21.0650 H   0  0  0  0  0  0
  -28.5711  -23.0340   17.7631 H   0  0  0  0  0  0
  -29.3395  -24.5521   18.2108 H   0  0  0  0  0  0
  -27.6027  -24.4827   17.9554 H   0  0  0  0  0  0
  -32.4809  -23.0180   21.9348 H   0  0  0  0  0  0
  -32.8881  -21.6443   20.9516 H   0  0  0  0  0  0
  -29.2442  -24.9761   21.2695 H   0  0  0  0  0  0
  -27.5428  -25.0142   21.4503 H   0  0  0  0  0  0
  -28.0002  -20.9380   20.4162 H   0  0  0  0  0  0
  -28.8572  -15.7596   20.5234 H   0  0  0  0  0  0
  1 25  1  0  0  0
  1 30  2  0  0  0
  1 87  1  0  0  0
  2  3  1  0  0  0
  2 25  1  0  0  0
  2 89  1  0  0  0
  2 90  1  0  0  0
  3  4  1  0  0  0
  3 91  1  0  0  0
  3 92  1  0  0  0
  4  5  1  0  0  0
  4 93  1  0  0  0
  4 94  1  0  0  0
  5  6  1  0  0  0
  5 26  1  0  0  0
  5 95  1  0  0  0
  6 25  1  0  0  0
  6 96  1  0  0  0
  6 97  1  0  0  0
  7  8  2  0  0  0
  7 26  1  0  0  0
  7 29  1  0  0  0
  8  9  1  0  0  0
  8 22  1  0  0  0
  9 10  1  0  0  0
  9 27  2  0  0  0
 10 11  2  0  0  0
 10 15  1  0  0  0
 11 12  1  0  0  0
 11 98  1  0  0  0
 12 13  2  0  0  0
 12 99  1  0  0  0
 13 14  1  0  0  0
 13 31  1  0  0  0
 14 15  2  0  0  0
 14100  1  0  0  0
 15101  1  0  0  0
 16 17  2  0  0  0
 16 21  1  0  0  0
 16 31  1  0  0  0
 17 18  1  0  0  0
 17102  1  0  0  0
 18 19  2  0  0  0
 18103  1  0  0  0
 19 20  1  0  0  0
 19 24  1  0  0  0
 20 21  2  0  0  0
 20104  1  0  0  0
 21 23  1  0  0  0
 22 28  1  0  0  0
 22 32  2  0  0  0
 26 27  1  0  0  0
 28105  1  0  0  0
 28106  1  0  0  0
 29107  1  0  0  0
 29108  1  0  0  0
 33 34  1  0  0  0
 33 66  1  0  0  0
 33 70  2  0  0  0
 34 36  1  0  0  0
 34 59  1  0  0  0
 34109  1  0  0  0
 35 44  2  0  0  0
 35 45  1  0  0  0
 35 68  1  0  0  0
 36 56  1  0  0  0
 36110  1  0  0  0
 37 39  1  0  0  0
 37 47  1  0  0  0
 37 66  1  0  0  0
 37111  1  0  0  0
 38 43  2  0  0  0
 38 46  1  0  0  0
 38 47  1  0  0  0
 39 64  1  0  0  0
 39 67  2  0  0  0
 40 52  1  0  0  0
 40 53  2  0  0  0
 40 58  1  0  0  0
 41112  1  0  0  0
 41113  1  0  0  0
 41114  1  0  0  0
 41 48  1  0  0  0
 42 43  1  0  0  0
 42 66  1  0  0  0
 42115  1  0  0  0
 42116  1  0  0  0
 43 44  1  0  0  0
 44117  1  0  0  0
 45 46  2  0  0  0
 45118  1  0  0  0
 46119  1  0  0  0
 47120  1  0  0  0
 47121  1  0  0  0
 48 56  1  0  0  0
 48 65  1  0  0  0
 48122  1  0  0  0
 49 50  1  0  0  0
 49 53  1  0  0  0
 49 64  1  0  0  0
 49123  1  0  0  0
 50 51  1  0  0  0
 50124  1  0  0  0
 50125  1  0  0  0
 51 52  1  0  0  0
 51126  1  0  0  0
 51127  1  0  0  0
 52128  1  0  0  0
 52129  1  0  0  0
 53 54  1  0  0  0
 54 55  2  0  0  0
 54130  1  0  0  0
 55 57  1  0  0  0
 55131  1  0  0  0
 56 69  2  0  0  0
 57 58  2  0  0  0
 57132  1  0  0  0
 58133  1  0  0  0
 59 60  1  0  0  0
 59 61  1  0  0  0
 59 62  1  0  0  0
 60134  1  0  0  0
 60135  1  0  0  0
 60136  1  0  0  0
 61137  1  0  0  0
 61138  1  0  0  0
 61139  1  0  0  0
 62140  1  0  0  0
 62141  1  0  0  0
 62142  1  0  0  0
 63 65  1  0  0  0
 63143  1  0  0  0
 63144  1  0  0  0
 63145  1  0  0  0
 64146  1  0  0  0
 65147  1  0  0  0
 68 84  1  0  0  0
 71 72  2  0  0  0
 71 74  1  0  0  0
 71148  1  0  0  0
 72 75  1  0  0  0
 72149  1  0  0  0
 73 75  2  0  0  0
 73 76  1  0  0  0
 73150  1  0  0  0
 74 76  2  0  0  0
 74 78  1  0  0  0
 75 87  1  0  0  0
 76 86  1  0  0  0
 77 78  2  0  0  0
 77151  1  0  0  0
 77152  1  0  0  0
 78 83  1  0  0  0
 79 85  1  0  0  0
 79 86  1  0  0  0
 79 88  2  0  0  0
 80 83  1  0  0  0
 80153  1  0  0  0
 80154  1  0  0  0
 80155  1  0  0  0
 81156  1  0  0  0
 81157  1  0  0  0
 81158  1  0  0  0
 81 85  1  0  0  0
 82 85  1  0  0  0
 82159  1  0  0  0
 82160  1  0  0  0
 82161  1  0  0  0
 83162  1  0  0  0
 83163  1  0  0  0
 84 85  1  0  0  0
 84164  1  0  0  0
 84165  1  0  0  0
 86166  1  0  0  0
 87167  1  0  0  0
M  ISO  4   1 100  68 101  84 101  87 100
M  END
> <chiral flag>
0

> <version>
0

> <s_m_source_file>
/data/baiqing/PycharmProjects/Reinvent-master-3.2/result/LINK_invent/BTK/process_docking_weight1_custom_product_contain_oxygen_bond_distance_aromatic_linkinvent_7_9_3/rearranged_h_0066.sdf

> <i_m_source_file_index>
44

> <r_mmod_Potential_Energy-OPLS-2005>
258.910491943359

> <r_mmod_Stretch_Energy-OPLS-2005>
146.481796264648

> <r_mmod_Bend_Energy-OPLS-2005>
187.454956054688

> <r_mmod_Torsional_Energy-OPLS-2005>
305.487976074219

> <r_mmod_Improper_Torsional_Energy-OPLS-2005>
8.57554817199707

> <r_mmod_Van_der_Waal_Energy-OPLS-2005>
138.520782470703

> <r_mmod_Electrostatic_Energy-OPLS-2005>
-391.339904785156

> <r_mmod_Solvation_Energy-OPLS-2005>
-227.228591918945

> <b_mmod_Minimization_Converged-OPLS-2005>
0

> <r_mmod_RMS_Derivative-OPLS-2005>
2.94167900085449

$$$$
44
                    3D
 Structure written by MMmdl.
166175  0  0  1  0            999 V2000
  -30.6342  -14.6317   20.5100 C   0  0  0  0  0  0
  -30.4396  -12.3891   19.4505 C   0  0  0  0  0  0
  -29.5068  -12.5068   18.2249 C   0  0  0  0  0  0
  -28.0307  -12.3446   18.6388 C   0  0  0  0  0  0
  -27.6569  -13.2159   19.8669 C   0  0  2  0  0  0
  -28.7025  -13.0650   20.9949 C   0  0  0  0  0  0
  -25.2575  -13.8171   20.5695 C   0  0  0  0  0  0
  -24.1836  -13.0443   20.9198 C   0  0  0  0  0  0
  -24.6393  -11.6911   20.8734 C   0  0  0  0  0  0
  -23.9054  -10.4290   21.0396 C   0  0  0  0  0  0
  -24.3608   -9.4207   21.9171 C   0  0  0  0  0  0
  -23.6286   -8.2235   22.0740 C   0  0  0  0  0  0
  -22.4264   -8.0271   21.3538 C   0  0  0  0  0  0
  -21.9899   -9.0253   20.4648 C   0  0  0  0  0  0
  -22.7224  -10.2130   20.3050 C   0  0  0  0  0  0
  -21.6851   -6.0723   22.5272 C   0  0  0  0  0  0
  -21.4006   -6.5625   23.8204 C   0  0  0  0  0  0
  -21.3655   -5.6779   24.9171 C   0  0  0  0  0  0
  -21.6049   -4.3048   24.7223 C   0  0  0  0  0  0
  -21.8825   -3.8137   23.4348 C   0  0  0  0  0  0
  -21.9197   -4.6948   22.3405 C   0  0  0  0  0  0
  -22.7857  -13.5239   21.1843 C   0  0  0  0  0  0
  -22.1671   -4.2135   21.0985 F   0  0  0  0  0  0
  -21.5627   -3.4529   25.7739 F   0  0  0  0  0  0
  -30.0201  -13.4073   20.4340 N   0  0  0  0  0  0
  -26.3006  -12.9353   20.3338 N   0  0  0  0  0  0
  -25.9325  -11.6506   20.5764 N   0  0  0  0  0  0
  -22.0493  -12.8237   22.0402 N   0  0  0  0  0  0
  -25.4296  -15.1889   20.4096 N   0  0  0  0  0  0
  -31.7890  -14.7933   20.1032 O   0  0  0  0  0  0
  -21.6633   -6.8864   21.4234 O   0  0  0  0  0  0
  -22.3544  -14.5537   20.6675 O   0  0  0  0  0  0
  -24.6281  -31.8607   23.2049 C   0  0  0  0  0  0
  -25.9136  -32.4777   23.8365 C   0  0  1  0  0  0
  -27.2185  -27.3149   20.1014 C   0  0  0  0  0  0
  -25.5955  -33.8575   24.2299 N   0  0  0  0  0  0
  -23.4207  -30.4896   21.5480 C   0  0  2  0  0  0
  -24.8642  -28.9490   20.1135 C   0  0  0  0  0  0
  -22.7481  -29.4647   22.4933 C   0  0  0  0  0  0
  -18.0292  -28.1399   22.8488 C   0  0  0  0  0  0
  -24.1471  -36.7251   23.2644 C   0  0  0  0  0  0
  -25.9667  -30.7890   21.3802 C   0  0  0  0  0  0
  -26.0389  -29.4194   20.7147 C   0  0  0  0  0  0
  -27.2200  -28.6169   20.6950 C   0  0  0  0  0  0
  -26.0122  -26.9026   19.4835 C   0  0  0  0  0  0
  -24.8537  -27.6963   19.4903 C   0  0  0  0  0  0
  -23.6361  -29.8323   20.1622 C   0  0  0  0  0  0
  -25.4098  -36.3073   24.0344 C   0  0  1  0  0  0
  -20.5890  -28.3702   23.1282 C   0  0  2  0  0  0
  -20.6755  -26.9410   22.5453 C   0  0  0  0  0  0
  -19.5764  -26.6406   21.5216 C   0  0  0  0  0  0
  -18.1928  -26.7965   22.1584 C   0  0  0  0  0  0
  -19.1547  -28.8865   23.2885 C   0  0  0  0  0  0
  -18.9469  -30.1452   23.8923 C   0  0  0  0  0  0
  -17.6472  -30.6590   24.0585 C   0  0  0  0  0  0
  -25.9055  -34.9446   23.5117 C   0  0  0  0  0  0
  -16.5362  -29.9093   23.6343 C   0  0  0  0  0  0
  -16.7281  -28.6509   23.0371 C   0  0  0  0  0  0
  -26.4508  -31.6582   25.0732 C   0  0  0  0  0  0
  -25.3745  -31.3801   26.1485 C   0  0  0  0  0  0
  -27.0288  -30.2966   24.6222 C   0  0  0  0  0  0
  -27.6110  -32.4296   25.7447 C   0  0  0  0  0  0
  -27.5594  -37.1747   24.8441 C   0  0  0  0  0  0
  -21.4197  -29.3034   22.3656 N   0  0  0  0  0  0
  -26.4260  -37.3788   23.9454 N   0  0  0  0  0  0
  -24.6906  -31.0631   22.1000 N   0  0  0  0  0  0
  -23.4195  -28.8192   23.3027 O   0  0  0  0  0  0
  -28.3333  -26.4539   20.1284 O   0  0  0  0  0  0
  -26.5624  -34.8911   22.4680 O   0  0  0  0  0  0
  -23.5445  -32.1413   23.7377 O   0  0  0  0  0  0
  -28.8140  -19.3354   21.0879 C   0  0  0  0  0  0
  -28.8296  -17.9170   21.2033 C   0  0  0  0  0  0
  -31.0115  -17.8463   20.2089 C   0  0  0  0  0  0
  -31.0250  -19.2808   20.0970 C   0  0  0  0  0  0
  -29.9070  -20.0682   20.5563 C   0  0  0  0  0  0
  -29.9261  -17.1269   20.7739 C   0  0  0  0  0  0
  -30.6346  -22.3463   21.3165 C   0  0  0  0  0  0
  -32.2079  -19.9046   19.4182 C   0  0  0  0  0  0
  -28.7579  -22.3808   20.0124 C   0  0  0  0  0  0
  -29.2158  -23.8893   20.0986 C   0  0  2  0  0  0
  -30.2163  -23.8405   21.2759 C   0  0  0  0  0  0
  -33.5339  -19.1494   19.4688 C   0  0  0  0  0  0
  -29.5701  -24.2172   22.6264 C   0  0  0  0  0  0
  -31.4368  -24.7479   21.0075 C   0  0  0  0  0  0
  -28.0642  -24.9933   20.0815 C   0  0  0  0  0  0
  -29.8536  -21.5439   20.5588 N   0  0  0  0  0  0
  -29.8435  -15.6708   20.9225 N   0  0  0  0  0  0
  -31.6015  -21.9641   21.9854 O   0  0  0  0  0  0
  -32.1717  -20.9860   18.8245 O   0  0  0  0  0  0
  -31.4791  -12.5147   19.1425 H   0  0  0  0  0  0
  -30.3773  -11.3913   19.8897 H   0  0  0  0  0  0
  -29.7685  -11.7572   17.4774 H   0  0  0  0  0  0
  -29.6496  -13.4775   17.7480 H   0  0  0  0  0  0
  -27.8672  -11.2923   18.8744 H   0  0  0  0  0  0
  -27.3748  -12.5743   17.7984 H   0  0  0  0  0  0
  -27.6779  -14.2520   19.5285 H   0  0  0  0  0  0
  -28.7124  -12.0398   21.3698 H   0  0  0  0  0  0
  -28.4480  -13.6897   21.8516 H   0  0  0  0  0  0
  -25.2753   -9.5680   22.4746 H   0  0  0  0  0  0
  -24.0001   -7.4623   22.7449 H   0  0  0  0  0  0
  -21.0827   -8.8779   19.8961 H   0  0  0  0  0  0
  -22.3680  -10.9672   19.6158 H   0  0  0  0  0  0
  -21.1986   -7.6127   23.9698 H   0  0  0  0  0  0
  -21.1468   -6.0510   25.9070 H   0  0  0  0  0  0
  -22.0606   -2.7600   23.2852 H   0  0  0  0  0  0
  -22.4109  -11.9901   22.4802 H   0  0  0  0  0  0
  -21.1113  -13.1269   22.2598 H   0  0  0  0  0  0
  -24.6616  -15.8437   20.5107 H   0  0  0  0  0  0
  -26.2752  -15.6229   20.0630 H   0  0  0  0  0  0
  -26.7196  -32.5449   23.1105 H   0  0  0  0  0  0
  -25.0094  -33.9715   25.0441 H   0  0  0  0  0  0
  -22.7148  -31.3108   21.4090 H   0  0  0  0  0  0
  -23.3780  -35.9530   23.3249 H   0  0  0  0  0  0
  -24.3578  -36.8929   22.2070 H   0  0  0  0  0  0
  -23.7140  -37.6400   23.6691 H   0  0  0  0  0  0
  -26.1108  -31.5584   20.6204 H   0  0  0  0  0  0
  -26.8419  -30.8253   22.0171 H   0  0  0  0  0  0
  -28.1234  -28.9788   21.1652 H   0  0  0  0  0  0
  -25.9128  -25.9552   18.9809 H   0  0  0  0  0  0
  -23.9545  -27.3303   19.0150 H   0  0  0  0  0  0
  -23.7613  -30.6120   19.4097 H   0  0  0  0  0  0
  -22.7539  -29.2671   19.8569 H   0  0  0  0  0  0
  -25.1259  -36.1912   25.0834 H   0  0  0  0  0  0
  -21.0004  -28.3301   24.1394 H   0  0  0  0  0  0
  -20.5580  -26.2329   23.3670 H   0  0  0  0  0  0
  -21.6639  -26.7388   22.1318 H   0  0  0  0  0  0
  -19.6917  -25.6320   21.1243 H   0  0  0  0  0  0
  -19.6737  -27.3211   20.6742 H   0  0  0  0  0  0
  -17.4234  -26.6800   21.3932 H   0  0  0  0  0  0
  -18.0248  -26.0070   22.8924 H   0  0  0  0  0  0
  -19.7945  -30.7255   24.2325 H   0  0  0  0  0  0
  -17.5029  -31.6262   24.5202 H   0  0  0  0  0  0
  -15.5362  -30.3005   23.7644 H   0  0  0  0  0  0
  -15.8686  -28.0818   22.7090 H   0  0  0  0  0  0
  -24.6011  -30.6986   25.7920 H   0  0  0  0  0  0
  -24.8808  -32.2977   26.4695 H   0  0  0  0  0  0
  -25.8112  -30.9235   27.0379 H   0  0  0  0  0  0
  -26.2824  -29.6744   24.1272 H   0  0  0  0  0  0
  -27.3943  -29.7217   25.4740 H   0  0  0  0  0  0
  -27.8742  -30.4169   23.9446 H   0  0  0  0  0  0
  -27.2786  -33.3639   26.1976 H   0  0  0  0  0  0
  -28.3921  -32.6783   25.0251 H   0  0  0  0  0  0
  -28.0774  -31.8444   26.5382 H   0  0  0  0  0  0
  -28.2586  -38.0071   24.7565 H   0  0  0  0  0  0
  -28.1106  -36.2618   24.6124 H   0  0  0  0  0  0
  -27.2366  -37.1258   25.8856 H   0  0  0  0  0  0
  -20.9378  -29.8728   21.6843 H   0  0  0  0  0  0
  -26.0141  -38.2839   24.1559 H   0  0  0  0  0  0
  -27.9466  -19.8696   21.4504 H   0  0  0  0  0  0
  -27.9657  -17.4341   21.6394 H   0  0  0  0  0  0
  -31.8495  -17.2775   19.8375 H   0  0  0  0  0  0
  -28.5258  -22.0928   18.9868 H   0  0  0  0  0  0
  -27.8587  -22.2197   20.6093 H   0  0  0  0  0  0
  -29.7999  -24.0688   19.1939 H   0  0  0  0  0  0
  -33.6986  -18.7337   20.4625 H   0  0  0  0  0  0
  -34.3639  -19.8161   19.2357 H   0  0  0  0  0  0
  -33.5360  -18.3362   18.7432 H   0  0  0  0  0  0
  -28.7340  -23.5606   22.8717 H   0  0  0  0  0  0
  -29.1954  -25.2414   22.6192 H   0  0  0  0  0  0
  -30.2901  -24.1437   23.4428 H   0  0  0  0  0  0
  -32.0079  -24.4122   20.1396 H   0  0  0  0  0  0
  -32.1209  -24.7636   21.8572 H   0  0  0  0  0  0
  -31.1250  -25.7755   20.8172 H   0  0  0  0  0  0
  -27.3449  -24.7598   20.8690 H   0  0  0  0  0  0
  -27.5591  -24.7783   19.1414 H   0  0  0  0  0  0
  -28.9651  -15.3456   21.2964 H   0  0  0  0  0  0
  1 25  1  0  0  0
  1 30  2  0  0  0
  1 87  1  0  0  0
  2  3  1  0  0  0
  2 25  1  0  0  0
  2 90  1  0  0  0
  2 91  1  0  0  0
  3  4  1  0  0  0
  3 92  1  0  0  0
  3 93  1  0  0  0
  4  5  1  0  0  0
  4 94  1  0  0  0
  4 95  1  0  0  0
  5  6  1  0  0  0
  5 26  1  0  0  0
  5 96  1  0  0  0
  6 25  1  0  0  0
  6 97  1  0  0  0
  6 98  1  0  0  0
  7  8  2  0  0  0
  7 26  1  0  0  0
  7 29  1  0  0  0
  8  9  1  0  0  0
  8 22  1  0  0  0
  9 10  1  0  0  0
  9 27  2  0  0  0
 10 11  2  0  0  0
 10 15  1  0  0  0
 11 12  1  0  0  0
 11 99  1  0  0  0
 12 13  2  0  0  0
 12100  1  0  0  0
 13 14  1  0  0  0
 13 31  1  0  0  0
 14 15  2  0  0  0
 14101  1  0  0  0
 15102  1  0  0  0
 16 17  2  0  0  0
 16 21  1  0  0  0
 16 31  1  0  0  0
 17 18  1  0  0  0
 17103  1  0  0  0
 18 19  2  0  0  0
 18104  1  0  0  0
 19 20  1  0  0  0
 19 24  1  0  0  0
 20 21  2  0  0  0
 20105  1  0  0  0
 21 23  1  0  0  0
 22 28  1  0  0  0
 22 32  2  0  0  0
 26 27  1  0  0  0
 28106  1  0  0  0
 28107  1  0  0  0
 29108  1  0  0  0
 29109  1  0  0  0
 33 34  1  0  0  0
 33 66  1  0  0  0
 33 70  2  0  0  0
 34 36  1  0  0  0
 34 59  1  0  0  0
 34110  1  0  0  0
 35 44  2  0  0  0
 35 45  1  0  0  0
 35 68  1  0  0  0
 36 56  1  0  0  0
 36111  1  0  0  0
 37 39  1  0  0  0
 37 47  1  0  0  0
 37 66  1  0  0  0
 37112  1  0  0  0
 38 43  2  0  0  0
 38 46  1  0  0  0
 38 47  1  0  0  0
 39 64  1  0  0  0
 39 67  2  0  0  0
 40 52  1  0  0  0
 40 53  2  0  0  0
 40 58  1  0  0  0
 41113  1  0  0  0
 41114  1  0  0  0
 41115  1  0  0  0
 41 48  1  0  0  0
 42 43  1  0  0  0
 42 66  1  0  0  0
 42116  1  0  0  0
 42117  1  0  0  0
 43 44  1  0  0  0
 44118  1  0  0  0
 45 46  2  0  0  0
 45119  1  0  0  0
 46120  1  0  0  0
 47121  1  0  0  0
 47122  1  0  0  0
 48 56  1  0  0  0
 48 65  1  0  0  0
 48123  1  0  0  0
 49 50  1  0  0  0
 49 53  1  0  0  0
 49 64  1  0  0  0
 49124  1  0  0  0
 50 51  1  0  0  0
 50125  1  0  0  0
 50126  1  0  0  0
 51 52  1  0  0  0
 51127  1  0  0  0
 51128  1  0  0  0
 52129  1  0  0  0
 52130  1  0  0  0
 53 54  1  0  0  0
 54 55  2  0  0  0
 54131  1  0  0  0
 55 57  1  0  0  0
 55132  1  0  0  0
 56 69  2  0  0  0
 57 58  2  0  0  0
 57133  1  0  0  0
 58134  1  0  0  0
 59 60  1  0  0  0
 59 61  1  0  0  0
 59 62  1  0  0  0
 60135  1  0  0  0
 60136  1  0  0  0
 60137  1  0  0  0
 61138  1  0  0  0
 61139  1  0  0  0
 61140  1  0  0  0
 62141  1  0  0  0
 62142  1  0  0  0
 62143  1  0  0  0
 63 65  1  0  0  0
 63144  1  0  0  0
 63145  1  0  0  0
 63146  1  0  0  0
 64147  1  0  0  0
 65148  1  0  0  0
 68 85  1  0  0  0
 71 72  2  0  0  0
 71 75  1  0  0  0
 71149  1  0  0  0
 72 76  1  0  0  0
 72150  1  0  0  0
 73 74  1  0  0  0
 73 76  2  0  0  0
 73151  1  0  0  0
 74 75  2  0  0  0
 74 78  1  0  0  0
 75 86  1  0  0  0
 76 87  1  0  0  0
 77 81  1  0  0  0
 77 86  1  0  0  0
 77 88  2  0  0  0
 78 82  1  0  0  0
 78 89  2  0  0  0
 79 80  1  0  0  0
 79 86  1  0  0  0
 79152  1  0  0  0
 79153  1  0  0  0
 80 81  1  0  0  0
 80 85  1  0  0  0
 80154  1  0  0  0
 81 83  1  0  0  0
 81 84  1  0  0  0
 82155  1  0  0  0
 82156  1  0  0  0
 82157  1  0  0  0
 83158  1  0  0  0
 83159  1  0  0  0
 83160  1  0  0  0
 84161  1  0  0  0
 84162  1  0  0  0
 84163  1  0  0  0
 85164  1  0  0  0
 85165  1  0  0  0
 87166  1  0  0  0
M  ISO  4   1 100  68 101  85 101  87 100
M  END
> <chiral flag>
0

> <version>
0

> <s_m_source_file>
/data/baiqing/PycharmProjects/Reinvent-master-3.2/result/LINK_invent/BTK/process_docking_weight1_custom_product_contain_oxygen_bond_distance_aromatic_linkinvent_7_9_3/rearranged_h_0066.sdf

> <i_m_source_file_index>
45

> <r_mmod_Potential_Energy-OPLS-2005>
185.189605712891

> <r_mmod_Stretch_Energy-OPLS-2005>
85.6483917236328

> <r_mmod_Bend_Energy-OPLS-2005>
173.911285400391

> <r_mmod_Torsional_Energy-OPLS-2005>
322.178894042969

> <r_mmod_Improper_Torsional_Energy-OPLS-2005>
4.25697422027588

> <r_mmod_Van_der_Waal_Energy-OPLS-2005>
147.258575439453

> <r_mmod_Electrostatic_Energy-OPLS-2005>
-372.411071777344

> <r_mmod_Solvation_Energy-OPLS-2005>
-223.449462890625

> <b_mmod_Minimization_Converged-OPLS-2005>
0

> <r_mmod_RMS_Derivative-OPLS-2005>
1.83818566799164

$$$$
45
                    3D
 Structure written by MMmdl.
154162  0  0  1  0            999 V2000
  -30.6715  -14.5017   20.5544 C   0  0  0  0  0  0
  -30.4160  -12.3117   19.4460 C   0  0  0  0  0  0
  -29.4989  -12.5089   18.2212 C   0  0  0  0  0  0
  -28.0185  -12.3720   18.6254 C   0  0  0  0  0  0
  -27.6590  -13.2135   19.8788 C   0  0  2  0  0  0
  -28.6947  -13.0053   21.0081 C   0  0  0  0  0  0
  -25.2557  -13.8196   20.5717 C   0  0  0  0  0  0
  -24.1823  -13.0453   20.9183 C   0  0  0  0  0  0
  -24.6388  -11.6924   20.8733 C   0  0  0  0  0  0
  -23.9069  -10.4307   21.0413 C   0  0  0  0  0  0
  -24.3615   -9.4211   21.9191 C   0  0  0  0  0  0
  -23.6292   -8.2248   22.0757 C   0  0  0  0  0  0
  -22.4269   -8.0280   21.3557 C   0  0  0  0  0  0
  -21.9909   -9.0257   20.4657 C   0  0  0  0  0  0
  -22.7240  -10.2149   20.3069 C   0  0  0  0  0  0
  -21.6853   -6.0723   22.5279 C   0  0  0  0  0  0
  -21.4014   -6.5640   23.8213 C   0  0  0  0  0  0
  -21.3672   -5.6798   24.9184 C   0  0  0  0  0  0
  -21.6052   -4.3055   24.7232 C   0  0  0  0  0  0
  -21.8817   -3.8143   23.4363 C   0  0  0  0  0  0
  -21.9195   -4.6957   22.3417 C   0  0  0  0  0  0
  -22.7850  -13.5240   21.1839 C   0  0  0  0  0  0
  -22.1649   -4.2144   21.0992 F   0  0  0  0  0  0
  -21.5646   -3.4545   25.7753 F   0  0  0  0  0  0
  -30.0301  -13.3033   20.4648 N   0  0  0  0  0  0
  -26.2995  -12.9379   20.3381 N   0  0  0  0  0  0
  -25.9314  -11.6532   20.5742 N   0  0  0  0  0  0
  -22.0497  -12.8250   22.0412 N   0  0  0  0  0  0
  -25.4275  -15.1927   20.4159 N   0  0  0  0  0  0
  -31.7901  -14.6940   20.0690 O   0  0  0  0  0  0
  -21.6648   -6.8862   21.4238 O   0  0  0  0  0  0
  -22.3525  -14.5543   20.6679 O   0  0  0  0  0  0
  -24.6115  -31.8654   23.2065 C   0  0  0  0  0  0
  -25.8993  -32.4827   23.8355 C   0  0  1  0  0  0
  -27.2364  -27.3991   20.1008 C   0  0  0  0  0  0
  -25.5850  -33.8639   24.2249 N   0  0  0  0  0  0
  -23.4022  -30.4840   21.5512 C   0  0  2  0  0  0
  -24.8499  -28.9480   20.1166 C   0  0  0  0  0  0
  -22.7391  -29.4590   22.4991 C   0  0  0  0  0  0
  -18.0232  -28.1372   22.8485 C   0  0  0  0  0  0
  -24.1502  -36.7310   23.2637 C   0  0  0  0  0  0
  -25.9354  -30.8201   21.3684 C   0  0  0  0  0  0
  -26.0119  -29.4529   20.7123 C   0  0  0  0  0  0
  -27.2022  -28.6852   20.7017 C   0  0  0  0  0  0
  -26.0481  -26.9156   19.5073 C   0  0  0  0  0  0
  -24.8631  -27.6776   19.5169 C   0  0  0  0  0  0
  -23.6131  -29.8195   20.1650 C   0  0  0  0  0  0
  -25.4134  -36.3117   24.0317 C   0  0  1  0  0  0
  -20.5829  -28.3622   23.1346 C   0  0  2  0  0  0
  -20.6746  -26.9355   22.5439 C   0  0  0  0  0  0
  -19.5734  -26.6366   21.5225 C   0  0  0  0  0  0
  -18.1895  -26.7910   22.1618 C   0  0  0  0  0  0
  -19.1486  -28.8815   23.2907 C   0  0  0  0  0  0
  -18.9426  -30.1436   23.8895 C   0  0  0  0  0  0
  -17.6438  -30.6593   24.0545 C   0  0  0  0  0  0
  -25.9059  -34.9494   23.5079 C   0  0  0  0  0  0
  -16.5320  -29.9096   23.6343 C   0  0  0  0  0  0
  -16.7222  -28.6520   23.0339 C   0  0  0  0  0  0
  -26.4404  -31.6640   25.0711 C   0  0  0  0  0  0
  -25.3673  -31.3766   26.1468 C   0  0  0  0  0  0
  -27.0196  -30.3054   24.6132 C   0  0  0  0  0  0
  -27.5965  -32.4379   25.7481 C   0  0  0  0  0  0
  -27.5592  -37.1804   24.8439 C   0  0  0  0  0  0
  -21.4116  -29.2980   22.3761 N   0  0  0  0  0  0
  -26.4298  -37.3817   23.9403 N   0  0  0  0  0  0
  -24.6680  -31.0728   22.0984 N   0  0  0  0  0  0
  -23.4158  -28.8132   23.3036 O   0  0  0  0  0  0
  -28.4200  -26.6723   20.1243 O   0  0  0  0  0  0
  -26.5665  -34.8948   22.4668 O   0  0  0  0  0  0
  -23.5305  -32.1385   23.7452 O   0  0  0  0  0  0
  -29.0474  -18.0473   18.4789 C   0  0  0  0  0  0
  -29.0060  -19.2448   19.2186 C   0  0  0  0  0  0
  -29.4006  -16.8346   19.0965 C   0  0  0  0  0  0
  -29.3219  -19.2537   20.5956 C   0  0  0  0  0  0
  -29.7121  -16.7909   20.4752 C   0  0  0  0  0  0
  -29.6676  -18.0087   21.2228 C   0  0  0  0  0  0
  -29.0348  -23.0243   20.6797 C   0  0  0  0  0  0
  -29.3310  -20.5955   21.3706 C   0  0  0  0  0  0
  -28.0099  -24.1464   20.3367 C   0  0  0  0  0  0
  -28.5265  -25.3681   19.4968 C   0  0  0  0  0  0
  -29.9621  -15.5171   21.0981 N   0  0  0  0  0  0
  -28.5903  -21.7476   20.7885 N   0  0  0  0  0  0
  -30.2119  -23.3171   20.8964 O   0  0  0  0  0  0
  -30.0521  -17.9646   22.9102 Cl  0  0  0  0  0  0
  -31.4621  -12.3985   19.1527 H   0  0  0  0  0  0
  -30.3016  -11.3013   19.8396 H   0  0  0  0  0  0
  -29.7412  -11.7796   17.4475 H   0  0  0  0  0  0
  -29.6775  -13.4898   17.7786 H   0  0  0  0  0  0
  -27.8261  -11.3167   18.8200 H   0  0  0  0  0  0
  -27.3758  -12.6467   17.7888 H   0  0  0  0  0  0
  -27.6982  -14.2607   19.5772 H   0  0  0  0  0  0
  -28.6600  -11.9780   21.3730 H   0  0  0  0  0  0
  -28.4422  -13.6243   21.8700 H   0  0  0  0  0  0
  -25.2758   -9.5726   22.4749 H   0  0  0  0  0  0
  -24.0023   -7.4654   22.7481 H   0  0  0  0  0  0
  -21.0842   -8.8774   19.8955 H   0  0  0  0  0  0
  -22.3677  -10.9683   19.6181 H   0  0  0  0  0  0
  -21.1972   -7.6139   23.9717 H   0  0  0  0  0  0
  -21.1504   -6.0526   25.9086 H   0  0  0  0  0  0
  -22.0574   -2.7602   23.2877 H   0  0  0  0  0  0
  -22.4090  -11.9911   22.4838 H   0  0  0  0  0  0
  -21.1113  -13.1295   22.2577 H   0  0  0  0  0  0
  -24.6655  -15.8511   20.5287 H   0  0  0  0  0  0
  -26.2874  -15.6363   20.1192 H   0  0  0  0  0  0
  -26.7066  -32.5498   23.1120 H   0  0  0  0  0  0
  -24.9953  -33.9814   25.0358 H   0  0  0  0  0  0
  -22.6866  -31.2979   21.4135 H   0  0  0  0  0  0
  -23.3788  -35.9616   23.3284 H   0  0  0  0  0  0
  -24.3583  -36.8954   22.2050 H   0  0  0  0  0  0
  -23.7229  -37.6493   23.6684 H   0  0  0  0  0  0
  -26.0627  -31.5898   20.6059 H   0  0  0  0  0  0
  -26.8152  -30.8604   21.9988 H   0  0  0  0  0  0
  -28.1016  -29.0756   21.1588 H   0  0  0  0  0  0
  -26.0104  -25.9450   19.0405 H   0  0  0  0  0  0
  -23.9662  -27.2743   19.0665 H   0  0  0  0  0  0
  -23.7215  -30.5991   19.4085 H   0  0  0  0  0  0
  -22.7347  -29.2442   19.8662 H   0  0  0  0  0  0
  -25.1325  -36.1971   25.0814 H   0  0  0  0  0  0
  -20.9872  -28.3200   24.1483 H   0  0  0  0  0  0
  -20.5673  -26.2190   23.3597 H   0  0  0  0  0  0
  -21.6613  -26.7432   22.1198 H   0  0  0  0  0  0
  -19.6888  -25.6280   21.1242 H   0  0  0  0  0  0
  -19.6719  -27.3196   20.6775 H   0  0  0  0  0  0
  -17.4150  -26.6598   21.4035 H   0  0  0  0  0  0
  -18.0317  -26.0071   22.9036 H   0  0  0  0  0  0
  -19.7919  -30.7241   24.2241 H   0  0  0  0  0  0
  -17.5010  -31.6282   24.5127 H   0  0  0  0  0  0
  -15.5325  -30.2999   23.7714 H   0  0  0  0  0  0
  -15.8598  -28.0881   22.7033 H   0  0  0  0  0  0
  -24.5833  -30.7117   25.7813 H   0  0  0  0  0  0
  -24.8877  -32.2931   26.4937 H   0  0  0  0  0  0
  -25.8039  -30.8922   27.0216 H   0  0  0  0  0  0
  -26.2724  -29.6905   24.1090 H   0  0  0  0  0  0
  -27.3782  -29.7237   25.4637 H   0  0  0  0  0  0
  -27.8670  -30.4306   23.9381 H   0  0  0  0  0  0
  -27.2540  -33.3657   26.2095 H   0  0  0  0  0  0
  -28.3767  -32.6996   25.0315 H   0  0  0  0  0  0
  -28.0650  -31.8488   26.5378 H   0  0  0  0  0  0
  -28.2577  -38.0139   24.7570 H   0  0  0  0  0  0
  -28.1121  -36.2669   24.6179 H   0  0  0  0  0  0
  -27.2300  -37.1355   25.8837 H   0  0  0  0  0  0
  -20.9236  -29.8684   21.7000 H   0  0  0  0  0  0
  -26.0178  -38.2872   24.1493 H   0  0  0  0  0  0
  -28.8008  -18.0565   17.4252 H   0  0  0  0  0  0
  -28.7366  -20.1619   18.7118 H   0  0  0  0  0  0
  -29.4076  -15.9340   18.4998 H   0  0  0  0  0  0
  -30.3777  -20.8587   21.5313 H   0  0  0  0  0  0
  -28.9154  -20.4306   22.3648 H   0  0  0  0  0  0
  -27.6118  -24.5200   21.2802 H   0  0  0  0  0  0
  -27.1612  -23.6931   19.8252 H   0  0  0  0  0  0
  -28.0590  -25.3813   18.5106 H   0  0  0  0  0  0
  -29.5866  -25.2347   19.2743 H   0  0  0  0  0  0
  -29.2515  -15.2260   21.7506 H   0  0  0  0  0  0
  -27.6109  -21.5887   20.5924 H   0  0  0  0  0  0
  1 25  1  0  0  0
  1 30  2  0  0  0
  1 81  1  0  0  0
  2  3  1  0  0  0
  2 25  1  0  0  0
  2 85  1  0  0  0
  2 86  1  0  0  0
  3  4  1  0  0  0
  3 87  1  0  0  0
  3 88  1  0  0  0
  4  5  1  0  0  0
  4 89  1  0  0  0
  4 90  1  0  0  0
  5  6  1  0  0  0
  5 26  1  0  0  0
  5 91  1  0  0  0
  6 25  1  0  0  0
  6 92  1  0  0  0
  6 93  1  0  0  0
  7  8  2  0  0  0
  7 26  1  0  0  0
  7 29  1  0  0  0
  8  9  1  0  0  0
  8 22  1  0  0  0
  9 10  1  0  0  0
  9 27  2  0  0  0
 10 11  2  0  0  0
 10 15  1  0  0  0
 11 12  1  0  0  0
 11 94  1  0  0  0
 12 13  2  0  0  0
 12 95  1  0  0  0
 13 14  1  0  0  0
 13 31  1  0  0  0
 14 15  2  0  0  0
 14 96  1  0  0  0
 15 97  1  0  0  0
 16 17  2  0  0  0
 16 21  1  0  0  0
 16 31  1  0  0  0
 17 18  1  0  0  0
 17 98  1  0  0  0
 18 19  2  0  0  0
 18 99  1  0  0  0
 19 20  1  0  0  0
 19 24  1  0  0  0
 20 21  2  0  0  0
 20100  1  0  0  0
 21 23  1  0  0  0
 22 28  1  0  0  0
 22 32  2  0  0  0
 26 27  1  0  0  0
 28101  1  0  0  0
 28102  1  0  0  0
 29103  1  0  0  0
 29104  1  0  0  0
 33 34  1  0  0  0
 33 66  1  0  0  0
 33 70  2  0  0  0
 34 36  1  0  0  0
 34 59  1  0  0  0
 34105  1  0  0  0
 35 44  2  0  0  0
 35 45  1  0  0  0
 35 68  1  0  0  0
 36 56  1  0  0  0
 36106  1  0  0  0
 37 39  1  0  0  0
 37 47  1  0  0  0
 37 66  1  0  0  0
 37107  1  0  0  0
 38 43  2  0  0  0
 38 46  1  0  0  0
 38 47  1  0  0  0
 39 64  1  0  0  0
 39 67  2  0  0  0
 40 52  1  0  0  0
 40 53  2  0  0  0
 40 58  1  0  0  0
 41108  1  0  0  0
 41109  1  0  0  0
 41110  1  0  0  0
 41 48  1  0  0  0
 42 43  1  0  0  0
 42 66  1  0  0  0
 42111  1  0  0  0
 42112  1  0  0  0
 43 44  1  0  0  0
 44113  1  0  0  0
 45 46  2  0  0  0
 45114  1  0  0  0
 46115  1  0  0  0
 47116  1  0  0  0
 47117  1  0  0  0
 48 56  1  0  0  0
 48 65  1  0  0  0
 48118  1  0  0  0
 49 50  1  0  0  0
 49 53  1  0  0  0
 49 64  1  0  0  0
 49119  1  0  0  0
 50 51  1  0  0  0
 50120  1  0  0  0
 50121  1  0  0  0
 51 52  1  0  0  0
 51122  1  0  0  0
 51123  1  0  0  0
 52124  1  0  0  0
 52125  1  0  0  0
 53 54  1  0  0  0
 54 55  2  0  0  0
 54126  1  0  0  0
 55 57  1  0  0  0
 55127  1  0  0  0
 56 69  2  0  0  0
 57 58  2  0  0  0
 57128  1  0  0  0
 58129  1  0  0  0
 59 60  1  0  0  0
 59 61  1  0  0  0
 59 62  1  0  0  0
 60130  1  0  0  0
 60131  1  0  0  0
 60132  1  0  0  0
 61133  1  0  0  0
 61134  1  0  0  0
 61135  1  0  0  0
 62136  1  0  0  0
 62137  1  0  0  0
 62138  1  0  0  0
 63 65  1  0  0  0
 63139  1  0  0  0
 63140  1  0  0  0
 63141  1  0  0  0
 64142  1  0  0  0
 65143  1  0  0  0
 68 80  1  0  0  0
 71 72  2  0  0  0
 71 73  1  0  0  0
 71144  1  0  0  0
 72 74  1  0  0  0
 72145  1  0  0  0
 73 75  2  0  0  0
 73146  1  0  0  0
 74 76  2  0  0  0
 74 78  1  0  0  0
 75 76  1  0  0  0
 75 81  1  0  0  0
 76 84  1  0  0  0
 77 79  1  0  0  0
 77 82  1  0  0  0
 77 83  2  0  0  0
 78 82  1  0  0  0
 78147  1  0  0  0
 78148  1  0  0  0
 79 80  1  0  0  0
 79149  1  0  0  0
 79150  1  0  0  0
 80151  1  0  0  0
 80152  1  0  0  0
 81153  1  0  0  0
 82154  1  0  0  0
M  ISO  4   1 100  68 101  80 101  81 100
M  END
> <chiral flag>
0

> <version>
0

> <s_m_source_file>
/data/baiqing/PycharmProjects/Reinvent-master-3.2/result/LINK_invent/BTK/process_docking_weight1_custom_product_contain_oxygen_bond_distance_aromatic_linkinvent_7_9_3/rearranged_h_0066.sdf

> <i_m_source_file_index>
46

> <r_mmod_Potential_Energy-OPLS-2005>
-120.680587768555

> <r_mmod_Stretch_Energy-OPLS-2005>
50.3642768859863

> <r_mmod_Bend_Energy-OPLS-2005>
110.911689758301

> <r_mmod_Torsional_Energy-OPLS-2005>
233.54541015625

> <r_mmod_Improper_Torsional_Energy-OPLS-2005>
5.69008016586304

> <r_mmod_Van_der_Waal_Energy-OPLS-2005>
148.391540527344

> <r_mmod_Electrostatic_Energy-OPLS-2005>
-441.722351074219

> <r_mmod_Solvation_Energy-OPLS-2005>
-244.788452148438

> <b_mmod_Minimization_Converged-OPLS-2005>
0

> <r_mmod_RMS_Derivative-OPLS-2005>
3.45823550224304

$$$$
46
                    3D
 Structure written by MMmdl.
159168  0  0  1  0            999 V2000
  -30.6705  -14.7323   20.4266 C   0  0  0  0  0  0
  -30.4234  -12.4417   19.4736 C   0  0  0  0  0  0
  -29.5052  -12.4886   18.2345 C   0  0  0  0  0  0
  -28.0342  -12.3170   18.6549 C   0  0  0  0  0  0
  -27.6418  -13.2342   19.8430 C   0  0  2  0  0  0
  -28.6913  -13.2135   20.9771 C   0  0  0  0  0  0
  -25.2540  -13.8243   20.5717 C   0  0  0  0  0  0
  -24.1806  -13.0467   20.9216 C   0  0  0  0  0  0
  -24.6392  -11.6953   20.8769 C   0  0  0  0  0  0
  -23.9069  -10.4316   21.0409 C   0  0  0  0  0  0
  -24.3629   -9.4244   21.9181 C   0  0  0  0  0  0
  -23.6316   -8.2270   22.0754 C   0  0  0  0  0  0
  -22.4288   -8.0301   21.3540 C   0  0  0  0  0  0
  -21.9934   -9.0278   20.4632 C   0  0  0  0  0  0
  -22.7257  -10.2161   20.3048 C   0  0  0  0  0  0
  -21.6860   -6.0741   22.5284 C   0  0  0  0  0  0
  -21.4007   -6.5630   23.8222 C   0  0  0  0  0  0
  -21.3691   -5.6782   24.9187 C   0  0  0  0  0  0
  -21.6059   -4.3045   24.7228 C   0  0  0  0  0  0
  -21.8825   -3.8146   23.4345 C   0  0  0  0  0  0
  -21.9196   -4.6967   22.3409 C   0  0  0  0  0  0
  -22.7843  -13.5259   21.1856 C   0  0  0  0  0  0
  -22.1671   -4.2152   21.0993 F   0  0  0  0  0  0
  -21.5648   -3.4532   25.7747 F   0  0  0  0  0  0
  -29.9900  -13.5345   20.3759 N   0  0  0  0  0  0
  -26.2950  -12.9423   20.3287 N   0  0  0  0  0  0
  -25.9318  -11.6565   20.5786 N   0  0  0  0  0  0
  -22.0494  -12.8234   22.0423 N   0  0  0  0  0  0
  -25.4249  -15.1968   20.4163 N   0  0  0  0  0  0
  -31.8733  -14.7249   20.1656 O   0  0  0  0  0  0
  -21.6665   -6.8882   21.4228 O   0  0  0  0  0  0
  -22.3547  -14.5581   20.6747 O   0  0  0  0  0  0
  -24.6304  -31.8506   23.2008 C   0  0  0  0  0  0
  -25.9130  -32.4745   23.8321 C   0  0  1  0  0  0
  -27.2265  -27.2752   20.1260 C   0  0  0  0  0  0
  -25.5957  -33.8547   24.2239 N   0  0  0  0  0  0
  -23.4287  -30.4710   21.5472 C   0  0  2  0  0  0
  -24.8721  -28.9188   20.1201 C   0  0  0  0  0  0
  -22.7508  -29.4533   22.4972 C   0  0  0  0  0  0
  -18.0264  -28.1429   22.8460 C   0  0  0  0  0  0
  -24.1515  -36.7270   23.2629 C   0  0  0  0  0  0
  -25.9694  -30.7719   21.3736 C   0  0  0  0  0  0
  -26.0423  -29.3931   20.7221 C   0  0  0  0  0  0
  -27.2172  -28.5835   20.7122 C   0  0  0  0  0  0
  -26.0243  -26.8614   19.5054 C   0  0  0  0  0  0
  -24.8657  -27.6619   19.5024 C   0  0  0  0  0  0
  -23.6458  -29.8035   20.1641 C   0  0  0  0  0  0
  -25.4151  -36.3039   24.0304 C   0  0  1  0  0  0
  -20.5867  -28.3698   23.1329 C   0  0  2  0  0  0
  -20.6789  -26.9443   22.5437 C   0  0  0  0  0  0
  -19.5788  -26.6407   21.5217 C   0  0  0  0  0  0
  -18.1945  -26.7968   22.1599 C   0  0  0  0  0  0
  -19.1520  -28.8897   23.2873 C   0  0  0  0  0  0
  -18.9433  -30.1488   23.8903 C   0  0  0  0  0  0
  -17.6440  -30.6631   24.0568 C   0  0  0  0  0  0
  -25.9088  -34.9411   23.5063 C   0  0  0  0  0  0
  -16.5331  -29.9126   23.6356 C   0  0  0  0  0  0
  -16.7251  -28.6551   23.0348 C   0  0  0  0  0  0
  -26.4508  -31.6547   25.0693 C   0  0  0  0  0  0
  -25.3750  -31.3648   26.1426 C   0  0  0  0  0  0
  -27.0274  -30.2975   24.6082 C   0  0  0  0  0  0
  -27.6063  -32.4273   25.7485 C   0  0  0  0  0  0
  -27.5596  -37.1807   24.8467 C   0  0  0  0  0  0
  -21.4210  -29.2993   22.3713 N   0  0  0  0  0  0
  -26.4303  -37.3770   23.9398 N   0  0  0  0  0  0
  -24.6962  -31.0483   22.0988 N   0  0  0  0  0  0
  -23.4183  -28.8070   23.3089 O   0  0  0  0  0  0
  -28.3605  -26.4358   20.2096 O   0  0  0  0  0  0
  -26.5645  -34.8892   22.4619 O   0  0  0  0  0  0
  -23.5464  -32.1271   23.7325 O   0  0  0  0  0  0
  -32.2401  -18.9956   20.1214 C   0  0  0  0  0  0
  -31.3707  -20.0963   20.2043 C   0  0  0  0  0  0
  -31.7668  -17.6735   20.2072 C   0  0  0  0  0  0
  -29.5143  -18.5286   20.4739 C   0  0  0  0  0  0
  -29.9828  -19.9130   20.3754 C   0  0  0  0  0  0
  -30.3976  -17.3633   20.4097 C   0  0  0  0  0  0
  -27.9330  -23.0198   21.3660 C   0  0  0  0  0  0
  -28.2407  -21.5119   21.4080 C   0  0  0  0  0  0
  -29.4586  -22.4750   19.6962 C   0  0  0  0  0  0
  -28.9625  -23.7712   20.5080 C   0  0  2  0  0  0
  -30.1200  -24.2522   21.4168 C   0  0  0  0  0  0
  -28.4410  -25.0443   19.6506 C   0  0  0  0  0  0
  -29.1472  -21.1846   20.4573 N   0  0  0  0  0  0
  -29.9592  -15.9314   20.5375 N   0  0  0  0  0  0
  -27.6664  -20.6981   22.2987 N   0  3  0  0  0  0
  -26.9933  -23.5334   21.9824 O   0  0  0  0  0  0
  -31.4678  -12.5385   19.1651 H   0  0  0  0  0  0
  -30.3544  -11.4733   19.9766 H   0  0  0  0  0  0
  -29.7866  -11.7104   17.5217 H   0  0  0  0  0  0
  -29.6354  -13.4426   17.7182 H   0  0  0  0  0  0
  -27.8931  -11.2699   18.9307 H   0  0  0  0  0  0
  -27.3736  -12.5019   17.8072 H   0  0  0  0  0  0
  -27.6259  -14.2475   19.4387 H   0  0  0  0  0  0
  -28.7239  -12.2421   21.4714 H   0  0  0  0  0  0
  -28.4373  -13.9412   21.7513 H   0  0  0  0  0  0
  -25.2767   -9.5756   22.4755 H   0  0  0  0  0  0
  -24.0067   -7.4661   22.7446 H   0  0  0  0  0  0
  -21.0889   -8.8764   19.8906 H   0  0  0  0  0  0
  -22.3696  -10.9698   19.6172 H   0  0  0  0  0  0
  -21.1974   -7.6134   23.9728 H   0  0  0  0  0  0
  -21.1514   -6.0507   25.9096 H   0  0  0  0  0  0
  -22.0570   -2.7596   23.2849 H   0  0  0  0  0  0
  -22.4142  -11.9907   22.4801 H   0  0  0  0  0  0
  -21.1107  -13.1210   22.2607 H   0  0  0  0  0  0
  -24.6569  -15.8489   20.5342 H   0  0  0  0  0  0
  -26.2739  -15.6426   20.0895 H   0  0  0  0  0  0
  -26.7165  -32.5407   23.1035 H   0  0  0  0  0  0
  -25.0145  -33.9684   25.0406 H   0  0  0  0  0  0
  -22.7269  -31.2930   21.4021 H   0  0  0  0  0  0
  -23.3778  -35.9604   23.3301 H   0  0  0  0  0  0
  -24.3586  -36.8902   22.2041 H   0  0  0  0  0  0
  -23.7286  -37.6477   23.6667 H   0  0  0  0  0  0
  -26.0863  -31.5277   20.5933 H   0  0  0  0  0  0
  -26.8571  -30.8344   21.9929 H   0  0  0  0  0  0
  -28.1189  -28.9430   21.1874 H   0  0  0  0  0  0
  -25.9190  -25.9005   19.0331 H   0  0  0  0  0  0
  -23.9648  -27.2925   19.0319 H   0  0  0  0  0  0
  -23.7847  -30.5768   19.4096 H   0  0  0  0  0  0
  -22.7649  -29.2387   19.8556 H   0  0  0  0  0  0
  -25.1351  -36.1857   25.0806 H   0  0  0  0  0  0
  -20.9878  -28.3237   24.1479 H   0  0  0  0  0  0
  -20.5745  -26.2272   23.3588 H   0  0  0  0  0  0
  -21.6662  -26.7540   22.1207 H   0  0  0  0  0  0
  -19.6985  -25.6294   21.1301 H   0  0  0  0  0  0
  -19.6792  -27.3183   20.6723 H   0  0  0  0  0  0
  -17.4224  -26.6667   21.3993 H   0  0  0  0  0  0
  -18.0376  -26.0131   22.9024 H   0  0  0  0  0  0
  -19.7898  -30.7310   24.2283 H   0  0  0  0  0  0
  -17.4990  -31.6314   24.5153 H   0  0  0  0  0  0
  -15.5340  -30.3034   23.7719 H   0  0  0  0  0  0
  -15.8622  -28.0901   22.7066 H   0  0  0  0  0  0
  -24.5890  -30.7069   25.7712 H   0  0  0  0  0  0
  -24.8987  -32.2788   26.4969 H   0  0  0  0  0  0
  -25.8085  -30.8715   27.0125 H   0  0  0  0  0  0
  -26.2756  -29.6788   24.1173 H   0  0  0  0  0  0
  -27.4021  -29.7185   25.4528 H   0  0  0  0  0  0
  -27.8636  -30.4267   23.9205 H   0  0  0  0  0  0
  -27.2659  -33.3551   26.2092 H   0  0  0  0  0  0
  -28.3881  -32.6845   25.0323 H   0  0  0  0  0  0
  -28.0706  -31.8370   26.5389 H   0  0  0  0  0  0
  -28.2612  -38.0108   24.7504 H   0  0  0  0  0  0
  -28.1085  -36.2630   24.6307 H   0  0  0  0  0  0
  -27.2283  -37.1479   25.8860 H   0  0  0  0  0  0
  -20.9420  -29.8612   21.6823 H   0  0  0  0  0  0
  -26.0160  -38.2824   24.1453 H   0  0  0  0  0  0
  -33.2981  -19.1643   19.9889 H   0  0  0  0  0  0
  -31.8090  -21.0794   20.1403 H   0  0  0  0  0  0
  -32.5257  -16.9155   20.1198 H   0  0  0  0  0  0
  -28.4568  -18.3582   20.5879 H   0  0  0  0  0  0
  -30.5055  -22.5707   19.4248 H   0  0  0  0  0  0
  -28.9209  -22.4290   18.7470 H   0  0  0  0  0  0
  -30.4345  -23.4913   22.1329 H   0  0  0  0  0  0
  -29.8397  -25.1366   21.9909 H   0  0  0  0  0  0
  -30.9991  -24.5252   20.8293 H   0  0  0  0  0  0
  -27.5485  -24.7344   19.1182 H   0  0  0  0  0  0
  -29.1722  -25.1620   18.8498 H   0  0  0  0  0  0
  -28.9701  -15.7969   20.6746 H   0  0  0  0  0  0
  -27.0688  -21.0859   23.0064 H   0  0  0  0  0  0
  -27.8072  -19.7094   22.2991 H   0  0  0  0  0  0
  1 25  1  0  0  0
  1 30  2  0  0  0
  1 84  1  0  0  0
  2  3  1  0  0  0
  2 25  1  0  0  0
  2 87  1  0  0  0
  2 88  1  0  0  0
  3  4  1  0  0  0
  3 89  1  0  0  0
  3 90  1  0  0  0
  4  5  1  0  0  0
  4 91  1  0  0  0
  4 92  1  0  0  0
  5  6  1  0  0  0
  5 26  1  0  0  0
  5 93  1  0  0  0
  6 25  1  0  0  0
  6 94  1  0  0  0
  6 95  1  0  0  0
  7  8  2  0  0  0
  7 26  1  0  0  0
  7 29  1  0  0  0
  8  9  1  0  0  0
  8 22  1  0  0  0
  9 10  1  0  0  0
  9 27  2  0  0  0
 10 11  2  0  0  0
 10 15  1  0  0  0
 11 12  1  0  0  0
 11 96  1  0  0  0
 12 13  2  0  0  0
 12 97  1  0  0  0
 13 14  1  0  0  0
 13 31  1  0  0  0
 14 15  2  0  0  0
 14 98  1  0  0  0
 15 99  1  0  0  0
 16 17  2  0  0  0
 16 21  1  0  0  0
 16 31  1  0  0  0
 17 18  1  0  0  0
 17100  1  0  0  0
 18 19  2  0  0  0
 18101  1  0  0  0
 19 20  1  0  0  0
 19 24  1  0  0  0
 20 21  2  0  0  0
 20102  1  0  0  0
 21 23  1  0  0  0
 22 28  1  0  0  0
 22 32  2  0  0  0
 26 27  1  0  0  0
 28103  1  0  0  0
 28104  1  0  0  0
 29105  1  0  0  0
 29106  1  0  0  0
 33 34  1  0  0  0
 33 66  1  0  0  0
 33 70  2  0  0  0
 34 36  1  0  0  0
 34 59  1  0  0  0
 34107  1  0  0  0
 35 44  2  0  0  0
 35 45  1  0  0  0
 35 68  1  0  0  0
 36 56  1  0  0  0
 36108  1  0  0  0
 37 39  1  0  0  0
 37 47  1  0  0  0
 37 66  1  0  0  0
 37109  1  0  0  0
 38 43  2  0  0  0
 38 46  1  0  0  0
 38 47  1  0  0  0
 39 64  1  0  0  0
 39 67  2  0  0  0
 40 52  1  0  0  0
 40 53  2  0  0  0
 40 58  1  0  0  0
 41110  1  0  0  0
 41111  1  0  0  0
 41112  1  0  0  0
 41 48  1  0  0  0
 42 43  1  0  0  0
 42 66  1  0  0  0
 42113  1  0  0  0
 42114  1  0  0  0
 43 44  1  0  0  0
 44115  1  0  0  0
 45 46  2  0  0  0
 45116  1  0  0  0
 46117  1  0  0  0
 47118  1  0  0  0
 47119  1  0  0  0
 48 56  1  0  0  0
 48 65  1  0  0  0
 48120  1  0  0  0
 49 50  1  0  0  0
 49 53  1  0  0  0
 49 64  1  0  0  0
 49121  1  0  0  0
 50 51  1  0  0  0
 50122  1  0  0  0
 50123  1  0  0  0
 51 52  1  0  0  0
 51124  1  0  0  0
 51125  1  0  0  0
 52126  1  0  0  0
 52127  1  0  0  0
 53 54  1  0  0  0
 54 55  2  0  0  0
 54128  1  0  0  0
 55 57  1  0  0  0
 55129  1  0  0  0
 56 69  2  0  0  0
 57 58  2  0  0  0
 57130  1  0  0  0
 58131  1  0  0  0
 59 60  1  0  0  0
 59 61  1  0  0  0
 59 62  1  0  0  0
 60132  1  0  0  0
 60133  1  0  0  0
 60134  1  0  0  0
 61135  1  0  0  0
 61136  1  0  0  0
 61137  1  0  0  0
 62138  1  0  0  0
 62139  1  0  0  0
 62140  1  0  0  0
 63 65  1  0  0  0
 63141  1  0  0  0
 63142  1  0  0  0
 63143  1  0  0  0
 64144  1  0  0  0
 65145  1  0  0  0
 68 82  1  0  0  0
 71 72  2  0  0  0
 71 73  1  0  0  0
 71146  1  0  0  0
 72 75  1  0  0  0
 72147  1  0  0  0
 73 76  2  0  0  0
 73148  1  0  0  0
 74 75  2  0  0  0
 74 76  1  0  0  0
 74149  1  0  0  0
 75 83  1  0  0  0
 76 84  1  0  0  0
 77 78  1  0  0  0
 77 80  1  0  0  0
 77 86  2  0  0  0
 78 83  1  0  0  0
 78 85  2  0  0  0
 79 80  1  0  0  0
 79 83  1  0  0  0
 79150  1  0  0  0
 79151  1  0  0  0
 80 81  1  0  0  0
 80 82  1  0  0  0
 81152  1  0  0  0
 81153  1  0  0  0
 81154  1  0  0  0
 82155  1  0  0  0
 82156  1  0  0  0
 84157  1  0  0  0
 85158  1  0  0  0
 85159  1  0  0  0
M  CHG  1  85   1
M  ISO  4   1 100  68 101  82 101  84 100
M  END
> <chiral flag>
0

> <version>
0

> <s_m_source_file>
/data/baiqing/PycharmProjects/Reinvent-master-3.2/result/LINK_invent/BTK/process_docking_weight1_custom_product_contain_oxygen_bond_distance_aromatic_linkinvent_7_9_3/rearranged_h_0066.sdf

> <i_m_source_file_index>
47

> <r_mmod_Potential_Energy-OPLS-2005>
-35.6947975158691

> <r_mmod_Stretch_Energy-OPLS-2005>
130.508712768555

> <r_mmod_Bend_Energy-OPLS-2005>
249.440078735352

> <r_mmod_Torsional_Energy-OPLS-2005>
209.868591308594

> <r_mmod_Improper_Torsional_Energy-OPLS-2005>
5.74011421203613

> <r_mmod_Van_der_Waal_Energy-OPLS-2005>
144.607528686523

> <r_mmod_Electrostatic_Energy-OPLS-2005>
-333.827514648438

> <r_mmod_Solvation_Energy-OPLS-2005>
-522.9560546875

> <b_mmod_Minimization_Converged-OPLS-2005>
0

> <r_mmod_RMS_Derivative-OPLS-2005>
4.65160846710205

$$$$
47
                    3D
 Structure written by MMmdl.
159168  0  0  1  0            999 V2000
  -30.6228  -14.6460   20.5219 C   0  0  0  0  0  0
  -30.4422  -12.3987   19.4569 C   0  0  0  0  0  0
  -29.5180  -12.5327   18.2257 C   0  0  0  0  0  0
  -28.0364  -12.3699   18.6261 C   0  0  0  0  0  0
  -27.6576  -13.2230   19.8667 C   0  0  2  0  0  0
  -28.6998  -13.0651   20.9977 C   0  0  0  0  0  0
  -25.2566  -13.8185   20.5670 C   0  0  0  0  0  0
  -24.1836  -13.0454   20.9188 C   0  0  0  0  0  0
  -24.6401  -11.6920   20.8714 C   0  0  0  0  0  0
  -23.9074  -10.4307   21.0394 C   0  0  0  0  0  0
  -24.3611   -9.4219   21.9182 C   0  0  0  0  0  0
  -23.6284   -8.2258   22.0761 C   0  0  0  0  0  0
  -22.4267   -8.0291   21.3550 C   0  0  0  0  0  0
  -21.9907   -9.0274   20.4656 C   0  0  0  0  0  0
  -22.7237  -10.2147   20.3054 C   0  0  0  0  0  0
  -21.6866   -6.0738   22.5279 C   0  0  0  0  0  0
  -21.4020   -6.5629   23.8218 C   0  0  0  0  0  0
  -21.3657   -5.6779   24.9173 C   0  0  0  0  0  0
  -21.6040   -4.3049   24.7223 C   0  0  0  0  0  0
  -21.8814   -3.8146   23.4350 C   0  0  0  0  0  0
  -21.9196   -4.6961   22.3405 C   0  0  0  0  0  0
  -22.7854  -13.5256   21.1839 C   0  0  0  0  0  0
  -22.1665   -4.2143   21.0990 F   0  0  0  0  0  0
  -21.5624   -3.4536   25.7739 F   0  0  0  0  0  0
  -30.0207  -13.4140   20.4445 N   0  0  0  0  0  0
  -26.3010  -12.9373   20.3300 N   0  0  0  0  0  0
  -25.9335  -11.6522   20.5711 N   0  0  0  0  0  0
  -22.0456  -12.8275   22.0391 N   0  0  0  0  0  0
  -25.4272  -15.1903   20.4063 N   0  0  0  0  0  0
  -31.7717  -14.8268   20.1075 O   0  0  0  0  0  0
  -21.6645   -6.8880   21.4244 O   0  0  0  0  0  0
  -22.3551  -14.5560   20.6669 O   0  0  0  0  0  0
  -24.6277  -31.8604   23.2065 C   0  0  0  0  0  0
  -25.9121  -32.4783   23.8378 C   0  0  1  0  0  0
  -27.2078  -27.2954   20.1032 C   0  0  0  0  0  0
  -25.5924  -33.8587   24.2270 N   0  0  0  0  0  0
  -23.4224  -30.4902   21.5489 C   0  0  2  0  0  0
  -24.8660  -28.9567   20.1056 C   0  0  0  0  0  0
  -22.7494  -29.4610   22.4902 C   0  0  0  0  0  0
  -18.0282  -28.1402   22.8472 C   0  0  0  0  0  0
  -24.1471  -36.7291   23.2625 C   0  0  0  0  0  0
  -25.9702  -30.7791   21.3912 C   0  0  0  0  0  0
  -26.0387  -29.4100   20.7228 C   0  0  0  0  0  0
  -27.2097  -28.5881   20.7212 C   0  0  0  0  0  0
  -26.0130  -26.9226   19.4374 C   0  0  0  0  0  0
  -24.8569  -27.7181   19.4552 C   0  0  0  0  0  0
  -23.6420  -29.8463   20.1576 C   0  0  0  0  0  0
  -25.4097  -36.3081   24.0312 C   0  0  1  0  0  0
  -20.5888  -28.3689   23.1275 C   0  0  2  0  0  0
  -20.6771  -26.9411   22.5398 C   0  0  0  0  0  0
  -19.5749  -26.6403   21.5194 C   0  0  0  0  0  0
  -18.1932  -26.7944   22.1617 C   0  0  0  0  0  0
  -19.1540  -28.8862   23.2869 C   0  0  0  0  0  0
  -18.9463  -30.1463   23.8888 C   0  0  0  0  0  0
  -17.6464  -30.6596   24.0572 C   0  0  0  0  0  0
  -25.9048  -34.9458   23.5089 C   0  0  0  0  0  0
  -16.5351  -29.9099   23.6344 C   0  0  0  0  0  0
  -16.7269  -28.6529   23.0338 C   0  0  0  0  0  0
  -26.4466  -31.6617   25.0785 C   0  0  0  0  0  0
  -25.3674  -31.3824   26.1509 C   0  0  0  0  0  0
  -27.0279  -30.3007   24.6311 C   0  0  0  0  0  0
  -27.6019  -32.4351   25.7570 C   0  0  0  0  0  0
  -27.5575  -37.1790   24.8428 C   0  0  0  0  0  0
  -21.4198  -29.3048   22.3674 N   0  0  0  0  0  0
  -26.4249  -37.3799   23.9428 N   0  0  0  0  0  0
  -24.6916  -31.0601   22.1042 N   0  0  0  0  0  0
  -23.4219  -28.8106   23.2948 O   0  0  0  0  0  0
  -28.2934  -26.3918   20.1759 O   0  0  0  0  0  0
  -26.5626  -34.8925   22.4662 O   0  0  0  0  0  0
  -23.5434  -32.1410   23.7381 O   0  0  0  0  0  0
  -30.8217  -19.3637   20.3629 C   0  0  0  0  0  0
  -30.9294  -17.9373   20.4257 C   0  0  0  0  0  0
  -28.6505  -17.8318   21.1681 C   0  0  0  0  0  0
  -30.0449  -23.7467   21.0969 C   0  0  0  0  0  0
  -28.5292  -19.2570   21.1127 C   0  0  0  0  0  0
  -28.8899  -23.7599   20.2597 C   0  0  0  0  0  0
  -29.6301  -20.0756   20.6990 C   0  0  0  0  0  0
  -29.8350  -17.1269   20.8314 C   0  0  0  0  0  0
  -30.4288  -22.4409   21.3092 C   0  0  0  0  0  0
  -28.6839  -22.4077   19.9744 C   0  0  0  0  0  0
  -27.2490  -19.8483   21.5957 C   0  0  0  0  0  0
  -25.9590  -19.1614   21.1596 C   0  0  0  0  0  0
  -28.0155  -24.9778   19.7925 C   0  0  0  0  0  0
  -29.5818  -21.5502   20.6524 N   0  0  0  0  0  0
  -29.8164  -15.6656   20.9596 N   0  0  0  0  0  0
  -27.1769  -20.8430   22.3236 O   0  0  0  0  0  0
  -31.4609  -21.9862   22.0709 O   0  0  0  0  0  0
  -27.7375  -21.8542   19.1638 O   0  0  0  0  0  0
  -31.4867  -12.5185   19.1643 H   0  0  0  0  0  0
  -30.3645  -11.3982   19.8855 H   0  0  0  0  0  0
  -29.7866  -11.7982   17.4657 H   0  0  0  0  0  0
  -29.6671  -13.5110   17.7645 H   0  0  0  0  0  0
  -27.8580  -11.3152   18.8335 H   0  0  0  0  0  0
  -27.3936  -12.6268   17.7840 H   0  0  0  0  0  0
  -27.6794  -14.2629   19.5402 H   0  0  0  0  0  0
  -28.7075  -12.0377   21.3650 H   0  0  0  0  0  0
  -28.4372  -13.6808   21.8594 H   0  0  0  0  0  0
  -25.2750   -9.5707   22.4755 H   0  0  0  0  0  0
  -24.0001   -7.4651   22.7477 H   0  0  0  0  0  0
  -21.0840   -8.8784   19.8967 H   0  0  0  0  0  0
  -22.3687  -10.9678   19.6158 H   0  0  0  0  0  0
  -21.2018   -7.6132   23.9711 H   0  0  0  0  0  0
  -21.1479   -6.0512   25.9068 H   0  0  0  0  0  0
  -22.0596   -2.7613   23.2848 H   0  0  0  0  0  0
  -22.4026  -11.9950   22.4818 H   0  0  0  0  0  0
  -21.1070  -13.1342   22.2549 H   0  0  0  0  0  0
  -24.6471  -15.8336   20.4803 H   0  0  0  0  0  0
  -26.2553  -15.6144   20.0084 H   0  0  0  0  0  0
  -26.7193  -32.5430   23.1124 H   0  0  0  0  0  0
  -25.0019  -33.9735   25.0377 H   0  0  0  0  0  0
  -22.7151  -31.3109   21.4144 H   0  0  0  0  0  0
  -23.3754  -35.9597   23.3227 H   0  0  0  0  0  0
  -24.3567  -36.8988   22.2052 H   0  0  0  0  0  0
  -23.7199  -37.6459   23.6698 H   0  0  0  0  0  0
  -26.1203  -31.5495   20.6341 H   0  0  0  0  0  0
  -26.8439  -30.8134   22.0303 H   0  0  0  0  0  0
  -28.1023  -28.9230   21.2303 H   0  0  0  0  0  0
  -25.9233  -25.9952   18.8921 H   0  0  0  0  0  0
  -23.9615  -27.3753   18.9541 H   0  0  0  0  0  0
  -23.7826  -30.6371   19.4194 H   0  0  0  0  0  0
  -22.7569  -29.2962   19.8342 H   0  0  0  0  0  0
  -25.1272  -36.1900   25.0798 H   0  0  0  0  0  0
  -20.9972  -28.3251   24.1398 H   0  0  0  0  0  0
  -20.5677  -26.2273   23.3581 H   0  0  0  0  0  0
  -21.6638  -26.7452   22.1180 H   0  0  0  0  0  0
  -19.6902  -25.6318   21.1215 H   0  0  0  0  0  0
  -19.6696  -27.3218   20.6727 H   0  0  0  0  0  0
  -17.4188  -26.6662   21.4036 H   0  0  0  0  0  0
  -18.0354  -26.0105   22.9040 H   0  0  0  0  0  0
  -19.7938  -30.7282   24.2255 H   0  0  0  0  0  0
  -17.5023  -31.6273   24.5188 H   0  0  0  0  0  0
  -15.5355  -30.3002   23.7691 H   0  0  0  0  0  0
  -15.8660  -28.0868   22.7039 H   0  0  0  0  0  0
  -24.5785  -30.7242   25.7850 H   0  0  0  0  0  0
  -24.8943  -32.3034   26.4933 H   0  0  0  0  0  0
  -25.7966  -30.8984   27.0291 H   0  0  0  0  0  0
  -26.2881  -29.6824   24.1216 H   0  0  0  0  0  0
  -27.3763  -29.7226   25.4880 H   0  0  0  0  0  0
  -27.8853  -30.4229   23.9690 H   0  0  0  0  0  0
  -27.2599  -33.3625   26.2175 H   0  0  0  0  0  0
  -28.3829  -32.6958   25.0419 H   0  0  0  0  0  0
  -28.0678  -31.8462   26.5480 H   0  0  0  0  0  0
  -28.2514  -38.0165   24.7589 H   0  0  0  0  0  0
  -28.1148  -36.2706   24.6087 H   0  0  0  0  0  0
  -27.2320  -37.1251   25.8831 H   0  0  0  0  0  0
  -20.9347  -29.8812   21.6939 H   0  0  0  0  0  0
  -26.0109  -38.2839   24.1542 H   0  0  0  0  0  0
  -31.6898  -19.9334   20.0637 H   0  0  0  0  0  0
  -31.8749  -17.4778   20.1731 H   0  0  0  0  0  0
  -27.8019  -17.2553   21.5086 H   0  0  0  0  0  0
  -30.5277  -24.6165   21.5201 H   0  0  0  0  0  0
  -26.0678  -18.7471   20.1576 H   0  0  0  0  0  0
  -25.1395  -19.8792   21.1408 H   0  0  0  0  0  0
  -25.6979  -18.3572   21.8488 H   0  0  0  0  0  0
  -27.0324  -24.6924   20.1702 H   0  0  0  0  0  0
  -27.9612  -24.9310   18.7039 H   0  0  0  0  0  0
  -28.9476  -15.3033   21.3216 H   0  0  0  0  0  0
  -31.8490  -22.7388   22.5068 H   0  0  0  0  0  0
  -27.4532  -22.5111   18.5375 H   0  0  0  0  0  0
  1 25  1  0  0  0
  1 30  2  0  0  0
  1 85  1  0  0  0
  2  3  1  0  0  0
  2 25  1  0  0  0
  2 89  1  0  0  0
  2 90  1  0  0  0
  3  4  1  0  0  0
  3 91  1  0  0  0
  3 92  1  0  0  0
  4  5  1  0  0  0
  4 93  1  0  0  0
  4 94  1  0  0  0
  5  6  1  0  0  0
  5 26  1  0  0  0
  5 95  1  0  0  0
  6 25  1  0  0  0
  6 96  1  0  0  0
  6 97  1  0  0  0
  7  8  2  0  0  0
  7 26  1  0  0  0
  7 29  1  0  0  0
  8  9  1  0  0  0
  8 22  1  0  0  0
  9 10  1  0  0  0
  9 27  2  0  0  0
 10 11  2  0  0  0
 10 15  1  0  0  0
 11 12  1  0  0  0
 11 98  1  0  0  0
 12 13  2  0  0  0
 12 99  1  0  0  0
 13 14  1  0  0  0
 13 31  1  0  0  0
 14 15  2  0  0  0
 14100  1  0  0  0
 15101  1  0  0  0
 16 17  2  0  0  0
 16 21  1  0  0  0
 16 31  1  0  0  0
 17 18  1  0  0  0
 17102  1  0  0  0
 18 19  2  0  0  0
 18103  1  0  0  0
 19 20  1  0  0  0
 19 24  1  0  0  0
 20 21  2  0  0  0
 20104  1  0  0  0
 21 23  1  0  0  0
 22 28  1  0  0  0
 22 32  2  0  0  0
 26 27  1  0  0  0
 28105  1  0  0  0
 28106  1  0  0  0
 29107  1  0  0  0
 29108  1  0  0  0
 33 34  1  0  0  0
 33 66  1  0  0  0
 33 70  2  0  0  0
 34 36  1  0  0  0
 34 59  1  0  0  0
 34109  1  0  0  0
 35 44  2  0  0  0
 35 45  1  0  0  0
 35 68  1  0  0  0
 36 56  1  0  0  0
 36110  1  0  0  0
 37 39  1  0  0  0
 37 47  1  0  0  0
 37 66  1  0  0  0
 37111  1  0  0  0
 38 43  2  0  0  0
 38 46  1  0  0  0
 38 47  1  0  0  0
 39 64  1  0  0  0
 39 67  2  0  0  0
 40 52  1  0  0  0
 40 53  2  0  0  0
 40 58  1  0  0  0
 41112  1  0  0  0
 41113  1  0  0  0
 41114  1  0  0  0
 41 48  1  0  0  0
 42 43  1  0  0  0
 42 66  1  0  0  0
 42115  1  0  0  0
 42116  1  0  0  0
 43 44  1  0  0  0
 44117  1  0  0  0
 45 46  2  0  0  0
 45118  1  0  0  0
 46119  1  0  0  0
 47120  1  0  0  0
 47121  1  0  0  0
 48 56  1  0  0  0
 48 65  1  0  0  0
 48122  1  0  0  0
 49 50  1  0  0  0
 49 53  1  0  0  0
 49 64  1  0  0  0
 49123  1  0  0  0
 50 51  1  0  0  0
 50124  1  0  0  0
 50125  1  0  0  0
 51 52  1  0  0  0
 51126  1  0  0  0
 51127  1  0  0  0
 52128  1  0  0  0
 52129  1  0  0  0
 53 54  1  0  0  0
 54 55  2  0  0  0
 54130  1  0  0  0
 55 57  1  0  0  0
 55131  1  0  0  0
 56 69  2  0  0  0
 57 58  2  0  0  0
 57132  1  0  0  0
 58133  1  0  0  0
 59 60  1  0  0  0
 59 61  1  0  0  0
 59 62  1  0  0  0
 60134  1  0  0  0
 60135  1  0  0  0
 60136  1  0  0  0
 61137  1  0  0  0
 61138  1  0  0  0
 61139  1  0  0  0
 62140  1  0  0  0
 62141  1  0  0  0
 62142  1  0  0  0
 63 65  1  0  0  0
 63143  1  0  0  0
 63144  1  0  0  0
 63145  1  0  0  0
 64146  1  0  0  0
 65147  1  0  0  0
 68 83  1  0  0  0
 71 72  2  0  0  0
 71 77  1  0  0  0
 71148  1  0  0  0
 72 78  1  0  0  0
 72149  1  0  0  0
 73 75  1  0  0  0
 73 78  2  0  0  0
 73150  1  0  0  0
 74 76  1  0  0  0
 74 79  2  0  0  0
 74151  1  0  0  0
 75 77  2  0  0  0
 75 81  1  0  0  0
 76 80  2  0  0  0
 76 83  1  0  0  0
 77 84  1  0  0  0
 78 85  1  0  0  0
 79 84  1  0  0  0
 79 87  1  0  0  0
 80 84  1  0  0  0
 80 88  1  0  0  0
 81 82  1  0  0  0
 81 86  2  0  0  0
 82152  1  0  0  0
 82153  1  0  0  0
 82154  1  0  0  0
 83155  1  0  0  0
 83156  1  0  0  0
 85157  1  0  0  0
 87158  1  0  0  0
 88159  1  0  0  0
M  ISO  4   1 100  68 101  83 101  85 100
M  END
> <chiral flag>
0

> <version>
0

> <s_m_source_file>
/data/baiqing/PycharmProjects/Reinvent-master-3.2/result/LINK_invent/BTK/process_docking_weight1_custom_product_contain_oxygen_bond_distance_aromatic_linkinvent_7_9_3/rearranged_h_0066.sdf

> <i_m_source_file_index>
48

> <r_mmod_Potential_Energy-OPLS-2005>
82.6576080322266

> <r_mmod_Stretch_Energy-OPLS-2005>
87.4957122802734

> <r_mmod_Bend_Energy-OPLS-2005>
150.357452392578

> <r_mmod_Torsional_Energy-OPLS-2005>
263.087554931641

> <r_mmod_Improper_Torsional_Energy-OPLS-2005>
4.35485553741455

> <r_mmod_Van_der_Waal_Energy-OPLS-2005>
144.312973022461

> <r_mmod_Electrostatic_Energy-OPLS-2005>
-372.669189453125

> <r_mmod_Solvation_Energy-OPLS-2005>
-253.146530151367

> <b_mmod_Minimization_Converged-OPLS-2005>
0

> <r_mmod_RMS_Derivative-OPLS-2005>
2.47843074798584

$$$$
48
                    3D
 Structure written by MMmdl.
163172  0  0  1  0            999 V2000
  -30.6753  -14.5279   20.5491 C   0  0  0  0  0  0
  -30.4295  -12.3254   19.4490 C   0  0  0  0  0  0
  -29.5169  -12.5229   18.2200 C   0  0  0  0  0  0
  -28.0322  -12.3771   18.6134 C   0  0  0  0  0  0
  -27.6618  -13.2127   19.8673 C   0  0  2  0  0  0
  -28.6971  -13.0174   20.9940 C   0  0  0  0  0  0
  -25.2562  -13.8164   20.5563 C   0  0  0  0  0  0
  -24.1841  -13.0438   20.9148 C   0  0  0  0  0  0
  -24.6410  -11.6911   20.8710 C   0  0  0  0  0  0
  -23.9079  -10.4298   21.0385 C   0  0  0  0  0  0
  -24.3624   -9.4214   21.9169 C   0  0  0  0  0  0
  -23.6303   -8.2239   22.0743 C   0  0  0  0  0  0
  -22.4283   -8.0275   21.3541 C   0  0  0  0  0  0
  -21.9921   -9.0235   20.4627 C   0  0  0  0  0  0
  -22.7255  -10.2113   20.3028 C   0  0  0  0  0  0
  -21.6862   -6.0742   22.5281 C   0  0  0  0  0  0
  -21.4008   -6.5648   23.8217 C   0  0  0  0  0  0
  -21.3670   -5.6796   24.9174 C   0  0  0  0  0  0
  -21.6034   -4.3056   24.7215 C   0  0  0  0  0  0
  -21.8814   -3.8147   23.4344 C   0  0  0  0  0  0
  -21.9203   -4.6972   22.3405 C   0  0  0  0  0  0
  -22.7867  -13.5220   21.1861 C   0  0  0  0  0  0
  -22.1681   -4.2157   21.0984 F   0  0  0  0  0  0
  -21.5617   -3.4528   25.7730 F   0  0  0  0  0  0
  -30.0315  -13.3280   20.4527 N   0  0  0  0  0  0
  -26.3021  -12.9345   20.3270 N   0  0  0  0  0  0
  -25.9331  -11.6502   20.5713 N   0  0  0  0  0  0
  -22.0525  -12.8157   22.0404 N   0  0  0  0  0  0
  -25.4242  -15.1851   20.3775 N   0  0  0  0  0  0
  -31.8256  -14.6574   20.1199 O   0  0  0  0  0  0
  -21.6648   -6.8869   21.4235 O   0  0  0  0  0  0
  -22.3546  -14.5559   20.6790 O   0  0  0  0  0  0
  -24.6182  -31.8668   23.2044 C   0  0  0  0  0  0
  -25.9073  -32.4807   23.8365 C   0  0  1  0  0  0
  -27.2353  -27.4185   20.0965 C   0  0  0  0  0  0
  -25.5953  -33.8609   24.2326 N   0  0  0  0  0  0
  -23.4044  -30.4874   21.5481 C   0  0  2  0  0  0
  -24.8524  -28.9499   20.1131 C   0  0  0  0  0  0
  -22.7423  -29.4663   22.5014 C   0  0  0  0  0  0
  -18.0265  -28.1396   22.8486 C   0  0  0  0  0  0
  -24.1491  -36.7270   23.2620 C   0  0  0  0  0  0
  -25.9334  -30.8314   21.3510 C   0  0  0  0  0  0
  -26.0151  -29.4614   20.7065 C   0  0  0  0  0  0
  -27.2137  -28.7023   20.6948 C   0  0  0  0  0  0
  -26.0582  -26.9300   19.4909 C   0  0  0  0  0  0
  -24.8708  -27.6840   19.4995 C   0  0  0  0  0  0
  -23.6108  -29.8110   20.1661 C   0  0  0  0  0  0
  -25.4094  -36.3081   24.0347 C   0  0  1  0  0  0
  -20.5851  -28.3670   23.1341 C   0  0  2  0  0  0
  -20.6744  -26.9415   22.5433 C   0  0  0  0  0  0
  -19.5734  -26.6379   21.5224 C   0  0  0  0  0  0
  -18.1893  -26.7966   22.1584 C   0  0  0  0  0  0
  -19.1507  -28.8853   23.2912 C   0  0  0  0  0  0
  -18.9434  -30.1464   23.8908 C   0  0  0  0  0  0
  -17.6436  -30.6611   24.0557 C   0  0  0  0  0  0
  -25.9053  -34.9466   23.5121 C   0  0  0  0  0  0
  -16.5324  -29.9098   23.6354 C   0  0  0  0  0  0
  -16.7261  -28.6520   23.0366 C   0  0  0  0  0  0
  -26.4487  -31.6575   25.0688 C   0  0  0  0  0  0
  -25.3770  -31.3660   26.1450 C   0  0  0  0  0  0
  -27.0278  -30.3021   24.6013 C   0  0  0  0  0  0
  -27.6101  -32.4252   25.7441 C   0  0  0  0  0  0
  -27.5619  -37.1719   24.8405 C   0  0  0  0  0  0
  -21.4151  -29.3043   22.3763 N   0  0  0  0  0  0
  -26.4222  -37.3813   23.9512 N   0  0  0  0  0  0
  -24.6712  -31.0774   22.0931 N   0  0  0  0  0  0
  -23.4213  -28.8228   23.3057 O   0  0  0  0  0  0
  -28.3624  -26.6165   20.1206 O   0  0  0  0  0  0
  -26.5591  -34.8928   22.4663 O   0  0  0  0  0  0
  -23.5367  -32.1429   23.7436 O   0  0  0  0  0  0
  -27.0406  -18.8080   21.3837 C   0  0  0  0  0  0
  -27.9741  -17.7670   21.2899 C   0  0  0  0  0  0
  -27.4209  -20.1236   21.0910 C   0  0  0  0  0  0
  -29.3125  -18.0069   20.9020 C   0  0  0  0  0  0
  -29.7130  -19.3689   20.6555 C   0  0  0  0  0  0
  -28.7461  -20.4382   20.7160 C   0  0  0  0  0  0
  -28.8159  -24.2352   20.5282 C   0  0  0  0  0  0
  -29.6286  -22.3344   19.3320 C   0  0  0  0  0  0
  -30.2002  -16.7992   20.7238 C   0  0  0  0  0  0
  -28.2047  -25.4176   20.7917 C   0  0  0  0  0  0
  -28.4836  -22.9379   21.2524 C   0  0  0  0  0  0
  -29.7745  -23.8629   19.4180 C   0  0  0  0  0  0
  -31.1819  -19.6772   20.3595 C   0  0  0  0  0  0
  -29.4505  -24.5519   18.0751 C   0  0  0  0  0  0
  -31.2236  -24.1721   19.8437 C   0  0  0  0  0  0
  -29.8539  -15.5803   20.9804 N   0  0  0  0  0  0
  -29.0273  -21.8340   20.4348 N   0  0  0  0  0  0
  -30.0312  -21.6902   18.3581 O   0  0  0  0  0  0
  -31.4801  -12.4052   19.1669 H   0  0  0  0  0  0
  -30.3092  -11.3222   19.8586 H   0  0  0  0  0  0
  -29.7737  -11.8087   17.4371 H   0  0  0  0  0  0
  -29.6846  -13.5143   17.7936 H   0  0  0  0  0  0
  -27.8366  -11.3206   18.7965 H   0  0  0  0  0  0
  -27.3987  -12.6658   17.7745 H   0  0  0  0  0  0
  -27.7000  -14.2595   19.5653 H   0  0  0  0  0  0
  -28.6758  -11.9904   21.3610 H   0  0  0  0  0  0
  -28.4507  -13.6433   21.8534 H   0  0  0  0  0  0
  -25.2757   -9.5692   22.4747 H   0  0  0  0  0  0
  -24.0011   -7.4625   22.7449 H   0  0  0  0  0  0
  -21.0871   -8.8745   19.8924 H   0  0  0  0  0  0
  -22.3733  -10.9633   19.6122 H   0  0  0  0  0  0
  -21.1994   -7.6156   23.9723 H   0  0  0  0  0  0
  -21.1504   -6.0520   25.9075 H   0  0  0  0  0  0
  -22.0585   -2.7609   23.2831 H   0  0  0  0  0  0
  -22.4151  -11.9785   22.4713 H   0  0  0  0  0  0
  -21.1138  -13.1136   22.2647 H   0  0  0  0  0  0
  -24.6369  -15.8250   20.3812 H   0  0  0  0  0  0
  -26.2580  -15.5844   19.9660 H   0  0  0  0  0  0
  -26.7157  -32.5514   23.1139 H   0  0  0  0  0  0
  -25.0265  -33.9773   25.0583 H   0  0  0  0  0  0
  -22.6938  -31.3038   21.4048 H   0  0  0  0  0  0
  -23.3835  -35.9499   23.3059 H   0  0  0  0  0  0
  -24.3680  -36.9100   22.2084 H   0  0  0  0  0  0
  -23.7083  -37.6338   23.6762 H   0  0  0  0  0  0
  -26.0328  -31.5896   20.5728 H   0  0  0  0  0  0
  -26.8263  -30.8949   21.9604 H   0  0  0  0  0  0
  -28.1089  -29.0886   21.1614 H   0  0  0  0  0  0
  -26.0624  -25.9559   19.0207 H   0  0  0  0  0  0
  -23.9787  -27.2878   19.0345 H   0  0  0  0  0  0
  -23.7056  -30.5772   19.3965 H   0  0  0  0  0  0
  -22.7373  -29.2206   19.8806 H   0  0  0  0  0  0
  -25.1237  -36.1873   25.0817 H   0  0  0  0  0  0
  -20.9939  -28.3207   24.1466 H   0  0  0  0  0  0
  -20.5617  -26.2297   23.3616 H   0  0  0  0  0  0
  -21.6605  -26.7452   22.1237 H   0  0  0  0  0  0
  -19.6879  -25.6282   21.1256 H   0  0  0  0  0  0
  -19.6704  -27.3182   20.6752 H   0  0  0  0  0  0
  -17.4206  -26.6811   21.3933 H   0  0  0  0  0  0
  -18.0225  -26.0092   22.8936 H   0  0  0  0  0  0
  -19.7908  -30.7270   24.2273 H   0  0  0  0  0  0
  -17.4999  -31.6299   24.5119 H   0  0  0  0  0  0
  -15.5322  -30.2986   23.7699 H   0  0  0  0  0  0
  -15.8662  -28.0832   22.7085 H   0  0  0  0  0  0
  -24.6091  -30.6802   25.7848 H   0  0  0  0  0  0
  -24.8763  -32.2756   26.4788 H   0  0  0  0  0  0
  -25.8175  -30.9010   27.0282 H   0  0  0  0  0  0
  -26.2772  -29.6792   24.1128 H   0  0  0  0  0  0
  -27.4129  -29.7249   25.4427 H   0  0  0  0  0  0
  -27.8592  -30.4339   23.9085 H   0  0  0  0  0  0
  -27.2813  -33.3620   26.1955 H   0  0  0  0  0  0
  -28.3966  -32.6664   25.0276 H   0  0  0  0  0  0
  -28.0709  -31.8386   26.5399 H   0  0  0  0  0  0
  -28.2372  -38.0269   24.7859 H   0  0  0  0  0  0
  -28.1368  -36.2857   24.5681 H   0  0  0  0  0  0
  -27.2461  -37.0674   25.8798 H   0  0  0  0  0  0
  -20.9327  -29.8798   21.7005 H   0  0  0  0  0  0
  -26.0080  -38.2808   24.1759 H   0  0  0  0  0  0
  -26.0185  -18.5863   21.6622 H   0  0  0  0  0  0
  -27.6400  -16.7609   21.5076 H   0  0  0  0  0  0
  -26.6588  -20.8866   21.1445 H   0  0  0  0  0  0
  -31.1897  -17.0177   20.3106 H   0  0  0  0  0  0
  -27.4925  -25.5056   21.6008 H   0  0  0  0  0  0
  -27.4037  -22.8784   21.3826 H   0  0  0  0  0  0
  -28.9455  -22.9313   22.2381 H   0  0  0  0  0  0
  -31.8547  -19.0600   20.9542 H   0  0  0  0  0  0
  -31.4454  -20.7053   20.6066 H   0  0  0  0  0  0
  -31.4063  -19.5141   19.3045 H   0  0  0  0  0  0
  -28.4132  -24.3887   17.7808 H   0  0  0  0  0  0
  -30.0844  -24.1776   17.2693 H   0  0  0  0  0  0
  -29.6152  -25.6281   18.1354 H   0  0  0  0  0  0
  -31.4672  -23.7105   20.8039 H   0  0  0  0  0  0
  -31.3831  -25.2455   19.9498 H   0  0  0  0  0  0
  -31.9457  -23.7994   19.1158 H   0  0  0  0  0  0
  1 25  1  0  0  0
  1 30  2  0  0  0
  1 86  1  0  0  0
  2  3  1  0  0  0
  2 25  1  0  0  0
  2 89  1  0  0  0
  2 90  1  0  0  0
  3  4  1  0  0  0
  3 91  1  0  0  0
  3 92  1  0  0  0
  4  5  1  0  0  0
  4 93  1  0  0  0
  4 94  1  0  0  0
  5  6  1  0  0  0
  5 26  1  0  0  0
  5 95  1  0  0  0
  6 25  1  0  0  0
  6 96  1  0  0  0
  6 97  1  0  0  0
  7  8  2  0  0  0
  7 26  1  0  0  0
  7 29  1  0  0  0
  8  9  1  0  0  0
  8 22  1  0  0  0
  9 10  1  0  0  0
  9 27  2  0  0  0
 10 11  2  0  0  0
 10 15  1  0  0  0
 11 12  1  0  0  0
 11 98  1  0  0  0
 12 13  2  0  0  0
 12 99  1  0  0  0
 13 14  1  0  0  0
 13 31  1  0  0  0
 14 15  2  0  0  0
 14100  1  0  0  0
 15101  1  0  0  0
 16 17  2  0  0  0
 16 21  1  0  0  0
 16 31  1  0  0  0
 17 18  1  0  0  0
 17102  1  0  0  0
 18 19  2  0  0  0
 18103  1  0  0  0
 19 20  1  0  0  0
 19 24  1  0  0  0
 20 21  2  0  0  0
 20104  1  0  0  0
 21 23  1  0  0  0
 22 28  1  0  0  0
 22 32  2  0  0  0
 26 27  1  0  0  0
 28105  1  0  0  0
 28106  1  0  0  0
 29107  1  0  0  0
 29108  1  0  0  0
 33 34  1  0  0  0
 33 66  1  0  0  0
 33 70  2  0  0  0
 34 36  1  0  0  0
 34 59  1  0  0  0
 34109  1  0  0  0
 35 44  2  0  0  0
 35 45  1  0  0  0
 35 68  1  0  0  0
 36 56  1  0  0  0
 36110  1  0  0  0
 37 39  1  0  0  0
 37 47  1  0  0  0
 37 66  1  0  0  0
 37111  1  0  0  0
 38 43  2  0  0  0
 38 46  1  0  0  0
 38 47  1  0  0  0
 39 64  1  0  0  0
 39 67  2  0  0  0
 40 52  1  0  0  0
 40 53  2  0  0  0
 40 58  1  0  0  0
 41112  1  0  0  0
 41113  1  0  0  0
 41114  1  0  0  0
 41 48  1  0  0  0
 42 43  1  0  0  0
 42 66  1  0  0  0
 42115  1  0  0  0
 42116  1  0  0  0
 43 44  1  0  0  0
 44117  1  0  0  0
 45 46  2  0  0  0
 45118  1  0  0  0
 46119  1  0  0  0
 47120  1  0  0  0
 47121  1  0  0  0
 48 56  1  0  0  0
 48 65  1  0  0  0
 48122  1  0  0  0
 49 50  1  0  0  0
 49 53  1  0  0  0
 49 64  1  0  0  0
 49123  1  0  0  0
 50 51  1  0  0  0
 50124  1  0  0  0
 50125  1  0  0  0
 51 52  1  0  0  0
 51126  1  0  0  0
 51127  1  0  0  0
 52128  1  0  0  0
 52129  1  0  0  0
 53 54  1  0  0  0
 54 55  2  0  0  0
 54130  1  0  0  0
 55 57  1  0  0  0
 55131  1  0  0  0
 56 69  2  0  0  0
 57 58  2  0  0  0
 57132  1  0  0  0
 58133  1  0  0  0
 59 60  1  0  0  0
 59 61  1  0  0  0
 59 62  1  0  0  0
 60134  1  0  0  0
 60135  1  0  0  0
 60136  1  0  0  0
 61137  1  0  0  0
 61138  1  0  0  0
 61139  1  0  0  0
 62140  1  0  0  0
 62141  1  0  0  0
 62142  1  0  0  0
 63 65  1  0  0  0
 63143  1  0  0  0
 63144  1  0  0  0
 63145  1  0  0  0
 64146  1  0  0  0
 65147  1  0  0  0
 68 80  1  0  0  0
 71 72  2  0  0  0
 71 73  1  0  0  0
 71148  1  0  0  0
 72 74  1  0  0  0
 72149  1  0  0  0
 73 76  2  0  0  0
 73150  1  0  0  0
 74 75  2  0  0  0
 74 79  1  0  0  0
 75 76  1  0  0  0
 75 83  1  0  0  0
 76 87  1  0  0  0
 77 80  2  0  0  0
 77 81  1  0  0  0
 77 82  1  0  0  0
 78 82  1  0  0  0
 78 87  1  0  0  0
 78 88  2  0  0  0
 79 86  2  0  0  0
 79151  1  0  0  0
 80152  1  0  0  0
 81 87  1  0  0  0
 81153  1  0  0  0
 81154  1  0  0  0
 82 84  1  0  0  0
 82 85  1  0  0  0
 83155  1  0  0  0
 83156  1  0  0  0
 83157  1  0  0  0
 84158  1  0  0  0
 84159  1  0  0  0
 84160  1  0  0  0
 85161  1  0  0  0
 85162  1  0  0  0
 85163  1  0  0  0
M  ISO  4   1 100  68 101  80 101  86 100
M  END
> <chiral flag>
0

> <version>
0

> <s_m_source_file>
/data/baiqing/PycharmProjects/Reinvent-master-3.2/result/LINK_invent/BTK/process_docking_weight1_custom_product_contain_oxygen_bond_distance_aromatic_linkinvent_7_9_3/rearranged_h_0066.sdf

> <i_m_source_file_index>
49

> <r_mmod_Potential_Energy-OPLS-2005>
125.950531005859

> <r_mmod_Stretch_Energy-OPLS-2005>
54.0136413574219

> <r_mmod_Bend_Energy-OPLS-2005>
145.556976318359

> <r_mmod_Torsional_Energy-OPLS-2005>
232.109283447266

> <r_mmod_Improper_Torsional_Energy-OPLS-2005>
5.7193078994751

> <r_mmod_Van_der_Waal_Energy-OPLS-2005>
162.503601074219

> <r_mmod_Electrostatic_Energy-OPLS-2005>
-312.769866943359

> <r_mmod_Solvation_Energy-OPLS-2005>
-180.791519165039

> <b_mmod_Minimization_Converged-OPLS-2005>
0

> <r_mmod_RMS_Derivative-OPLS-2005>
3.87678003311157

$$$$
49
                    3D
 Structure written by MMmdl.
164173  0  0  1  0            999 V2000
  -30.6250  -14.7319   20.4569 C   0  0  0  0  0  0
  -30.4245  -12.4451   19.4701 C   0  0  0  0  0  0
  -29.5054  -12.5031   18.2315 C   0  0  0  0  0  0
  -28.0317  -12.3311   18.6463 C   0  0  0  0  0  0
  -27.6393  -13.2319   19.8487 C   0  0  2  0  0  0
  -28.6850  -13.1719   20.9831 C   0  0  0  0  0  0
  -25.2500  -13.8199   20.5697 C   0  0  0  0  0  0
  -24.1796  -13.0439   20.9207 C   0  0  0  0  0  0
  -24.6392  -11.6917   20.8752 C   0  0  0  0  0  0
  -23.9071  -10.4291   21.0412 C   0  0  0  0  0  0
  -24.3622   -9.4207   21.9192 C   0  0  0  0  0  0
  -23.6294   -8.2244   22.0759 C   0  0  0  0  0  0
  -22.4279   -8.0283   21.3547 C   0  0  0  0  0  0
  -21.9916   -9.0256   20.4648 C   0  0  0  0  0  0
  -22.7244  -10.2134   20.3057 C   0  0  0  0  0  0
  -21.6852   -6.0737   22.5280 C   0  0  0  0  0  0
  -21.4015   -6.5640   23.8213 C   0  0  0  0  0  0
  -21.3656   -5.6793   24.9174 C   0  0  0  0  0  0
  -21.6042   -4.3057   24.7226 C   0  0  0  0  0  0
  -21.8820   -3.8149   23.4347 C   0  0  0  0  0  0
  -21.9195   -4.6966   22.3402 C   0  0  0  0  0  0
  -22.7819  -13.5219   21.1873 C   0  0  0  0  0  0
  -22.1662   -4.2151   21.0981 F   0  0  0  0  0  0
  -21.5628   -3.4541   25.7738 F   0  0  0  0  0  0
  -29.9837  -13.5157   20.3941 N   0  0  0  0  0  0
  -26.2923  -12.9405   20.3280 N   0  0  0  0  0  0
  -25.9322  -11.6548   20.5758 N   0  0  0  0  0  0
  -22.0471  -12.8203   22.0425 N   0  0  0  0  0  0
  -25.4174  -15.1922   20.4109 N   0  0  0  0  0  0
  -31.8174  -14.7935   20.1474 O   0  0  0  0  0  0
  -21.6643   -6.8882   21.4243 O   0  0  0  0  0  0
  -22.3505  -14.5524   20.6719 O   0  0  0  0  0  0
  -24.6309  -31.8554   23.1974 C   0  0  0  0  0  0
  -25.9143  -32.4754   23.8326 C   0  0  1  0  0  0
  -27.2208  -27.2718   20.1345 C   0  0  0  0  0  0
  -25.5948  -33.8554   24.2263 N   0  0  0  0  0  0
  -23.4275  -30.4762   21.5407 C   0  0  2  0  0  0
  -24.8754  -28.9185   20.1132 C   0  0  0  0  0  0
  -22.7503  -29.4597   22.4918 C   0  0  0  0  0  0
  -18.0288  -28.1390   22.8487 C   0  0  0  0  0  0
  -24.1482  -36.7259   23.2645 C   0  0  0  0  0  0
  -25.9711  -30.7710   21.3753 C   0  0  0  0  0  0
  -26.0461  -29.3930   20.7194 C   0  0  0  0  0  0
  -27.2262  -28.5842   20.7129 C   0  0  0  0  0  0
  -26.0283  -26.8531   19.5104 C   0  0  0  0  0  0
  -24.8698  -27.6561   19.4963 C   0  0  0  0  0  0
  -23.6463  -29.8061   20.1583 C   0  0  0  0  0  0
  -25.4113  -36.3062   24.0328 C   0  0  1  0  0  0
  -20.5895  -28.3703   23.1271 C   0  0  2  0  0  0
  -20.6780  -26.9424   22.5410 C   0  0  0  0  0  0
  -19.5758  -26.6386   21.5216 C   0  0  0  0  0  0
  -18.1931  -26.7934   22.1618 C   0  0  0  0  0  0
  -19.1542  -28.8863   23.2875 C   0  0  0  0  0  0
  -18.9468  -30.1463   23.8888 C   0  0  0  0  0  0
  -17.6467  -30.6596   24.0567 C   0  0  0  0  0  0
  -25.9057  -34.9434   23.5095 C   0  0  0  0  0  0
  -16.5355  -29.9093   23.6343 C   0  0  0  0  0  0
  -16.7275  -28.6511   23.0365 C   0  0  0  0  0  0
  -26.4520  -31.6577   25.0713 C   0  0  0  0  0  0
  -25.3743  -31.3700   26.1433 C   0  0  0  0  0  0
  -27.0389  -30.3004   24.6186 C   0  0  0  0  0  0
  -27.6079  -32.4318   25.7482 C   0  0  0  0  0  0
  -27.5573  -37.1789   24.8468 C   0  0  0  0  0  0
  -21.4209  -29.3044   22.3654 N   0  0  0  0  0  0
  -26.4282  -37.3770   23.9414 N   0  0  0  0  0  0
  -24.6952  -31.0522   22.0946 N   0  0  0  0  0  0
  -23.4203  -28.8155   23.3035 O   0  0  0  0  0  0
  -28.3225  -26.3935   20.1377 O   0  0  0  0  0  0
  -26.5622  -34.8909   22.4660 O   0  0  0  0  0  0
  -23.5463  -32.1367   23.7280 O   0  0  0  0  0  0
  -31.1592  -20.0560   20.9098 C   0  0  0  0  0  0
  -31.5905  -17.6489   21.0456 C   0  0  0  0  0  0
  -29.3807  -18.4664   20.4510 C   0  0  0  0  0  0
  -32.0376  -18.9799   21.1536 C   0  0  0  0  0  0
  -29.8049  -19.8661   20.5501 C   0  0  0  0  0  0
  -30.2629  -17.3239   20.6859 C   0  0  0  0  0  0
  -27.7277  -21.2055   19.8711 C   0  0  0  0  0  0
  -28.9252  -23.9166   18.4705 C   0  0  0  0  0  0
  -27.2152  -22.6614   19.8123 C   0  0  0  0  0  0
  -29.4223  -22.5299   20.6176 C   0  0  0  0  0  0
  -28.4547  -23.5957   19.9082 C   0  0  1  0  0  0
  -28.3236  -25.0090   16.4342 C   0  0  0  0  0  0
  -28.1543  -25.0039   20.6886 C   0  0  0  0  0  0
  -33.4922  -19.2360   21.5275 C   0  0  0  0  0  0
  -28.9936  -21.1089   20.3235 N   0  0  0  0  0  0
  -29.8630  -15.8870   20.6259 N   0  0  0  0  0  0
  -27.0120  -20.2645   19.5188 O   0  0  0  0  0  0
  -29.9906  -23.4937   18.0135 O   0  0  0  0  0  0
  -28.0407  -24.6534   17.7776 O   0  0  0  0  0  0
  -33.7159  -20.5132   21.8405 F   0  0  0  0  0  0
  -33.8335  -18.4860   22.5756 F   0  0  0  0  0  0
  -34.2745  -18.9109   20.4988 F   0  0  0  0  0  0
  -31.4680  -12.5527   19.1695 H   0  0  0  0  0  0
  -30.3541  -11.4706   19.9566 H   0  0  0  0  0  0
  -29.7842  -11.7294   17.5156 H   0  0  0  0  0  0
  -29.6348  -13.4577   17.7189 H   0  0  0  0  0  0
  -27.8852  -11.2820   18.9071 H   0  0  0  0  0  0
  -27.3738  -12.5262   17.7986 H   0  0  0  0  0  0
  -27.6310  -14.2519   19.4652 H   0  0  0  0  0  0
  -28.7191  -12.1771   21.4304 H   0  0  0  0  0  0
  -28.4252  -13.8616   21.7877 H   0  0  0  0  0  0
  -25.2765   -9.5685   22.4766 H   0  0  0  0  0  0
  -24.0001   -7.4640   22.7480 H   0  0  0  0  0  0
  -21.0849   -8.8777   19.8954 H   0  0  0  0  0  0
  -22.3707  -10.9676   19.6165 H   0  0  0  0  0  0
  -21.2007   -7.6150   23.9716 H   0  0  0  0  0  0
  -21.1475   -6.0525   25.9076 H   0  0  0  0  0  0
  -22.0602   -2.7612   23.2850 H   0  0  0  0  0  0
  -22.4091  -11.9858   22.4794 H   0  0  0  0  0  0
  -21.1092  -13.1233   22.2650 H   0  0  0  0  0  0
  -24.6442  -15.8405   20.5136 H   0  0  0  0  0  0
  -26.2572  -15.6351   20.0619 H   0  0  0  0  0  0
  -26.7209  -32.5405   23.1072 H   0  0  0  0  0  0
  -25.0119  -33.9682   25.0425 H   0  0  0  0  0  0
  -22.7231  -31.2973   21.3929 H   0  0  0  0  0  0
  -23.3754  -35.9582   23.3296 H   0  0  0  0  0  0
  -24.3570  -36.8894   22.2063 H   0  0  0  0  0  0
  -23.7218  -37.6446   23.6677 H   0  0  0  0  0  0
  -26.1078  -31.5317   20.6055 H   0  0  0  0  0  0
  -26.8498  -30.8209   22.0075 H   0  0  0  0  0  0
  -28.1280  -28.9454   21.1883 H   0  0  0  0  0  0
  -25.9873  -25.8820   19.0386 H   0  0  0  0  0  0
  -23.9742  -27.2863   19.0171 H   0  0  0  0  0  0
  -23.7716  -30.5807   19.4004 H   0  0  0  0  0  0
  -22.7637  -29.2403   19.8549 H   0  0  0  0  0  0
  -25.1295  -36.1906   25.0819 H   0  0  0  0  0  0
  -20.9984  -28.3299   24.1399 H   0  0  0  0  0  0
  -20.5693  -26.2319   23.3619 H   0  0  0  0  0  0
  -21.6648  -26.7462   22.1202 H   0  0  0  0  0  0
  -19.6922  -25.6296   21.1253 H   0  0  0  0  0  0
  -19.6694  -27.3191   20.6740 H   0  0  0  0  0  0
  -17.4206  -26.6689   21.4015 H   0  0  0  0  0  0
  -18.0314  -26.0082   22.9014 H   0  0  0  0  0  0
  -19.7944  -30.7281   24.2261 H   0  0  0  0  0  0
  -17.5019  -31.6272   24.5176 H   0  0  0  0  0  0
  -15.5355  -30.2991   23.7674 H   0  0  0  0  0  0
  -15.8675  -28.0825   22.7094 H   0  0  0  0  0  0
  -24.5939  -30.7035   25.7741 H   0  0  0  0  0  0
  -24.8907  -32.2851   26.4854 H   0  0  0  0  0  0
  -25.8069  -30.8879   27.0210 H   0  0  0  0  0  0
  -26.2976  -29.6713   24.1245 H   0  0  0  0  0  0
  -27.4131  -29.7304   25.4697 H   0  0  0  0  0  0
  -27.8818  -30.4285   23.9392 H   0  0  0  0  0  0
  -27.2710  -33.3642   26.2021 H   0  0  0  0  0  0
  -28.3914  -32.6837   25.0322 H   0  0  0  0  0  0
  -28.0717  -31.8458   26.5428 H   0  0  0  0  0  0
  -28.2594  -38.0086   24.7543 H   0  0  0  0  0  0
  -28.1077  -36.2623   24.6279 H   0  0  0  0  0  0
  -27.2289  -37.1414   25.8871 H   0  0  0  0  0  0
  -20.9392  -29.8752   21.6848 H   0  0  0  0  0  0
  -26.0153  -38.2835   24.1447 H   0  0  0  0  0  0
  -31.5658  -21.0490   21.0068 H   0  0  0  0  0  0
  -32.3133  -16.8788   21.2634 H   0  0  0  0  0  0
  -28.3545  -18.2554   20.1885 H   0  0  0  0  0  0
  -26.5529  -22.8067   20.6655 H   0  0  0  0  0  0
  -26.6124  -22.8205   18.9176 H   0  0  0  0  0  0
  -29.3878  -22.6642   21.6990 H   0  0  0  0  0  0
  -30.4575  -22.7066   20.3292 H   0  0  0  0  0  0
  -27.5854  -25.7259   16.0757 H   0  0  0  0  0  0
  -28.2857  -24.1322   15.7866 H   0  0  0  0  0  0
  -29.3101  -25.4662   16.3434 H   0  0  0  0  0  0
  -28.8012  -25.0014   21.5655 H   0  0  0  0  0  0
  -27.1557  -24.9425   21.1226 H   0  0  0  0  0  0
  -28.8728  -15.7125   20.7023 H   0  0  0  0  0  0
  1 25  1  0  0  0
  1 30  2  0  0  0
  1 86  1  0  0  0
  2  3  1  0  0  0
  2 25  1  0  0  0
  2 93  1  0  0  0
  2 94  1  0  0  0
  3  4  1  0  0  0
  3 95  1  0  0  0
  3 96  1  0  0  0
  4  5  1  0  0  0
  4 97  1  0  0  0
  4 98  1  0  0  0
  5  6  1  0  0  0
  5 26  1  0  0  0
  5 99  1  0  0  0
  6 25  1  0  0  0
  6100  1  0  0  0
  6101  1  0  0  0
  7  8  2  0  0  0
  7 26  1  0  0  0
  7 29  1  0  0  0
  8  9  1  0  0  0
  8 22  1  0  0  0
  9 10  1  0  0  0
  9 27  2  0  0  0
 10 11  2  0  0  0
 10 15  1  0  0  0
 11 12  1  0  0  0
 11102  1  0  0  0
 12 13  2  0  0  0
 12103  1  0  0  0
 13 14  1  0  0  0
 13 31  1  0  0  0
 14 15  2  0  0  0
 14104  1  0  0  0
 15105  1  0  0  0
 16 17  2  0  0  0
 16 21  1  0  0  0
 16 31  1  0  0  0
 17 18  1  0  0  0
 17106  1  0  0  0
 18 19  2  0  0  0
 18107  1  0  0  0
 19 20  1  0  0  0
 19 24  1  0  0  0
 20 21  2  0  0  0
 20108  1  0  0  0
 21 23  1  0  0  0
 22 28  1  0  0  0
 22 32  2  0  0  0
 26 27  1  0  0  0
 28109  1  0  0  0
 28110  1  0  0  0
 29111  1  0  0  0
 29112  1  0  0  0
 33 34  1  0  0  0
 33 66  1  0  0  0
 33 70  2  0  0  0
 34 36  1  0  0  0
 34 59  1  0  0  0
 34113  1  0  0  0
 35 44  2  0  0  0
 35 45  1  0  0  0
 35 68  1  0  0  0
 36 56  1  0  0  0
 36114  1  0  0  0
 37 39  1  0  0  0
 37 47  1  0  0  0
 37 66  1  0  0  0
 37115  1  0  0  0
 38 43  2  0  0  0
 38 46  1  0  0  0
 38 47  1  0  0  0
 39 64  1  0  0  0
 39 67  2  0  0  0
 40 52  1  0  0  0
 40 53  2  0  0  0
 40 58  1  0  0  0
 41116  1  0  0  0
 41117  1  0  0  0
 41118  1  0  0  0
 41 48  1  0  0  0
 42 43  1  0  0  0
 42 66  1  0  0  0
 42119  1  0  0  0
 42120  1  0  0  0
 43 44  1  0  0  0
 44121  1  0  0  0
 45 46  2  0  0  0
 45122  1  0  0  0
 46123  1  0  0  0
 47124  1  0  0  0
 47125  1  0  0  0
 48 56  1  0  0  0
 48 65  1  0  0  0
 48126  1  0  0  0
 49 50  1  0  0  0
 49 53  1  0  0  0
 49 64  1  0  0  0
 49127  1  0  0  0
 50 51  1  0  0  0
 50128  1  0  0  0
 50129  1  0  0  0
 51 52  1  0  0  0
 51130  1  0  0  0
 51131  1  0  0  0
 52132  1  0  0  0
 52133  1  0  0  0
 53 54  1  0  0  0
 54 55  2  0  0  0
 54134  1  0  0  0
 55 57  1  0  0  0
 55135  1  0  0  0
 56 69  2  0  0  0
 57 58  2  0  0  0
 57136  1  0  0  0
 58137  1  0  0  0
 59 60  1  0  0  0
 59 61  1  0  0  0
 59 62  1  0  0  0
 60138  1  0  0  0
 60139  1  0  0  0
 60140  1  0  0  0
 61141  1  0  0  0
 61142  1  0  0  0
 61143  1  0  0  0
 62144  1  0  0  0
 62145  1  0  0  0
 62146  1  0  0  0
 63 65  1  0  0  0
 63147  1  0  0  0
 63148  1  0  0  0
 63149  1  0  0  0
 64150  1  0  0  0
 65151  1  0  0  0
 68 83  1  0  0  0
 71 74  2  0  0  0
 71 75  1  0  0  0
 71152  1  0  0  0
 72 74  1  0  0  0
 72 76  2  0  0  0
 72153  1  0  0  0
 73 75  2  0  0  0
 73 76  1  0  0  0
 73154  1  0  0  0
 74 84  1  0  0  0
 75 85  1  0  0  0
 76 86  1  0  0  0
 77 79  1  0  0  0
 77 85  1  0  0  0
 77 87  2  0  0  0
 78 88  2  0  0  0
 78 89  1  0  0  0
 78 81  1  0  0  0
 79 81  1  0  0  0
 79155  1  0  0  0
 79156  1  0  0  0
 80 81  1  0  0  0
 80 85  1  0  0  0
 80157  1  0  0  0
 80158  1  0  0  0
 81 83  1  0  0  0
 82 89  1  0  0  0
 82159  1  0  0  0
 82160  1  0  0  0
 82161  1  0  0  0
 83162  1  0  0  0
 83163  1  0  0  0
 84 90  1  0  0  0
 84 91  1  0  0  0
 84 92  1  0  0  0
 86164  1  0  0  0
M  ISO  4   1 100  68 101  83 101  86 100
M  END
> <chiral flag>
0

> <version>
0

> <s_m_source_file>
/data/baiqing/PycharmProjects/Reinvent-master-3.2/result/LINK_invent/BTK/process_docking_weight1_custom_product_contain_oxygen_bond_distance_aromatic_linkinvent_7_9_3/rearranged_h_0066.sdf

> <i_m_source_file_index>
50

> <r_mmod_Potential_Energy-OPLS-2005>
180.168914794922

> <r_mmod_Stretch_Energy-OPLS-2005>
132.089340209961

> <r_mmod_Bend_Energy-OPLS-2005>
201.103607177734

> <r_mmod_Torsional_Energy-OPLS-2005>
271.164123535156

> <r_mmod_Improper_Torsional_Energy-OPLS-2005>
5.65137529373169

> <r_mmod_Van_der_Waal_Energy-OPLS-2005>
149.656112670898

> <r_mmod_Electrostatic_Energy-OPLS-2005>
-433.991546630859

> <r_mmod_Solvation_Energy-OPLS-2005>
-223.821014404297

> <b_mmod_Minimization_Converged-OPLS-2005>
0

> <r_mmod_RMS_Derivative-OPLS-2005>
1.25262117385864

$$$$
50
                    3D
 Structure written by MMmdl.
160168  0  0  1  0            999 V2000
  -30.6489  -14.5419   20.5198 C   0  0  0  0  0  0
  -30.4478  -12.3253   19.4424 C   0  0  0  0  0  0
  -29.5187  -12.4873   18.2161 C   0  0  0  0  0  0
  -28.0364  -12.3396   18.6278 C   0  0  0  0  0  0
  -27.6663  -13.1970   19.8670 C   0  0  2  0  0  0
  -28.7105  -12.9960   20.9924 C   0  0  0  0  0  0
  -25.2629  -13.8104   20.5635 C   0  0  0  0  0  0
  -24.1884  -13.0423   20.9187 C   0  0  0  0  0  0
  -24.6426  -11.6892   20.8749 C   0  0  0  0  0  0
  -23.9078  -10.4299   21.0445 C   0  0  0  0  0  0
  -24.3610   -9.4209   21.9211 C   0  0  0  0  0  0
  -23.6282   -8.2257   22.0791 C   0  0  0  0  0  0
  -22.4232   -8.0322   21.3573 C   0  0  0  0  0  0
  -21.9898   -9.0293   20.4682 C   0  0  0  0  0  0
  -22.7242  -10.2152   20.3073 C   0  0  0  0  0  0
  -21.6863   -6.0755   22.5285 C   0  0  0  0  0  0
  -21.4020   -6.5653   23.8233 C   0  0  0  0  0  0
  -21.3652   -5.6783   24.9176 C   0  0  0  0  0  0
  -21.6013   -4.3048   24.7217 C   0  0  0  0  0  0
  -21.8827   -3.8157   23.4325 C   0  0  0  0  0  0
  -21.9178   -4.6995   22.3397 C   0  0  0  0  0  0
  -22.7908  -13.5285   21.1813 C   0  0  0  0  0  0
  -22.1678   -4.2191   21.0965 F   0  0  0  0  0  0
  -21.5585   -3.4522   25.7719 F   0  0  0  0  0  0
  -30.0399  -13.3232   20.4417 N   0  0  0  0  0  0
  -26.3050  -12.9252   20.3282 N   0  0  0  0  0  0
  -25.9345  -11.6443   20.5736 N   0  0  0  0  0  0
  -22.0488  -12.8351   22.0354 N   0  0  0  0  0  0
  -25.4323  -15.1814   20.4031 N   0  0  0  0  0  0
  -31.7860  -14.7489   20.0853 O   0  0  0  0  0  0
  -21.6619   -6.8913   21.4267 O   0  0  0  0  0  0
  -22.3640  -14.5595   20.6621 O   0  0  0  0  0  0
  -24.6279  -31.8572   23.1983 C   0  0  0  0  0  0
  -25.9106  -32.4759   23.8333 C   0  0  1  0  0  0
  -27.2320  -27.3596   20.0255 C   0  0  0  0  0  0
  -25.5882  -33.8559   24.2260 N   0  0  0  0  0  0
  -23.4195  -30.4797   21.5443 C   0  0  2  0  0  0
  -24.8605  -28.9353   20.1072 C   0  0  0  0  0  0
  -22.7480  -29.4608   22.4940 C   0  0  0  0  0  0
  -18.0273  -28.1372   22.8473 C   0  0  0  0  0  0
  -24.1472  -36.7306   23.2652 C   0  0  0  0  0  0
  -25.9619  -30.7884   21.3695 C   0  0  0  0  0  0
  -26.0317  -29.4171   20.7070 C   0  0  0  0  0  0
  -27.2185  -28.6293   20.6751 C   0  0  0  0  0  0
  -26.0296  -26.9091   19.4459 C   0  0  0  0  0  0
  -24.8562  -27.6812   19.4783 C   0  0  0  0  0  0
  -23.6293  -29.8114   20.1605 C   0  0  0  0  0  0
  -25.4084  -36.3068   24.0342 C   0  0  1  0  0  0
  -20.5878  -28.3672   23.1275 C   0  0  2  0  0  0
  -20.6750  -26.9391   22.5408 C   0  0  0  0  0  0
  -19.5730  -26.6373   21.5202 C   0  0  0  0  0  0
  -18.1907  -26.7915   22.1615 C   0  0  0  0  0  0
  -19.1534  -28.8832   23.2877 C   0  0  0  0  0  0
  -18.9476  -30.1425   23.8911 C   0  0  0  0  0  0
  -17.6483  -30.6568   24.0577 C   0  0  0  0  0  0
  -25.9030  -34.9437   23.5107 C   0  0  0  0  0  0
  -16.5362  -29.9090   23.6310 C   0  0  0  0  0  0
  -16.7275  -28.6501   23.0338 C   0  0  0  0  0  0
  -26.4492  -31.6568   25.0711 C   0  0  0  0  0  0
  -25.3751  -31.3738   26.1482 C   0  0  0  0  0  0
  -27.0319  -30.2983   24.6155 C   0  0  0  0  0  0
  -27.6067  -32.4302   25.7447 C   0  0  0  0  0  0
  -27.5550  -37.1792   24.8462 C   0  0  0  0  0  0
  -21.4194  -29.3032   22.3676 N   0  0  0  0  0  0
  -26.4257  -37.3754   23.9414 N   0  0  0  0  0  0
  -24.6888  -31.0570   22.0942 N   0  0  0  0  0  0
  -23.4192  -28.8129   23.3006 O   0  0  0  0  0  0
  -28.3600  -26.5393   19.9799 O   0  0  0  0  0  0
  -26.5651  -34.8922   22.4706 O   0  0  0  0  0  0
  -23.5434  -32.1377   23.7297 O   0  0  0  0  0  0
  -30.8834  -17.8129   20.5793 C   0  0  0  0  0  0
  -30.6822  -19.2169   20.4366 C   0  0  0  0  0  0
  -28.4891  -17.4912   20.5947 C   0  0  0  0  0  0
  -28.2780  -18.8805   20.4470 C   0  0  0  0  0  0
  -29.7784  -16.9321   20.6907 C   0  0  0  0  0  0
  -29.3787  -19.7784   20.4009 C   0  0  0  0  0  0
  -29.6103  -22.1947   19.6830 C   0  0  0  0  0  0
  -26.8408  -19.3632   20.3478 C   0  0  0  0  0  0
  -27.5365  -23.7195   17.6276 C   0  0  0  0  0  0
  -28.6590  -25.8298   18.7338 C   0  0  0  0  0  0
  -28.6935  -24.2425   18.5413 C   0  0  1  0  0  0
  -29.8456  -15.5234   20.9866 N   0  0  0  0  0  0
  -29.1181  -21.1982   20.4505 N   0  0  0  0  0  0
  -28.8674  -23.3312   19.7086 N   0  0  0  0  0  0
  -30.6209  -22.0742   18.9849 O   0  0  0  0  0  0
  -27.0905  -22.4010   17.9258 O   0  0  0  0  0  0
  -31.4989  -12.4179   19.1588 H   0  0  0  0  0  0
  -30.3466  -11.3220   19.8565 H   0  0  0  0  0  0
  -29.7669  -11.7468   17.4524 H   0  0  0  0  0  0
  -29.6826  -13.4604   17.7528 H   0  0  0  0  0  0
  -27.8604  -11.2865   18.8438 H   0  0  0  0  0  0
  -27.3887  -12.5901   17.7864 H   0  0  0  0  0  0
  -27.7023  -14.2367   19.5494 H   0  0  0  0  0  0
  -28.6977  -11.9564   21.3273 H   0  0  0  0  0  0
  -28.4652  -13.5834   21.8791 H   0  0  0  0  0  0
  -25.2784   -9.5644   22.4782 H   0  0  0  0  0  0
  -23.9977   -7.4615   22.7477 H   0  0  0  0  0  0
  -21.0822   -8.8820   19.8981 H   0  0  0  0  0  0
  -22.3746  -10.9686   19.6166 H   0  0  0  0  0  0
  -21.2082   -7.6164   23.9746 H   0  0  0  0  0  0
  -21.1438   -6.0517   25.9068 H   0  0  0  0  0  0
  -22.0603   -2.7634   23.2810 H   0  0  0  0  0  0
  -22.4048  -12.0044   22.4855 H   0  0  0  0  0  0
  -21.1119  -13.1458   22.2479 H   0  0  0  0  0  0
  -24.6599  -15.8270   20.5145 H   0  0  0  0  0  0
  -26.2415  -15.5985   19.9648 H   0  0  0  0  0  0
  -26.7164  -32.5410   23.1077 H   0  0  0  0  0  0
  -24.9906  -33.9669   25.0319 H   0  0  0  0  0  0
  -22.7150  -31.2998   21.3955 H   0  0  0  0  0  0
  -23.3693  -35.9678   23.3345 H   0  0  0  0  0  0
  -24.3562  -36.8901   22.2057 H   0  0  0  0  0  0
  -23.7268  -37.6538   23.6666 H   0  0  0  0  0  0
  -26.0917  -31.5498   20.5993 H   0  0  0  0  0  0
  -26.8458  -30.8376   21.9924 H   0  0  0  0  0  0
  -28.1261  -28.9948   21.1352 H   0  0  0  0  0  0
  -25.9799  -25.9459   18.9666 H   0  0  0  0  0  0
  -23.9579  -27.3023   19.0115 H   0  0  0  0  0  0
  -23.7434  -30.5844   19.4001 H   0  0  0  0  0  0
  -22.7522  -29.2343   19.8606 H   0  0  0  0  0  0
  -25.1251  -36.1926   25.0829 H   0  0  0  0  0  0
  -20.9968  -28.3256   24.1405 H   0  0  0  0  0  0
  -20.5571  -26.2313   23.3620 H   0  0  0  0  0  0
  -21.6633  -26.7335   22.1268 H   0  0  0  0  0  0
  -19.6893  -25.6289   21.1221 H   0  0  0  0  0  0
  -19.6650  -27.3193   20.6736 H   0  0  0  0  0  0
  -17.4163  -26.6635   21.4038 H   0  0  0  0  0  0
  -18.0311  -26.0048   22.8998 H   0  0  0  0  0  0
  -19.7960  -30.7214   24.2301 H   0  0  0  0  0  0
  -17.5045  -31.6245   24.5185 H   0  0  0  0  0  0
  -15.5376  -30.3018   23.7583 H   0  0  0  0  0  0
  -15.8673  -28.0820   22.7060 H   0  0  0  0  0  0
  -24.5847  -30.7170   25.7845 H   0  0  0  0  0  0
  -24.9058  -32.2932   26.4994 H   0  0  0  0  0  0
  -25.8109  -30.8844   27.0202 H   0  0  0  0  0  0
  -26.2866  -29.6705   24.1266 H   0  0  0  0  0  0
  -27.4111  -29.7280   25.4644 H   0  0  0  0  0  0
  -27.8703  -30.4275   23.9308 H   0  0  0  0  0  0
  -27.2692  -33.3611   26.2020 H   0  0  0  0  0  0
  -28.3863  -32.6837   25.0248 H   0  0  0  0  0  0
  -28.0751  -31.8426   26.5356 H   0  0  0  0  0  0
  -28.2600  -38.0055   24.7451 H   0  0  0  0  0  0
  -28.1011  -36.2588   24.6333 H   0  0  0  0  0  0
  -27.2296  -37.1508   25.8877 H   0  0  0  0  0  0
  -20.9371  -29.8817   21.6933 H   0  0  0  0  0  0
  -26.0151  -38.2837   24.1396 H   0  0  0  0  0  0
  -31.8933  -17.4296   20.6502 H   0  0  0  0  0  0
  -31.5516  -19.8602   20.4013 H   0  0  0  0  0  0
  -27.6269  -16.8443   20.6660 H   0  0  0  0  0  0
  -26.2545  -18.6705   19.7400 H   0  0  0  0  0  0
  -26.7596  -20.3407   19.8754 H   0  0  0  0  0  0
  -26.3848  -19.4149   21.3371 H   0  0  0  0  0  0
  -27.8474  -23.7490   16.5812 H   0  0  0  0  0  0
  -26.6654  -24.3660   17.6910 H   0  0  0  0  0  0
  -28.0395  -26.2301   17.9289 H   0  0  0  0  0  0
  -29.6399  -26.2085   18.4427 H   0  0  0  0  0  0
  -29.5853  -24.0973   17.9252 H   0  0  0  0  0  0
  -28.9812  -15.1384   21.3334 H   0  0  0  0  0  0
  -28.2616  -21.4338   20.9238 H   0  0  0  0  0  0
  -28.0677  -23.3228   20.3251 H   0  0  0  0  0  0
  -26.4092  -22.1675   17.2968 H   0  0  0  0  0  0
  1 25  1  0  0  0
  1 30  2  0  0  0
  1 82  1  0  0  0
  2  3  1  0  0  0
  2 25  1  0  0  0
  2 87  1  0  0  0
  2 88  1  0  0  0
  3  4  1  0  0  0
  3 89  1  0  0  0
  3 90  1  0  0  0
  4  5  1  0  0  0
  4 91  1  0  0  0
  4 92  1  0  0  0
  5  6  1  0  0  0
  5 26  1  0  0  0
  5 93  1  0  0  0
  6 25  1  0  0  0
  6 94  1  0  0  0
  6 95  1  0  0  0
  7  8  2  0  0  0
  7 26  1  0  0  0
  7 29  1  0  0  0
  8  9  1  0  0  0
  8 22  1  0  0  0
  9 10  1  0  0  0
  9 27  2  0  0  0
 10 11  2  0  0  0
 10 15  1  0  0  0
 11 12  1  0  0  0
 11 96  1  0  0  0
 12 13  2  0  0  0
 12 97  1  0  0  0
 13 14  1  0  0  0
 13 31  1  0  0  0
 14 15  2  0  0  0
 14 98  1  0  0  0
 15 99  1  0  0  0
 16 17  2  0  0  0
 16 21  1  0  0  0
 16 31  1  0  0  0
 17 18  1  0  0  0
 17100  1  0  0  0
 18 19  2  0  0  0
 18101  1  0  0  0
 19 20  1  0  0  0
 19 24  1  0  0  0
 20 21  2  0  0  0
 20102  1  0  0  0
 21 23  1  0  0  0
 22 28  1  0  0  0
 22 32  2  0  0  0
 26 27  1  0  0  0
 28103  1  0  0  0
 28104  1  0  0  0
 29105  1  0  0  0
 29106  1  0  0  0
 33 34  1  0  0  0
 33 66  1  0  0  0
 33 70  2  0  0  0
 34 36  1  0  0  0
 34 59  1  0  0  0
 34107  1  0  0  0
 35 44  2  0  0  0
 35 45  1  0  0  0
 35 68  1  0  0  0
 36 56  1  0  0  0
 36108  1  0  0  0
 37 39  1  0  0  0
 37 47  1  0  0  0
 37 66  1  0  0  0
 37109  1  0  0  0
 38 43  2  0  0  0
 38 46  1  0  0  0
 38 47  1  0  0  0
 39 64  1  0  0  0
 39 67  2  0  0  0
 40 52  1  0  0  0
 40 53  2  0  0  0
 40 58  1  0  0  0
 41110  1  0  0  0
 41111  1  0  0  0
 41112  1  0  0  0
 41 48  1  0  0  0
 42 43  1  0  0  0
 42 66  1  0  0  0
 42113  1  0  0  0
 42114  1  0  0  0
 43 44  1  0  0  0
 44115  1  0  0  0
 45 46  2  0  0  0
 45116  1  0  0  0
 46117  1  0  0  0
 47118  1  0  0  0
 47119  1  0  0  0
 48 56  1  0  0  0
 48 65  1  0  0  0
 48120  1  0  0  0
 49 50  1  0  0  0
 49 53  1  0  0  0
 49 64  1  0  0  0
 49121  1  0  0  0
 50 51  1  0  0  0
 50122  1  0  0  0
 50123  1  0  0  0
 51 52  1  0  0  0
 51124  1  0  0  0
 51125  1  0  0  0
 52126  1  0  0  0
 52127  1  0  0  0
 53 54  1  0  0  0
 54 55  2  0  0  0
 54128  1  0  0  0
 55 57  1  0  0  0
 55129  1  0  0  0
 56 69  2  0  0  0
 57 58  2  0  0  0
 57130  1  0  0  0
 58131  1  0  0  0
 59 60  1  0  0  0
 59 61  1  0  0  0
 59 62  1  0  0  0
 60132  1  0  0  0
 60133  1  0  0  0
 60134  1  0  0  0
 61135  1  0  0  0
 61136  1  0  0  0
 61137  1  0  0  0
 62138  1  0  0  0
 62139  1  0  0  0
 62140  1  0  0  0
 63 65  1  0  0  0
 63141  1  0  0  0
 63142  1  0  0  0
 63143  1  0  0  0
 64144  1  0  0  0
 65145  1  0  0  0
 68 80  1  0  0  0
 71 72  2  0  0  0
 71 75  1  0  0  0
 71146  1  0  0  0
 72 76  1  0  0  0
 72147  1  0  0  0
 73 74  1  0  0  0
 73 75  2  0  0  0
 73148  1  0  0  0
 74 76  2  0  0  0
 74 78  1  0  0  0
 75 82  1  0  0  0
 76 83  1  0  0  0
 77 83  1  0  0  0
 77 84  1  0  0  0
 77 85  2  0  0  0
 78149  1  0  0  0
 78150  1  0  0  0
 78151  1  0  0  0
 79 86  1  0  0  0
 79152  1  0  0  0
 79153  1  0  0  0
 79 81  1  0  0  0
 80 81  1  0  0  0
 80154  1  0  0  0
 80155  1  0  0  0
 81 84  1  0  0  0
 81156  1  0  0  0
 82157  1  0  0  0
 83158  1  0  0  0
 84159  1  0  0  0
 86160  1  0  0  0
M  ISO  4   1 100  68 101  80 101  82 100
M  END
> <chiral flag>
0

> <version>
0

> <s_m_source_file>
/data/baiqing/PycharmProjects/Reinvent-master-3.2/result/LINK_invent/BTK/process_docking_weight1_custom_product_contain_oxygen_bond_distance_aromatic_linkinvent_7_9_3/rearranged_h_0066.sdf

> <i_m_source_file_index>
51

> <r_mmod_Potential_Energy-OPLS-2005>
-136.205017089844

> <r_mmod_Stretch_Energy-OPLS-2005>
59.9256439208984

> <r_mmod_Bend_Energy-OPLS-2005>
157.16618347168

> <r_mmod_Torsional_Energy-OPLS-2005>
301.408020019531

> <r_mmod_Improper_Torsional_Energy-OPLS-2005>
9.2862434387207

> <r_mmod_Van_der_Waal_Energy-OPLS-2005>
154.019760131836

> <r_mmod_Electrostatic_Energy-OPLS-2005>
-578.2373046875

> <r_mmod_Solvation_Energy-OPLS-2005>
-269.85791015625

> <b_mmod_Minimization_Converged-OPLS-2005>
0

> <r_mmod_RMS_Derivative-OPLS-2005>
5.85378170013428

$$$$
51
                    3D
 Structure written by MMmdl.
154163  0  0  1  0            999 V2000
  -30.6694  -14.5807   20.4623 C   0  0  0  0  0  0
  -30.4263  -12.3468   19.4531 C   0  0  0  0  0  0
  -29.5083  -12.4960   18.2209 C   0  0  0  0  0  0
  -28.0287  -12.3523   18.6273 C   0  0  0  0  0  0
  -27.6557  -13.2198   19.8607 C   0  0  2  0  0  0
  -28.6997  -13.0829   20.9915 C   0  0  0  0  0  0
  -25.2592  -13.8174   20.5685 C   0  0  0  0  0  0
  -24.1852  -13.0448   20.9191 C   0  0  0  0  0  0
  -24.6411  -11.6916   20.8734 C   0  0  0  0  0  0
  -23.9082  -10.4300   21.0402 C   0  0  0  0  0  0
  -24.3628   -9.4212   21.9178 C   0  0  0  0  0  0
  -23.6296   -8.2255   22.0751 C   0  0  0  0  0  0
  -22.4273   -8.0296   21.3559 C   0  0  0  0  0  0
  -21.9919   -9.0267   20.4653 C   0  0  0  0  0  0
  -22.7253  -10.2143   20.3057 C   0  0  0  0  0  0
  -21.6860   -6.0744   22.5279 C   0  0  0  0  0  0
  -21.4017   -6.5641   23.8212 C   0  0  0  0  0  0
  -21.3661   -5.6791   24.9171 C   0  0  0  0  0  0
  -21.6041   -4.3058   24.7224 C   0  0  0  0  0  0
  -21.8818   -3.8153   23.4347 C   0  0  0  0  0  0
  -21.9202   -4.6971   22.3402 C   0  0  0  0  0  0
  -22.7876  -13.5253   21.1844 C   0  0  0  0  0  0
  -22.1669   -4.2154   21.0982 F   0  0  0  0  0  0
  -21.5635   -3.4541   25.7735 F   0  0  0  0  0  0
  -30.0218  -13.3793   20.4239 N   0  0  0  0  0  0
  -26.3016  -12.9360   20.3309 N   0  0  0  0  0  0
  -25.9344  -11.6510   20.5748 N   0  0  0  0  0  0
  -22.0516  -12.8245   22.0391 N   0  0  0  0  0  0
  -25.4314  -15.1894   20.4083 N   0  0  0  0  0  0
  -31.8632  -14.6801   20.1691 O   0  0  0  0  0  0
  -21.6645   -6.8886   21.4246 O   0  0  0  0  0  0
  -22.3572  -14.5565   20.6693 O   0  0  0  0  0  0
  -24.6207  -31.8620   23.2022 C   0  0  0  0  0  0
  -25.9077  -32.4784   23.8342 C   0  0  1  0  0  0
  -27.2456  -27.3840   20.1004 C   0  0  0  0  0  0
  -25.5906  -33.8582   24.2268 N   0  0  0  0  0  0
  -23.4116  -30.4825   21.5424 C   0  0  2  0  0  0
  -24.8614  -28.9385   20.1091 C   0  0  0  0  0  0
  -22.7427  -29.4641   22.4949 C   0  0  0  0  0  0
  -18.0275  -28.1391   22.8501 C   0  0  0  0  0  0
  -24.1480  -36.7298   23.2620 C   0  0  0  0  0  0
  -25.9440  -30.8102   21.3629 C   0  0  0  0  0  0
  -26.0201  -29.4394   20.7134 C   0  0  0  0  0  0
  -27.2085  -28.6659   20.7115 C   0  0  0  0  0  0
  -26.0662  -26.9113   19.4813 C   0  0  0  0  0  0
  -24.8826  -27.6769   19.4889 C   0  0  0  0  0  0
  -23.6221  -29.8071   20.1595 C   0  0  0  0  0  0
  -25.4091  -36.3082   24.0327 C   0  0  1  0  0  0
  -20.5872  -28.3688   23.1294 C   0  0  2  0  0  0
  -20.6768  -26.9421   22.5413 C   0  0  0  0  0  0
  -19.5748  -26.6395   21.5212 C   0  0  0  0  0  0
  -18.1923  -26.7935   22.1627 C   0  0  0  0  0  0
  -19.1527  -28.8858   23.2898 C   0  0  0  0  0  0
  -18.9456  -30.1458   23.8921 C   0  0  0  0  0  0
  -17.6458  -30.6596   24.0573 C   0  0  0  0  0  0
  -25.9045  -34.9459   23.5104 C   0  0  0  0  0  0
  -16.5348  -29.9100   23.6332 C   0  0  0  0  0  0
  -16.7262  -28.6514   23.0358 C   0  0  0  0  0  0
  -26.4483  -31.6578   25.0696 C   0  0  0  0  0  0
  -25.3729  -31.3696   26.1428 C   0  0  0  0  0  0
  -27.0317  -30.3011   24.6112 C   0  0  0  0  0  0
  -27.6060  -32.4290   25.7465 C   0  0  0  0  0  0
  -27.5616  -37.1730   24.8405 C   0  0  0  0  0  0
  -21.4149  -29.3048   22.3689 N   0  0  0  0  0  0
  -26.4239  -37.3817   23.9488 N   0  0  0  0  0  0
  -24.6773  -31.0672   22.0943 N   0  0  0  0  0  0
  -23.4165  -28.8189   23.3024 O   0  0  0  0  0  0
  -28.4112  -26.6286   20.1730 O   0  0  0  0  0  0
  -26.5630  -34.8935   22.4678 O   0  0  0  0  0  0
  -23.5385  -32.1391   23.7390 O   0  0  0  0  0  0
  -30.5831  -20.6416   17.8468 C   0  0  0  0  0  0
  -30.2445  -21.8821   18.4063 C   0  0  0  0  0  0
  -29.4592  -20.7507   20.4244 C   0  0  0  0  0  0
  -29.6813  -18.2209   20.5620 C   0  0  0  0  0  0
  -30.7114  -18.2305   17.9552 C   0  0  0  0  0  0
  -30.3715  -19.4493   18.5645 C   0  0  0  0  0  0
  -29.8246  -19.4740   19.8724 C   0  0  0  0  0  0
  -29.6561  -21.9650   19.6838 C   0  0  0  0  0  0
  -30.0630  -16.9717   19.9619 C   0  0  0  0  0  0
  -30.5401  -17.0089   18.6253 C   0  0  0  0  0  0
  -28.3780  -24.0847   19.8190 C   0  0  0  0  0  0
  -28.6694  -25.5225   19.2686 C   0  0  0  0  0  0
  -29.4248  -23.2997   20.1760 N   0  0  0  0  0  0
  -29.8999  -15.6930   20.6403 N   0  0  0  0  0  0
  -27.2144  -23.6818   19.8950 O   0  0  0  0  0  0
  -30.8076  -15.8718   17.9387 F   0  0  0  0  0  0
  -31.4727  -12.4401   19.1580 H   0  0  0  0  0  0
  -30.3267  -11.3527   19.8896 H   0  0  0  0  0  0
  -29.7647  -11.7517   17.4660 H   0  0  0  0  0  0
  -29.6706  -13.4698   17.7561 H   0  0  0  0  0  0
  -27.8527  -11.2994   18.8478 H   0  0  0  0  0  0
  -27.3824  -12.5982   17.7845 H   0  0  0  0  0  0
  -27.6734  -14.2550   19.5208 H   0  0  0  0  0  0
  -28.6908  -12.0731   21.4036 H   0  0  0  0  0  0
  -28.4673  -13.7519   21.8218 H   0  0  0  0  0  0
  -25.2776   -9.5683   22.4750 H   0  0  0  0  0  0
  -24.0008   -7.4642   22.7462 H   0  0  0  0  0  0
  -21.0854   -8.8782   19.8951 H   0  0  0  0  0  0
  -22.3712  -10.9680   19.6163 H   0  0  0  0  0  0
  -21.1988   -7.6137   23.9714 H   0  0  0  0  0  0
  -21.1494   -6.0523   25.9072 H   0  0  0  0  0  0
  -22.0595   -2.7612   23.2851 H   0  0  0  0  0  0
  -22.4116  -11.9899   22.4782 H   0  0  0  0  0  0
  -21.1135  -13.1269   22.2571 H   0  0  0  0  0  0
  -24.6659  -15.8467   20.5104 H   0  0  0  0  0  0
  -26.2782  -15.6217   20.0627 H   0  0  0  0  0  0
  -26.7150  -32.5476   23.1100 H   0  0  0  0  0  0
  -25.0019  -33.9724   25.0388 H   0  0  0  0  0  0
  -22.7051  -31.3026   21.3953 H   0  0  0  0  0  0
  -23.3797  -35.9561   23.3103 H   0  0  0  0  0  0
  -24.3643  -36.9106   22.2077 H   0  0  0  0  0  0
  -23.7124  -37.6401   23.6755 H   0  0  0  0  0  0
  -26.0617  -31.5704   20.5890 H   0  0  0  0  0  0
  -26.8302  -30.8673   21.9831 H   0  0  0  0  0  0
  -28.1013  -29.0477   21.1878 H   0  0  0  0  0  0
  -26.0342  -25.9389   19.0126 H   0  0  0  0  0  0
  -23.9925  -27.2844   19.0168 H   0  0  0  0  0  0
  -23.7244  -30.5755   19.3927 H   0  0  0  0  0  0
  -22.7477  -29.2213   19.8706 H   0  0  0  0  0  0
  -25.1235  -36.1907   25.0807 H   0  0  0  0  0  0
  -20.9979  -28.3274   24.1409 H   0  0  0  0  0  0
  -20.5673  -26.2307   23.3610 H   0  0  0  0  0  0
  -21.6635  -26.7464   22.1209 H   0  0  0  0  0  0
  -19.6916  -25.6305   21.1245 H   0  0  0  0  0  0
  -19.6684  -27.3205   20.6739 H   0  0  0  0  0  0
  -17.4195  -26.6691   21.4025 H   0  0  0  0  0  0
  -18.0330  -26.0061   22.9010 H   0  0  0  0  0  0
  -19.7929  -30.7275   24.2296 H   0  0  0  0  0  0
  -17.5008  -31.6278   24.5171 H   0  0  0  0  0  0
  -15.5353  -30.3022   23.7629 H   0  0  0  0  0  0
  -15.8659  -28.0839   22.7074 H   0  0  0  0  0  0
  -24.5897  -30.7061   25.7737 H   0  0  0  0  0  0
  -24.8927  -32.2857   26.4881 H   0  0  0  0  0  0
  -25.8053  -30.8840   27.0185 H   0  0  0  0  0  0
  -26.2872  -29.6757   24.1168 H   0  0  0  0  0  0
  -27.4068  -29.7265   25.4591 H   0  0  0  0  0  0
  -27.8712  -30.4306   23.9277 H   0  0  0  0  0  0
  -27.2690  -33.3579   26.2073 H   0  0  0  0  0  0
  -28.3860  -32.6860   25.0285 H   0  0  0  0  0  0
  -28.0738  -31.8386   26.5353 H   0  0  0  0  0  0
  -28.2401  -38.0250   24.7829 H   0  0  0  0  0  0
  -28.1343  -36.2834   24.5739 H   0  0  0  0  0  0
  -27.2422  -37.0772   25.8796 H   0  0  0  0  0  0
  -20.9318  -29.8762   21.6896 H   0  0  0  0  0  0
  -26.0101  -38.2832   24.1714 H   0  0  0  0  0  0
  -31.0237  -20.6150   16.8592 H   0  0  0  0  0  0
  -30.4513  -22.7809   17.8408 H   0  0  0  0  0  0
  -29.0440  -20.8017   21.4219 H   0  0  0  0  0  0
  -29.2801  -18.2229   21.5648 H   0  0  0  0  0  0
  -31.0957  -18.2174   16.9455 H   0  0  0  0  0  0
  -28.1581  -25.6595   18.3145 H   0  0  0  0  0  0
  -29.7292  -25.5734   19.0154 H   0  0  0  0  0  0
  -30.2732  -23.8455   20.2501 H   0  0  0  0  0  0
  -29.0070  -15.5406   21.0827 H   0  0  0  0  0  0
  1 25  1  0  0  0
  1 30  2  0  0  0
  1 84  1  0  0  0
  2  3  1  0  0  0
  2 25  1  0  0  0
  2 87  1  0  0  0
  2 88  1  0  0  0
  3  4  1  0  0  0
  3 89  1  0  0  0
  3 90  1  0  0  0
  4  5  1  0  0  0
  4 91  1  0  0  0
  4 92  1  0  0  0
  5  6  1  0  0  0
  5 26  1  0  0  0
  5 93  1  0  0  0
  6 25  1  0  0  0
  6 94  1  0  0  0
  6 95  1  0  0  0
  7  8  2  0  0  0
  7 26  1  0  0  0
  7 29  1  0  0  0
  8  9  1  0  0  0
  8 22  1  0  0  0
  9 10  1  0  0  0
  9 27  2  0  0  0
 10 11  2  0  0  0
 10 15  1  0  0  0
 11 12  1  0  0  0
 11 96  1  0  0  0
 12 13  2  0  0  0
 12 97  1  0  0  0
 13 14  1  0  0  0
 13 31  1  0  0  0
 14 15  2  0  0  0
 14 98  1  0  0  0
 15 99  1  0  0  0
 16 17  2  0  0  0
 16 21  1  0  0  0
 16 31  1  0  0  0
 17 18  1  0  0  0
 17100  1  0  0  0
 18 19  2  0  0  0
 18101  1  0  0  0
 19 20  1  0  0  0
 19 24  1  0  0  0
 20 21  2  0  0  0
 20102  1  0  0  0
 21 23  1  0  0  0
 22 28  1  0  0  0
 22 32  2  0  0  0
 26 27  1  0  0  0
 28103  1  0  0  0
 28104  1  0  0  0
 29105  1  0  0  0
 29106  1  0  0  0
 33 34  1  0  0  0
 33 66  1  0  0  0
 33 70  2  0  0  0
 34 36  1  0  0  0
 34 59  1  0  0  0
 34107  1  0  0  0
 35 44  2  0  0  0
 35 45  1  0  0  0
 35 68  1  0  0  0
 36 56  1  0  0  0
 36108  1  0  0  0
 37 39  1  0  0  0
 37 47  1  0  0  0
 37 66  1  0  0  0
 37109  1  0  0  0
 38 43  2  0  0  0
 38 46  1  0  0  0
 38 47  1  0  0  0
 39 64  1  0  0  0
 39 67  2  0  0  0
 40 52  1  0  0  0
 40 53  2  0  0  0
 40 58  1  0  0  0
 41110  1  0  0  0
 41111  1  0  0  0
 41112  1  0  0  0
 41 48  1  0  0  0
 42 43  1  0  0  0
 42 66  1  0  0  0
 42113  1  0  0  0
 42114  1  0  0  0
 43 44  1  0  0  0
 44115  1  0  0  0
 45 46  2  0  0  0
 45116  1  0  0  0
 46117  1  0  0  0
 47118  1  0  0  0
 47119  1  0  0  0
 48 56  1  0  0  0
 48 65  1  0  0  0
 48120  1  0  0  0
 49 50  1  0  0  0
 49 53  1  0  0  0
 49 64  1  0  0  0
 49121  1  0  0  0
 50 51  1  0  0  0
 50122  1  0  0  0
 50123  1  0  0  0
 51 52  1  0  0  0
 51124  1  0  0  0
 51125  1  0  0  0
 52126  1  0  0  0
 52127  1  0  0  0
 53 54  1  0  0  0
 54 55  2  0  0  0
 54128  1  0  0  0
 55 57  1  0  0  0
 55129  1  0  0  0
 56 69  2  0  0  0
 57 58  2  0  0  0
 57130  1  0  0  0
 58131  1  0  0  0
 59 60  1  0  0  0
 59 61  1  0  0  0
 59 62  1  0  0  0
 60132  1  0  0  0
 60133  1  0  0  0
 60134  1  0  0  0
 61135  1  0  0  0
 61136  1  0  0  0
 61137  1  0  0  0
 62138  1  0  0  0
 62139  1  0  0  0
 62140  1  0  0  0
 63 65  1  0  0  0
 63141  1  0  0  0
 63142  1  0  0  0
 63143  1  0  0  0
 64144  1  0  0  0
 65145  1  0  0  0
 68 82  1  0  0  0
 71 72  2  0  0  0
 71 76  1  0  0  0
 71146  1  0  0  0
 72 78  1  0  0  0
 72147  1  0  0  0
 73 77  1  0  0  0
 73 78  2  0  0  0
 73148  1  0  0  0
 74 77  2  0  0  0
 74 79  1  0  0  0
 74149  1  0  0  0
 75 76  2  0  0  0
 75 80  1  0  0  0
 75150  1  0  0  0
 76 77  1  0  0  0
 78 83  1  0  0  0
 79 80  2  0  0  0
 79 84  1  0  0  0
 80 86  1  0  0  0
 81 82  1  0  0  0
 81 83  1  0  0  0
 81 85  2  0  0  0
 82151  1  0  0  0
 82152  1  0  0  0
 83153  1  0  0  0
 84154  1  0  0  0
M  ISO  4   1 100  68 101  82 101  84 100
M  END
> <chiral flag>
0

> <version>
0

> <s_m_source_file>
/data/baiqing/PycharmProjects/Reinvent-master-3.2/result/LINK_invent/BTK/process_docking_weight1_custom_product_contain_oxygen_bond_distance_aromatic_linkinvent_7_9_3/rearranged_h_0066.sdf

> <i_m_source_file_index>
52

> <r_mmod_Potential_Energy-OPLS-2005>
19.1935443878174

> <r_mmod_Stretch_Energy-OPLS-2005>
59.2423973083496

> <r_mmod_Bend_Energy-OPLS-2005>
120.698020935059

> <r_mmod_Torsional_Energy-OPLS-2005>
293.4755859375

> <r_mmod_Improper_Torsional_Energy-OPLS-2005>
9.42123222351074

> <r_mmod_Van_der_Waal_Energy-OPLS-2005>
161.62451171875

> <r_mmod_Electrostatic_Energy-OPLS-2005>
-413.423400878906

> <r_mmod_Solvation_Energy-OPLS-2005>
-244.378677368164

> <b_mmod_Minimization_Converged-OPLS-2005>
0

> <r_mmod_RMS_Derivative-OPLS-2005>
2.00306129455566

$$$$
52
                    3D
 Structure written by MMmdl.
172181  0  0  1  0            999 V2000
  -29.8196  -14.2314   21.1827 C   0  0  0  0  0  0
  -30.5031  -12.5058   19.4172 C   0  0  0  0  0  0
  -29.5967  -12.6296   18.1375 C   0  0  0  0  0  0
  -28.0876  -12.3104   18.3596 C   0  0  0  0  0  0
  -27.6914  -12.8969   19.6926 C   0  0  2  0  0  0
  -28.5975  -12.2458   20.7302 C   0  0  0  0  0  0
  -25.4469  -13.8461   19.9643 C   0  0  0  0  0  0
  -24.3769  -13.4967   20.6541 C   0  0  0  0  0  0
  -24.5259  -11.9927   20.8287 C   0  0  0  0  0  0
  -23.7815  -10.6922   21.1019 C   0  0  0  0  0  0
  -24.2779   -9.6417   21.9378 C   0  0  0  0  0  0
  -23.6098   -8.3955   22.0681 C   0  0  0  0  0  0
  -22.4308   -8.1197   21.3374 C   0  0  0  0  0  0
  -21.9711   -9.1150   20.4503 C   0  0  0  0  0  0
  -22.6311  -10.3638   20.3472 C   0  0  0  0  0  0
  -21.7519   -6.0973   22.4907 C   0  0  0  0  0  0
  -21.5055   -6.5899   23.7858 C   0  0  0  0  0  0
  -21.4551   -5.7098   24.8879 C   0  0  0  0  0  0
  -21.6301   -4.3245   24.7002 C   0  0  0  0  0  0
  -21.8596   -3.8208   23.4081 C   0  0  0  0  0  0
  -21.9165   -4.7057   22.3087 C   0  0  0  0  0  0
  -23.6669  -14.8336   21.2170 C   0  0  0  0  0  0
  -22.1177   -4.2114   21.0685 F   0  0  0  0  0  0
  -21.5617   -3.4627   25.7523 F   0  0  0  0  0  0
  -29.7887  -12.9988   20.6226 N   0  0  0  0  0  0
  -26.3223  -12.8203   20.0277 N   0  0  0  0  0  0
  -25.7831  -11.6855   20.4958 N   0  0  0  0  0  0
  -23.9124  -15.7650   23.1001 N   0  0  0  0  0  0
  -25.7753  -15.0745   19.4171 N   0  0  0  0  0  0
  -30.8246  -14.9154   20.8327 O   0  0  0  0  0  0
  -21.7422   -6.9224   21.3794 O   0  0  0  0  0  0
  -22.7395  -14.9615   20.3752 O   0  0  0  0  0  0
  -24.6820  -31.7987   23.1696 C   0  0  0  0  0  0
  -25.9442  -32.4391   23.8133 C   0  0  1  0  0  0
  -26.6076  -26.4407   20.4076 C   0  0  0  0  0  0
  -25.6090  -33.8262   24.1978 N   0  0  0  0  0  0
  -23.4869  -30.4433   21.5188 C   0  0  2  0  0  0
  -24.8573  -28.8024   20.0703 C   0  0  0  0  0  0
  -22.7648  -29.4358   22.4603 C   0  0  0  0  0  0
  -18.0303  -28.1411   22.8428 C   0  0  0  0  0  0
  -24.1478  -36.7085   23.2649 C   0  0  0  0  0  0
  -26.0627  -30.4268   21.4874 C   0  0  0  0  0  0
  -26.0079  -28.9933   20.8374 C   0  0  0  0  0  0
  -26.9010  -27.8091   21.0045 C   0  0  0  0  0  0
  -25.6628  -26.5744   19.3965 C   0  0  0  0  0  0
  -24.7601  -27.6482   19.2927 C   0  0  0  0  0  0
  -23.7268  -29.8241   20.1133 C   0  0  0  0  0  0
  -25.4141  -36.2866   24.0275 C   0  0  1  0  0  0
  -20.5939  -28.3763   23.1094 C   0  0  2  0  0  0
  -20.6777  -26.9426   22.5374 C   0  0  0  0  0  0
  -19.5747  -26.6346   21.5192 C   0  0  0  0  0  0
  -18.1934  -26.7926   22.1590 C   0  0  0  0  0  0
  -19.1577  -28.8905   23.2758 C   0  0  0  0  0  0
  -18.9491  -30.1499   23.8807 C   0  0  0  0  0  0
  -17.6488  -30.6609   24.0549 C   0  0  0  0  0  0
  -25.9150  -34.9258   23.4954 C   0  0  0  0  0  0
  -16.5376  -29.9091   23.6369 C   0  0  0  0  0  0
  -16.7289  -28.6508   23.0384 C   0  0  0  0  0  0
  -26.4607  -31.6560   25.0878 C   0  0  0  0  0  0
  -25.3639  -31.3984   26.1492 C   0  0  0  0  0  0
  -27.0608  -30.2846   24.7096 C   0  0  0  0  0  0
  -27.6028  -32.4529   25.7659 C   0  0  0  0  0  0
  -27.5575  -37.1690   24.8458 C   0  0  0  0  0  0
  -21.4306  -29.3020   22.3368 N   0  0  0  0  0  0
  -26.4253  -37.3660   23.9438 N   0  0  0  0  0  0
  -24.7739  -30.9381   22.1026 N   0  0  0  0  0  0
  -23.4155  -28.7870   23.2866 O   0  0  0  0  0  0
  -26.9275  -24.9362   20.6756 O   0  0  0  0  0  0
  -26.5779  -34.8835   22.4564 O   0  0  0  0  0  0
  -23.5854  -32.1228   23.6617 O   0  0  0  0  0  0
  -21.9935  -14.7790   22.9223 C   0  0  0  0  0  0
  -25.6284  -16.2849   21.8240 C   0  0  0  0  0  0
  -22.2163  -16.6673   22.0750 C   0  0  0  0  0  0
  -25.6404  -14.4767   22.6723 C   0  0  0  0  0  0
  -23.7378  -13.6139   23.2737 C   0  0  0  0  0  0
  -24.0553  -17.4422   21.5933 C   0  0  0  0  0  0
  -23.6670  -11.8375   25.0377 C   0  0  0  0  0  0
  -25.3349  -22.1435   20.9745 C   0  0  0  0  0  0
  -25.8523  -23.6539   20.7764 C   0  0  0  0  0  0
  -25.4395  -20.4078   21.2867 C   0  0  0  0  0  0
  -21.5523  -10.8252   24.5041 C   0  0  0  0  0  0
  -21.9838  -11.8704   23.5137 C   0  0  0  0  0  0
  -22.4259  -11.1566   25.7062 C   0  0  0  0  0  0
  -20.9526  -17.4986   22.1062 C   0  0  0  0  0  0
  -22.6902   -9.8448   26.4789 C   0  0  0  0  0  0
  -21.6571  -12.1569   26.6065 C   0  0  0  0  0  0
  -27.2704  -14.0334   22.7635 C   0  0  0  0  0  0
  -23.3494  -12.3353   23.8215 N   0  0  0  0  0  0
  -24.3747  -19.1948   21.3108 N   0  0  0  0  0  0
  -28.6107  -14.6179   21.9602 N   0  0  0  0  0  0
  -24.7888  -11.8488   25.5563 O   0  0  0  0  0  0
  -26.5692  -20.0108   21.5819 O   0  0  0  0  0  0
  -31.4363  -13.0471   19.2572 H   0  0  0  0  0  0
  -30.8012  -11.4675   19.5585 H   0  0  0  0  0  0
  -29.9906  -12.0218   17.3202 H   0  0  0  0  0  0
  -29.6609  -13.6596   17.7773 H   0  0  0  0  0  0
  -27.9163  -11.2298   18.3428 H   0  0  0  0  0  0
  -27.4862  -12.7325   17.5525 H   0  0  0  0  0  0
  -27.8998  -13.9561   19.5604 H   0  0  0  0  0  0
  -28.7696  -11.2130   20.4270 H   0  0  0  0  0  0
  -28.2647  -12.0359   21.7215 H   0  0  0  0  0  0
  -25.1822   -9.7884   22.5191 H   0  0  0  0  0  0
  -23.9989   -7.6596   22.7468 H   0  0  0  0  0  0
  -21.1016   -8.9032   19.8404 H   0  0  0  0  0  0
  -22.2550  -11.1167   19.6787 H   0  0  0  0  0  0
  -21.3891   -7.6514   23.9346 H   0  0  0  0  0  0
  -21.3168   -6.1324   25.8729 H   0  0  0  0  0  0
  -21.9721   -2.7583   23.2443 H   0  0  0  0  0  0
  -24.7020  -15.5276   23.6859 H   0  0  0  0  0  0
  -23.2170  -16.4318   23.3864 H   0  0  0  0  0  0
  -25.1099  -15.8303   19.3390 H   0  0  0  0  0  0
  -26.6275  -15.2744   18.9045 H   0  0  0  0  0  0
  -26.7515  -32.4684   23.0788 H   0  0  0  0  0  0
  -25.0209  -33.9332   25.0116 H   0  0  0  0  0  0
  -22.8154  -31.2956   21.3742 H   0  0  0  0  0  0
  -23.3833  -35.9327   23.3224 H   0  0  0  0  0  0
  -24.3540  -36.8845   22.2089 H   0  0  0  0  0  0
  -23.7129  -37.6183   23.6786 H   0  0  0  0  0  0
  -26.3518  -31.1324   20.7080 H   0  0  0  0  0  0
  -26.8924  -30.4250   22.1784 H   0  0  0  0  0  0
  -27.6800  -27.8828   21.7521 H   0  0  0  0  0  0
  -25.4254  -25.7048   18.7963 H   0  0  0  0  0  0
  -23.9242  -27.5466   18.6173 H   0  0  0  0  0  0
  -23.9771  -30.6174   19.4103 H   0  0  0  0  0  0
  -22.8105  -29.3714   19.7389 H   0  0  0  0  0  0
  -25.1344  -36.1634   25.0767 H   0  0  0  0  0  0
  -21.0032  -28.3426   24.1211 H   0  0  0  0  0  0
  -20.5628  -26.2406   23.3658 H   0  0  0  0  0  0
  -21.6647  -26.7373   22.1212 H   0  0  0  0  0  0
  -19.6933  -25.6227   21.1309 H   0  0  0  0  0  0
  -19.6723  -27.3081   20.6666 H   0  0  0  0  0  0
  -17.4218  -26.6655   21.4007 H   0  0  0  0  0  0
  -18.0341  -26.0098   22.9003 H   0  0  0  0  0  0
  -19.7994  -30.7315   24.2146 H   0  0  0  0  0  0
  -17.5073  -31.6274   24.5151 H   0  0  0  0  0  0
  -15.5390  -30.2984   23.7753 H   0  0  0  0  0  0
  -15.8674  -28.0816   22.7174 H   0  0  0  0  0  0
  -24.5818  -30.7324   25.7841 H   0  0  0  0  0  0
  -24.8849  -32.3250   26.4662 H   0  0  0  0  0  0
  -25.7790  -30.9338   27.0438 H   0  0  0  0  0  0
  -26.3333  -29.6259   24.2354 H   0  0  0  0  0  0
  -27.4073  -29.7604   25.6012 H   0  0  0  0  0  0
  -27.9330  -30.3863   24.0644 H   0  0  0  0  0  0
  -27.2501  -33.3881   26.2001 H   0  0  0  0  0  0
  -28.3906  -32.7005   25.0550 H   0  0  0  0  0  0
  -28.0614  -31.8872   26.5770 H   0  0  0  0  0  0
  -28.2496  -38.0078   24.7639 H   0  0  0  0  0  0
  -28.1161  -36.2619   24.6120 H   0  0  0  0  0  0
  -27.2308  -37.1124   25.8853 H   0  0  0  0  0  0
  -20.9578  -29.8733   21.6535 H   0  0  0  0  0  0
  -26.0073  -38.2688   24.1542 H   0  0  0  0  0  0
  -20.9823  -14.5052   23.1671 H   0  0  0  0  0  0
  -26.5874  -16.7144   21.5869 H   0  0  0  0  0  0
  -24.2662  -22.2471   20.8575 H   0  0  0  0  0  0
  -24.9378  -24.1946   20.5962 H   0  0  0  0  0  0
  -21.7261   -9.8151   24.1458 H   0  0  0  0  0  0
  -20.4873  -10.9296   24.7136 H   0  0  0  0  0  0
  -21.2500  -12.6340   23.6737 H   0  0  0  0  0  0
  -21.8228  -11.5459   22.4954 H   0  0  0  0  0  0
  -20.1025  -16.8848   21.7953 H   0  0  0  0  0  0
  -21.0222  -18.3799   21.4765 H   0  0  0  0  0  0
  -20.7292  -17.7811   23.1347 H   0  0  0  0  0  0
  -23.2100   -9.9732   27.4316 H   0  0  0  0  0  0
  -23.2493   -9.1344   25.8763 H   0  0  0  0  0  0
  -21.7232   -9.3770   26.6660 H   0  0  0  0  0  0
  -21.5578  -13.1404   26.1472 H   0  0  0  0  0  0
  -22.1004  -12.2762   27.5944 H   0  0  0  0  0  0
  -20.6462  -11.7912   26.7980 H   0  0  0  0  0  0
  -27.2641  -12.9820   23.0296 H   0  0  0  0  0  0
  -27.5052  -14.4236   23.7529 H   0  0  0  0  0  0
  -23.4868  -19.6380   21.0956 H   0  0  0  0  0  0
  -28.7138  -15.5969   22.1992 H   0  0  0  0  0  0
  1 25  1  0  0  0
  1 30  2  0  0  0
  1 90  1  0  0  0
  2  3  1  0  0  0
  2 25  1  0  0  0
  2 93  1  0  0  0
  2 94  1  0  0  0
  3  4  1  0  0  0
  3 95  1  0  0  0
  3 96  1  0  0  0
  4  5  1  0  0  0
  4 97  1  0  0  0
  4 98  1  0  0  0
  5  6  1  0  0  0
  5 26  1  0  0  0
  5 99  1  0  0  0
  6 25  1  0  0  0
  6100  1  0  0  0
  6101  1  0  0  0
  7  8  2  0  0  0
  7 26  1  0  0  0
  7 29  1  0  0  0
  8  9  1  0  0  0
  8 22  1  0  0  0
  9 10  1  0  0  0
  9 27  2  0  0  0
 10 11  2  0  0  0
 10 15  1  0  0  0
 11 12  1  0  0  0
 11102  1  0  0  0
 12 13  2  0  0  0
 12103  1  0  0  0
 13 14  1  0  0  0
 13 31  1  0  0  0
 14 15  2  0  0  0
 14104  1  0  0  0
 15105  1  0  0  0
 16 17  2  0  0  0
 16 21  1  0  0  0
 16 31  1  0  0  0
 17 18  1  0  0  0
 17106  1  0  0  0
 18 19  2  0  0  0
 18107  1  0  0  0
 19 20  1  0  0  0
 19 24  1  0  0  0
 20 21  2  0  0  0
 20108  1  0  0  0
 21 23  1  0  0  0
 22 28  1  0  0  0
 22 32  2  0  0  0
 26 27  1  0  0  0
 28109  1  0  0  0
 28110  1  0  0  0
 29111  1  0  0  0
 29112  1  0  0  0
 33 34  1  0  0  0
 33 66  1  0  0  0
 33 70  2  0  0  0
 34 36  1  0  0  0
 34 59  1  0  0  0
 34113  1  0  0  0
 35 44  2  0  0  0
 35 45  1  0  0  0
 35 68  1  0  0  0
 36 56  1  0  0  0
 36114  1  0  0  0
 37 39  1  0  0  0
 37 47  1  0  0  0
 37 66  1  0  0  0
 37115  1  0  0  0
 38 43  2  0  0  0
 38 46  1  0  0  0
 38 47  1  0  0  0
 39 64  1  0  0  0
 39 67  2  0  0  0
 40 52  1  0  0  0
 40 53  2  0  0  0
 40 58  1  0  0  0
 41116  1  0  0  0
 41117  1  0  0  0
 41118  1  0  0  0
 41 48  1  0  0  0
 42 43  1  0  0  0
 42 66  1  0  0  0
 42119  1  0  0  0
 42120  1  0  0  0
 43 44  1  0  0  0
 44121  1  0  0  0
 45 46  2  0  0  0
 45122  1  0  0  0
 46123  1  0  0  0
 47124  1  0  0  0
 47125  1  0  0  0
 48 56  1  0  0  0
 48 65  1  0  0  0
 48126  1  0  0  0
 49 50  1  0  0  0
 49 53  1  0  0  0
 49 64  1  0  0  0
 49127  1  0  0  0
 50 51  1  0  0  0
 50128  1  0  0  0
 50129  1  0  0  0
 51 52  1  0  0  0
 51130  1  0  0  0
 51131  1  0  0  0
 52132  1  0  0  0
 52133  1  0  0  0
 53 54  1  0  0  0
 54 55  2  0  0  0
 54134  1  0  0  0
 55 57  1  0  0  0
 55135  1  0  0  0
 56 69  2  0  0  0
 57 58  2  0  0  0
 57136  1  0  0  0
 58137  1  0  0  0
 59 60  1  0  0  0
 59 61  1  0  0  0
 59 62  1  0  0  0
 60138  1  0  0  0
 60139  1  0  0  0
 60140  1  0  0  0
 61141  1  0  0  0
 61142  1  0  0  0
 61143  1  0  0  0
 62144  1  0  0  0
 62145  1  0  0  0
 62146  1  0  0  0
 63 65  1  0  0  0
 63147  1  0  0  0
 63148  1  0  0  0
 63149  1  0  0  0
 64150  1  0  0  0
 65151  1  0  0  0
 68 79  1  0  0  0
 71 73  2  0  0  0
 71 75  1  0  0  0
 71152  1  0  0  0
 72 74  1  0  0  0
 72 76  2  0  0  0
 72153  1  0  0  0
 73 76  1  0  0  0
 73 84  1  0  0  0
 74 75  2  0  0  0
 74 87  1  0  0  0
 75 88  1  0  0  0
 76 89  1  0  0  0
 77 83  1  0  0  0
 77 88  1  0  0  0
 77 91  2  0  0  0
 78 79  2  0  0  0
 78 80  1  0  0  0
 78154  1  0  0  0
 79155  1  0  0  0
 80 89  1  0  0  0
 80 92  2  0  0  0
 81 82  1  0  0  0
 81 83  1  0  0  0
 81156  1  0  0  0
 81157  1  0  0  0
 82 88  1  0  0  0
 82158  1  0  0  0
 82159  1  0  0  0
 83 85  1  0  0  0
 83 86  1  0  0  0
 84160  1  0  0  0
 84161  1  0  0  0
 84162  1  0  0  0
 85163  1  0  0  0
 85164  1  0  0  0
 85165  1  0  0  0
 86166  1  0  0  0
 86167  1  0  0  0
 86168  1  0  0  0
 87 90  1  0  0  0
 87169  1  0  0  0
 87170  1  0  0  0
 89171  1  0  0  0
 90172  1  0  0  0
M  ISO  4   1 100  68 101  79 101  90 100
M  END
> <chiral flag>
0

> <version>
0

> <s_m_source_file>
/data/baiqing/PycharmProjects/Reinvent-master-3.2/result/LINK_invent/BTK/process_docking_weight1_custom_product_contain_oxygen_bond_distance_aromatic_linkinvent_7_9_3/rearranged_h_0066.sdf

> <i_m_source_file_index>
53

> <r_mmod_Potential_Energy-OPLS-2005>
15204.712890625

> <r_mmod_Stretch_Energy-OPLS-2005>
7872.98779296875

> <r_mmod_Bend_Energy-OPLS-2005>
1134.88012695312

> <r_mmod_Torsional_Energy-OPLS-2005>
456.816680908203

> <r_mmod_Improper_Torsional_Energy-OPLS-2005>
29.822868347168

> <r_mmod_Van_der_Waal_Energy-OPLS-2005>
3143.69799804688

> <r_mmod_Electrostatic_Energy-OPLS-2005>
-405.029754638672

> <r_mmod_Solvation_Energy-OPLS-2005>
-243.351974487305

> <b_mmod_Minimization_Converged-OPLS-2005>
0

> <r_mmod_RMS_Derivative-OPLS-2005>
23.1661281585693

$$$$
53
                    3D
 Structure written by MMmdl.
159168  0  0  1  0            999 V2000
  -30.5871  -14.7540   20.4506 C   0  0  0  0  0  0
  -30.4418  -12.4507   19.4928 C   0  0  0  0  0  0
  -29.5237  -12.4900   18.2503 C   0  0  0  0  0  0
  -28.0450  -12.3306   18.6545 C   0  0  0  0  0  0
  -27.6489  -13.2297   19.8575 C   0  0  2  0  0  0
  -28.6882  -13.1503   20.9972 C   0  0  0  0  0  0
  -25.2551  -13.8202   20.5715 C   0  0  0  0  0  0
  -24.1824  -13.0456   20.9206 C   0  0  0  0  0  0
  -24.6400  -11.6927   20.8742 C   0  0  0  0  0  0
  -23.9071  -10.4306   21.0408 C   0  0  0  0  0  0
  -24.3621   -9.4214   21.9181 C   0  0  0  0  0  0
  -23.6288   -8.2251   22.0749 C   0  0  0  0  0  0
  -22.4272   -8.0292   21.3545 C   0  0  0  0  0  0
  -21.9917   -9.0270   20.4652 C   0  0  0  0  0  0
  -22.7244  -10.2150   20.3059 C   0  0  0  0  0  0
  -21.6859   -6.0739   22.5272 C   0  0  0  0  0  0
  -21.4017   -6.5641   23.8206 C   0  0  0  0  0  0
  -21.3653   -5.6789   24.9167 C   0  0  0  0  0  0
  -21.6042   -4.3049   24.7216 C   0  0  0  0  0  0
  -21.8823   -3.8145   23.4335 C   0  0  0  0  0  0
  -21.9193   -4.6966   22.3393 C   0  0  0  0  0  0
  -22.7846  -13.5242   21.1863 C   0  0  0  0  0  0
  -22.1665   -4.2156   21.0970 F   0  0  0  0  0  0
  -21.5618   -3.4529   25.7722 F   0  0  0  0  0  0
  -29.9938  -13.5095   20.4297 N   0  0  0  0  0  0
  -26.2976  -12.9399   20.3300 N   0  0  0  0  0  0
  -25.9332  -11.6545   20.5759 N   0  0  0  0  0  0
  -22.0484  -12.8232   22.0419 N   0  0  0  0  0  0
  -25.4288  -15.1922   20.4172 N   0  0  0  0  0  0
  -31.7552  -14.8800   20.0672 O   0  0  0  0  0  0
  -21.6638   -6.8887   21.4239 O   0  0  0  0  0  0
  -22.3534  -14.5545   20.6702 O   0  0  0  0  0  0
  -24.6308  -31.8527   23.1958 C   0  0  0  0  0  0
  -25.9134  -32.4734   23.8313 C   0  0  1  0  0  0
  -27.2263  -27.2535   20.1286 C   0  0  0  0  0  0
  -25.5928  -33.8537   24.2238 N   0  0  0  0  0  0
  -23.4285  -30.4726   21.5384 C   0  0  2  0  0  0
  -24.8768  -28.9142   20.1076 C   0  0  0  0  0  0
  -22.7501  -29.4580   22.4901 C   0  0  0  0  0  0
  -18.0290  -28.1388   22.8479 C   0  0  0  0  0  0
  -24.1488  -36.7274   23.2639 C   0  0  0  0  0  0
  -25.9727  -30.7631   21.3758 C   0  0  0  0  0  0
  -26.0450  -29.3841   20.7181 C   0  0  0  0  0  0
  -27.2180  -28.5643   20.7184 C   0  0  0  0  0  0
  -26.0311  -26.8448   19.4968 C   0  0  0  0  0  0
  -24.8750  -27.6541   19.4872 C   0  0  0  0  0  0
  -23.6468  -29.8019   20.1552 C   0  0  0  0  0  0
  -25.4115  -36.3054   24.0320 C   0  0  1  0  0  0
  -20.5892  -28.3699   23.1260 C   0  0  2  0  0  0
  -20.6770  -26.9414   22.5406 C   0  0  0  0  0  0
  -19.5746  -26.6378   21.5207 C   0  0  0  0  0  0
  -18.1928  -26.7928   22.1620 C   0  0  0  0  0  0
  -19.1543  -28.8862   23.2862 C   0  0  0  0  0  0
  -18.9469  -30.1458   23.8887 C   0  0  0  0  0  0
  -17.6469  -30.6587   24.0560 C   0  0  0  0  0  0
  -25.9057  -34.9423   23.5087 C   0  0  0  0  0  0
  -16.5358  -29.9085   23.6329 C   0  0  0  0  0  0
  -16.7278  -28.6501   23.0356 C   0  0  0  0  0  0
  -26.4507  -31.6563   25.0710 C   0  0  0  0  0  0
  -25.3735  -31.3739   26.1443 C   0  0  0  0  0  0
  -27.0355  -30.2971   24.6214 C   0  0  0  0  0  0
  -27.6051  -32.4319   25.7484 C   0  0  0  0  0  0
  -27.5576  -37.1792   24.8460 C   0  0  0  0  0  0
  -21.4206  -29.3040   22.3648 N   0  0  0  0  0  0
  -26.4287  -37.3755   23.9408 N   0  0  0  0  0  0
  -24.6965  -31.0483   22.0931 N   0  0  0  0  0  0
  -23.4195  -28.8128   23.3012 O   0  0  0  0  0  0
  -28.3477  -26.3951   20.2245 O   0  0  0  0  0  0
  -26.5636  -34.8903   22.4660 O   0  0  0  0  0  0
  -23.5459  -32.1359   23.7247 O   0  0  0  0  0  0
  -28.8600  -19.4438   18.5163 C   0  0  0  0  0  0
  -29.5127  -18.4788   20.6460 C   0  0  0  0  0  0
  -28.9298  -18.1614   17.9229 C   0  0  0  0  0  0
  -29.1471  -19.6747   19.8808 C   0  0  0  0  0  0
  -29.6151  -17.1393   20.0638 C   0  0  0  0  0  0
  -29.3183  -17.0334   18.6848 C   0  0  0  0  0  0
  -29.3588  -23.2006   21.4352 C   0  0  0  0  0  0
  -29.6049  -21.6504   21.4419 C   0  0  0  0  0  0
  -28.6054  -18.0095   16.4770 C   0  0  0  0  0  0
  -28.4123  -22.2327   19.5481 C   0  0  0  0  0  0
  -28.3201  -23.5878   20.3855 C   0  0  2  0  0  0
  -27.5132  -18.9162   15.9176 C   0  0  0  0  0  0
  -28.4636  -25.0210   19.6150 C   0  0  0  0  0  0
  -29.0283  -21.1002   20.3485 N   0  0  0  0  0  0
  -29.8260  -15.8632   20.8035 N   0  0  0  0  0  0
  -29.9088  -24.0092   22.1939 O   0  0  0  0  0  0
  -30.2370  -21.0553   22.3254 O   0  0  0  0  0  0
  -29.1434  -17.1945   15.7221 O   0  0  0  0  0  0
  -29.3229  -15.8096   18.1030 F   0  0  0  0  0  0
  -31.4824  -12.5810   19.1918 H   0  0  0  0  0  0
  -30.3946  -11.4742   19.9773 H   0  0  0  0  0  0
  -29.8070  -11.6996   17.5542 H   0  0  0  0  0  0
  -29.6648  -13.4273   17.7131 H   0  0  0  0  0  0
  -27.8923  -11.2823   18.9115 H   0  0  0  0  0  0
  -27.3960  -12.5321   17.8019 H   0  0  0  0  0  0
  -27.6489  -14.2547   19.4848 H   0  0  0  0  0  0
  -28.7214  -12.1458   21.4225 H   0  0  0  0  0  0
  -28.4177  -13.8188   21.8154 H   0  0  0  0  0  0
  -25.2780   -9.5668   22.4738 H   0  0  0  0  0  0
  -23.9997   -7.4633   22.7455 H   0  0  0  0  0  0
  -21.0851   -8.8790   19.8953 H   0  0  0  0  0  0
  -22.3714  -10.9680   19.6153 H   0  0  0  0  0  0
  -21.2020   -7.6151   23.9721 H   0  0  0  0  0  0
  -21.1471   -6.0513   25.9069 H   0  0  0  0  0  0
  -22.0611   -2.7608   23.2837 H   0  0  0  0  0  0
  -22.4107  -11.9894   22.4794 H   0  0  0  0  0  0
  -21.1101  -13.1254   22.2627 H   0  0  0  0  0  0
  -24.6669  -15.8516   20.5299 H   0  0  0  0  0  0
  -26.2847  -15.6263   20.0961 H   0  0  0  0  0  0
  -26.7197  -32.5387   23.1049 H   0  0  0  0  0  0
  -25.0067  -33.9672   25.0379 H   0  0  0  0  0  0
  -22.7255  -31.2949   21.3905 H   0  0  0  0  0  0
  -23.3742  -35.9614   23.3293 H   0  0  0  0  0  0
  -24.3569  -36.8908   22.2053 H   0  0  0  0  0  0
  -23.7250  -37.6472   23.6681 H   0  0  0  0  0  0
  -26.1126  -31.5239   20.6065 H   0  0  0  0  0  0
  -26.8486  -30.8123   22.0109 H   0  0  0  0  0  0
  -28.1132  -28.9185   21.2107 H   0  0  0  0  0  0
  -25.9507  -25.8731   19.0346 H   0  0  0  0  0  0
  -23.9758  -27.2873   19.0112 H   0  0  0  0  0  0
  -23.7716  -30.5763   19.3977 H   0  0  0  0  0  0
  -22.7651  -29.2346   19.8514 H   0  0  0  0  0  0
  -25.1294  -36.1892   25.0811 H   0  0  0  0  0  0
  -20.9987  -28.3288   24.1378 H   0  0  0  0  0  0
  -20.5649  -26.2318   23.3616 H   0  0  0  0  0  0
  -21.6642  -26.7420   22.1217 H   0  0  0  0  0  0
  -19.6904  -25.6287   21.1238 H   0  0  0  0  0  0
  -19.6677  -27.3183   20.6732 H   0  0  0  0  0  0
  -17.4195  -26.6673   21.4026 H   0  0  0  0  0  0
  -18.0325  -26.0072   22.9017 H   0  0  0  0  0  0
  -19.7949  -30.7271   24.2255 H   0  0  0  0  0  0
  -17.5025  -31.6265   24.5167 H   0  0  0  0  0  0
  -15.5360  -30.2989   23.7655 H   0  0  0  0  0  0
  -15.8676  -28.0811   22.7087 H   0  0  0  0  0  0
  -24.5888  -30.7106   25.7783 H   0  0  0  0  0  0
  -24.8964  -32.2928   26.4863 H   0  0  0  0  0  0
  -25.8051  -30.8916   27.0225 H   0  0  0  0  0  0
  -26.2946  -29.6704   24.1235 H   0  0  0  0  0  0
  -27.4019  -29.7246   25.4746 H   0  0  0  0  0  0
  -27.8829  -30.4225   23.9469 H   0  0  0  0  0  0
  -27.2640  -33.3619   26.2046 H   0  0  0  0  0  0
  -28.3869  -32.6880   25.0321 H   0  0  0  0  0  0
  -28.0713  -31.8461   26.5419 H   0  0  0  0  0  0
  -28.2591  -38.0090   24.7498 H   0  0  0  0  0  0
  -28.1073  -36.2620   24.6297 H   0  0  0  0  0  0
  -27.2289  -37.1442   25.8861 H   0  0  0  0  0  0
  -20.9402  -29.8776   21.6854 H   0  0  0  0  0  0
  -26.0153  -38.2821   24.1420 H   0  0  0  0  0  0
  -28.5844  -20.2760   17.8858 H   0  0  0  0  0  0
  -29.7052  -18.5809   21.7039 H   0  0  0  0  0  0
  -29.0222  -22.4025   18.6597 H   0  0  0  0  0  0
  -27.4197  -21.9411   19.2045 H   0  0  0  0  0  0
  -27.3613  -23.5898   20.9039 H   0  0  0  0  0  0
  -26.7295  -19.0718   16.6584 H   0  0  0  0  0  0
  -27.0609  -18.4654   15.0351 H   0  0  0  0  0  0
  -27.9286  -19.8833   15.6384 H   0  0  0  0  0  0
  -27.8452  -24.9782   18.7205 H   0  0  0  0  0  0
  -29.4718  -25.0196   19.1998 H   0  0  0  0  0  0
  -29.0313  -15.6109   21.3700 H   0  0  0  0  0  0
  1 25  1  0  0  0
  1 30  2  0  0  0
  1 85  1  0  0  0
  2  3  1  0  0  0
  2 25  1  0  0  0
  2 90  1  0  0  0
  2 91  1  0  0  0
  3  4  1  0  0  0
  3 92  1  0  0  0
  3 93  1  0  0  0
  4  5  1  0  0  0
  4 94  1  0  0  0
  4 95  1  0  0  0
  5  6  1  0  0  0
  5 26  1  0  0  0
  5 96  1  0  0  0
  6 25  1  0  0  0
  6 97  1  0  0  0
  6 98  1  0  0  0
  7  8  2  0  0  0
  7 26  1  0  0  0
  7 29  1  0  0  0
  8  9  1  0  0  0
  8 22  1  0  0  0
  9 10  1  0  0  0
  9 27  2  0  0  0
 10 11  2  0  0  0
 10 15  1  0  0  0
 11 12  1  0  0  0
 11 99  1  0  0  0
 12 13  2  0  0  0
 12100  1  0  0  0
 13 14  1  0  0  0
 13 31  1  0  0  0
 14 15  2  0  0  0
 14101  1  0  0  0
 15102  1  0  0  0
 16 17  2  0  0  0
 16 21  1  0  0  0
 16 31  1  0  0  0
 17 18  1  0  0  0
 17103  1  0  0  0
 18 19  2  0  0  0
 18104  1  0  0  0
 19 20  1  0  0  0
 19 24  1  0  0  0
 20 21  2  0  0  0
 20105  1  0  0  0
 21 23  1  0  0  0
 22 28  1  0  0  0
 22 32  2  0  0  0
 26 27  1  0  0  0
 28106  1  0  0  0
 28107  1  0  0  0
 29108  1  0  0  0
 29109  1  0  0  0
 33 34  1  0  0  0
 33 66  1  0  0  0
 33 70  2  0  0  0
 34 36  1  0  0  0
 34 59  1  0  0  0
 34110  1  0  0  0
 35 44  2  0  0  0
 35 45  1  0  0  0
 35 68  1  0  0  0
 36 56  1  0  0  0
 36111  1  0  0  0
 37 39  1  0  0  0
 37 47  1  0  0  0
 37 66  1  0  0  0
 37112  1  0  0  0
 38 43  2  0  0  0
 38 46  1  0  0  0
 38 47  1  0  0  0
 39 64  1  0  0  0
 39 67  2  0  0  0
 40 52  1  0  0  0
 40 53  2  0  0  0
 40 58  1  0  0  0
 41113  1  0  0  0
 41114  1  0  0  0
 41115  1  0  0  0
 41 48  1  0  0  0
 42 43  1  0  0  0
 42 66  1  0  0  0
 42116  1  0  0  0
 42117  1  0  0  0
 43 44  1  0  0  0
 44118  1  0  0  0
 45 46  2  0  0  0
 45119  1  0  0  0
 46120  1  0  0  0
 47121  1  0  0  0
 47122  1  0  0  0
 48 56  1  0  0  0
 48 65  1  0  0  0
 48123  1  0  0  0
 49 50  1  0  0  0
 49 53  1  0  0  0
 49 64  1  0  0  0
 49124  1  0  0  0
 50 51  1  0  0  0
 50125  1  0  0  0
 50126  1  0  0  0
 51 52  1  0  0  0
 51127  1  0  0  0
 51128  1  0  0  0
 52129  1  0  0  0
 52130  1  0  0  0
 53 54  1  0  0  0
 54 55  2  0  0  0
 54131  1  0  0  0
 55 57  1  0  0  0
 55132  1  0  0  0
 56 69  2  0  0  0
 57 58  2  0  0  0
 57133  1  0  0  0
 58134  1  0  0  0
 59 60  1  0  0  0
 59 61  1  0  0  0
 59 62  1  0  0  0
 60135  1  0  0  0
 60136  1  0  0  0
 60137  1  0  0  0
 61138  1  0  0  0
 61139  1  0  0  0
 61140  1  0  0  0
 62141  1  0  0  0
 62142  1  0  0  0
 62143  1  0  0  0
 63 65  1  0  0  0
 63144  1  0  0  0
 63145  1  0  0  0
 63146  1  0  0  0
 64147  1  0  0  0
 65148  1  0  0  0
 68 83  1  0  0  0
 71 73  2  0  0  0
 71 74  1  0  0  0
 71149  1  0  0  0
 72 74  2  0  0  0
 72 75  1  0  0  0
 72150  1  0  0  0
 73 76  1  0  0  0
 73 79  1  0  0  0
 74 84  1  0  0  0
 75 76  2  0  0  0
 75 85  1  0  0  0
 76 89  1  0  0  0
 77 78  1  0  0  0
 77 81  1  0  0  0
 77 86  2  0  0  0
 78 84  1  0  0  0
 78 87  2  0  0  0
 79 82  1  0  0  0
 79 88  2  0  0  0
 80 81  1  0  0  0
 80 84  1  0  0  0
 80151  1  0  0  0
 80152  1  0  0  0
 81 83  1  0  0  0
 81153  1  0  0  0
 82154  1  0  0  0
 82155  1  0  0  0
 82156  1  0  0  0
 83157  1  0  0  0
 83158  1  0  0  0
 85159  1  0  0  0
M  ISO  4   1 100  68 101  83 101  85 100
M  END
> <chiral flag>
0

> <version>
0

> <s_m_source_file>
/data/baiqing/PycharmProjects/Reinvent-master-3.2/result/LINK_invent/BTK/process_docking_weight1_custom_product_contain_oxygen_bond_distance_aromatic_linkinvent_7_9_3/rearranged_h_0066.sdf

> <i_m_source_file_index>
54

> <r_mmod_Potential_Energy-OPLS-2005>
250.421646118164

> <r_mmod_Stretch_Energy-OPLS-2005>
135.418869018555

> <r_mmod_Bend_Energy-OPLS-2005>
216.883041381836

> <r_mmod_Torsional_Energy-OPLS-2005>
289.133850097656

> <r_mmod_Improper_Torsional_Energy-OPLS-2005>
6.04978656768799

> <r_mmod_Van_der_Waal_Energy-OPLS-2005>
135.455108642578

> <r_mmod_Electrostatic_Energy-OPLS-2005>
-337.606964111328

> <r_mmod_Solvation_Energy-OPLS-2005>
-282.736785888672

> <b_mmod_Minimization_Converged-OPLS-2005>
0

> <r_mmod_RMS_Derivative-OPLS-2005>
1.49000191688538

$$$$
54
                    3D
 Structure written by MMmdl.
168177  0  0  1  0            999 V2000
  -30.6798  -14.4621   20.5363 C   0  0  0  0  0  0
  -30.4239  -12.2857   19.4259 C   0  0  0  0  0  0
  -29.4929  -12.4850   18.2108 C   0  0  0  0  0  0
  -28.0132  -12.3592   18.6267 C   0  0  0  0  0  0
  -27.6634  -13.1941   19.8898 C   0  0  2  0  0  0
  -28.7067  -12.9638   21.0061 C   0  0  0  0  0  0
  -25.2605  -13.8151   20.5695 C   0  0  0  0  0  0
  -24.1834  -13.0463   20.9164 C   0  0  0  0  0  0
  -24.6357  -11.6916   20.8733 C   0  0  0  0  0  0
  -23.9011  -10.4316   21.0388 C   0  0  0  0  0  0
  -24.3577   -9.4240   21.9165 C   0  0  0  0  0  0
  -23.6274   -8.2263   22.0734 C   0  0  0  0  0  0
  -22.4254   -8.0303   21.3528 C   0  0  0  0  0  0
  -21.9863   -9.0266   20.4623 C   0  0  0  0  0  0
  -22.7178  -10.2152   20.3039 C   0  0  0  0  0  0
  -21.6865   -6.0745   22.5271 C   0  0  0  0  0  0
  -21.4014   -6.5642   23.8204 C   0  0  0  0  0  0
  -21.3636   -5.6789   24.9162 C   0  0  0  0  0  0
  -21.6039   -4.3055   24.7207 C   0  0  0  0  0  0
  -21.8824   -3.8151   23.4326 C   0  0  0  0  0  0
  -21.9195   -4.6971   22.3387 C   0  0  0  0  0  0
  -22.7863  -13.5281   21.1830 C   0  0  0  0  0  0
  -22.1662   -4.2164   21.0960 F   0  0  0  0  0  0
  -21.5619   -3.4526   25.7709 F   0  0  0  0  0  0
  -30.0365  -13.2671   20.4507 N   0  0  0  0  0  0
  -26.3030  -12.9284   20.3456 N   0  0  0  0  0  0
  -25.9290  -11.6464   20.5831 N   0  0  0  0  0  0
  -22.0497  -12.8286   22.0382 N   0  0  0  0  0  0
  -25.4390  -15.1867   20.4098 N   0  0  0  0  0  0
  -31.8181  -14.6500   20.0961 O   0  0  0  0  0  0
  -21.6641   -6.8890   21.4233 O   0  0  0  0  0  0
  -22.3567  -14.5604   20.6693 O   0  0  0  0  0  0
  -24.6128  -31.8688   23.2123 C   0  0  0  0  0  0
  -25.9030  -32.4826   23.8408 C   0  0  1  0  0  0
  -27.2403  -27.4523   20.0873 C   0  0  0  0  0  0
  -25.5892  -33.8621   24.2340 N   0  0  0  0  0  0
  -23.4025  -30.4908   21.5522 C   0  0  2  0  0  0
  -24.8516  -28.9563   20.1193 C   0  0  0  0  0  0
  -22.7404  -29.4655   22.5001 C   0  0  0  0  0  0
  -18.0263  -28.1385   22.8492 C   0  0  0  0  0  0
  -24.1484  -36.7321   23.2642 C   0  0  0  0  0  0
  -25.9297  -30.8336   21.3696 C   0  0  0  0  0  0
  -26.0091  -29.4672   20.7222 C   0  0  0  0  0  0
  -27.2081  -28.7184   20.7134 C   0  0  0  0  0  0
  -26.0718  -26.9508   19.4811 C   0  0  0  0  0  0
  -24.8752  -27.6933   19.5004 C   0  0  0  0  0  0
  -23.6122  -29.8211   20.1670 C   0  0  0  0  0  0
  -25.4108  -36.3115   24.0339 C   0  0  1  0  0  0
  -20.5853  -28.3663   23.1327 C   0  0  2  0  0  0
  -20.6755  -26.9404   22.5415 C   0  0  0  0  0  0
  -19.5741  -26.6384   21.5212 C   0  0  0  0  0  0
  -18.1917  -26.7933   22.1616 C   0  0  0  0  0  0
  -19.1512  -28.8843   23.2901 C   0  0  0  0  0  0
  -18.9440  -30.1453   23.8901 C   0  0  0  0  0  0
  -17.6443  -30.6587   24.0571 C   0  0  0  0  0  0
  -25.9037  -34.9477   23.5138 C   0  0  0  0  0  0
  -16.5338  -29.9086   23.6334 C   0  0  0  0  0  0
  -16.7253  -28.6512   23.0344 C   0  0  0  0  0  0
  -26.4465  -31.6594   25.0725 C   0  0  0  0  0  0
  -25.3730  -31.3690   26.1468 C   0  0  0  0  0  0
  -27.0311  -30.3036   24.6112 C   0  0  0  0  0  0
  -27.6034  -32.4310   25.7498 C   0  0  0  0  0  0
  -27.5586  -37.1816   24.8461 C   0  0  0  0  0  0
  -21.4130  -29.3030   22.3737 N   0  0  0  0  0  0
  -26.4297  -37.3797   23.9404 N   0  0  0  0  0  0
  -24.6664  -31.0785   22.1034 N   0  0  0  0  0  0
  -23.4175  -28.8201   23.3045 O   0  0  0  0  0  0
  -28.3863  -26.6996   20.0082 O   0  0  0  0  0  0
  -26.5604  -34.8931   22.4698 O   0  0  0  0  0  0
  -23.5321  -32.1440   23.7511 O   0  0  0  0  0  0
  -29.8741  -19.2752   19.0717 C   0  0  0  0  0  0
  -30.3486  -17.9156   21.0475 C   0  0  0  0  0  0
  -29.4291  -18.1246   18.3906 C   0  0  0  0  0  0
  -30.3602  -19.1793   20.3950 C   0  0  0  0  0  0
  -29.9171  -16.7552   20.3653 C   0  0  0  0  0  0
  -29.4460  -16.8732   19.0363 C   0  0  0  0  0  0
  -32.1877  -20.3219   21.4852 C   0  0  0  0  0  0
  -29.4989  -24.7400   20.9863 C   0  0  0  0  0  0
  -32.7427  -21.5178   22.2705 C   0  0  0  0  0  0
  -32.0462  -22.8437   21.9562 C   0  0  0  0  0  0
  -30.1312  -21.6131   20.9394 C   0  0  0  0  0  0
  -30.5299  -22.6497   22.0243 C   0  0  2  0  0  0
  -28.9571  -18.2215   16.9527 C   0  0  0  0  0  0
  -29.6761  -24.4740   23.4290 C   0  0  0  0  0  0
  -28.8106  -26.1079   21.2384 C   0  0  0  0  0  0
  -30.8998  -20.3447   21.0331 N   0  0  0  0  0  0
  -29.9387  -15.4814   21.0041 N   0  0  0  0  0  0
  -29.8350  -23.9647   22.0564 N   0  0  0  0  0  0
  -32.9465  -19.3602   21.3205 O   0  0  0  0  0  0
  -29.7229  -24.3974   19.8202 O   0  0  0  0  0  0
  -29.0120  -15.7820   18.3642 F   0  0  0  0  0  0
  -31.4677  -12.3881   19.1234 H   0  0  0  0  0  0
  -30.3253  -11.2743   19.8223 H   0  0  0  0  0  0
  -29.7239  -11.7532   17.4352 H   0  0  0  0  0  0
  -29.6693  -13.4638   17.7647 H   0  0  0  0  0  0
  -27.8161  -11.3041   18.8197 H   0  0  0  0  0  0
  -27.3651  -12.6408   17.7967 H   0  0  0  0  0  0
  -27.7064  -14.2427   19.6070 H   0  0  0  0  0  0
  -28.6816  -11.9238   21.3364 H   0  0  0  0  0  0
  -28.4780  -13.5552   21.8941 H   0  0  0  0  0  0
  -25.2715   -9.5752   22.4733 H   0  0  0  0  0  0
  -24.0007   -7.4653   22.7439 H   0  0  0  0  0  0
  -21.0793   -8.8768   19.8916 H   0  0  0  0  0  0
  -22.3616  -10.9695   19.6154 H   0  0  0  0  0  0
  -21.2017   -7.6155   23.9714 H   0  0  0  0  0  0
  -21.1437   -6.0508   25.9072 H   0  0  0  0  0  0
  -22.0619   -2.7613   23.2812 H   0  0  0  0  0  0
  -22.4109  -11.9942   22.4772 H   0  0  0  0  0  0
  -21.1111  -13.1319   22.2577 H   0  0  0  0  0  0
  -24.6792  -15.8521   20.4988 H   0  0  0  0  0  0
  -26.2992  -15.6125   20.0894 H   0  0  0  0  0  0
  -26.7102  -32.5556   23.1176 H   0  0  0  0  0  0
  -25.0027  -33.9782   25.0478 H   0  0  0  0  0  0
  -22.6911  -31.3072   21.4115 H   0  0  0  0  0  0
  -23.3743  -35.9657   23.3311 H   0  0  0  0  0  0
  -24.3573  -36.8934   22.2051 H   0  0  0  0  0  0
  -23.7242  -37.6531   23.6656 H   0  0  0  0  0  0
  -26.0416  -31.5976   20.5993 H   0  0  0  0  0  0
  -26.8179  -30.8880   21.9870 H   0  0  0  0  0  0
  -28.1055  -29.1134   21.1699 H   0  0  0  0  0  0
  -26.0917  -25.9856   18.9947 H   0  0  0  0  0  0
  -23.9873  -27.2950   19.0287 H   0  0  0  0  0  0
  -23.7184  -30.5956   19.4066 H   0  0  0  0  0  0
  -22.7372  -29.2381   19.8721 H   0  0  0  0  0  0
  -25.1284  -36.1990   25.0832 H   0  0  0  0  0  0
  -20.9935  -28.3219   24.1452 H   0  0  0  0  0  0
  -20.5673  -26.2264   23.3594 H   0  0  0  0  0  0
  -21.6629  -26.7448   22.1213 H   0  0  0  0  0  0
  -19.6907  -25.6298   21.1232 H   0  0  0  0  0  0
  -19.6691  -27.3198   20.6755 H   0  0  0  0  0  0
  -17.4194  -26.6694   21.4007 H   0  0  0  0  0  0
  -18.0297  -26.0064   22.8998 H   0  0  0  0  0  0
  -19.7912  -30.7270   24.2268 H   0  0  0  0  0  0
  -17.4997  -31.6272   24.5165 H   0  0  0  0  0  0
  -15.5341  -30.2997   23.7648 H   0  0  0  0  0  0
  -15.8654  -28.0842   22.7042 H   0  0  0  0  0  0
  -24.5880  -30.7074   25.7787 H   0  0  0  0  0  0
  -24.8950  -32.2842   26.4962 H   0  0  0  0  0  0
  -25.8071  -30.8803   27.0197 H   0  0  0  0  0  0
  -26.2868  -29.6791   24.1149 H   0  0  0  0  0  0
  -27.4054  -29.7275   25.4588 H   0  0  0  0  0  0
  -27.8714  -30.4355   23.9292 H   0  0  0  0  0  0
  -27.2638  -33.3574   26.2142 H   0  0  0  0  0  0
  -28.3814  -32.6921   25.0315 H   0  0  0  0  0  0
  -28.0737  -31.8393   26.5365 H   0  0  0  0  0  0
  -28.2594  -38.0122   24.7521 H   0  0  0  0  0  0
  -28.1088  -36.2649   24.6272 H   0  0  0  0  0  0
  -27.2301  -37.1455   25.8865 H   0  0  0  0  0  0
  -20.9291  -29.8758   21.6963 H   0  0  0  0  0  0
  -26.0189  -38.2877   24.1412 H   0  0  0  0  0  0
  -29.8780  -20.2252   18.5559 H   0  0  0  0  0  0
  -30.7083  -17.8272   22.0629 H   0  0  0  0  0  0
  -33.8135  -21.6045   22.0886 H   0  0  0  0  0  0
  -32.6264  -21.2885   23.3300 H   0  0  0  0  0  0
  -32.3441  -23.2021   20.9692 H   0  0  0  0  0  0
  -32.3754  -23.5986   22.6715 H   0  0  0  0  0  0
  -30.3097  -22.0117   19.9420 H   0  0  0  0  0  0
  -29.0629  -21.3973   21.0061 H   0  0  0  0  0  0
  -30.2940  -22.1541   22.9679 H   0  0  0  0  0  0
  -29.0944  -19.2241   16.5464 H   0  0  0  0  0  0
  -27.9001  -17.9638   16.8809 H   0  0  0  0  0  0
  -29.5187  -17.5276   16.3265 H   0  0  0  0  0  0
  -28.6414  -24.3735   23.7583 H   0  0  0  0  0  0
  -29.9714  -25.5189   23.5254 H   0  0  0  0  0  0
  -30.3004  -23.9420   24.1488 H   0  0  0  0  0  0
  -29.5145  -26.7888   21.7172 H   0  0  0  0  0  0
  -27.9648  -25.9656   21.9139 H   0  0  0  0  0  0
  -29.0689  -15.1992   21.4283 H   0  0  0  0  0  0
  1 25  1  0  0  0
  1 30  2  0  0  0
  1 87  1  0  0  0
  2  3  1  0  0  0
  2 25  1  0  0  0
  2 92  1  0  0  0
  2 93  1  0  0  0
  3  4  1  0  0  0
  3 94  1  0  0  0
  3 95  1  0  0  0
  4  5  1  0  0  0
  4 96  1  0  0  0
  4 97  1  0  0  0
  5  6  1  0  0  0
  5 26  1  0  0  0
  5 98  1  0  0  0
  6 25  1  0  0  0
  6 99  1  0  0  0
  6100  1  0  0  0
  7  8  2  0  0  0
  7 26  1  0  0  0
  7 29  1  0  0  0
  8  9  1  0  0  0
  8 22  1  0  0  0
  9 10  1  0  0  0
  9 27  2  0  0  0
 10 11  2  0  0  0
 10 15  1  0  0  0
 11 12  1  0  0  0
 11101  1  0  0  0
 12 13  2  0  0  0
 12102  1  0  0  0
 13 14  1  0  0  0
 13 31  1  0  0  0
 14 15  2  0  0  0
 14103  1  0  0  0
 15104  1  0  0  0
 16 17  2  0  0  0
 16 21  1  0  0  0
 16 31  1  0  0  0
 17 18  1  0  0  0
 17105  1  0  0  0
 18 19  2  0  0  0
 18106  1  0  0  0
 19 20  1  0  0  0
 19 24  1  0  0  0
 20 21  2  0  0  0
 20107  1  0  0  0
 21 23  1  0  0  0
 22 28  1  0  0  0
 22 32  2  0  0  0
 26 27  1  0  0  0
 28108  1  0  0  0
 28109  1  0  0  0
 29110  1  0  0  0
 29111  1  0  0  0
 33 34  1  0  0  0
 33 66  1  0  0  0
 33 70  2  0  0  0
 34 36  1  0  0  0
 34 59  1  0  0  0
 34112  1  0  0  0
 35 44  2  0  0  0
 35 45  1  0  0  0
 35 68  1  0  0  0
 36 56  1  0  0  0
 36113  1  0  0  0
 37 39  1  0  0  0
 37 47  1  0  0  0
 37 66  1  0  0  0
 37114  1  0  0  0
 38 43  2  0  0  0
 38 46  1  0  0  0
 38 47  1  0  0  0
 39 64  1  0  0  0
 39 67  2  0  0  0
 40 52  1  0  0  0
 40 53  2  0  0  0
 40 58  1  0  0  0
 41115  1  0  0  0
 41116  1  0  0  0
 41117  1  0  0  0
 41 48  1  0  0  0
 42 43  1  0  0  0
 42 66  1  0  0  0
 42118  1  0  0  0
 42119  1  0  0  0
 43 44  1  0  0  0
 44120  1  0  0  0
 45 46  2  0  0  0
 45121  1  0  0  0
 46122  1  0  0  0
 47123  1  0  0  0
 47124  1  0  0  0
 48 56  1  0  0  0
 48 65  1  0  0  0
 48125  1  0  0  0
 49 50  1  0  0  0
 49 53  1  0  0  0
 49 64  1  0  0  0
 49126  1  0  0  0
 50 51  1  0  0  0
 50127  1  0  0  0
 50128  1  0  0  0
 51 52  1  0  0  0
 51129  1  0  0  0
 51130  1  0  0  0
 52131  1  0  0  0
 52132  1  0  0  0
 53 54  1  0  0  0
 54 55  2  0  0  0
 54133  1  0  0  0
 55 57  1  0  0  0
 55134  1  0  0  0
 56 69  2  0  0  0
 57 58  2  0  0  0
 57135  1  0  0  0
 58136  1  0  0  0
 59 60  1  0  0  0
 59 61  1  0  0  0
 59 62  1  0  0  0
 60137  1  0  0  0
 60138  1  0  0  0
 60139  1  0  0  0
 61140  1  0  0  0
 61141  1  0  0  0
 61142  1  0  0  0
 62143  1  0  0  0
 62144  1  0  0  0
 62145  1  0  0  0
 63 65  1  0  0  0
 63146  1  0  0  0
 63147  1  0  0  0
 63148  1  0  0  0
 64149  1  0  0  0
 65150  1  0  0  0
 68 85  1  0  0  0
 71 73  2  0  0  0
 71 74  1  0  0  0
 71151  1  0  0  0
 72 74  2  0  0  0
 72 75  1  0  0  0
 72152  1  0  0  0
 73 76  1  0  0  0
 73 83  1  0  0  0
 74 86  1  0  0  0
 75 76  2  0  0  0
 75 87  1  0  0  0
 76 91  1  0  0  0
 77 79  1  0  0  0
 77 86  1  0  0  0
 77 89  2  0  0  0
 78 85  1  0  0  0
 78 88  1  0  0  0
 78 90  2  0  0  0
 79 80  1  0  0  0
 79153  1  0  0  0
 79154  1  0  0  0
 80 82  1  0  0  0
 80155  1  0  0  0
 80156  1  0  0  0
 81 82  1  0  0  0
 81 86  1  0  0  0
 81157  1  0  0  0
 81158  1  0  0  0
 82 88  1  0  0  0
 82159  1  0  0  0
 83160  1  0  0  0
 83161  1  0  0  0
 83162  1  0  0  0
 84 88  1  0  0  0
 84163  1  0  0  0
 84164  1  0  0  0
 84165  1  0  0  0
 85166  1  0  0  0
 85167  1  0  0  0
 87168  1  0  0  0
M  ISO  4   1 100  68 101  85 101  87 100
M  END
> <chiral flag>
0

> <version>
0

> <s_m_source_file>
/data/baiqing/PycharmProjects/Reinvent-master-3.2/result/LINK_invent/BTK/process_docking_weight1_custom_product_contain_oxygen_bond_distance_aromatic_linkinvent_7_9_3/rearranged_h_0066.sdf

> <i_m_source_file_index>
55

> <r_mmod_Potential_Energy-OPLS-2005>
94.6552505493164

> <r_mmod_Stretch_Energy-OPLS-2005>
44.5944595336914

> <r_mmod_Bend_Energy-OPLS-2005>
105.899909973145

> <r_mmod_Torsional_Energy-OPLS-2005>
348.916778564453

> <r_mmod_Improper_Torsional_Energy-OPLS-2005>
6.78794288635254

> <r_mmod_Van_der_Waal_Energy-OPLS-2005>
174.946716308594

> <r_mmod_Electrostatic_Energy-OPLS-2005>
-345.482055664062

> <r_mmod_Solvation_Energy-OPLS-2005>
-252.489486694336

> <b_mmod_Minimization_Converged-OPLS-2005>
0

> <r_mmod_RMS_Derivative-OPLS-2005>
2.14452958106995

$$$$
55
                    3D
 Structure written by MMmdl.
165174  0  0  1  0            999 V2000
  -30.5667  -14.7679   20.4241 C   0  0  0  0  0  0
  -30.4353  -12.4591   19.4892 C   0  0  0  0  0  0
  -29.5193  -12.5038   18.2474 C   0  0  0  0  0  0
  -28.0444  -12.3231   18.6534 C   0  0  0  0  0  0
  -27.6433  -13.2251   19.8502 C   0  0  2  0  0  0
  -28.6796  -13.1617   20.9922 C   0  0  0  0  0  0
  -25.2557  -13.8193   20.5666 C   0  0  0  0  0  0
  -24.1804  -13.0470   20.9136 C   0  0  0  0  0  0
  -24.6362  -11.6937   20.8697 C   0  0  0  0  0  0
  -23.9027  -10.4313   21.0345 C   0  0  0  0  0  0
  -24.3569   -9.4254   21.9160 C   0  0  0  0  0  0
  -23.6250   -8.2290   22.0753 C   0  0  0  0  0  0
  -22.4238   -8.0304   21.3533 C   0  0  0  0  0  0
  -21.9859   -9.0256   20.4616 C   0  0  0  0  0  0
  -22.7183  -10.2144   20.3017 C   0  0  0  0  0  0
  -21.6873   -6.0728   22.5262 C   0  0  0  0  0  0
  -21.4031   -6.5618   23.8205 C   0  0  0  0  0  0
  -21.3664   -5.6768   24.9160 C   0  0  0  0  0  0
  -21.6045   -4.3042   24.7205 C   0  0  0  0  0  0
  -21.8825   -3.8145   23.4324 C   0  0  0  0  0  0
  -21.9203   -4.6953   22.3375 C   0  0  0  0  0  0
  -22.7855  -13.5277   21.1804 C   0  0  0  0  0  0
  -22.1658   -4.2153   21.0936 F   0  0  0  0  0  0
  -21.5628   -3.4528   25.7716 F   0  0  0  0  0  0
  -29.9839  -13.5200   20.4211 N   0  0  0  0  0  0
  -26.2928  -12.9363   20.3215 N   0  0  0  0  0  0
  -25.9285  -11.6523   20.5688 N   0  0  0  0  0  0
  -22.0460  -12.8273   22.0328 N   0  0  0  0  0  0
  -25.4363  -15.1909   20.4133 N   0  0  0  0  0  0
  -31.7351  -14.8933   20.0439 O   0  0  0  0  0  0
  -21.6643   -6.8869   21.4223 O   0  0  0  0  0  0
  -22.3550  -14.5602   20.6670 O   0  0  0  0  0  0
  -24.6337  -31.8510   23.1956 C   0  0  0  0  0  0
  -25.9179  -32.4708   23.8294 C   0  0  1  0  0  0
  -27.2260  -27.2520   20.1129 C   0  0  0  0  0  0
  -25.5989  -33.8518   24.2242 N   0  0  0  0  0  0
  -23.4294  -30.4748   21.5372 C   0  0  2  0  0  0
  -24.8784  -28.9197   20.1038 C   0  0  0  0  0  0
  -22.7493  -29.4610   22.4898 C   0  0  0  0  0  0
  -18.0290  -28.1396   22.8512 C   0  0  0  0  0  0
  -24.1511  -36.7232   23.2646 C   0  0  0  0  0  0
  -25.9778  -30.7565   21.3842 C   0  0  0  0  0  0
  -26.0465  -29.3822   20.7201 C   0  0  0  0  0  0
  -27.2187  -28.5588   20.7138 C   0  0  0  0  0  0
  -26.0297  -26.8517   19.4790 C   0  0  0  0  0  0
  -24.8773  -27.6659   19.4718 C   0  0  0  0  0  0
  -23.6448  -29.8016   20.1557 C   0  0  0  0  0  0
  -25.4141  -36.3013   24.0319 C   0  0  1  0  0  0
  -20.5889  -28.3696   23.1264 C   0  0  2  0  0  0
  -20.6783  -26.9413   22.5394 C   0  0  0  0  0  0
  -19.5746  -26.6390   21.5220 C   0  0  0  0  0  0
  -18.1923  -26.7950   22.1619 C   0  0  0  0  0  0
  -19.1540  -28.8872   23.2887 C   0  0  0  0  0  0
  -18.9459  -30.1477   23.8902 C   0  0  0  0  0  0
  -17.6455  -30.6611   24.0548 C   0  0  0  0  0  0
  -25.9071  -34.9400   23.5067 C   0  0  0  0  0  0
  -16.5348  -29.9085   23.6361 C   0  0  0  0  0  0
  -16.7275  -28.6495   23.0407 C   0  0  0  0  0  0
  -26.4576  -31.6541   25.0683 C   0  0  0  0  0  0
  -25.3792  -31.3658   26.1378 C   0  0  0  0  0  0
  -27.0503  -30.2967   24.6235 C   0  0  0  0  0  0
  -27.6120  -32.4323   25.7453 C   0  0  0  0  0  0
  -27.5591  -37.1742   24.8480 C   0  0  0  0  0  0
  -21.4197  -29.3041   22.3637 N   0  0  0  0  0  0
  -26.4310  -37.3713   23.9422 N   0  0  0  0  0  0
  -24.6985  -31.0472   22.0929 N   0  0  0  0  0  0
  -23.4186  -28.8157   23.3010 O   0  0  0  0  0  0
  -28.3423  -26.3828   20.1888 O   0  0  0  0  0  0
  -26.5617  -34.8879   22.4623 O   0  0  0  0  0  0
  -23.5491  -32.1376   23.7251 O   0  0  0  0  0  0
  -28.9246  -19.4323   18.3429 C   0  0  0  0  0  0
  -29.3832  -17.0327   18.5835 C   0  0  0  0  0  0
  -29.4641  -18.4957   20.5231 C   0  0  0  0  0  0
  -29.0454  -18.1398   17.7730 C   0  0  0  0  0  0
  -29.1342  -19.6795   19.7220 C   0  0  0  0  0  0
  -29.6032  -17.1491   19.9725 C   0  0  0  0  0  0
  -29.5171  -21.6720   21.2888 C   0  0  0  0  0  0
  -28.7420  -17.8868   16.3513 C   0  0  0  0  0  0
  -28.0339  -18.6830   15.5293 C   0  0  0  0  0  0
  -28.4059  -22.2473   19.3836 C   0  0  0  0  0  0
  -29.3580  -23.2208   21.3368 C   0  0  1  0  0  0
  -28.3103  -23.5803   20.2607 C   0  0  1  0  0  0
  -27.7423  -18.3648   14.0761 C   0  0  0  0  0  0
  -28.9936  -23.7366   22.7444 C   0  0  0  0  0  0
  -28.4425  -25.0325   19.5236 C   0  0  0  0  0  0
  -28.9872  -21.1053   20.1810 N   0  0  0  0  0  0
  -29.7898  -15.8794   20.7305 N   0  0  0  0  0  0
  -30.0769  -21.0556   22.2002 O   0  0  0  0  0  0
  -31.4761  -12.5882   19.1896 H   0  0  0  0  0  0
  -30.3793  -11.4835   19.9715 H   0  0  0  0  0  0
  -29.8065  -11.7271   17.5372 H   0  0  0  0  0  0
  -29.6509  -13.4563   17.7329 H   0  0  0  0  0  0
  -27.9065  -11.2765   18.9252 H   0  0  0  0  0  0
  -27.3872  -12.5028   17.8016 H   0  0  0  0  0  0
  -27.6403  -14.2441   19.4680 H   0  0  0  0  0  0
  -28.7135  -12.1630   21.4291 H   0  0  0  0  0  0
  -28.4019  -13.8390   21.8011 H   0  0  0  0  0  0
  -25.2710   -9.5788   22.4725 H   0  0  0  0  0  0
  -23.9968   -7.4695   22.7498 H   0  0  0  0  0  0
  -21.0786   -8.8743   19.8915 H   0  0  0  0  0  0
  -22.3605  -10.9647   19.6116 H   0  0  0  0  0  0
  -21.2027   -7.6125   23.9704 H   0  0  0  0  0  0
  -21.1475   -6.0497   25.9051 H   0  0  0  0  0  0
  -22.0598   -2.7608   23.2831 H   0  0  0  0  0  0
  -22.3997  -11.9869   22.4653 H   0  0  0  0  0  0
  -21.1108  -13.1379   22.2531 H   0  0  0  0  0  0
  -24.6866  -15.8640   20.5284 H   0  0  0  0  0  0
  -26.3001  -15.6146   20.0965 H   0  0  0  0  0  0
  -26.7220  -32.5355   23.1000 H   0  0  0  0  0  0
  -25.0239  -33.9678   25.0459 H   0  0  0  0  0  0
  -22.7265  -31.2974   21.3874 H   0  0  0  0  0  0
  -23.3788  -35.9539   23.3274 H   0  0  0  0  0  0
  -24.3605  -36.8896   22.2063 H   0  0  0  0  0  0
  -23.7249  -37.6407   23.6717 H   0  0  0  0  0  0
  -26.1400  -31.5214   20.6242 H   0  0  0  0  0  0
  -26.8465  -30.7880   22.0304 H   0  0  0  0  0  0
  -28.1148  -28.9076   21.2080 H   0  0  0  0  0  0
  -25.9444  -25.8836   19.0079 H   0  0  0  0  0  0
  -23.9818  -27.3116   18.9801 H   0  0  0  0  0  0
  -23.7473  -30.5726   19.3915 H   0  0  0  0  0  0
  -22.7675  -29.2187   19.8668 H   0  0  0  0  0  0
  -25.1323  -36.1823   25.0806 H   0  0  0  0  0  0
  -21.0019  -28.3279   24.1370 H   0  0  0  0  0  0
  -20.5738  -26.2289   23.3582 H   0  0  0  0  0  0
  -21.6629  -26.7467   22.1130 H   0  0  0  0  0  0
  -19.6897  -25.6300   21.1252 H   0  0  0  0  0  0
  -19.6699  -27.3198   20.6742 H   0  0  0  0  0  0
  -17.4192  -26.6765   21.4003 H   0  0  0  0  0  0
  -18.0277  -26.0075   22.8981 H   0  0  0  0  0  0
  -19.7927  -30.7309   24.2276 H   0  0  0  0  0  0
  -17.4996  -31.6314   24.5087 H   0  0  0  0  0  0
  -15.5349  -30.2969   23.7728 H   0  0  0  0  0  0
  -15.8661  -28.0802   22.7170 H   0  0  0  0  0  0
  -24.6005  -30.6995   25.7645 H   0  0  0  0  0  0
  -24.8963  -32.2812   26.4796 H   0  0  0  0  0  0
  -25.8099  -30.8808   27.0147 H   0  0  0  0  0  0
  -26.3120  -29.6590   24.1352 H   0  0  0  0  0  0
  -27.4285  -29.7344   25.4788 H   0  0  0  0  0  0
  -27.8941  -30.4249   23.9449 H   0  0  0  0  0  0
  -27.2740  -33.3666   26.1952 H   0  0  0  0  0  0
  -28.3956  -32.6820   25.0280 H   0  0  0  0  0  0
  -28.0763  -31.8493   26.5416 H   0  0  0  0  0  0
  -28.2554  -38.0082   24.7565 H   0  0  0  0  0  0
  -28.1142  -36.2612   24.6281 H   0  0  0  0  0  0
  -27.2299  -37.1328   25.8873 H   0  0  0  0  0  0
  -20.9389  -29.8676   21.6762 H   0  0  0  0  0  0
  -26.0172  -38.2780   24.1415 H   0  0  0  0  0  0
  -28.6746  -20.2555   17.6912 H   0  0  0  0  0  0
  -29.4215  -16.0544   18.1254 H   0  0  0  0  0  0
  -29.5998  -18.6197   21.5872 H   0  0  0  0  0  0
  -29.1371  -16.9662   15.9414 H   0  0  0  0  0  0
  -27.6111  -19.6097   15.8902 H   0  0  0  0  0  0
  -29.0395  -22.4212   18.5132 H   0  0  0  0  0  0
  -27.4175  -21.9722   19.0108 H   0  0  0  0  0  0
  -30.3200  -23.6401   21.0417 H   0  0  0  0  0  0
  -27.3276  -23.5631   20.7333 H   0  0  0  0  0  0
  -28.2789  -17.4747   13.7399 H   0  0  0  0  0  0
  -28.0283  -19.1989   13.4326 H   0  0  0  0  0  0
  -26.6749  -18.1852   13.9386 H   0  0  0  0  0  0
  -28.1246  -23.2178   23.1526 H   0  0  0  0  0  0
  -28.7587  -24.8015   22.7277 H   0  0  0  0  0  0
  -29.8210  -23.5934   23.4409 H   0  0  0  0  0  0
  -27.8176  -25.0197   18.6332 H   0  0  0  0  0  0
  -29.4467  -25.0379   19.1007 H   0  0  0  0  0  0
  -28.9973  -15.6441   21.3092 H   0  0  0  0  0  0
  1 25  1  0  0  0
  1 30  2  0  0  0
  1 87  1  0  0  0
  2  3  1  0  0  0
  2 25  1  0  0  0
  2 89  1  0  0  0
  2 90  1  0  0  0
  3  4  1  0  0  0
  3 91  1  0  0  0
  3 92  1  0  0  0
  4  5  1  0  0  0
  4 93  1  0  0  0
  4 94  1  0  0  0
  5  6  1  0  0  0
  5 26  1  0  0  0
  5 95  1  0  0  0
  6 25  1  0  0  0
  6 96  1  0  0  0
  6 97  1  0  0  0
  7  8  2  0  0  0
  7 26  1  0  0  0
  7 29  1  0  0  0
  8  9  1  0  0  0
  8 22  1  0  0  0
  9 10  1  0  0  0
  9 27  2  0  0  0
 10 11  2  0  0  0
 10 15  1  0  0  0
 11 12  1  0  0  0
 11 98  1  0  0  0
 12 13  2  0  0  0
 12 99  1  0  0  0
 13 14  1  0  0  0
 13 31  1  0  0  0
 14 15  2  0  0  0
 14100  1  0  0  0
 15101  1  0  0  0
 16 17  2  0  0  0
 16 21  1  0  0  0
 16 31  1  0  0  0
 17 18  1  0  0  0
 17102  1  0  0  0
 18 19  2  0  0  0
 18103  1  0  0  0
 19 20  1  0  0  0
 19 24  1  0  0  0
 20 21  2  0  0  0
 20104  1  0  0  0
 21 23  1  0  0  0
 22 28  1  0  0  0
 22 32  2  0  0  0
 26 27  1  0  0  0
 28105  1  0  0  0
 28106  1  0  0  0
 29107  1  0  0  0
 29108  1  0  0  0
 33 34  1  0  0  0
 33 66  1  0  0  0
 33 70  2  0  0  0
 34 36  1  0  0  0
 34 59  1  0  0  0
 34109  1  0  0  0
 35 44  2  0  0  0
 35 45  1  0  0  0
 35 68  1  0  0  0
 36 56  1  0  0  0
 36110  1  0  0  0
 37 39  1  0  0  0
 37 47  1  0  0  0
 37 66  1  0  0  0
 37111  1  0  0  0
 38 43  2  0  0  0
 38 46  1  0  0  0
 38 47  1  0  0  0
 39 64  1  0  0  0
 39 67  2  0  0  0
 40 52  1  0  0  0
 40 53  2  0  0  0
 40 58  1  0  0  0
 41112  1  0  0  0
 41113  1  0  0  0
 41114  1  0  0  0
 41 48  1  0  0  0
 42 43  1  0  0  0
 42 66  1  0  0  0
 42115  1  0  0  0
 42116  1  0  0  0
 43 44  1  0  0  0
 44117  1  0  0  0
 45 46  2  0  0  0
 45118  1  0  0  0
 46119  1  0  0  0
 47120  1  0  0  0
 47121  1  0  0  0
 48 56  1  0  0  0
 48 65  1  0  0  0
 48122  1  0  0  0
 49 50  1  0  0  0
 49 53  1  0  0  0
 49 64  1  0  0  0
 49123  1  0  0  0
 50 51  1  0  0  0
 50124  1  0  0  0
 50125  1  0  0  0
 51 52  1  0  0  0
 51126  1  0  0  0
 51127  1  0  0  0
 52128  1  0  0  0
 52129  1  0  0  0
 53 54  1  0  0  0
 54 55  2  0  0  0
 54130  1  0  0  0
 55 57  1  0  0  0
 55131  1  0  0  0
 56 69  2  0  0  0
 57 58  2  0  0  0
 57132  1  0  0  0
 58133  1  0  0  0
 59 60  1  0  0  0
 59 61  1  0  0  0
 59 62  1  0  0  0
 60134  1  0  0  0
 60135  1  0  0  0
 60136  1  0  0  0
 61137  1  0  0  0
 61138  1  0  0  0
 61139  1  0  0  0
 62140  1  0  0  0
 62141  1  0  0  0
 62142  1  0  0  0
 63 65  1  0  0  0
 63143  1  0  0  0
 63144  1  0  0  0
 63145  1  0  0  0
 64146  1  0  0  0
 65147  1  0  0  0
 68 85  1  0  0  0
 71 74  2  0  0  0
 71 75  1  0  0  0
 71148  1  0  0  0
 72 74  1  0  0  0
 72 76  2  0  0  0
 72149  1  0  0  0
 73 75  2  0  0  0
 73 76  1  0  0  0
 73150  1  0  0  0
 74 78  1  0  0  0
 75 86  1  0  0  0
 76 87  1  0  0  0
 77 81  1  0  0  0
 77 86  1  0  0  0
 77 88  2  0  0  0
 78 79  2  0  0  0
 78151  1  0  0  0
 79 83  1  0  0  0
 79152  1  0  0  0
 80 82  1  0  0  0
 80 86  1  0  0  0
 80153  1  0  0  0
 80154  1  0  0  0
 81 82  1  0  0  0
 81 84  1  0  0  0
 81155  1  0  0  0
 82 85  1  0  0  0
 82156  1  0  0  0
 83157  1  0  0  0
 83158  1  0  0  0
 83159  1  0  0  0
 84160  1  0  0  0
 84161  1  0  0  0
 84162  1  0  0  0
 85163  1  0  0  0
 85164  1  0  0  0
 87165  1  0  0  0
M  ISO  4   1 100  68 101  85 101  87 100
M  END
> <chiral flag>
0

> <version>
0

> <s_m_source_file>
/data/baiqing/PycharmProjects/Reinvent-master-3.2/result/LINK_invent/BTK/process_docking_weight1_custom_product_contain_oxygen_bond_distance_aromatic_linkinvent_7_9_3/rearranged_h_0066.sdf

> <i_m_source_file_index>
56

> <r_mmod_Potential_Energy-OPLS-2005>
317.046142578125

> <r_mmod_Stretch_Energy-OPLS-2005>
133.798950195312

> <r_mmod_Bend_Energy-OPLS-2005>
211.484848022461

> <r_mmod_Torsional_Energy-OPLS-2005>
297.436309814453

> <r_mmod_Improper_Torsional_Energy-OPLS-2005>
5.91150712966919

> <r_mmod_Van_der_Waal_Energy-OPLS-2005>
131.064270019531

> <r_mmod_Electrostatic_Energy-OPLS-2005>
-333.12939453125

> <r_mmod_Solvation_Energy-OPLS-2005>
-222.970977783203

> <b_mmod_Minimization_Converged-OPLS-2005>
0

> <r_mmod_RMS_Derivative-OPLS-2005>
4.07315254211426

$$$$
56
                    3D
 Structure written by MMmdl.
160169  0  0  1  0            999 V2000
  -30.6252  -14.7990   20.4476 C   0  0  0  0  0  0
  -30.4252  -12.4907   19.4840 C   0  0  0  0  0  0
  -29.5081  -12.5111   18.2424 C   0  0  0  0  0  0
  -28.0372  -12.3288   18.6593 C   0  0  0  0  0  0
  -27.6349  -13.2447   19.8461 C   0  0  2  0  0  0
  -28.6811  -13.2242   20.9816 C   0  0  0  0  0  0
  -25.2459  -13.8207   20.5704 C   0  0  0  0  0  0
  -24.1764  -13.0421   20.9179 C   0  0  0  0  0  0
  -24.6391  -11.6917   20.8728 C   0  0  0  0  0  0
  -23.9076  -10.4279   21.0386 C   0  0  0  0  0  0
  -24.3623   -9.4199   21.9174 C   0  0  0  0  0  0
  -23.6293   -8.2239   22.0754 C   0  0  0  0  0  0
  -22.4278   -8.0270   21.3541 C   0  0  0  0  0  0
  -21.9910   -9.0240   20.4647 C   0  0  0  0  0  0
  -22.7244  -10.2119   20.3046 C   0  0  0  0  0  0
  -21.6855   -6.0726   22.5276 C   0  0  0  0  0  0
  -21.4018   -6.5636   23.8207 C   0  0  0  0  0  0
  -21.3660   -5.6793   24.9174 C   0  0  0  0  0  0
  -21.6047   -4.3052   24.7227 C   0  0  0  0  0  0
  -21.8817   -3.8142   23.4349 C   0  0  0  0  0  0
  -21.9194   -4.6956   22.3404 C   0  0  0  0  0  0
  -22.7787  -13.5192   21.1850 C   0  0  0  0  0  0
  -22.1662   -4.2144   21.0980 F   0  0  0  0  0  0
  -21.5628   -3.4536   25.7739 F   0  0  0  0  0  0
  -29.9746  -13.5803   20.3879 N   0  0  0  0  0  0
  -26.2911  -12.9456   20.3301 N   0  0  0  0  0  0
  -25.9336  -11.6580   20.5764 N   0  0  0  0  0  0
  -22.0457  -12.8178   22.0423 N   0  0  0  0  0  0
  -25.4039  -15.1944   20.4215 N   0  0  0  0  0  0
  -31.8187  -14.8269   20.1380 O   0  0  0  0  0  0
  -21.6640   -6.8871   21.4241 O   0  0  0  0  0  0
  -22.3461  -14.5493   20.6709 O   0  0  0  0  0  0
  -24.6348  -31.8522   23.1962 C   0  0  0  0  0  0
  -25.9148  -32.4748   23.8331 C   0  0  1  0  0  0
  -27.2130  -27.2205   20.1382 C   0  0  0  0  0  0
  -25.5932  -33.8551   24.2246 N   0  0  0  0  0  0
  -23.4348  -30.4744   21.5402 C   0  0  2  0  0  0
  -24.8821  -28.9167   20.1107 C   0  0  0  0  0  0
  -22.7524  -29.4593   22.4896 C   0  0  0  0  0  0
  -18.0292  -28.1404   22.8464 C   0  0  0  0  0  0
  -24.1486  -36.7282   23.2642 C   0  0  0  0  0  0
  -25.9844  -30.7523   21.3836 C   0  0  0  0  0  0
  -26.0558  -29.3709   20.7266 C   0  0  0  0  0  0
  -27.2251  -28.5362   20.7262 C   0  0  0  0  0  0
  -26.0225  -26.8552   19.4723 C   0  0  0  0  0  0
  -24.8735  -27.6691   19.4692 C   0  0  0  0  0  0
  -23.6555  -29.8085   20.1570 C   0  0  0  0  0  0
  -25.4115  -36.3063   24.0319 C   0  0  1  0  0  0
  -20.5898  -28.3724   23.1250 C   0  0  2  0  0  0
  -20.6780  -26.9436   22.5404 C   0  0  0  0  0  0
  -19.5753  -26.6389   21.5211 C   0  0  0  0  0  0
  -18.1931  -26.7940   22.1619 C   0  0  0  0  0  0
  -19.1543  -28.8876   23.2854 C   0  0  0  0  0  0
  -18.9466  -30.1467   23.8893 C   0  0  0  0  0  0
  -17.6468  -30.6599   24.0557 C   0  0  0  0  0  0
  -25.9054  -34.9434   23.5081 C   0  0  0  0  0  0
  -16.5356  -29.9094   23.6332 C   0  0  0  0  0  0
  -16.7278  -28.6515   23.0347 C   0  0  0  0  0  0
  -26.4510  -31.6584   25.0735 C   0  0  0  0  0  0
  -25.3715  -31.3752   26.1435 C   0  0  0  0  0  0
  -27.0356  -30.2987   24.6259 C   0  0  0  0  0  0
  -27.6058  -32.4339   25.7511 C   0  0  0  0  0  0
  -27.5579  -37.1794   24.8464 C   0  0  0  0  0  0
  -21.4223  -29.3062   22.3642 N   0  0  0  0  0  0
  -26.4296  -37.3762   23.9401 N   0  0  0  0  0  0
  -24.7046  -31.0442   22.0972 N   0  0  0  0  0  0
  -23.4201  -28.8138   23.3019 O   0  0  0  0  0  0
  -28.2865  -26.2874   20.1757 O   0  0  0  0  0  0
  -26.5635  -34.8914   22.4656 O   0  0  0  0  0  0
  -23.5485  -32.1356   23.7224 O   0  0  0  0  0  0
  -32.1794  -18.9976   21.0073 C   0  0  0  0  0  0
  -31.3551  -20.1158   20.8247 C   0  0  0  0  0  0
  -31.6701  -17.6978   20.9468 C   0  0  0  0  0  0
  -29.4690  -18.6596   20.4659 C   0  0  0  0  0  0
  -29.9590  -20.0666   20.5801 C   0  0  0  0  0  0
  -30.3130  -17.4457   20.6567 C   0  0  0  0  0  0
  -29.7494  -22.7579   21.0689 C   0  0  0  0  0  0
  -28.0237  -18.4083   20.2103 C   0  0  0  0  0  0
  -28.2667  -22.0638   19.7956 C   0  0  0  0  0  0
  -28.8790  -23.5325   19.9830 C   0  0  2  0  0  0
  -27.3838  -19.0958   19.0132 C   0  0  0  0  0  0
  -29.7724  -24.0251   18.8408 C   0  0  0  0  0  0
  -27.9993  -24.8200   20.4929 C   0  0  0  0  0  0
  -29.3946  -21.4823   20.5469 N   0  0  0  0  0  0
  -29.8926  -15.9880   20.6174 N   0  0  0  0  0  0
  -30.4917  -23.0648   21.9776 O   0  0  0  0  0  0
  -27.3551  -17.5905   20.8493 O   0  0  0  0  0  0
  -31.4662  -12.6021   19.1783 H   0  0  0  0  0  0
  -30.3671  -11.5262   19.9914 H   0  0  0  0  0  0
  -29.7991  -11.7264   17.5432 H   0  0  0  0  0  0
  -29.6265  -13.4558   17.7098 H   0  0  0  0  0  0
  -27.9070  -11.2830   18.9410 H   0  0  0  0  0  0
  -27.3766  -12.4970   17.8083 H   0  0  0  0  0  0
  -27.6119  -14.2580   19.4440 H   0  0  0  0  0  0
  -28.7290  -12.2418   21.4523 H   0  0  0  0  0  0
  -28.4083  -13.9300   21.7680 H   0  0  0  0  0  0
  -25.2767   -9.5678   22.4748 H   0  0  0  0  0  0
  -24.0001   -7.4632   22.7474 H   0  0  0  0  0  0
  -21.0840   -8.8758   19.8949 H   0  0  0  0  0  0
  -22.3696  -10.9655   19.6151 H   0  0  0  0  0  0
  -21.2010   -7.6146   23.9713 H   0  0  0  0  0  0
  -21.1487   -6.0522   25.9077 H   0  0  0  0  0  0
  -22.0596   -2.7605   23.2851 H   0  0  0  0  0  0
  -22.4105  -11.9861   22.4824 H   0  0  0  0  0  0
  -21.1072  -13.1189   22.2641 H   0  0  0  0  0  0
  -24.6317  -15.8327   20.5747 H   0  0  0  0  0  0
  -26.2779  -15.6811   20.2579 H   0  0  0  0  0  0
  -26.7216  -32.5385   23.1075 H   0  0  0  0  0  0
  -25.0064  -33.9696   25.0378 H   0  0  0  0  0  0
  -22.7346  -31.2990   21.3920 H   0  0  0  0  0  0
  -23.3752  -35.9615   23.3305 H   0  0  0  0  0  0
  -24.3569  -36.8903   22.2059 H   0  0  0  0  0  0
  -23.7234  -37.6480   23.6668 H   0  0  0  0  0  0
  -26.1261  -31.5109   20.6131 H   0  0  0  0  0  0
  -26.8624  -30.8045   22.0155 H   0  0  0  0  0  0
  -28.1226  -28.8783   21.2228 H   0  0  0  0  0  0
  -25.9597  -25.9147   18.9453 H   0  0  0  0  0  0
  -23.9810  -27.3233   18.9647 H   0  0  0  0  0  0
  -23.7866  -30.5857   19.4040 H   0  0  0  0  0  0
  -22.7727  -29.2459   19.8480 H   0  0  0  0  0  0
  -25.1299  -36.1917   25.0816 H   0  0  0  0  0  0
  -20.9981  -28.3315   24.1373 H   0  0  0  0  0  0
  -20.5678  -26.2347   23.3620 H   0  0  0  0  0  0
  -21.6653  -26.7456   22.1202 H   0  0  0  0  0  0
  -19.6926  -25.6297   21.1251 H   0  0  0  0  0  0
  -19.6691  -27.3197   20.6741 H   0  0  0  0  0  0
  -17.4200  -26.6668   21.4024 H   0  0  0  0  0  0
  -18.0337  -26.0109   22.9044 H   0  0  0  0  0  0
  -19.7945  -30.7261   24.2287 H   0  0  0  0  0  0
  -17.5027  -31.6281   24.5153 H   0  0  0  0  0  0
  -15.5357  -30.2992   23.7663 H   0  0  0  0  0  0
  -15.8675  -28.0819   22.7083 H   0  0  0  0  0  0
  -24.5895  -30.7104   25.7749 H   0  0  0  0  0  0
  -24.8906  -32.2930   26.4833 H   0  0  0  0  0  0
  -25.8007  -30.8938   27.0224 H   0  0  0  0  0  0
  -26.2952  -29.6736   24.1260 H   0  0  0  0  0  0
  -27.3978  -29.7261   25.4804 H   0  0  0  0  0  0
  -27.8859  -30.4240   23.9552 H   0  0  0  0  0  0
  -27.2661  -33.3643   26.2074 H   0  0  0  0  0  0
  -28.3879  -32.6892   25.0349 H   0  0  0  0  0  0
  -28.0718  -31.8474   26.5434 H   0  0  0  0  0  0
  -28.2594  -38.0097   24.7504 H   0  0  0  0  0  0
  -28.1076  -36.2617   24.6300 H   0  0  0  0  0  0
  -27.2290  -37.1457   25.8868 H   0  0  0  0  0  0
  -20.9428  -29.8788   21.6832 H   0  0  0  0  0  0
  -26.0169  -38.2831   24.1417 H   0  0  0  0  0  0
  -33.2294  -19.1431   21.2175 H   0  0  0  0  0  0
  -31.8560  -21.0698   20.8995 H   0  0  0  0  0  0
  -32.3676  -16.8986   21.1441 H   0  0  0  0  0  0
  -28.2169  -21.7562   18.7509 H   0  0  0  0  0  0
  -27.3103  -21.9221   20.3045 H   0  0  0  0  0  0
  -28.1404  -19.5428   18.3696 H   0  0  0  0  0  0
  -26.6865  -19.8632   19.3437 H   0  0  0  0  0  0
  -26.8300  -18.3667   18.4236 H   0  0  0  0  0  0
  -30.3939  -24.8651   19.1538 H   0  0  0  0  0  0
  -29.1769  -24.3593   17.9910 H   0  0  0  0  0  0
  -30.4406  -23.2436   18.4762 H   0  0  0  0  0  0
  -27.9929  -24.7935   21.5830 H   0  0  0  0  0  0
  -26.9644  -24.5908   20.2501 H   0  0  0  0  0  0
  -28.9005  -15.8322   20.7225 H   0  0  0  0  0  0
  1 25  1  0  0  0
  1 30  2  0  0  0
  1 85  1  0  0  0
  2  3  1  0  0  0
  2 25  1  0  0  0
  2 88  1  0  0  0
  2 89  1  0  0  0
  3  4  1  0  0  0
  3 90  1  0  0  0
  3 91  1  0  0  0
  4  5  1  0  0  0
  4 92  1  0  0  0
  4 93  1  0  0  0
  5  6  1  0  0  0
  5 26  1  0  0  0
  5 94  1  0  0  0
  6 25  1  0  0  0
  6 95  1  0  0  0
  6 96  1  0  0  0
  7  8  2  0  0  0
  7 26  1  0  0  0
  7 29  1  0  0  0
  8  9  1  0  0  0
  8 22  1  0  0  0
  9 10  1  0  0  0
  9 27  2  0  0  0
 10 11  2  0  0  0
 10 15  1  0  0  0
 11 12  1  0  0  0
 11 97  1  0  0  0
 12 13  2  0  0  0
 12 98  1  0  0  0
 13 14  1  0  0  0
 13 31  1  0  0  0
 14 15  2  0  0  0
 14 99  1  0  0  0
 15100  1  0  0  0
 16 17  2  0  0  0
 16 21  1  0  0  0
 16 31  1  0  0  0
 17 18  1  0  0  0
 17101  1  0  0  0
 18 19  2  0  0  0
 18102  1  0  0  0
 19 20  1  0  0  0
 19 24  1  0  0  0
 20 21  2  0  0  0
 20103  1  0  0  0
 21 23  1  0  0  0
 22 28  1  0  0  0
 22 32  2  0  0  0
 26 27  1  0  0  0
 28104  1  0  0  0
 28105  1  0  0  0
 29106  1  0  0  0
 29107  1  0  0  0
 33 34  1  0  0  0
 33 66  1  0  0  0
 33 70  2  0  0  0
 34 36  1  0  0  0
 34 59  1  0  0  0
 34108  1  0  0  0
 35 44  2  0  0  0
 35 45  1  0  0  0
 35 68  1  0  0  0
 36 56  1  0  0  0
 36109  1  0  0  0
 37 39  1  0  0  0
 37 47  1  0  0  0
 37 66  1  0  0  0
 37110  1  0  0  0
 38 43  2  0  0  0
 38 46  1  0  0  0
 38 47  1  0  0  0
 39 64  1  0  0  0
 39 67  2  0  0  0
 40 52  1  0  0  0
 40 53  2  0  0  0
 40 58  1  0  0  0
 41111  1  0  0  0
 41112  1  0  0  0
 41113  1  0  0  0
 41 48  1  0  0  0
 42 43  1  0  0  0
 42 66  1  0  0  0
 42114  1  0  0  0
 42115  1  0  0  0
 43 44  1  0  0  0
 44116  1  0  0  0
 45 46  2  0  0  0
 45117  1  0  0  0
 46118  1  0  0  0
 47119  1  0  0  0
 47120  1  0  0  0
 48 56  1  0  0  0
 48 65  1  0  0  0
 48121  1  0  0  0
 49 50  1  0  0  0
 49 53  1  0  0  0
 49 64  1  0  0  0
 49122  1  0  0  0
 50 51  1  0  0  0
 50123  1  0  0  0
 50124  1  0  0  0
 51 52  1  0  0  0
 51125  1  0  0  0
 51126  1  0  0  0
 52127  1  0  0  0
 52128  1  0  0  0
 53 54  1  0  0  0
 54 55  2  0  0  0
 54129  1  0  0  0
 55 57  1  0  0  0
 55130  1  0  0  0
 56 69  2  0  0  0
 57 58  2  0  0  0
 57131  1  0  0  0
 58132  1  0  0  0
 59 60  1  0  0  0
 59 61  1  0  0  0
 59 62  1  0  0  0
 60133  1  0  0  0
 60134  1  0  0  0
 60135  1  0  0  0
 61136  1  0  0  0
 61137  1  0  0  0
 61138  1  0  0  0
 62139  1  0  0  0
 62140  1  0  0  0
 62141  1  0  0  0
 63 65  1  0  0  0
 63142  1  0  0  0
 63143  1  0  0  0
 63144  1  0  0  0
 64145  1  0  0  0
 65146  1  0  0  0
 68 83  1  0  0  0
 71 72  2  0  0  0
 71 73  1  0  0  0
 71147  1  0  0  0
 72 75  1  0  0  0
 72148  1  0  0  0
 73 76  2  0  0  0
 73149  1  0  0  0
 74 75  2  0  0  0
 74 76  1  0  0  0
 74 78  1  0  0  0
 75 84  1  0  0  0
 76 85  1  0  0  0
 77 80  1  0  0  0
 77 84  1  0  0  0
 77 86  2  0  0  0
 78 81  1  0  0  0
 78 87  2  0  0  0
 79 80  1  0  0  0
 79 84  1  0  0  0
 79150  1  0  0  0
 79151  1  0  0  0
 80 82  1  0  0  0
 80 83  1  0  0  0
 81152  1  0  0  0
 81153  1  0  0  0
 81154  1  0  0  0
 82155  1  0  0  0
 82156  1  0  0  0
 82157  1  0  0  0
 83158  1  0  0  0
 83159  1  0  0  0
 85160  1  0  0  0
M  ISO  4   1 100  68 101  83 101  85 100
M  END
> <chiral flag>
0

> <version>
0

> <s_m_source_file>
/data/baiqing/PycharmProjects/Reinvent-master-3.2/result/LINK_invent/BTK/process_docking_weight1_custom_product_contain_oxygen_bond_distance_aromatic_linkinvent_7_9_3/rearranged_h_0066.sdf

> <i_m_source_file_index>
57

> <r_mmod_Potential_Energy-OPLS-2005>
456.048461914062

> <r_mmod_Stretch_Energy-OPLS-2005>
181.229431152344

> <r_mmod_Bend_Energy-OPLS-2005>
254.702072143555

> <r_mmod_Torsional_Energy-OPLS-2005>
294.035186767578

> <r_mmod_Improper_Torsional_Energy-OPLS-2005>
6.40860652923584

> <r_mmod_Van_der_Waal_Energy-OPLS-2005>
140.731079101562

> <r_mmod_Electrostatic_Energy-OPLS-2005>
-315.959930419922

> <r_mmod_Solvation_Energy-OPLS-2005>
-217.004455566406

> <b_mmod_Minimization_Converged-OPLS-2005>
0

> <r_mmod_RMS_Derivative-OPLS-2005>
1.62878000736237

$$$$
57
                    3D
 Structure written by MMmdl.
164173  0  0  1  0            999 V2000
  -30.7561  -14.6597   20.4947 C   0  0  0  0  0  0
  -30.4122  -12.4143   19.4791 C   0  0  0  0  0  0
  -29.5153  -12.5286   18.2347 C   0  0  0  0  0  0
  -28.0363  -12.3837   18.6334 C   0  0  0  0  0  0
  -27.6467  -13.2640   19.8519 C   0  0  2  0  0  0
  -28.6966  -13.2056   20.9880 C   0  0  0  0  0  0
  -25.2500  -13.8283   20.5697 C   0  0  0  0  0  0
  -24.1826  -13.0481   20.9192 C   0  0  0  0  0  0
  -24.6457  -11.6975   20.8720 C   0  0  0  0  0  0
  -23.9126  -10.4337   21.0395 C   0  0  0  0  0  0
  -24.3686   -9.4239   21.9158 C   0  0  0  0  0  0
  -23.6348   -8.2278   22.0738 C   0  0  0  0  0  0
  -22.4318   -8.0334   21.3550 C   0  0  0  0  0  0
  -21.9959   -9.0309   20.4645 C   0  0  0  0  0  0
  -22.7301  -10.2174   20.3031 C   0  0  0  0  0  0
  -21.6882   -6.0769   22.5261 C   0  0  0  0  0  0
  -21.4041   -6.5649   23.8201 C   0  0  0  0  0  0
  -21.3659   -5.6784   24.9152 C   0  0  0  0  0  0
  -21.6052   -4.3047   24.7181 C   0  0  0  0  0  0
  -21.8828   -3.8159   23.4301 C   0  0  0  0  0  0
  -21.9216   -4.6989   22.3364 C   0  0  0  0  0  0
  -22.7844  -13.5250   21.1872 C   0  0  0  0  0  0
  -22.1684   -4.2188   21.0944 F   0  0  0  0  0  0
  -21.5616   -3.4515   25.7688 F   0  0  0  0  0  0
  -30.0112  -13.5021   20.4062 N   0  0  0  0  0  0
  -26.2997  -12.9553   20.3324 N   0  0  0  0  0  0
  -25.9411  -11.6656   20.5739 N   0  0  0  0  0  0
  -22.0506  -12.8232   22.0412 N   0  0  0  0  0  0
  -25.4180  -15.2015   20.4093 N   0  0  0  0  0  0
  -31.9274  -14.6118   20.1256 O   0  0  0  0  0  0
  -21.6682   -6.8922   21.4226 O   0  0  0  0  0  0
  -22.3507  -14.5535   20.6691 O   0  0  0  0  0  0
  -24.6361  -31.8669   23.2058 C   0  0  0  0  0  0
  -25.9221  -32.4800   23.8407 C   0  0  1  0  0  0
  -27.1467  -27.2680   20.0731 C   0  0  0  0  0  0
  -25.6109  -33.8618   24.2346 N   0  0  0  0  0  0
  -23.4220  -30.5036   21.5539 C   0  0  2  0  0  0
  -24.8394  -28.9687   20.1058 C   0  0  0  0  0  0
  -22.7529  -29.4724   22.4957 C   0  0  0  0  0  0
  -18.0367  -28.1396   22.8506 C   0  0  0  0  0  0
  -24.1524  -36.7245   23.2630 C   0  0  0  0  0  0
  -25.9744  -30.7745   21.3838 C   0  0  0  0  0  0
  -26.0291  -29.4073   20.7041 C   0  0  0  0  0  0
  -27.1940  -28.5722   20.6738 C   0  0  0  0  0  0
  -25.9280  -26.9164   19.4565 C   0  0  0  0  0  0
  -24.7932  -27.7260   19.4778 C   0  0  0  0  0  0
  -23.6240  -29.8639   20.1628 C   0  0  0  0  0  0
  -25.4163  -36.3089   24.0333 C   0  0  1  0  0  0
  -20.5973  -28.3728   23.1275 C   0  0  2  0  0  0
  -20.6867  -26.9447   22.5404 C   0  0  0  0  0  0
  -19.5821  -26.6393   21.5242 C   0  0  0  0  0  0
  -18.1996  -26.7952   22.1619 C   0  0  0  0  0  0
  -19.1611  -28.8878   23.2882 C   0  0  0  0  0  0
  -18.9503  -30.1492   23.8868 C   0  0  0  0  0  0
  -17.6482  -30.6577   24.0583 C   0  0  0  0  0  0
  -25.9129  -34.9472   23.5106 C   0  0  0  0  0  0
  -16.5391  -29.9065   23.6337 C   0  0  0  0  0  0
  -16.7341  -28.6501   23.0339 C   0  0  0  0  0  0
  -26.4548  -31.6586   25.0768 C   0  0  0  0  0  0
  -25.3743  -31.3776   26.1444 C   0  0  0  0  0  0
  -27.0349  -30.2979   24.6261 C   0  0  0  0  0  0
  -27.6152  -32.4278   25.7540 C   0  0  0  0  0  0
  -27.5610  -37.1778   24.8492 C   0  0  0  0  0  0
  -21.4248  -29.3068   22.3634 N   0  0  0  0  0  0
  -26.4342  -37.3775   23.9408 N   0  0  0  0  0  0
  -24.6968  -31.0689   22.1001 N   0  0  0  0  0  0
  -23.4239  -28.8293   23.3070 O   0  0  0  0  0  0
  -28.1908  -26.3164   20.0886 O   0  0  0  0  0  0
  -26.5619  -34.8931   22.4624 O   0  0  0  0  0  0
  -23.5526  -32.1497   23.7384 O   0  0  0  0  0  0
  -29.0415  -18.7565   19.9602 C   0  0  0  0  0  0
  -28.5867  -20.0883   19.7347 C   0  0  0  0  0  0
  -30.1098  -20.9256   21.3937 C   0  0  0  0  0  0
  -30.0751  -18.4652   20.8842 C   0  0  0  0  0  0
  -30.5636  -19.5944   21.6456 C   0  0  0  0  0  0
  -29.1606  -21.2132   20.3952 C   0  0  0  0  0  0
  -28.5699  -22.9376   18.7435 C   0  0  0  0  0  0
  -25.7405  -22.6487   17.6403 C   0  0  0  0  0  0
  -26.1723  -23.5560   18.5394 C   0  0  0  0  0  0
  -30.8057  -17.1010   20.8404 C   0  0  0  0  0  0
  -28.6552  -23.7856   20.8668 C   0  0  0  0  0  0
  -27.8074  -24.8522   20.0560 C   0  0  1  0  0  0
  -27.6028  -24.1239   18.6667 C   0  0  2  0  0  0
  -31.6317  -19.5005   22.7234 C   0  0  0  0  0  0
  -27.9705  -24.9884   17.4511 C   0  0  0  0  0  0
  -28.8138  -22.5822   20.0084 N   0  0  0  0  0  0
  -30.1580  -15.8740   20.7969 N   0  0  0  0  0  0
  -29.0278  -22.3739   17.7386 O   0  0  0  0  0  0
  -32.0376  -17.2013   20.8188 O   0  0  0  0  0  0
  -31.4637  -12.4506   19.1843 H   0  0  0  0  0  0
  -30.2831  -11.4430   19.9573 H   0  0  0  0  0  0
  -29.7828  -11.7683   17.5001 H   0  0  0  0  0  0
  -29.6841  -13.4945   17.7541 H   0  0  0  0  0  0
  -27.8584  -11.3337   18.8623 H   0  0  0  0  0  0
  -27.3974  -12.6283   17.7830 H   0  0  0  0  0  0
  -27.6323  -14.2902   19.4814 H   0  0  0  0  0  0
  -28.7004  -12.2169   21.4507 H   0  0  0  0  0  0
  -28.4466  -13.9144   21.7801 H   0  0  0  0  0  0
  -25.2847   -9.5727   22.4703 H   0  0  0  0  0  0
  -24.0082   -7.4668   22.7436 H   0  0  0  0  0  0
  -21.0897   -8.8830   19.8946 H   0  0  0  0  0  0
  -22.3778  -10.9711   19.6121 H   0  0  0  0  0  0
  -21.2028   -7.6163   23.9708 H   0  0  0  0  0  0
  -21.1487   -6.0511   25.9055 H   0  0  0  0  0  0
  -22.0612   -2.7627   23.2770 H   0  0  0  0  0  0
  -22.4148  -11.9933   22.4851 H   0  0  0  0  0  0
  -21.1091  -13.1206   22.2501 H   0  0  0  0  0  0
  -24.6517  -15.8590   20.5080 H   0  0  0  0  0  0
  -26.2739  -15.6447   20.0986 H   0  0  0  0  0  0
  -26.7313  -32.5354   23.1183 H   0  0  0  0  0  0
  -25.0472  -33.9842   25.0621 H   0  0  0  0  0  0
  -22.7126  -31.3240   21.4293 H   0  0  0  0  0  0
  -23.3813  -35.9551   23.3342 H   0  0  0  0  0  0
  -24.3653  -36.8756   22.2037 H   0  0  0  0  0  0
  -23.7206  -37.6460   23.6553 H   0  0  0  0  0  0
  -26.1439  -31.5442   20.6303 H   0  0  0  0  0  0
  -26.8466  -30.7882   22.0258 H   0  0  0  0  0  0
  -28.1047  -28.9016   21.1526 H   0  0  0  0  0  0
  -25.7839  -25.9889   18.9448 H   0  0  0  0  0  0
  -23.8826  -27.3808   19.0070 H   0  0  0  0  0  0
  -23.7366  -30.6467   19.4113 H   0  0  0  0  0  0
  -22.7323  -29.3093   19.8664 H   0  0  0  0  0  0
  -25.1307  -36.1989   25.0817 H   0  0  0  0  0  0
  -21.0116  -28.3316   24.1382 H   0  0  0  0  0  0
  -20.5848  -26.2345   23.3621 H   0  0  0  0  0  0
  -21.6726  -26.7485   22.1148 H   0  0  0  0  0  0
  -19.6969  -25.6305   21.1277 H   0  0  0  0  0  0
  -19.6773  -27.3211   20.6787 H   0  0  0  0  0  0
  -17.4299  -26.6837   21.3965 H   0  0  0  0  0  0
  -18.0275  -26.0059   22.8948 H   0  0  0  0  0  0
  -19.7966  -30.7372   24.2156 H   0  0  0  0  0  0
  -17.5016  -31.6232   24.5223 H   0  0  0  0  0  0
  -15.5383  -30.2929   23.7658 H   0  0  0  0  0  0
  -15.8774  -28.0810   22.7001 H   0  0  0  0  0  0
  -24.6020  -30.7021   25.7742 H   0  0  0  0  0  0
  -24.8865  -32.2961   26.4710 H   0  0  0  0  0  0
  -25.8068  -30.9075   27.0285 H   0  0  0  0  0  0
  -26.2905  -29.6768   24.1269 H   0  0  0  0  0  0
  -27.3963  -29.7230   25.4797 H   0  0  0  0  0  0
  -27.8846  -30.4238   23.9564 H   0  0  0  0  0  0
  -27.2848  -33.3639   26.2071 H   0  0  0  0  0  0
  -28.4008  -32.6702   25.0362 H   0  0  0  0  0  0
  -28.0735  -31.8377   26.5484 H   0  0  0  0  0  0
  -28.2611  -38.0090   24.7555 H   0  0  0  0  0  0
  -28.1134  -36.2615   24.6314 H   0  0  0  0  0  0
  -27.2356  -37.1398   25.8910 H   0  0  0  0  0  0
  -20.9441  -29.8760   21.6815 H   0  0  0  0  0  0
  -26.0241  -38.2875   24.1331 H   0  0  0  0  0  0
  -28.6498  -17.9581   19.3414 H   0  0  0  0  0  0
  -27.8164  -20.2548   18.9938 H   0  0  0  0  0  0
  -30.5570  -21.7512   21.9353 H   0  0  0  0  0  0
  -24.7233  -22.2773   17.6611 H   0  0  0  0  0  0
  -26.3907  -22.2417   16.8766 H   0  0  0  0  0  0
  -25.4442  -23.8913   19.2607 H   0  0  0  0  0  0
  -28.1283  -23.4973   21.7777 H   0  0  0  0  0  0
  -29.6316  -24.1888   21.1428 H   0  0  0  0  0  0
  -26.8625  -24.8254   20.5991 H   0  0  0  0  0  0
  -31.8150  -18.4887   23.0835 H   0  0  0  0  0  0
  -32.5600  -19.9431   22.3529 H   0  0  0  0  0  0
  -31.3205  -20.0916   23.5874 H   0  0  0  0  0  0
  -27.8779  -24.4123   16.5282 H   0  0  0  0  0  0
  -29.0112  -25.3094   17.5047 H   0  0  0  0  0  0
  -27.3357  -25.8669   17.3637 H   0  0  0  0  0  0
  -29.1683  -15.8782   20.9703 H   0  0  0  0  0  0
  1 25  1  0  0  0
  1 30  2  0  0  0
  1 87  1  0  0  0
  2  3  1  0  0  0
  2 25  1  0  0  0
  2 90  1  0  0  0
  2 91  1  0  0  0
  3  4  1  0  0  0
  3 92  1  0  0  0
  3 93  1  0  0  0
  4  5  1  0  0  0
  4 94  1  0  0  0
  4 95  1  0  0  0
  5  6  1  0  0  0
  5 26  1  0  0  0
  5 96  1  0  0  0
  6 25  1  0  0  0
  6 97  1  0  0  0
  6 98  1  0  0  0
  7  8  2  0  0  0
  7 26  1  0  0  0
  7 29  1  0  0  0
  8  9  1  0  0  0
  8 22  1  0  0  0
  9 10  1  0  0  0
  9 27  2  0  0  0
 10 11  2  0  0  0
 10 15  1  0  0  0
 11 12  1  0  0  0
 11 99  1  0  0  0
 12 13  2  0  0  0
 12100  1  0  0  0
 13 14  1  0  0  0
 13 31  1  0  0  0
 14 15  2  0  0  0
 14101  1  0  0  0
 15102  1  0  0  0
 16 17  2  0  0  0
 16 21  1  0  0  0
 16 31  1  0  0  0
 17 18  1  0  0  0
 17103  1  0  0  0
 18 19  2  0  0  0
 18104  1  0  0  0
 19 20  1  0  0  0
 19 24  1  0  0  0
 20 21  2  0  0  0
 20105  1  0  0  0
 21 23  1  0  0  0
 22 28  1  0  0  0
 22 32  2  0  0  0
 26 27  1  0  0  0
 28106  1  0  0  0
 28107  1  0  0  0
 29108  1  0  0  0
 29109  1  0  0  0
 33 34  1  0  0  0
 33 66  1  0  0  0
 33 70  2  0  0  0
 34 36  1  0  0  0
 34 59  1  0  0  0
 34110  1  0  0  0
 35 44  2  0  0  0
 35 45  1  0  0  0
 35 68  1  0  0  0
 36 56  1  0  0  0
 36111  1  0  0  0
 37 39  1  0  0  0
 37 47  1  0  0  0
 37 66  1  0  0  0
 37112  1  0  0  0
 38 43  2  0  0  0
 38 46  1  0  0  0
 38 47  1  0  0  0
 39 64  1  0  0  0
 39 67  2  0  0  0
 40 52  1  0  0  0
 40 53  2  0  0  0
 40 58  1  0  0  0
 41113  1  0  0  0
 41114  1  0  0  0
 41115  1  0  0  0
 41 48  1  0  0  0
 42 43  1  0  0  0
 42 66  1  0  0  0
 42116  1  0  0  0
 42117  1  0  0  0
 43 44  1  0  0  0
 44118  1  0  0  0
 45 46  2  0  0  0
 45119  1  0  0  0
 46120  1  0  0  0
 47121  1  0  0  0
 47122  1  0  0  0
 48 56  1  0  0  0
 48 65  1  0  0  0
 48123  1  0  0  0
 49 50  1  0  0  0
 49 53  1  0  0  0
 49 64  1  0  0  0
 49124  1  0  0  0
 50 51  1  0  0  0
 50125  1  0  0  0
 50126  1  0  0  0
 51 52  1  0  0  0
 51127  1  0  0  0
 51128  1  0  0  0
 52129  1  0  0  0
 52130  1  0  0  0
 53 54  1  0  0  0
 54 55  2  0  0  0
 54131  1  0  0  0
 55 57  1  0  0  0
 55132  1  0  0  0
 56 69  2  0  0  0
 57 58  2  0  0  0
 57133  1  0  0  0
 58134  1  0  0  0
 59 60  1  0  0  0
 59 61  1  0  0  0
 59 62  1  0  0  0
 60135  1  0  0  0
 60136  1  0  0  0
 60137  1  0  0  0
 61138  1  0  0  0
 61139  1  0  0  0
 61140  1  0  0  0
 62141  1  0  0  0
 62142  1  0  0  0
 62143  1  0  0  0
 63 65  1  0  0  0
 63144  1  0  0  0
 63145  1  0  0  0
 63146  1  0  0  0
 64147  1  0  0  0
 65148  1  0  0  0
 68 82  1  0  0  0
 71 72  2  0  0  0
 71 74  1  0  0  0
 71149  1  0  0  0
 72 76  1  0  0  0
 72150  1  0  0  0
 73 75  1  0  0  0
 73 76  2  0  0  0
 73151  1  0  0  0
 74 75  2  0  0  0
 74 80  1  0  0  0
 75 84  1  0  0  0
 76 86  1  0  0  0
 77 83  1  0  0  0
 77 86  1  0  0  0
 77 88  2  0  0  0
 78 79  2  0  0  0
 78152  1  0  0  0
 78153  1  0  0  0
 79154  1  0  0  0
 79 83  1  0  0  0
 80 87  1  0  0  0
 80 89  2  0  0  0
 81 82  1  0  0  0
 81 86  1  0  0  0
 81155  1  0  0  0
 81156  1  0  0  0
 82 83  1  0  0  0
 82157  1  0  0  0
 83 85  1  0  0  0
 84158  1  0  0  0
 84159  1  0  0  0
 84160  1  0  0  0
 85161  1  0  0  0
 85162  1  0  0  0
 85163  1  0  0  0
 87164  1  0  0  0
M  ISO  4   1 100  68 101  82 101  87 100
M  END
> <chiral flag>
0

> <version>
0

> <s_m_source_file>
/data/baiqing/PycharmProjects/Reinvent-master-3.2/result/LINK_invent/BTK/process_docking_weight1_custom_product_contain_oxygen_bond_distance_aromatic_linkinvent_7_9_3/rearranged_h_0066.sdf

> <i_m_source_file_index>
58

> <r_mmod_Potential_Energy-OPLS-2005>
294.938934326172

> <r_mmod_Stretch_Energy-OPLS-2005>
100.563087463379

> <r_mmod_Bend_Energy-OPLS-2005>
196.903961181641

> <r_mmod_Torsional_Energy-OPLS-2005>
309.508392333984

> <r_mmod_Improper_Torsional_Energy-OPLS-2005>
6.33627080917358

> <r_mmod_Van_der_Waal_Energy-OPLS-2005>
174.149963378906

> <r_mmod_Electrostatic_Energy-OPLS-2005>
-342.551391601562

> <r_mmod_Solvation_Energy-OPLS-2005>
-233.026123046875

> <b_mmod_Minimization_Converged-OPLS-2005>
0

> <r_mmod_RMS_Derivative-OPLS-2005>
6.94469451904297

$$$$
58
                    3D
 Structure written by MMmdl.
155163  0  0  1  0            999 V2000
  -30.5969  -14.7576   20.5028 C   0  0  0  0  0  0
  -30.4443  -12.4790   19.4633 C   0  0  0  0  0  0
  -29.5150  -12.5172   18.2301 C   0  0  0  0  0  0
  -28.0427  -12.3264   18.6463 C   0  0  0  0  0  0
  -27.6409  -13.2264   19.8442 C   0  0  2  0  0  0
  -28.6853  -13.1615   20.9790 C   0  0  0  0  0  0
  -25.2511  -13.8177   20.5639 C   0  0  0  0  0  0
  -24.1796  -13.0434   20.9195 C   0  0  0  0  0  0
  -24.6385  -11.6918   20.8740 C   0  0  0  0  0  0
  -23.9072  -10.4291   21.0413 C   0  0  0  0  0  0
  -24.3624   -9.4211   21.9189 C   0  0  0  0  0  0
  -23.6287   -8.2253   22.0773 C   0  0  0  0  0  0
  -22.4268   -8.0284   21.3554 C   0  0  0  0  0  0
  -21.9897   -9.0271   20.4666 C   0  0  0  0  0  0
  -22.7250  -10.2140   20.3066 C   0  0  0  0  0  0
  -21.6848   -6.0732   22.5283 C   0  0  0  0  0  0
  -21.4012   -6.5637   23.8218 C   0  0  0  0  0  0
  -21.3666   -5.6795   24.9181 C   0  0  0  0  0  0
  -21.6037   -4.3054   24.7232 C   0  0  0  0  0  0
  -21.8827   -3.8144   23.4354 C   0  0  0  0  0  0
  -21.9187   -4.6957   22.3407 C   0  0  0  0  0  0
  -22.7821  -13.5239   21.1851 C   0  0  0  0  0  0
  -22.1655   -4.2148   21.0986 F   0  0  0  0  0  0
  -21.5629   -3.4534   25.7746 F   0  0  0  0  0  0
  -29.9806  -13.5307   20.3941 N   0  0  0  0  0  0
  -26.2929  -12.9371   20.3222 N   0  0  0  0  0  0
  -25.9312  -11.6518   20.5717 N   0  0  0  0  0  0
  -22.0445  -12.8244   22.0408 N   0  0  0  0  0  0
  -25.4173  -15.1895   20.3987 N   0  0  0  0  0  0
  -31.7994  -14.8680   20.2485 O   0  0  0  0  0  0
  -21.6636   -6.8879   21.4250 O   0  0  0  0  0  0
  -22.3530  -14.5554   20.6706 O   0  0  0  0  0  0
  -24.6305  -31.8555   23.1972 C   0  0  0  0  0  0
  -25.9141  -32.4758   23.8314 C   0  0  1  0  0  0
  -27.2335  -27.2779   20.1366 C   0  0  0  0  0  0
  -25.5960  -33.8547   24.2259 N   0  0  0  0  0  0
  -23.4285  -30.4754   21.5378 C   0  0  2  0  0  0
  -24.8792  -28.9195   20.1138 C   0  0  0  0  0  0
  -22.7513  -29.4609   22.4914 C   0  0  0  0  0  0
  -18.0303  -28.1411   22.8492 C   0  0  0  0  0  0
  -24.1478  -36.7258   23.2645 C   0  0  0  0  0  0
  -25.9711  -30.7763   21.3699 C   0  0  0  0  0  0
  -26.0503  -29.3979   20.7168 C   0  0  0  0  0  0
  -27.2343  -28.5927   20.7091 C   0  0  0  0  0  0
  -26.0427  -26.8621   19.5069 C   0  0  0  0  0  0
  -24.8796  -27.6571   19.4988 C   0  0  0  0  0  0
  -23.6474  -29.8024   20.1567 C   0  0  0  0  0  0
  -25.4106  -36.3048   24.0325 C   0  0  1  0  0  0
  -20.5906  -28.3701   23.1288 C   0  0  2  0  0  0
  -20.6773  -26.9421   22.5415 C   0  0  0  0  0  0
  -19.5738  -26.6398   21.5225 C   0  0  0  0  0  0
  -18.1925  -26.7948   22.1641 C   0  0  0  0  0  0
  -19.1556  -28.8879   23.2880 C   0  0  0  0  0  0
  -18.9474  -30.1490   23.8879 C   0  0  0  0  0  0
  -17.6467  -30.6596   24.0573 C   0  0  0  0  0  0
  -25.9061  -34.9433   23.5088 C   0  0  0  0  0  0
  -16.5364  -29.9093   23.6339 C   0  0  0  0  0  0
  -16.7286  -28.6526   23.0336 C   0  0  0  0  0  0
  -26.4536  -31.6563   25.0686 C   0  0  0  0  0  0
  -25.3780  -31.3697   26.1414 C   0  0  0  0  0  0
  -27.0408  -30.2994   24.6145 C   0  0  0  0  0  0
  -27.6087  -32.4324   25.7465 C   0  0  0  0  0  0
  -27.5568  -37.1784   24.8470 C   0  0  0  0  0  0
  -21.4220  -29.3036   22.3651 N   0  0  0  0  0  0
  -26.4279  -37.3752   23.9422 N   0  0  0  0  0  0
  -24.6958  -31.0548   22.0927 N   0  0  0  0  0  0
  -23.4212  -28.8149   23.3017 O   0  0  0  0  0  0
  -28.3389  -26.3988   20.1485 O   0  0  0  0  0  0
  -26.5609  -34.8922   22.4641 O   0  0  0  0  0  0
  -23.5467  -32.1383   23.7278 O   0  0  0  0  0  0
  -30.2679  -19.8717   22.2508 C   0  0  0  0  0  0
  -30.6023  -17.4419   22.3285 C   0  0  0  0  0  0
  -29.5445  -18.4825   20.3961 C   0  0  0  0  0  0
  -30.7272  -18.7181   22.9289 C   0  0  0  0  0  0
  -29.6648  -19.8159   20.9731 C   0  0  0  0  0  0
  -30.0136  -17.2678   21.0545 C   0  0  0  0  0  0
  -31.1856  -19.8719   25.1175 C   0  0  0  0  0  0
  -31.2923  -18.8171   24.2887 C   0  0  0  0  0  0
  -28.9260  -22.3211   20.8614 C   0  0  0  0  0  0
  -28.9494  -23.7069   20.0547 C   0  0  0  0  0  0
  -28.1465  -24.9903   20.6412 C   0  0  0  0  0  0
  -29.2890  -21.0960   20.3062 N   0  0  0  0  0  0
  -29.7774  -15.8793   20.5793 N   0  0  0  0  0  0
  -28.5400  -22.3731   22.0308 O   0  0  0  0  0  0
  -31.4812  -12.6323   19.1561 H   0  0  0  0  0  0
  -30.4092  -11.5001   19.9462 H   0  0  0  0  0  0
  -29.8078  -11.7473   17.5155 H   0  0  0  0  0  0
  -29.6331  -13.4715   17.7126 H   0  0  0  0  0  0
  -27.9112  -11.2767   18.9130 H   0  0  0  0  0  0
  -27.3858  -12.5078   17.7946 H   0  0  0  0  0  0
  -27.6319  -14.2462   19.4594 H   0  0  0  0  0  0
  -28.7309  -12.1626   21.4161 H   0  0  0  0  0  0
  -28.4144  -13.8386   21.7911 H   0  0  0  0  0  0
  -25.2771   -9.5676   22.4768 H   0  0  0  0  0  0
  -23.9993   -7.4635   22.7479 H   0  0  0  0  0  0
  -21.0838   -8.8803   19.8952 H   0  0  0  0  0  0
  -22.3727  -10.9681   19.6172 H   0  0  0  0  0  0
  -21.2018   -7.6146   23.9732 H   0  0  0  0  0  0
  -21.1468   -6.0514   25.9091 H   0  0  0  0  0  0
  -22.0592   -2.7602   23.2859 H   0  0  0  0  0  0
  -22.4043  -11.9931   22.4843 H   0  0  0  0  0  0
  -21.1068  -13.1302   22.2595 H   0  0  0  0  0  0
  -24.6406  -15.8341   20.5014 H   0  0  0  0  0  0
  -26.2521  -15.6298   20.0355 H   0  0  0  0  0  0
  -26.7203  -32.5418   23.1066 H   0  0  0  0  0  0
  -25.0138  -33.9663   25.0431 H   0  0  0  0  0  0
  -22.7240  -31.2962   21.3858 H   0  0  0  0  0  0
  -23.3741  -35.9587   23.3302 H   0  0  0  0  0  0
  -24.3576  -36.8868   22.2064 H   0  0  0  0  0  0
  -23.7240  -37.6466   23.6663 H   0  0  0  0  0  0
  -26.1025  -31.5351   20.5952 H   0  0  0  0  0  0
  -26.8529  -30.8348   21.9950 H   0  0  0  0  0  0
  -28.1344  -28.9603   21.1792 H   0  0  0  0  0  0
  -26.0032  -25.8961   19.0249 H   0  0  0  0  0  0
  -23.9833  -27.2823   19.0243 H   0  0  0  0  0  0
  -23.7701  -30.5726   19.3947 H   0  0  0  0  0  0
  -22.7683  -29.2316   19.8557 H   0  0  0  0  0  0
  -25.1289  -36.1877   25.0813 H   0  0  0  0  0  0
  -21.0024  -28.3277   24.1406 H   0  0  0  0  0  0
  -20.5675  -26.2319   23.3626 H   0  0  0  0  0  0
  -21.6639  -26.7422   22.1218 H   0  0  0  0  0  0
  -19.6877  -25.6316   21.1245 H   0  0  0  0  0  0
  -19.6668  -27.3220   20.6772 H   0  0  0  0  0  0
  -17.4204  -26.6733   21.4033 H   0  0  0  0  0  0
  -18.0290  -26.0100   22.9047 H   0  0  0  0  0  0
  -19.7946  -30.7328   24.2218 H   0  0  0  0  0  0
  -17.5014  -31.6261   24.5201 H   0  0  0  0  0  0
  -15.5364  -30.2975   23.7675 H   0  0  0  0  0  0
  -15.8697  -28.0846   22.7018 H   0  0  0  0  0  0
  -24.5962  -30.7030   25.7753 H   0  0  0  0  0  0
  -24.8985  -32.2871   26.4845 H   0  0  0  0  0  0
  -25.8144  -30.8895   27.0183 H   0  0  0  0  0  0
  -26.2994  -29.6705   24.1212 H   0  0  0  0  0  0
  -27.4154  -29.7278   25.4648 H   0  0  0  0  0  0
  -27.8825  -30.4273   23.9334 H   0  0  0  0  0  0
  -27.2673  -33.3613   26.2038 H   0  0  0  0  0  0
  -28.3918  -32.6900   25.0321 H   0  0  0  0  0  0
  -28.0734  -31.8465   26.5405 H   0  0  0  0  0  0
  -28.2586  -38.0080   24.7525 H   0  0  0  0  0  0
  -28.1069  -36.2626   24.6285 H   0  0  0  0  0  0
  -27.2298  -37.1399   25.8874 H   0  0  0  0  0  0
  -20.9421  -29.8762   21.6839 H   0  0  0  0  0  0
  -26.0140  -38.2803   24.1466 H   0  0  0  0  0  0
  -30.4089  -20.8347   22.7183 H   0  0  0  0  0  0
  -30.9249  -16.5735   22.8861 H   0  0  0  0  0  0
  -29.0725  -18.3911   19.4291 H   0  0  0  0  0  0
  -31.6520  -19.8557   26.0919 H   0  0  0  0  0  0
  -30.6352  -20.7662   24.8607 H   0  0  0  0  0  0
  -31.8556  -17.9632   24.6367 H   0  0  0  0  0  0
  -30.0027  -23.9833   19.9950 H   0  0  0  0  0  0
  -28.6356  -23.5228   19.0275 H   0  0  0  0  0  0
  -28.4054  -25.0520   21.6973 H   0  0  0  0  0  0
  -27.0885  -24.7323   20.6398 H   0  0  0  0  0  0
  -29.3866  -21.0983   19.2995 H   0  0  0  0  0  0
  -28.8081  -15.6654   20.4091 H   0  0  0  0  0  0
  1 25  1  0  0  0
  1 30  2  0  0  0
  1 83  1  0  0  0
  2  3  1  0  0  0
  2 25  1  0  0  0
  2 85  1  0  0  0
  2 86  1  0  0  0
  3  4  1  0  0  0
  3 87  1  0  0  0
  3 88  1  0  0  0
  4  5  1  0  0  0
  4 89  1  0  0  0
  4 90  1  0  0  0
  5  6  1  0  0  0
  5 26  1  0  0  0
  5 91  1  0  0  0
  6 25  1  0  0  0
  6 92  1  0  0  0
  6 93  1  0  0  0
  7  8  2  0  0  0
  7 26  1  0  0  0
  7 29  1  0  0  0
  8  9  1  0  0  0
  8 22  1  0  0  0
  9 10  1  0  0  0
  9 27  2  0  0  0
 10 11  2  0  0  0
 10 15  1  0  0  0
 11 12  1  0  0  0
 11 94  1  0  0  0
 12 13  2  0  0  0
 12 95  1  0  0  0
 13 14  1  0  0  0
 13 31  1  0  0  0
 14 15  2  0  0  0
 14 96  1  0  0  0
 15 97  1  0  0  0
 16 17  2  0  0  0
 16 21  1  0  0  0
 16 31  1  0  0  0
 17 18  1  0  0  0
 17 98  1  0  0  0
 18 19  2  0  0  0
 18 99  1  0  0  0
 19 20  1  0  0  0
 19 24  1  0  0  0
 20 21  2  0  0  0
 20100  1  0  0  0
 21 23  1  0  0  0
 22 28  1  0  0  0
 22 32  2  0  0  0
 26 27  1  0  0  0
 28101  1  0  0  0
 28102  1  0  0  0
 29103  1  0  0  0
 29104  1  0  0  0
 33 34  1  0  0  0
 33 66  1  0  0  0
 33 70  2  0  0  0
 34 36  1  0  0  0
 34 59  1  0  0  0
 34105  1  0  0  0
 35 44  2  0  0  0
 35 45  1  0  0  0
 35 68  1  0  0  0
 36 56  1  0  0  0
 36106  1  0  0  0
 37 39  1  0  0  0
 37 47  1  0  0  0
 37 66  1  0  0  0
 37107  1  0  0  0
 38 43  2  0  0  0
 38 46  1  0  0  0
 38 47  1  0  0  0
 39 64  1  0  0  0
 39 67  2  0  0  0
 40 52  1  0  0  0
 40 53  2  0  0  0
 40 58  1  0  0  0
 41108  1  0  0  0
 41109  1  0  0  0
 41110  1  0  0  0
 41 48  1  0  0  0
 42 43  1  0  0  0
 42 66  1  0  0  0
 42111  1  0  0  0
 42112  1  0  0  0
 43 44  1  0  0  0
 44113  1  0  0  0
 45 46  2  0  0  0
 45114  1  0  0  0
 46115  1  0  0  0
 47116  1  0  0  0
 47117  1  0  0  0
 48 56  1  0  0  0
 48 65  1  0  0  0
 48118  1  0  0  0
 49 50  1  0  0  0
 49 53  1  0  0  0
 49 64  1  0  0  0
 49119  1  0  0  0
 50 51  1  0  0  0
 50120  1  0  0  0
 50121  1  0  0  0
 51 52  1  0  0  0
 51122  1  0  0  0
 51123  1  0  0  0
 52124  1  0  0  0
 52125  1  0  0  0
 53 54  1  0  0  0
 54 55  2  0  0  0
 54126  1  0  0  0
 55 57  1  0  0  0
 55127  1  0  0  0
 56 69  2  0  0  0
 57 58  2  0  0  0
 57128  1  0  0  0
 58129  1  0  0  0
 59 60  1  0  0  0
 59 61  1  0  0  0
 59 62  1  0  0  0
 60130  1  0  0  0
 60131  1  0  0  0
 60132  1  0  0  0
 61133  1  0  0  0
 61134  1  0  0  0
 61135  1  0  0  0
 62136  1  0  0  0
 62137  1  0  0  0
 62138  1  0  0  0
 63 65  1  0  0  0
 63139  1  0  0  0
 63140  1  0  0  0
 63141  1  0  0  0
 64142  1  0  0  0
 65143  1  0  0  0
 68 81  1  0  0  0
 71 74  2  0  0  0
 71 75  1  0  0  0
 71144  1  0  0  0
 72 74  1  0  0  0
 72 76  2  0  0  0
 72145  1  0  0  0
 73 75  2  0  0  0
 73 76  1  0  0  0
 73146  1  0  0  0
 74 78  1  0  0  0
 75 82  1  0  0  0
 76 83  1  0  0  0
 77 78  2  0  0  0
 77147  1  0  0  0
 77148  1  0  0  0
 78149  1  0  0  0
 79 80  1  0  0  0
 79 82  1  0  0  0
 79 84  2  0  0  0
 80 81  1  0  0  0
 80150  1  0  0  0
 80151  1  0  0  0
 81152  1  0  0  0
 81153  1  0  0  0
 82154  1  0  0  0
 83155  1  0  0  0
M  ISO  4   1 100  68 101  81 101  83 100
M  END
> <chiral flag>
0

> <version>
0

> <s_m_source_file>
/data/baiqing/PycharmProjects/Reinvent-master-3.2/result/LINK_invent/BTK/process_docking_weight1_custom_product_contain_oxygen_bond_distance_aromatic_linkinvent_7_9_3/rearranged_h_0066.sdf

> <i_m_source_file_index>
59

> <r_mmod_Potential_Energy-OPLS-2005>
177.406631469727

> <r_mmod_Stretch_Energy-OPLS-2005>
123.407485961914

> <r_mmod_Bend_Energy-OPLS-2005>
157.473205566406

> <r_mmod_Torsional_Energy-OPLS-2005>
275.319854736328

> <r_mmod_Improper_Torsional_Energy-OPLS-2005>
9.30873775482178

> <r_mmod_Van_der_Waal_Energy-OPLS-2005>
139.465286254883

> <r_mmod_Electrostatic_Energy-OPLS-2005>
-375.725250244141

> <r_mmod_Solvation_Energy-OPLS-2005>
-237.135345458984

> <b_mmod_Minimization_Converged-OPLS-2005>
0

> <r_mmod_RMS_Derivative-OPLS-2005>
3.1246919631958

$$$$
59
                    3D
 Structure written by MMmdl.
160168  0  0  1  0            999 V2000
  -30.6075  -14.6603   20.5231 C   0  0  0  0  0  0
  -30.4403  -12.4056   19.4633 C   0  0  0  0  0  0
  -29.5114  -12.5109   18.2320 C   0  0  0  0  0  0
  -28.0343  -12.3388   18.6405 C   0  0  0  0  0  0
  -27.6522  -13.2111   19.8640 C   0  0  2  0  0  0
  -28.6941  -13.0730   20.9979 C   0  0  0  0  0  0
  -25.2565  -13.8177   20.5688 C   0  0  0  0  0  0
  -24.1831  -13.0446   20.9225 C   0  0  0  0  0  0
  -24.6385  -11.6906   20.8751 C   0  0  0  0  0  0
  -23.9053  -10.4296   21.0424 C   0  0  0  0  0  0
  -24.3617   -9.4211   21.9200 C   0  0  0  0  0  0
  -23.6306   -8.2237   22.0744 C   0  0  0  0  0  0
  -22.4283   -8.0285   21.3540 C   0  0  0  0  0  0
  -21.9921   -9.0254   20.4637 C   0  0  0  0  0  0
  -22.7234  -10.2142   20.3063 C   0  0  0  0  0  0
  -21.6848   -6.0758   22.5283 C   0  0  0  0  0  0
  -21.4018   -6.5653   23.8222 C   0  0  0  0  0  0
  -21.3653   -5.6797   24.9173 C   0  0  0  0  0  0
  -21.6044   -4.3066   24.7219 C   0  0  0  0  0  0
  -21.8818   -3.8163   23.4336 C   0  0  0  0  0  0
  -21.9192   -4.6986   22.3399 C   0  0  0  0  0  0
  -22.7853  -13.5241   21.1894 C   0  0  0  0  0  0
  -22.1663   -4.2179   21.0984 F   0  0  0  0  0  0
  -21.5617   -3.4544   25.7726 F   0  0  0  0  0  0
  -30.0119  -13.4250   20.4434 N   0  0  0  0  0  0
  -26.2969  -12.9322   20.3303 N   0  0  0  0  0  0
  -25.9312  -11.6488   20.5769 N   0  0  0  0  0  0
  -22.0485  -12.8216   22.0439 N   0  0  0  0  0  0
  -25.4327  -15.1892   20.4046 N   0  0  0  0  0  0
  -31.7494  -14.8531   20.0945 O   0  0  0  0  0  0
  -21.6632   -6.8896   21.4245 O   0  0  0  0  0  0
  -22.3533  -14.5547   20.6729 O   0  0  0  0  0  0
  -24.6259  -31.8580   23.1988 C   0  0  0  0  0  0
  -25.9095  -32.4760   23.8340 C   0  0  1  0  0  0
  -27.2177  -27.2917   20.1473 C   0  0  0  0  0  0
  -25.5919  -33.8557   24.2278 N   0  0  0  0  0  0
  -23.4216  -30.4819   21.5399 C   0  0  2  0  0  0
  -24.8688  -28.9248   20.1218 C   0  0  0  0  0  0
  -22.7494  -29.4599   22.4886 C   0  0  0  0  0  0
  -18.0298  -28.1346   22.8448 C   0  0  0  0  0  0
  -24.1501  -36.7274   23.2652 C   0  0  0  0  0  0
  -25.9637  -30.7819   21.3760 C   0  0  0  0  0  0
  -26.0368  -29.4013   20.7335 C   0  0  0  0  0  0
  -27.2140  -28.5943   20.7389 C   0  0  0  0  0  0
  -26.0395  -26.8818   19.4945 C   0  0  0  0  0  0
  -24.8726  -27.6698   19.4972 C   0  0  0  0  0  0
  -23.6424  -29.8127   20.1583 C   0  0  0  0  0  0
  -25.4089  -36.3048   24.0365 C   0  0  1  0  0  0
  -20.5904  -28.3633   23.1250 C   0  0  2  0  0  0
  -20.6758  -26.9345   22.5381 C   0  0  0  0  0  0
  -19.5753  -26.6341   21.5171 C   0  0  0  0  0  0
  -18.1929  -26.7883   22.1604 C   0  0  0  0  0  0
  -19.1547  -28.8803   23.2856 C   0  0  0  0  0  0
  -18.9490  -30.1394   23.8872 C   0  0  0  0  0  0
  -17.6504  -30.6532   24.0540 C   0  0  0  0  0  0
  -25.9026  -34.9437   23.5120 C   0  0  0  0  0  0
  -16.5378  -29.9031   23.6333 C   0  0  0  0  0  0
  -16.7290  -28.6458   23.0322 C   0  0  0  0  0  0
  -26.4474  -31.6538   25.0698 C   0  0  0  0  0  0
  -25.3719  -31.3744   26.1437 C   0  0  0  0  0  0
  -27.0292  -30.2954   24.6104 C   0  0  0  0  0  0
  -27.6031  -32.4282   25.7471 C   0  0  0  0  0  0
  -27.5571  -37.1772   24.8469 C   0  0  0  0  0  0
  -21.4193  -29.3029   22.3658 N   0  0  0  0  0  0
  -26.4265  -37.3739   23.9437 N   0  0  0  0  0  0
  -24.6887  -31.0599   22.0940 N   0  0  0  0  0  0
  -23.4231  -28.8114   23.2932 O   0  0  0  0  0  0
  -28.3513  -26.4663   20.0890 O   0  0  0  0  0  0
  -26.5592  -34.8926   22.4685 O   0  0  0  0  0  0
  -23.5410  -32.1398   23.7289 O   0  0  0  0  0  0
  -28.3047  -18.8296   19.6340 C   0  0  0  0  0  0
  -30.3272  -18.1512   21.4082 C   0  0  0  0  0  0
  -28.8270  -19.9020   20.4188 C   0  0  0  0  0  0
  -29.9115  -19.5331   21.2846 C   0  0  0  0  0  0
  -29.6974  -17.0833   20.6987 C   0  0  0  0  0  0
  -28.6952  -17.4757   19.7835 C   0  0  0  0  0  0
  -28.1042  -21.2599   20.3110 C   0  0  0  0  0  0
  -27.9022  -23.8468   20.2741 C   0  0  0  0  0  0
  -28.0641  -25.3937   22.3271 C   0  0  0  0  0  0
  -32.0072  -20.5042   22.0190 C   0  0  0  0  0  0
  -28.5032  -25.1955   20.8665 C   0  0  2  0  0  0
  -29.8290  -15.6607   21.0380 N   0  0  0  0  0  0
  -30.5464  -20.5233   22.0580 N   0  0  0  0  0  0
  -28.6068  -22.5418   20.4923 N   0  0  0  0  0  0
  -26.7974  -21.1615   20.0157 N   0  3  0  0  0  0
  -26.8099  -23.8577   19.6999 O   0  0  0  0  0  0
  -28.0350  -16.5276   19.0763 F   0  0  0  0  0  0
  -31.4828  -12.5332   19.1679 H   0  0  0  0  0  0
  -30.3756  -11.4108   19.9066 H   0  0  0  0  0  0
  -29.7799  -11.7571   17.4904 H   0  0  0  0  0  0
  -29.6484  -13.4791   17.7469 H   0  0  0  0  0  0
  -27.8769  -11.2867   18.8789 H   0  0  0  0  0  0
  -27.3788  -12.5621   17.7966 H   0  0  0  0  0  0
  -27.6651  -14.2411   19.5142 H   0  0  0  0  0  0
  -28.7095  -12.0511   21.3776 H   0  0  0  0  0  0
  -28.4218  -13.6958   21.8507 H   0  0  0  0  0  0
  -25.2764   -9.5695   22.4771 H   0  0  0  0  0  0
  -24.0015   -7.4633   22.7452 H   0  0  0  0  0  0
  -21.0853   -8.8778   19.8946 H   0  0  0  0  0  0
  -22.3702  -10.9685   19.6174 H   0  0  0  0  0  0
  -21.2015   -7.6162   23.9737 H   0  0  0  0  0  0
  -21.1471   -6.0524   25.9079 H   0  0  0  0  0  0
  -22.0602   -2.7628   23.2821 H   0  0  0  0  0  0
  -22.4078  -11.9856   22.4817 H   0  0  0  0  0  0
  -21.1106  -13.1245   22.2644 H   0  0  0  0  0  0
  -24.6603  -15.8407   20.4822 H   0  0  0  0  0  0
  -26.2592  -15.6004   19.9878 H   0  0  0  0  0  0
  -26.7149  -32.5421   23.1090 H   0  0  0  0  0  0
  -25.0106  -33.9711   25.0451 H   0  0  0  0  0  0
  -22.7157  -31.3016   21.3857 H   0  0  0  0  0  0
  -23.3761  -35.9609   23.3285 H   0  0  0  0  0  0
  -24.3616  -36.8892   22.2073 H   0  0  0  0  0  0
  -23.7283  -37.6492   23.6661 H   0  0  0  0  0  0
  -26.0969  -31.5360   20.5981 H   0  0  0  0  0  0
  -26.8452  -30.8371   22.0013 H   0  0  0  0  0  0
  -28.1126  -28.9571   21.2167 H   0  0  0  0  0  0
  -26.0127  -25.9509   18.9540 H   0  0  0  0  0  0
  -23.9818  -27.2998   19.0096 H   0  0  0  0  0  0
  -23.7761  -30.5860   19.4021 H   0  0  0  0  0  0
  -22.7632  -29.2472   19.8474 H   0  0  0  0  0  0
  -25.1272  -36.1905   25.0856 H   0  0  0  0  0  0
  -21.0000  -28.3177   24.1382 H   0  0  0  0  0  0
  -20.5594  -26.2248   23.3573 H   0  0  0  0  0  0
  -21.6622  -26.7309   22.1213 H   0  0  0  0  0  0
  -19.6918  -25.6263   21.1173 H   0  0  0  0  0  0
  -19.6701  -27.3165   20.6701 H   0  0  0  0  0  0
  -17.4194  -26.6624   21.4010 H   0  0  0  0  0  0
  -18.0337  -26.0005   22.8993 H   0  0  0  0  0  0
  -19.7977  -30.7182   24.2236 H   0  0  0  0  0  0
  -17.5070  -31.6237   24.5112 H   0  0  0  0  0  0
  -15.5377  -30.2944   23.7635 H   0  0  0  0  0  0
  -15.8694  -28.0776   22.7037 H   0  0  0  0  0  0
  -24.5914  -30.7025   25.7831 H   0  0  0  0  0  0
  -24.8869  -32.2933   26.4734 H   0  0  0  0  0  0
  -25.8050  -30.9067   27.0289 H   0  0  0  0  0  0
  -26.2835  -29.6732   24.1106 H   0  0  0  0  0  0
  -27.4015  -29.7166   25.4571 H   0  0  0  0  0  0
  -27.8718  -30.4255   23.9313 H   0  0  0  0  0  0
  -27.2606  -33.3597   26.2004 H   0  0  0  0  0  0
  -28.3855  -32.6797   25.0307 H   0  0  0  0  0  0
  -28.0655  -31.8421   26.5429 H   0  0  0  0  0  0
  -28.2533  -38.0105   24.7463 H   0  0  0  0  0  0
  -28.1124  -36.2624   24.6316 H   0  0  0  0  0  0
  -27.2318  -37.1441   25.8882 H   0  0  0  0  0  0
  -20.9335  -29.8850   21.6980 H   0  0  0  0  0  0
  -26.0166  -38.2829   24.1397 H   0  0  0  0  0  0
  -27.5129  -19.0200   18.9254 H   0  0  0  0  0  0
  -31.1057  -17.8900   22.1102 H   0  0  0  0  0  0
  -28.3102  -24.5185   22.9319 H   0  0  0  0  0  0
  -26.9897  -25.5573   22.4108 H   0  0  0  0  0  0
  -28.5719  -26.2483   22.7751 H   0  0  0  0  0  0
  -32.4029  -21.5200   22.0720 H   0  0  0  0  0  0
  -32.3937  -20.0541   21.1026 H   0  0  0  0  0  0
  -32.4090  -19.9523   22.8706 H   0  0  0  0  0  0
  -29.5786  -25.0241   20.8880 H   0  0  0  0  0  0
  -28.9629  -15.2699   21.3712 H   0  0  0  0  0  0
  -30.1932  -20.5669   23.0156 H   0  0  0  0  0  0
  -29.5278  -22.5077   20.9084 H   0  0  0  0  0  0
  -26.3327  -20.2671   20.0012 H   0  0  0  0  0  0
  -26.2810  -22.0043   19.7991 H   0  0  0  0  0  0
  1 25  1  0  0  0
  1 30  2  0  0  0
  1 82  1  0  0  0
  2  3  1  0  0  0
  2 25  1  0  0  0
  2 88  1  0  0  0
  2 89  1  0  0  0
  3  4  1  0  0  0
  3 90  1  0  0  0
  3 91  1  0  0  0
  4  5  1  0  0  0
  4 92  1  0  0  0
  4 93  1  0  0  0
  5  6  1  0  0  0
  5 26  1  0  0  0
  5 94  1  0  0  0
  6 25  1  0  0  0
  6 95  1  0  0  0
  6 96  1  0  0  0
  7  8  2  0  0  0
  7 26  1  0  0  0
  7 29  1  0  0  0
  8  9  1  0  0  0
  8 22  1  0  0  0
  9 10  1  0  0  0
  9 27  2  0  0  0
 10 11  2  0  0  0
 10 15  1  0  0  0
 11 12  1  0  0  0
 11 97  1  0  0  0
 12 13  2  0  0  0
 12 98  1  0  0  0
 13 14  1  0  0  0
 13 31  1  0  0  0
 14 15  2  0  0  0
 14 99  1  0  0  0
 15100  1  0  0  0
 16 17  2  0  0  0
 16 21  1  0  0  0
 16 31  1  0  0  0
 17 18  1  0  0  0
 17101  1  0  0  0
 18 19  2  0  0  0
 18102  1  0  0  0
 19 20  1  0  0  0
 19 24  1  0  0  0
 20 21  2  0  0  0
 20103  1  0  0  0
 21 23  1  0  0  0
 22 28  1  0  0  0
 22 32  2  0  0  0
 26 27  1  0  0  0
 28104  1  0  0  0
 28105  1  0  0  0
 29106  1  0  0  0
 29107  1  0  0  0
 33 34  1  0  0  0
 33 66  1  0  0  0
 33 70  2  0  0  0
 34 36  1  0  0  0
 34 59  1  0  0  0
 34108  1  0  0  0
 35 44  2  0  0  0
 35 45  1  0  0  0
 35 68  1  0  0  0
 36 56  1  0  0  0
 36109  1  0  0  0
 37 39  1  0  0  0
 37 47  1  0  0  0
 37 66  1  0  0  0
 37110  1  0  0  0
 38 43  2  0  0  0
 38 46  1  0  0  0
 38 47  1  0  0  0
 39 64  1  0  0  0
 39 67  2  0  0  0
 40 52  1  0  0  0
 40 53  2  0  0  0
 40 58  1  0  0  0
 41111  1  0  0  0
 41112  1  0  0  0
 41113  1  0  0  0
 41 48  1  0  0  0
 42 43  1  0  0  0
 42 66  1  0  0  0
 42114  1  0  0  0
 42115  1  0  0  0
 43 44  1  0  0  0
 44116  1  0  0  0
 45 46  2  0  0  0
 45117  1  0  0  0
 46118  1  0  0  0
 47119  1  0  0  0
 47120  1  0  0  0
 48 56  1  0  0  0
 48 65  1  0  0  0
 48121  1  0  0  0
 49 50  1  0  0  0
 49 53  1  0  0  0
 49 64  1  0  0  0
 49122  1  0  0  0
 50 51  1  0  0  0
 50123  1  0  0  0
 50124  1  0  0  0
 51 52  1  0  0  0
 51125  1  0  0  0
 51126  1  0  0  0
 52127  1  0  0  0
 52128  1  0  0  0
 53 54  1  0  0  0
 54 55  2  0  0  0
 54129  1  0  0  0
 55 57  1  0  0  0
 55130  1  0  0  0
 56 69  2  0  0  0
 57 58  2  0  0  0
 57131  1  0  0  0
 58132  1  0  0  0
 59 60  1  0  0  0
 59 61  1  0  0  0
 59 62  1  0  0  0
 60133  1  0  0  0
 60134  1  0  0  0
 60135  1  0  0  0
 61136  1  0  0  0
 61137  1  0  0  0
 61138  1  0  0  0
 62139  1  0  0  0
 62140  1  0  0  0
 62141  1  0  0  0
 63 65  1  0  0  0
 63142  1  0  0  0
 63143  1  0  0  0
 63144  1  0  0  0
 64145  1  0  0  0
 65146  1  0  0  0
 68 81  1  0  0  0
 71 73  2  0  0  0
 71 76  1  0  0  0
 71147  1  0  0  0
 72 74  2  0  0  0
 72 75  1  0  0  0
 72148  1  0  0  0
 73 74  1  0  0  0
 73 77  1  0  0  0
 74 83  1  0  0  0
 75 76  2  0  0  0
 75 82  1  0  0  0
 76 87  1  0  0  0
 77 84  1  0  0  0
 77 85  2  0  0  0
 78 81  1  0  0  0
 78 84  1  0  0  0
 78 86  2  0  0  0
 79149  1  0  0  0
 79150  1  0  0  0
 79151  1  0  0  0
 79 81  1  0  0  0
 80 83  1  0  0  0
 80152  1  0  0  0
 80153  1  0  0  0
 80154  1  0  0  0
 81155  1  0  0  0
 82156  1  0  0  0
 83157  1  0  0  0
 84158  1  0  0  0
 85159  1  0  0  0
 85160  1  0  0  0
M  CHG  1  85   1
M  ISO  4   1 100  68 101  81 101  82 100
M  END
> <chiral flag>
0

> <version>
0

> <s_m_source_file>
/data/baiqing/PycharmProjects/Reinvent-master-3.2/result/LINK_invent/BTK/process_docking_weight1_custom_product_contain_oxygen_bond_distance_aromatic_linkinvent_7_9_3/rearranged_h_0066.sdf

> <i_m_source_file_index>
60

> <r_mmod_Potential_Energy-OPLS-2005>
-89.5642471313477

> <r_mmod_Stretch_Energy-OPLS-2005>
100.025886535645

> <r_mmod_Bend_Energy-OPLS-2005>
177.982666015625

> <r_mmod_Torsional_Energy-OPLS-2005>
294.599731445312

> <r_mmod_Improper_Torsional_Energy-OPLS-2005>
13.0132522583008

> <r_mmod_Van_der_Waal_Energy-OPLS-2005>
157.247406005859

> <r_mmod_Electrostatic_Energy-OPLS-2005>
-437.356018066406

> <r_mmod_Solvation_Energy-OPLS-2005>
-448.548156738281

> <b_mmod_Minimization_Converged-OPLS-2005>
0

> <r_mmod_RMS_Derivative-OPLS-2005>
4.03908252716064

$$$$
60
                    3D
 Structure written by MMmdl.
162171  0  0  1  0            999 V2000
  -30.6464  -14.5414   20.5574 C   0  0  0  0  0  0
  -30.4443  -12.3446   19.4289 C   0  0  0  0  0  0
  -29.5073  -12.5100   18.2116 C   0  0  0  0  0  0
  -28.0277  -12.3559   18.6224 C   0  0  0  0  0  0
  -27.6640  -13.2011   19.8717 C   0  0  2  0  0  0
  -28.7063  -12.9845   20.9925 C   0  0  0  0  0  0
  -25.2617  -13.8132   20.5669 C   0  0  0  0  0  0
  -24.1858  -13.0426   20.9179 C   0  0  0  0  0  0
  -24.6392  -11.6886   20.8722 C   0  0  0  0  0  0
  -23.9043  -10.4285   21.0401 C   0  0  0  0  0  0
  -24.3599   -9.4207   21.9178 C   0  0  0  0  0  0
  -23.6282   -8.2235   22.0749 C   0  0  0  0  0  0
  -22.4262   -8.0272   21.3541 C   0  0  0  0  0  0
  -21.9890   -9.0247   20.4652 C   0  0  0  0  0  0
  -22.7210  -10.2131   20.3057 C   0  0  0  0  0  0
  -21.6853   -6.0722   22.5278 C   0  0  0  0  0  0
  -21.4011   -6.5625   23.8207 C   0  0  0  0  0  0
  -21.3661   -5.6786   24.9174 C   0  0  0  0  0  0
  -21.6046   -4.3045   24.7226 C   0  0  0  0  0  0
  -21.8821   -3.8136   23.4347 C   0  0  0  0  0  0
  -21.9194   -4.6953   22.3403 C   0  0  0  0  0  0
  -22.7885  -13.5251   21.1837 C   0  0  0  0  0  0
  -22.1667   -4.2138   21.0979 F   0  0  0  0  0  0
  -21.5631   -3.4527   25.7735 F   0  0  0  0  0  0
  -30.0339  -13.3256   20.4477 N   0  0  0  0  0  0
  -26.3037  -12.9286   20.3326 N   0  0  0  0  0  0
  -25.9314  -11.6457   20.5734 N   0  0  0  0  0  0
  -22.0505  -12.8270   22.0395 N   0  0  0  0  0  0
  -25.4359  -15.1840   20.4052 N   0  0  0  0  0  0
  -31.7772  -14.7568   20.1096 O   0  0  0  0  0  0
  -21.6636   -6.8866   21.4236 O   0  0  0  0  0  0
  -22.3587  -14.5559   20.6674 O   0  0  0  0  0  0
  -24.6166  -31.8650   23.2073 C   0  0  0  0  0  0
  -25.9042  -32.4811   23.8386 C   0  0  1  0  0  0
  -27.2363  -27.4088   20.1028 C   0  0  0  0  0  0
  -25.5888  -33.8612   24.2310 N   0  0  0  0  0  0
  -23.4085  -30.4866   21.5487 C   0  0  2  0  0  0
  -24.8584  -28.9522   20.1134 C   0  0  0  0  0  0
  -22.7432  -29.4629   22.4973 C   0  0  0  0  0  0
  -18.0265  -28.1388   22.8480 C   0  0  0  0  0  0
  -24.1489  -36.7310   23.2637 C   0  0  0  0  0  0
  -25.9410  -30.8237   21.3665 C   0  0  0  0  0  0
  -26.0210  -29.4574   20.7105 C   0  0  0  0  0  0
  -27.2165  -28.6949   20.6985 C   0  0  0  0  0  0
  -26.0587  -26.9291   19.4912 C   0  0  0  0  0  0
  -24.8736  -27.6884   19.4989 C   0  0  0  0  0  0
  -23.6195  -29.8187   20.1641 C   0  0  0  0  0  0
  -25.4106  -36.3103   24.0337 C   0  0  1  0  0  0
  -20.5861  -28.3667   23.1321 C   0  0  2  0  0  0
  -20.6755  -26.9397   22.5435 C   0  0  0  0  0  0
  -19.5744  -26.6385   21.5219 C   0  0  0  0  0  0
  -18.1912  -26.7939   22.1607 C   0  0  0  0  0  0
  -19.1519  -28.8845   23.2896 C   0  0  0  0  0  0
  -18.9446  -30.1451   23.8900 C   0  0  0  0  0  0
  -17.6449  -30.6593   24.0556 C   0  0  0  0  0  0
  -25.9034  -34.9474   23.5123 C   0  0  0  0  0  0
  -16.5336  -29.9090   23.6331 C   0  0  0  0  0  0
  -16.7254  -28.6514   23.0340 C   0  0  0  0  0  0
  -26.4457  -31.6603   25.0731 C   0  0  0  0  0  0
  -25.3713  -31.3750   26.1483 C   0  0  0  0  0  0
  -27.0269  -30.3025   24.6145 C   0  0  0  0  0  0
  -27.6051  -32.4316   25.7467 C   0  0  0  0  0  0
  -27.5595  -37.1782   24.8442 C   0  0  0  0  0  0
  -21.4156  -29.3026   22.3724 N   0  0  0  0  0  0
  -26.4281  -37.3798   23.9424 N   0  0  0  0  0  0
  -24.6735  -31.0730   22.0987 N   0  0  0  0  0  0
  -23.4195  -28.8162   23.3017 O   0  0  0  0  0  0
  -28.3670  -26.6100   20.1128 O   0  0  0  0  0  0
  -26.5605  -34.8926   22.4689 O   0  0  0  0  0  0
  -23.5348  -32.1405   23.7449 O   0  0  0  0  0  0
  -28.4892  -19.0005   20.9257 C   0  0  0  0  0  0
  -28.6016  -17.5963   21.0386 C   0  0  0  0  0  0
  -30.9939  -17.7513   20.7120 C   0  0  0  0  0  0
  -30.8905  -19.1693   20.6138 C   0  0  0  0  0  0
  -29.6223  -19.8150   20.6989 C   0  0  0  0  0  0
  -29.8489  -16.9412   20.9225 C   0  0  0  0  0  0
  -29.3831  -23.3824   21.9276 C   0  0  0  0  0  0
  -29.5331  -21.9460   19.4504 C   0  0  0  0  0  0
  -29.9394  -23.8258   23.0677 C   0  0  0  0  0  0
  -28.8761  -21.9456   21.7866 C   0  0  0  0  0  0
  -29.0124  -23.4093   19.4143 C   0  0  0  0  0  0
  -29.2744  -24.2710   20.6863 C   0  0  1  0  0  0
  -32.1647  -19.9812   20.4537 C   0  0  0  0  0  0
  -28.2189  -25.4085   20.9063 C   0  0  0  0  0  0
  -29.4399  -21.2507   20.6173 N   0  0  0  0  0  0
  -29.8594  -15.5102   21.0875 N   0  0  0  0  0  0
  -29.9893  -21.4599   18.4101 O   0  0  0  0  0  0
  -31.4854  -12.4731   19.1262 H   0  0  0  0  0  0
  -30.3752  -11.3335   19.8329 H   0  0  0  0  0  0
  -29.7610  -11.7798   17.4416 H   0  0  0  0  0  0
  -29.6607  -13.4921   17.7614 H   0  0  0  0  0  0
  -27.8521  -11.2997   18.8309 H   0  0  0  0  0  0
  -27.3749  -12.6128   17.7873 H   0  0  0  0  0  0
  -27.7061  -14.2474   19.5664 H   0  0  0  0  0  0
  -28.7006  -11.9423   21.3153 H   0  0  0  0  0  0
  -28.4543  -13.5608   21.8839 H   0  0  0  0  0  0
  -25.2749   -9.5688   22.4745 H   0  0  0  0  0  0
  -24.0000   -7.4629   22.7462 H   0  0  0  0  0  0
  -21.0817   -8.8764   19.8966 H   0  0  0  0  0  0
  -22.3662  -10.9665   19.6163 H   0  0  0  0  0  0
  -21.1997   -7.6134   23.9706 H   0  0  0  0  0  0
  -21.1488   -6.0513   25.9079 H   0  0  0  0  0  0
  -22.0601   -2.7597   23.2845 H   0  0  0  0  0  0
  -22.4102  -11.9935   22.4817 H   0  0  0  0  0  0
  -21.1127  -13.1332   22.2583 H   0  0  0  0  0  0
  -24.6645  -15.8363   20.4960 H   0  0  0  0  0  0
  -26.2709  -15.6079   20.0225 H   0  0  0  0  0  0
  -26.7118  -32.5518   23.1156 H   0  0  0  0  0  0
  -25.0026  -33.9771   25.0445 H   0  0  0  0  0  0
  -22.6975  -31.3033   21.4080 H   0  0  0  0  0  0
  -23.3767  -35.9625   23.3263 H   0  0  0  0  0  0
  -24.3596  -36.8958   22.2061 H   0  0  0  0  0  0
  -23.7221  -37.6494   23.6674 H   0  0  0  0  0  0
  -26.0605  -31.5922   20.6018 H   0  0  0  0  0  0
  -26.8260  -30.8738   21.9894 H   0  0  0  0  0  0
  -28.1132  -29.0773   21.1663 H   0  0  0  0  0  0
  -26.0550  -25.9577   19.0165 H   0  0  0  0  0  0
  -23.9806  -27.2938   19.0340 H   0  0  0  0  0  0
  -23.7254  -30.5929   19.4031 H   0  0  0  0  0  0
  -22.7457  -29.2353   19.8692 H   0  0  0  0  0  0
  -25.1282  -36.1958   25.0827 H   0  0  0  0  0  0
  -20.9945  -28.3237   24.1446 H   0  0  0  0  0  0
  -20.5653  -26.2271   23.3624 H   0  0  0  0  0  0
  -21.6626  -26.7432   22.1238 H   0  0  0  0  0  0
  -19.6902  -25.6297   21.1251 H   0  0  0  0  0  0
  -19.6714  -27.3195   20.6752 H   0  0  0  0  0  0
  -17.4202  -26.6706   21.3984 H   0  0  0  0  0  0
  -18.0280  -26.0080   22.8997 H   0  0  0  0  0  0
  -19.7921  -30.7263   24.2279 H   0  0  0  0  0  0
  -17.5004  -31.6274   24.5155 H   0  0  0  0  0  0
  -15.5338  -30.2990   23.7663 H   0  0  0  0  0  0
  -15.8652  -28.0843   22.7044 H   0  0  0  0  0  0
  -24.5884  -30.7088   25.7841 H   0  0  0  0  0  0
  -24.8900  -32.2923   26.4888 H   0  0  0  0  0  0
  -25.8057  -30.8963   27.0268 H   0  0  0  0  0  0
  -26.2820  -29.6813   24.1161 H   0  0  0  0  0  0
  -27.3959  -29.7249   25.4630 H   0  0  0  0  0  0
  -27.8695  -30.4315   23.9348 H   0  0  0  0  0  0
  -27.2686  -33.3596   26.2100 H   0  0  0  0  0  0
  -28.3807  -32.6909   25.0249 H   0  0  0  0  0  0
  -28.0781  -31.8411   26.5321 H   0  0  0  0  0  0
  -28.2572  -38.0120   24.7552 H   0  0  0  0  0  0
  -28.1122  -36.2656   24.6163 H   0  0  0  0  0  0
  -27.2334  -37.1318   25.8846 H   0  0  0  0  0  0
  -20.9320  -29.8760   21.6954 H   0  0  0  0  0  0
  -26.0170  -38.2863   24.1473 H   0  0  0  0  0  0
  -27.5101  -19.4522   21.0142 H   0  0  0  0  0  0
  -27.7020  -17.0235   21.2164 H   0  0  0  0  0  0
  -31.9693  -17.2895   20.6525 H   0  0  0  0  0  0
  -30.0330  -23.1907   23.9373 H   0  0  0  0  0  0
  -30.3102  -24.8373   23.1542 H   0  0  0  0  0  0
  -27.7893  -21.9654   21.6961 H   0  0  0  0  0  0
  -29.1044  -21.3835   22.6930 H   0  0  0  0  0  0
  -27.9381  -23.3417   19.2400 H   0  0  0  0  0  0
  -29.4223  -23.9175   18.5410 H   0  0  0  0  0  0
  -30.2506  -24.7470   20.5755 H   0  0  0  0  0  0
  -33.0313  -19.4259   20.8126 H   0  0  0  0  0  0
  -32.1159  -20.9107   21.0221 H   0  0  0  0  0  0
  -32.3309  -20.2242   19.4047 H   0  0  0  0  0  0
  -28.2779  -25.7490   21.9415 H   0  0  0  0  0  0
  -27.2221  -24.9758   20.8108 H   0  0  0  0  0  0
  -28.9955  -15.1303   21.4415 H   0  0  0  0  0  0
  1 25  1  0  0  0
  1 30  2  0  0  0
  1 86  1  0  0  0
  2  3  1  0  0  0
  2 25  1  0  0  0
  2 88  1  0  0  0
  2 89  1  0  0  0
  3  4  1  0  0  0
  3 90  1  0  0  0
  3 91  1  0  0  0
  4  5  1  0  0  0
  4 92  1  0  0  0
  4 93  1  0  0  0
  5  6  1  0  0  0
  5 26  1  0  0  0
  5 94  1  0  0  0
  6 25  1  0  0  0
  6 95  1  0  0  0
  6 96  1  0  0  0
  7  8  2  0  0  0
  7 26  1  0  0  0
  7 29  1  0  0  0
  8  9  1  0  0  0
  8 22  1  0  0  0
  9 10  1  0  0  0
  9 27  2  0  0  0
 10 11  2  0  0  0
 10 15  1  0  0  0
 11 12  1  0  0  0
 11 97  1  0  0  0
 12 13  2  0  0  0
 12 98  1  0  0  0
 13 14  1  0  0  0
 13 31  1  0  0  0
 14 15  2  0  0  0
 14 99  1  0  0  0
 15100  1  0  0  0
 16 17  2  0  0  0
 16 21  1  0  0  0
 16 31  1  0  0  0
 17 18  1  0  0  0
 17101  1  0  0  0
 18 19  2  0  0  0
 18102  1  0  0  0
 19 20  1  0  0  0
 19 24  1  0  0  0
 20 21  2  0  0  0
 20103  1  0  0  0
 21 23  1  0  0  0
 22 28  1  0  0  0
 22 32  2  0  0  0
 26 27  1  0  0  0
 28104  1  0  0  0
 28105  1  0  0  0
 29106  1  0  0  0
 29107  1  0  0  0
 33 34  1  0  0  0
 33 66  1  0  0  0
 33 70  2  0  0  0
 34 36  1  0  0  0
 34 59  1  0  0  0
 34108  1  0  0  0
 35 44  2  0  0  0
 35 45  1  0  0  0
 35 68  1  0  0  0
 36 56  1  0  0  0
 36109  1  0  0  0
 37 39  1  0  0  0
 37 47  1  0  0  0
 37 66  1  0  0  0
 37110  1  0  0  0
 38 43  2  0  0  0
 38 46  1  0  0  0
 38 47  1  0  0  0
 39 64  1  0  0  0
 39 67  2  0  0  0
 40 52  1  0  0  0
 40 53  2  0  0  0
 40 58  1  0  0  0
 41111  1  0  0  0
 41112  1  0  0  0
 41113  1  0  0  0
 41 48  1  0  0  0
 42 43  1  0  0  0
 42 66  1  0  0  0
 42114  1  0  0  0
 42115  1  0  0  0
 43 44  1  0  0  0
 44116  1  0  0  0
 45 46  2  0  0  0
 45117  1  0  0  0
 46118  1  0  0  0
 47119  1  0  0  0
 47120  1  0  0  0
 48 56  1  0  0  0
 48 65  1  0  0  0
 48121  1  0  0  0
 49 50  1  0  0  0
 49 53  1  0  0  0
 49 64  1  0  0  0
 49122  1  0  0  0
 50 51  1  0  0  0
 50123  1  0  0  0
 50124  1  0  0  0
 51 52  1  0  0  0
 51125  1  0  0  0
 51126  1  0  0  0
 52127  1  0  0  0
 52128  1  0  0  0
 53 54  1  0  0  0
 54 55  2  0  0  0
 54129  1  0  0  0
 55 57  1  0  0  0
 55130  1  0  0  0
 56 69  2  0  0  0
 57 58  2  0  0  0
 57131  1  0  0  0
 58132  1  0  0  0
 59 60  1  0  0  0
 59 61  1  0  0  0
 59 62  1  0  0  0
 60133  1  0  0  0
 60134  1  0  0  0
 60135  1  0  0  0
 61136  1  0  0  0
 61137  1  0  0  0
 61138  1  0  0  0
 62139  1  0  0  0
 62140  1  0  0  0
 62141  1  0  0  0
 63 65  1  0  0  0
 63142  1  0  0  0
 63143  1  0  0  0
 63144  1  0  0  0
 64145  1  0  0  0
 65146  1  0  0  0
 68 84  1  0  0  0
 71 72  2  0  0  0
 71 75  1  0  0  0
 71147  1  0  0  0
 72 76  1  0  0  0
 72148  1  0  0  0
 73 74  1  0  0  0
 73 76  2  0  0  0
 73149  1  0  0  0
 74 75  2  0  0  0
 74 83  1  0  0  0
 75 85  1  0  0  0
 76 86  1  0  0  0
 77 79  2  0  0  0
 77 80  1  0  0  0
 77 82  1  0  0  0
 78 81  1  0  0  0
 78 85  1  0  0  0
 78 87  2  0  0  0
 79150  1  0  0  0
 79151  1  0  0  0
 80 85  1  0  0  0
 80152  1  0  0  0
 80153  1  0  0  0
 81 82  1  0  0  0
 81154  1  0  0  0
 81155  1  0  0  0
 82 84  1  0  0  0
 82156  1  0  0  0
 83157  1  0  0  0
 83158  1  0  0  0
 83159  1  0  0  0
 84160  1  0  0  0
 84161  1  0  0  0
 86162  1  0  0  0
M  ISO  4   1 100  68 101  84 101  86 100
M  END
> <chiral flag>
0

> <version>
0

> <s_m_source_file>
/data/baiqing/PycharmProjects/Reinvent-master-3.2/result/LINK_invent/BTK/process_docking_weight1_custom_product_contain_oxygen_bond_distance_aromatic_linkinvent_7_9_3/rearranged_h_0066.sdf

> <i_m_source_file_index>
61

> <r_mmod_Potential_Energy-OPLS-2005>
69.4880523681641

> <r_mmod_Stretch_Energy-OPLS-2005>
51.3518486022949

> <r_mmod_Bend_Energy-OPLS-2005>
112.064079284668

> <r_mmod_Torsional_Energy-OPLS-2005>
317.186340332031

> <r_mmod_Improper_Torsional_Energy-OPLS-2005>
4.76847743988037

> <r_mmod_Van_der_Waal_Energy-OPLS-2005>
157.51301574707

> <r_mmod_Electrostatic_Energy-OPLS-2005>
-374.797821044922

> <r_mmod_Solvation_Energy-OPLS-2005>
-219.672409057617

> <b_mmod_Minimization_Converged-OPLS-2005>
0

> <r_mmod_RMS_Derivative-OPLS-2005>
1.43731355667114

$$$$
61
                    3D
 Structure written by MMmdl.
159168  0  0  1  0            999 V2000
  -30.5714  -14.7441   20.4498 C   0  0  0  0  0  0
  -30.4421  -12.4586   19.4463 C   0  0  0  0  0  0
  -29.5052  -12.5033   18.2185 C   0  0  0  0  0  0
  -28.0309  -12.3271   18.6396 C   0  0  0  0  0  0
  -27.6380  -13.2223   19.8451 C   0  0  2  0  0  0
  -28.6896  -13.1445   20.9726 C   0  0  0  0  0  0
  -25.2503  -13.8166   20.5723 C   0  0  0  0  0  0
  -24.1792  -13.0411   20.9219 C   0  0  0  0  0  0
  -24.6379  -11.6889   20.8748 C   0  0  0  0  0  0
  -23.9049  -10.4268   21.0405 C   0  0  0  0  0  0
  -24.3603   -9.4183   21.9181 C   0  0  0  0  0  0
  -23.6287   -8.2217   22.0752 C   0  0  0  0  0  0
  -22.4270   -8.0262   21.3537 C   0  0  0  0  0  0
  -21.9894   -9.0228   20.4635 C   0  0  0  0  0  0
  -22.7219  -10.2111   20.3049 C   0  0  0  0  0  0
  -21.6845   -6.0723   22.5279 C   0  0  0  0  0  0
  -21.4006   -6.5627   23.8207 C   0  0  0  0  0  0
  -21.3661   -5.6781   24.9170 C   0  0  0  0  0  0
  -21.6052   -4.3049   24.7218 C   0  0  0  0  0  0
  -21.8822   -3.8137   23.4336 C   0  0  0  0  0  0
  -21.9190   -4.6951   22.3396 C   0  0  0  0  0  0
  -22.7811  -13.5197   21.1888 C   0  0  0  0  0  0
  -22.1663   -4.2140   21.0972 F   0  0  0  0  0  0
  -21.5633   -3.4537   25.7730 F   0  0  0  0  0  0
  -29.9789  -13.5069   20.3756 N   0  0  0  0  0  0
  -26.2919  -12.9357   20.3265 N   0  0  0  0  0  0
  -25.9305  -11.6512   20.5731 N   0  0  0  0  0  0
  -22.0466  -12.8180   22.0440 N   0  0  0  0  0  0
  -25.4142  -15.1908   20.4227 N   0  0  0  0  0  0
  -31.7794  -14.8719   20.2323 O   0  0  0  0  0  0
  -21.6638   -6.8863   21.4237 O   0  0  0  0  0  0
  -22.3492  -14.5513   20.6751 O   0  0  0  0  0  0
  -24.6304  -31.8531   23.1955 C   0  0  0  0  0  0
  -25.9121  -32.4750   23.8309 C   0  0  1  0  0  0
  -27.2244  -27.2663   20.1238 C   0  0  0  0  0  0
  -25.5923  -33.8563   24.2230 N   0  0  0  0  0  0
  -23.4272  -30.4757   21.5394 C   0  0  2  0  0  0
  -24.8755  -28.9121   20.1158 C   0  0  0  0  0  0
  -22.7480  -29.4610   22.4905 C   0  0  0  0  0  0
  -18.0292  -28.1377   22.8495 C   0  0  0  0  0  0
  -24.1492  -36.7280   23.2650 C   0  0  0  0  0  0
  -25.9737  -30.7650   21.3748 C   0  0  0  0  0  0
  -26.0476  -29.3862   20.7184 C   0  0  0  0  0  0
  -27.2286  -28.5795   20.7044 C   0  0  0  0  0  0
  -26.0272  -26.8446   19.5115 C   0  0  0  0  0  0
  -24.8681  -27.6472   19.5018 C   0  0  0  0  0  0
  -23.6473  -29.8023   20.1588 C   0  0  0  0  0  0
  -25.4116  -36.3070   24.0330 C   0  0  1  0  0  0
  -20.5898  -28.3703   23.1255 C   0  0  2  0  0  0
  -20.6779  -26.9423   22.5390 C   0  0  0  0  0  0
  -19.5758  -26.6375   21.5201 C   0  0  0  0  0  0
  -18.1939  -26.7919   22.1622 C   0  0  0  0  0  0
  -19.1544  -28.8852   23.2880 C   0  0  0  0  0  0
  -18.9484  -30.1464   23.8895 C   0  0  0  0  0  0
  -17.6489  -30.6596   24.0584 C   0  0  0  0  0  0
  -25.9062  -34.9452   23.5078 C   0  0  0  0  0  0
  -16.5375  -29.9094   23.6346 C   0  0  0  0  0  0
  -16.7280  -28.6503   23.0366 C   0  0  0  0  0  0
  -26.4476  -31.6592   25.0717 C   0  0  0  0  0  0
  -25.3684  -31.3775   26.1435 C   0  0  0  0  0  0
  -27.0332  -30.2998   24.6230 C   0  0  0  0  0  0
  -27.6021  -32.4351   25.7491 C   0  0  0  0  0  0
  -27.5578  -37.1795   24.8479 C   0  0  0  0  0  0
  -21.4188  -29.3059   22.3654 N   0  0  0  0  0  0
  -26.4286  -37.3767   23.9432 N   0  0  0  0  0  0
  -24.6967  -31.0492   22.0931 N   0  0  0  0  0  0
  -23.4169  -28.8140   23.3009 O   0  0  0  0  0  0
  -28.3310  -26.3937   20.1022 O   0  0  0  0  0  0
  -26.5655  -34.8934   22.4665 O   0  0  0  0  0  0
  -23.5446  -32.1368   23.7218 O   0  0  0  0  0  0
  -30.2781  -18.5553   22.9329 C   0  0  0  0  0  0
  -30.0252  -19.7693   22.2547 C   0  0  0  0  0  0
  -29.6544  -19.7749   20.8739 C   0  0  0  0  0  0
  -29.8780  -17.2050   20.9384 C   0  0  0  0  0  0
  -30.2099  -17.3049   22.3012 C   0  0  0  0  0  0
  -29.5725  -18.4521   20.2426 C   0  0  0  0  0  0
  -30.7020  -22.7373   18.7813 C   0  0  0  0  0  0
  -29.8583  -23.7586   19.0200 C   0  0  0  0  0  0
  -30.5438  -21.3607   19.2577 C   0  0  0  0  0  0
  -28.5876  -22.2219   20.5731 C   0  0  0  0  0  0
  -28.5771  -23.6423   19.7981 C   0  0  1  0  0  0
  -30.2314  -21.0373   23.0710 C   0  0  0  0  0  0
  -28.1834  -24.9909   20.6193 C   0  0  0  0  0  0
  -29.5418  -21.0913   20.1483 N   0  0  0  0  0  0
  -29.7231  -15.8366   20.4037 N   0  0  0  0  0  0
  -31.3249  -20.4863   18.8657 O   0  0  0  0  0  0
  -30.4260  -16.1853   23.0359 F   0  0  0  0  0  0
  -29.1947  -18.3734   18.9429 F   0  0  0  0  0  0
  -31.4760  -12.6182   19.1367 H   0  0  0  0  0  0
  -30.4137  -11.4798   19.9263 H   0  0  0  0  0  0
  -29.7848  -11.7295   17.5031 H   0  0  0  0  0  0
  -29.6262  -13.4539   17.6978 H   0  0  0  0  0  0
  -27.8878  -11.2777   18.8987 H   0  0  0  0  0  0
  -27.3709  -12.5230   17.7935 H   0  0  0  0  0  0
  -27.6257  -14.2433   19.4669 H   0  0  0  0  0  0
  -28.7310  -12.1418   21.4011 H   0  0  0  0  0  0
  -28.4337  -13.8210   21.7904 H   0  0  0  0  0  0
  -25.2749   -9.5673   22.4752 H   0  0  0  0  0  0
  -23.9997   -7.4611   22.7473 H   0  0  0  0  0  0
  -21.0820   -8.8725   19.8946 H   0  0  0  0  0  0
  -22.3660  -10.9643   19.6154 H   0  0  0  0  0  0
  -21.1994   -7.6135   23.9704 H   0  0  0  0  0  0
  -21.1490   -6.0515   25.9072 H   0  0  0  0  0  0
  -22.0606   -2.7601   23.2835 H   0  0  0  0  0  0
  -22.4090  -11.9830   22.4807 H   0  0  0  0  0  0
  -21.1083  -13.1192   22.2673 H   0  0  0  0  0  0
  -24.6417  -15.8329   20.5631 H   0  0  0  0  0  0
  -26.2559  -15.6535   20.1087 H   0  0  0  0  0  0
  -26.7191  -32.5396   23.1058 H   0  0  0  0  0  0
  -25.0113  -33.9732   25.0398 H   0  0  0  0  0  0
  -22.7262  -31.2995   21.3861 H   0  0  0  0  0  0
  -23.3765  -35.9607   23.3317 H   0  0  0  0  0  0
  -24.3577  -36.8880   22.2063 H   0  0  0  0  0  0
  -23.7226  -37.6472   23.6666 H   0  0  0  0  0  0
  -26.1113  -31.5205   20.5998 H   0  0  0  0  0  0
  -26.8509  -30.8152   22.0087 H   0  0  0  0  0  0
  -28.1329  -28.9419   21.1739 H   0  0  0  0  0  0
  -25.9880  -25.8719   19.0426 H   0  0  0  0  0  0
  -23.9702  -27.2739   19.0303 H   0  0  0  0  0  0
  -23.7765  -30.5769   19.4016 H   0  0  0  0  0  0
  -22.7653  -29.2383   19.8507 H   0  0  0  0  0  0
  -25.1276  -36.1915   25.0811 H   0  0  0  0  0  0
  -21.0019  -28.3290   24.1362 H   0  0  0  0  0  0
  -20.5650  -26.2341   23.3607 H   0  0  0  0  0  0
  -21.6656  -26.7429   22.1212 H   0  0  0  0  0  0
  -19.6947  -25.6267   21.1265 H   0  0  0  0  0  0
  -19.6693  -27.3173   20.6722 H   0  0  0  0  0  0
  -17.4207  -26.6690   21.4026 H   0  0  0  0  0  0
  -18.0358  -26.0017   22.8975 H   0  0  0  0  0  0
  -19.7972  -30.7288   24.2236 H   0  0  0  0  0  0
  -17.5055  -31.6278   24.5190 H   0  0  0  0  0  0
  -15.5383  -30.3029   23.7647 H   0  0  0  0  0  0
  -15.8674  -28.0842   22.7076 H   0  0  0  0  0  0
  -24.5878  -30.7089   25.7779 H   0  0  0  0  0  0
  -24.8870  -32.2965   26.4793 H   0  0  0  0  0  0
  -25.7976  -30.9010   27.0261 H   0  0  0  0  0  0
  -26.2930  -29.6745   24.1220 H   0  0  0  0  0  0
  -27.3964  -29.7251   25.4767 H   0  0  0  0  0  0
  -27.8822  -30.4254   23.9504 H   0  0  0  0  0  0
  -27.2624  -33.3703   26.1956 H   0  0  0  0  0  0
  -28.3879  -32.6821   25.0340 H   0  0  0  0  0  0
  -28.0634  -31.8546   26.5484 H   0  0  0  0  0  0
  -28.2581  -38.0106   24.7508 H   0  0  0  0  0  0
  -28.1060  -36.2617   24.6283 H   0  0  0  0  0  0
  -27.2309  -37.1432   25.8888 H   0  0  0  0  0  0
  -20.9369  -29.8809   21.6891 H   0  0  0  0  0  0
  -26.0158  -38.2843   24.1409 H   0  0  0  0  0  0
  -30.5475  -18.5677   23.9792 H   0  0  0  0  0  0
  -31.5758  -22.9433   18.1806 H   0  0  0  0  0  0
  -30.0745  -24.7290   18.5937 H   0  0  0  0  0  0
  -27.5781  -21.8102   20.5649 H   0  0  0  0  0  0
  -28.7701  -22.4743   21.6076 H   0  0  0  0  0  0
  -27.8206  -23.5596   19.0168 H   0  0  0  0  0  0
  -30.8180  -20.8341   23.9671 H   0  0  0  0  0  0
  -29.2754  -21.4331   23.4126 H   0  0  0  0  0  0
  -30.7700  -21.8022   22.5100 H   0  0  0  0  0  0
  -28.7859  -24.9816   21.5272 H   0  0  0  0  0  0
  -27.1636  -24.8595   20.9844 H   0  0  0  0  0  0
  -28.7676  -15.5887   20.2084 H   0  0  0  0  0  0
  1 25  1  0  0  0
  1 30  2  0  0  0
  1 85  1  0  0  0
  2  3  1  0  0  0
  2 25  1  0  0  0
  2 89  1  0  0  0
  2 90  1  0  0  0
  3  4  1  0  0  0
  3 91  1  0  0  0
  3 92  1  0  0  0
  4  5  1  0  0  0
  4 93  1  0  0  0
  4 94  1  0  0  0
  5  6  1  0  0  0
  5 26  1  0  0  0
  5 95  1  0  0  0
  6 25  1  0  0  0
  6 96  1  0  0  0
  6 97  1  0  0  0
  7  8  2  0  0  0
  7 26  1  0  0  0
  7 29  1  0  0  0
  8  9  1  0  0  0
  8 22  1  0  0  0
  9 10  1  0  0  0
  9 27  2  0  0  0
 10 11  2  0  0  0
 10 15  1  0  0  0
 11 12  1  0  0  0
 11 98  1  0  0  0
 12 13  2  0  0  0
 12 99  1  0  0  0
 13 14  1  0  0  0
 13 31  1  0  0  0
 14 15  2  0  0  0
 14100  1  0  0  0
 15101  1  0  0  0
 16 17  2  0  0  0
 16 21  1  0  0  0
 16 31  1  0  0  0
 17 18  1  0  0  0
 17102  1  0  0  0
 18 19  2  0  0  0
 18103  1  0  0  0
 19 20  1  0  0  0
 19 24  1  0  0  0
 20 21  2  0  0  0
 20104  1  0  0  0
 21 23  1  0  0  0
 22 28  1  0  0  0
 22 32  2  0  0  0
 26 27  1  0  0  0
 28105  1  0  0  0
 28106  1  0  0  0
 29107  1  0  0  0
 29108  1  0  0  0
 33 34  1  0  0  0
 33 66  1  0  0  0
 33 70  2  0  0  0
 34 36  1  0  0  0
 34 59  1  0  0  0
 34109  1  0  0  0
 35 44  2  0  0  0
 35 45  1  0  0  0
 35 68  1  0  0  0
 36 56  1  0  0  0
 36110  1  0  0  0
 37 39  1  0  0  0
 37 47  1  0  0  0
 37 66  1  0  0  0
 37111  1  0  0  0
 38 43  2  0  0  0
 38 46  1  0  0  0
 38 47  1  0  0  0
 39 64  1  0  0  0
 39 67  2  0  0  0
 40 52  1  0  0  0
 40 53  2  0  0  0
 40 58  1  0  0  0
 41112  1  0  0  0
 41113  1  0  0  0
 41114  1  0  0  0
 41 48  1  0  0  0
 42 43  1  0  0  0
 42 66  1  0  0  0
 42115  1  0  0  0
 42116  1  0  0  0
 43 44  1  0  0  0
 44117  1  0  0  0
 45 46  2  0  0  0
 45118  1  0  0  0
 46119  1  0  0  0
 47120  1  0  0  0
 47121  1  0  0  0
 48 56  1  0  0  0
 48 65  1  0  0  0
 48122  1  0  0  0
 49 50  1  0  0  0
 49 53  1  0  0  0
 49 64  1  0  0  0
 49123  1  0  0  0
 50 51  1  0  0  0
 50124  1  0  0  0
 50125  1  0  0  0
 51 52  1  0  0  0
 51126  1  0  0  0
 51127  1  0  0  0
 52128  1  0  0  0
 52129  1  0  0  0
 53 54  1  0  0  0
 54 55  2  0  0  0
 54130  1  0  0  0
 55 57  1  0  0  0
 55131  1  0  0  0
 56 69  2  0  0  0
 57 58  2  0  0  0
 57132  1  0  0  0
 58133  1  0  0  0
 59 60  1  0  0  0
 59 61  1  0  0  0
 59 62  1  0  0  0
 60134  1  0  0  0
 60135  1  0  0  0
 60136  1  0  0  0
 61137  1  0  0  0
 61138  1  0  0  0
 61139  1  0  0  0
 62140  1  0  0  0
 62141  1  0  0  0
 62142  1  0  0  0
 63 65  1  0  0  0
 63143  1  0  0  0
 63144  1  0  0  0
 63145  1  0  0  0
 64146  1  0  0  0
 65147  1  0  0  0
 68 83  1  0  0  0
 71 72  2  0  0  0
 71 75  1  0  0  0
 71148  1  0  0  0
 72 73  1  0  0  0
 72 82  1  0  0  0
 73 76  2  0  0  0
 73 84  1  0  0  0
 74 75  2  0  0  0
 74 76  1  0  0  0
 74 85  1  0  0  0
 75 87  1  0  0  0
 76 88  1  0  0  0
 77 78  2  0  0  0
 77 79  1  0  0  0
 77149  1  0  0  0
 78 81  1  0  0  0
 78150  1  0  0  0
 79 84  1  0  0  0
 79 86  2  0  0  0
 80 81  1  0  0  0
 80 84  1  0  0  0
 80151  1  0  0  0
 80152  1  0  0  0
 81 83  1  0  0  0
 81153  1  0  0  0
 82154  1  0  0  0
 82155  1  0  0  0
 82156  1  0  0  0
 83157  1  0  0  0
 83158  1  0  0  0
 85159  1  0  0  0
M  ISO  4   1 100  68 101  83 101  85 100
M  END
> <chiral flag>
0

> <version>
0

> <s_m_source_file>
/data/baiqing/PycharmProjects/Reinvent-master-3.2/result/LINK_invent/BTK/process_docking_weight1_custom_product_contain_oxygen_bond_distance_aromatic_linkinvent_7_9_3/rearranged_h_0066.sdf

> <i_m_source_file_index>
62

> <r_mmod_Potential_Energy-OPLS-2005>
252.663909912109

> <r_mmod_Stretch_Energy-OPLS-2005>
134.05517578125

> <r_mmod_Bend_Energy-OPLS-2005>
177.183486938477

> <r_mmod_Torsional_Energy-OPLS-2005>
329.008331298828

> <r_mmod_Improper_Torsional_Energy-OPLS-2005>
12.2023057937622

> <r_mmod_Van_der_Waal_Energy-OPLS-2005>
151.810180664062

> <r_mmod_Electrostatic_Energy-OPLS-2005>
-416.052398681641

> <r_mmod_Solvation_Energy-OPLS-2005>
-220.930221557617

> <b_mmod_Minimization_Converged-OPLS-2005>
0

> <r_mmod_RMS_Derivative-OPLS-2005>
2.70749235153198

$$$$
62
                    3D
 Structure written by MMmdl.
162171  0  0  1  0            999 V2000
  -30.6098  -14.7612   20.4659 C   0  0  0  0  0  0
  -30.4248  -12.4661   19.4836 C   0  0  0  0  0  0
  -29.5100  -12.5148   18.2408 C   0  0  0  0  0  0
  -28.0358  -12.3374   18.6504 C   0  0  0  0  0  0
  -27.6372  -13.2380   19.8505 C   0  0  2  0  0  0
  -28.6776  -13.1850   20.9900 C   0  0  0  0  0  0
  -25.2480  -13.8209   20.5695 C   0  0  0  0  0  0
  -24.1788  -13.0442   20.9209 C   0  0  0  0  0  0
  -24.6390  -11.6922   20.8752 C   0  0  0  0  0  0
  -23.9079  -10.4294   21.0408 C   0  0  0  0  0  0
  -24.3627   -9.4208   21.9185 C   0  0  0  0  0  0
  -23.6296   -8.2247   22.0760 C   0  0  0  0  0  0
  -22.4279   -8.0288   21.3547 C   0  0  0  0  0  0
  -21.9918   -9.0264   20.4654 C   0  0  0  0  0  0
  -22.7253  -10.2137   20.3060 C   0  0  0  0  0  0
  -21.6858   -6.0737   22.5276 C   0  0  0  0  0  0
  -21.4015   -6.5639   23.8212 C   0  0  0  0  0  0
  -21.3658   -5.6795   24.9176 C   0  0  0  0  0  0
  -21.6043   -4.3057   24.7225 C   0  0  0  0  0  0
  -21.8819   -3.8149   23.4345 C   0  0  0  0  0  0
  -21.9191   -4.6964   22.3402 C   0  0  0  0  0  0
  -22.7806  -13.5213   21.1875 C   0  0  0  0  0  0
  -22.1659   -4.2150   21.0980 F   0  0  0  0  0  0
  -21.5630   -3.4541   25.7736 F   0  0  0  0  0  0
  -29.9762  -13.5374   20.4078 N   0  0  0  0  0  0
  -26.2911  -12.9430   20.3275 N   0  0  0  0  0  0
  -25.9320  -11.6565   20.5752 N   0  0  0  0  0  0
  -22.0459  -12.8197   22.0425 N   0  0  0  0  0  0
  -25.4137  -15.1947   20.4106 N   0  0  0  0  0  0
  -31.7985  -14.8119   20.1416 O   0  0  0  0  0  0
  -21.6646   -6.8883   21.4240 O   0  0  0  0  0  0
  -22.3488  -14.5518   20.6723 O   0  0  0  0  0  0
  -24.6281  -31.8551   23.1942 C   0  0  0  0  0  0
  -25.9101  -32.4760   23.8308 C   0  0  1  0  0  0
  -27.2184  -27.2546   20.1376 C   0  0  0  0  0  0
  -25.5884  -33.8559   24.2230 N   0  0  0  0  0  0
  -23.4246  -30.4715   21.5395 C   0  0  2  0  0  0
  -24.8714  -28.9110   20.1051 C   0  0  0  0  0  0
  -22.7494  -29.4578   22.4938 C   0  0  0  0  0  0
  -18.0277  -28.1370   22.8480 C   0  0  0  0  0  0
  -24.1477  -36.7304   23.2642 C   0  0  0  0  0  0
  -25.9645  -30.7658   21.3698 C   0  0  0  0  0  0
  -26.0368  -29.3834   20.7186 C   0  0  0  0  0  0
  -27.2071  -28.5625   20.7294 C   0  0  0  0  0  0
  -26.0342  -26.8436   19.4910 C   0  0  0  0  0  0
  -24.8748  -27.6516   19.4787 C   0  0  0  0  0  0
  -23.6396  -29.7965   20.1564 C   0  0  0  0  0  0
  -25.4099  -36.3080   24.0333 C   0  0  1  0  0  0
  -20.5870  -28.3681   23.1279 C   0  0  2  0  0  0
  -20.6753  -26.9399   22.5419 C   0  0  0  0  0  0
  -19.5736  -26.6370   21.5211 C   0  0  0  0  0  0
  -18.1917  -26.7911   22.1623 C   0  0  0  0  0  0
  -19.1529  -28.8847   23.2866 C   0  0  0  0  0  0
  -18.9464  -30.1446   23.8886 C   0  0  0  0  0  0
  -17.6469  -30.6583   24.0555 C   0  0  0  0  0  0
  -25.9039  -34.9448   23.5096 C   0  0  0  0  0  0
  -16.5356  -29.9085   23.6317 C   0  0  0  0  0  0
  -16.7270  -28.6495   23.0345 C   0  0  0  0  0  0
  -26.4452  -31.6589   25.0713 C   0  0  0  0  0  0
  -25.3648  -31.3770   26.1429 C   0  0  0  0  0  0
  -27.0297  -30.3005   24.6191 C   0  0  0  0  0  0
  -27.6004  -32.4338   25.7489 C   0  0  0  0  0  0
  -27.5571  -37.1803   24.8458 C   0  0  0  0  0  0
  -21.4203  -29.3033   22.3692 N   0  0  0  0  0  0
  -26.4279  -37.3777   23.9412 N   0  0  0  0  0  0
  -24.6919  -31.0500   22.0920 N   0  0  0  0  0  0
  -23.4205  -28.8130   23.3034 O   0  0  0  0  0  0
  -28.3318  -26.3970   20.2610 O   0  0  0  0  0  0
  -26.5659  -34.8936   22.4695 O   0  0  0  0  0  0
  -23.5440  -32.1385   23.7243 O   0  0  0  0  0  0
  -29.2840  -18.5130   20.6034 C   0  0  0  0  0  0
  -31.0930  -20.1420   20.4272 C   0  0  0  0  0  0
  -31.5856  -17.7393   20.6023 C   0  0  0  0  0  0
  -29.7023  -19.9180   20.5153 C   0  0  0  0  0  0
  -30.2182  -17.3786   20.6171 C   0  0  0  0  0  0
  -32.0091  -19.0751   20.4857 C   0  0  0  0  0  0
  -28.6438  -21.7607   21.7975 C   0  0  0  0  0  0
  -28.4218  -23.2910   21.7098 C   0  0  0  0  0  0
  -28.8241  -22.2840   19.6027 C   0  0  0  0  0  0
  -28.1375  -23.5859   20.2346 C   0  0  2  0  0  0
  -34.2005  -19.3987   22.2931 C   0  0  0  0  0  0
  -28.4955  -25.0523   19.6172 C   0  0  0  0  0  0
  -34.0865  -20.8515   20.0321 N   0  0  0  0  0  0
  -28.8694  -21.1576   20.6068 N   0  0  0  0  0  0
  -29.8520  -15.9214   20.6797 N   0  0  0  0  0  0
  -28.6016  -21.1754   22.8841 O   0  0  0  0  0  0
  -34.4791  -18.2629   19.8964 O   0  0  0  0  0  0
  -33.7757  -19.3960   20.5199 S   0  0  2  0  0  0
  -31.4675  -12.5814   19.1834 H   0  0  0  0  0  0
  -30.3639  -11.4922   19.9722 H   0  0  0  0  0  0
  -29.7974  -11.7425   17.5262 H   0  0  0  0  0  0
  -29.6374  -13.4698   17.7285 H   0  0  0  0  0  0
  -27.8901  -11.2886   18.9096 H   0  0  0  0  0  0
  -27.3822  -12.5323   17.7990 H   0  0  0  0  0  0
  -27.6277  -14.2585   19.4664 H   0  0  0  0  0  0
  -28.7159  -12.1927   21.4425 H   0  0  0  0  0  0
  -28.4096  -13.8769   21.7902 H   0  0  0  0  0  0
  -25.2769   -9.5681   22.4764 H   0  0  0  0  0  0
  -24.0001   -7.4639   22.7484 H   0  0  0  0  0  0
  -21.0850   -8.8796   19.8961 H   0  0  0  0  0  0
  -22.3720  -10.9681   19.6175 H   0  0  0  0  0  0
  -21.2012   -7.6151   23.9714 H   0  0  0  0  0  0
  -21.1480   -6.0526   25.9077 H   0  0  0  0  0  0
  -22.0597   -2.7610   23.2850 H   0  0  0  0  0  0
  -22.4081  -11.9856   22.4799 H   0  0  0  0  0  0
  -21.1085  -13.1233   22.2653 H   0  0  0  0  0  0
  -24.6394  -15.8411   20.5194 H   0  0  0  0  0  0
  -26.2519  -15.6390   20.0581 H   0  0  0  0  0  0
  -26.7176  -32.5405   23.1057 H   0  0  0  0  0  0
  -24.9937  -33.9677   25.0313 H   0  0  0  0  0  0
  -22.7201  -31.2928   21.3916 H   0  0  0  0  0  0
  -23.3745  -35.9634   23.3299 H   0  0  0  0  0  0
  -24.3555  -36.8942   22.2060 H   0  0  0  0  0  0
  -23.7231  -37.6501   23.6678 H   0  0  0  0  0  0
  -26.0878  -31.5172   20.5893 H   0  0  0  0  0  0
  -26.8486  -30.8309   21.9920 H   0  0  0  0  0  0
  -28.0955  -28.9108   21.2373 H   0  0  0  0  0  0
  -25.9753  -25.8691   19.0294 H   0  0  0  0  0  0
  -23.9795  -27.2850   18.9952 H   0  0  0  0  0  0
  -23.7553  -30.5674   19.3945 H   0  0  0  0  0  0
  -22.7588  -29.2234   19.8606 H   0  0  0  0  0  0
  -25.1273  -36.1936   25.0826 H   0  0  0  0  0  0
  -20.9943  -28.3272   24.1404 H   0  0  0  0  0  0
  -20.5616  -26.2310   23.3632 H   0  0  0  0  0  0
  -21.6628  -26.7399   22.1232 H   0  0  0  0  0  0
  -19.6897  -25.6278   21.1247 H   0  0  0  0  0  0
  -19.6664  -27.3178   20.6739 H   0  0  0  0  0  0
  -17.4174  -26.6642   21.4039 H   0  0  0  0  0  0
  -18.0315  -26.0054   22.9024 H   0  0  0  0  0  0
  -19.7952  -30.7233   24.2270 H   0  0  0  0  0  0
  -17.5036  -31.6257   24.5164 H   0  0  0  0  0  0
  -15.5355  -30.2990   23.7642 H   0  0  0  0  0  0
  -15.8663  -28.0814   22.7071 H   0  0  0  0  0  0
  -24.5831  -30.7104   25.7762 H   0  0  0  0  0  0
  -24.8813  -32.2955   26.4783 H   0  0  0  0  0  0
  -25.7932  -30.9006   27.0259 H   0  0  0  0  0  0
  -26.2890  -29.6771   24.1168 H   0  0  0  0  0  0
  -27.3934  -29.7247   25.4713 H   0  0  0  0  0  0
  -27.8779  -30.4285   23.9457 H   0  0  0  0  0  0
  -27.2608  -33.3669   26.2009 H   0  0  0  0  0  0
  -28.3836  -32.6854   25.0321 H   0  0  0  0  0  0
  -28.0634  -31.8493   26.5449 H   0  0  0  0  0  0
  -28.2580  -38.0111   24.7506 H   0  0  0  0  0  0
  -28.1074  -36.2639   24.6269 H   0  0  0  0  0  0
  -27.2294  -37.1430   25.8864 H   0  0  0  0  0  0
  -20.9407  -29.8806   21.6926 H   0  0  0  0  0  0
  -26.0173  -38.2861   24.1411 H   0  0  0  0  0  0
  -28.2250  -18.3038   20.6683 H   0  0  0  0  0  0
  -31.4693  -21.1517   20.3727 H   0  0  0  0  0  0
  -32.3674  -17.0049   20.6918 H   0  0  0  0  0  0
  -29.3298  -23.7981   22.0356 H   0  0  0  0  0  0
  -27.6037  -23.6118   22.3553 H   0  0  0  0  0  0
  -29.8417  -22.5221   19.2907 H   0  0  0  0  0  0
  -28.2905  -21.9624   18.7072 H   0  0  0  0  0  0
  -27.0590  -23.4689   20.1161 H   0  0  0  0  0  0
  -33.6194  -20.1583   22.8123 H   0  0  0  0  0  0
  -35.2636  -19.5948   22.4157 H   0  0  0  0  0  0
  -33.9638  -18.4247   22.7179 H   0  0  0  0  0  0
  -28.0680  -25.1056   18.6162 H   0  0  0  0  0  0
  -29.5689  -25.0193   19.4323 H   0  0  0  0  0  0
  -33.4941  -21.5449   20.5047 H   0  0  0  0  0  0
  -28.8752  -15.7346   20.8458 H   0  0  0  0  0  0
  1 25  1  0  0  0
  1 30  2  0  0  0
  1 85  1  0  0  0
  2  3  1  0  0  0
  2 25  1  0  0  0
  2 89  1  0  0  0
  2 90  1  0  0  0
  3  4  1  0  0  0
  3 91  1  0  0  0
  3 92  1  0  0  0
  4  5  1  0  0  0
  4 93  1  0  0  0
  4 94  1  0  0  0
  5  6  1  0  0  0
  5 26  1  0  0  0
  5 95  1  0  0  0
  6 25  1  0  0  0
  6 96  1  0  0  0
  6 97  1  0  0  0
  7  8  2  0  0  0
  7 26  1  0  0  0
  7 29  1  0  0  0
  8  9  1  0  0  0
  8 22  1  0  0  0
  9 10  1  0  0  0
  9 27  2  0  0  0
 10 11  2  0  0  0
 10 15  1  0  0  0
 11 12  1  0  0  0
 11 98  1  0  0  0
 12 13  2  0  0  0
 12 99  1  0  0  0
 13 14  1  0  0  0
 13 31  1  0  0  0
 14 15  2  0  0  0
 14100  1  0  0  0
 15101  1  0  0  0
 16 17  2  0  0  0
 16 21  1  0  0  0
 16 31  1  0  0  0
 17 18  1  0  0  0
 17102  1  0  0  0
 18 19  2  0  0  0
 18103  1  0  0  0
 19 20  1  0  0  0
 19 24  1  0  0  0
 20 21  2  0  0  0
 20104  1  0  0  0
 21 23  1  0  0  0
 22 28  1  0  0  0
 22 32  2  0  0  0
 26 27  1  0  0  0
 28105  1  0  0  0
 28106  1  0  0  0
 29107  1  0  0  0
 29108  1  0  0  0
 33 34  1  0  0  0
 33 66  1  0  0  0
 33 70  2  0  0  0
 34 36  1  0  0  0
 34 59  1  0  0  0
 34109  1  0  0  0
 35 44  2  0  0  0
 35 45  1  0  0  0
 35 68  1  0  0  0
 36 56  1  0  0  0
 36110  1  0  0  0
 37 39  1  0  0  0
 37 47  1  0  0  0
 37 66  1  0  0  0
 37111  1  0  0  0
 38 43  2  0  0  0
 38 46  1  0  0  0
 38 47  1  0  0  0
 39 64  1  0  0  0
 39 67  2  0  0  0
 40 52  1  0  0  0
 40 53  2  0  0  0
 40 58  1  0  0  0
 41112  1  0  0  0
 41113  1  0  0  0
 41114  1  0  0  0
 41 48  1  0  0  0
 42 43  1  0  0  0
 42 66  1  0  0  0
 42115  1  0  0  0
 42116  1  0  0  0
 43 44  1  0  0  0
 44117  1  0  0  0
 45 46  2  0  0  0
 45118  1  0  0  0
 46119  1  0  0  0
 47120  1  0  0  0
 47121  1  0  0  0
 48 56  1  0  0  0
 48 65  1  0  0  0
 48122  1  0  0  0
 49 50  1  0  0  0
 49 53  1  0  0  0
 49 64  1  0  0  0
 49123  1  0  0  0
 50 51  1  0  0  0
 50124  1  0  0  0
 50125  1  0  0  0
 51 52  1  0  0  0
 51126  1  0  0  0
 51127  1  0  0  0
 52128  1  0  0  0
 52129  1  0  0  0
 53 54  1  0  0  0
 54 55  2  0  0  0
 54130  1  0  0  0
 55 57  1  0  0  0
 55131  1  0  0  0
 56 69  2  0  0  0
 57 58  2  0  0  0
 57132  1  0  0  0
 58133  1  0  0  0
 59 60  1  0  0  0
 59 61  1  0  0  0
 59 62  1  0  0  0
 60134  1  0  0  0
 60135  1  0  0  0
 60136  1  0  0  0
 61137  1  0  0  0
 61138  1  0  0  0
 61139  1  0  0  0
 62140  1  0  0  0
 62141  1  0  0  0
 62142  1  0  0  0
 63 65  1  0  0  0
 63143  1  0  0  0
 63144  1  0  0  0
 63145  1  0  0  0
 64146  1  0  0  0
 65147  1  0  0  0
 68 82  1  0  0  0
 71 74  2  0  0  0
 71 75  1  0  0  0
 71148  1  0  0  0
 72 74  1  0  0  0
 72 76  2  0  0  0
 72149  1  0  0  0
 73 75  2  0  0  0
 73 76  1  0  0  0
 73150  1  0  0  0
 74 84  1  0  0  0
 75 85  1  0  0  0
 76 88  1  0  0  0
 77 78  1  0  0  0
 77 84  1  0  0  0
 77 86  2  0  0  0
 78 80  1  0  0  0
 78151  1  0  0  0
 78152  1  0  0  0
 79 80  1  0  0  0
 79 84  1  0  0  0
 79153  1  0  0  0
 79154  1  0  0  0
 80 82  1  0  0  0
 80155  1  0  0  0
 81156  1  0  0  0
 81157  1  0  0  0
 81158  1  0  0  0
 81 88  1  0  0  0
 82159  1  0  0  0
 82160  1  0  0  0
 83 88  2  0  0  0
 83161  1  0  0  0
 85162  1  0  0  0
 87 88  2  0  0  0
M  ISO  4   1 100  68 101  82 101  85 100
M  END
> <chiral flag>
0

> <version>
0

> <s_m_source_file>
/data/baiqing/PycharmProjects/Reinvent-master-3.2/result/LINK_invent/BTK/process_docking_weight1_custom_product_contain_oxygen_bond_distance_aromatic_linkinvent_7_9_3/rearranged_h_0066.sdf

> <i_m_source_file_index>
63

> <r_mmod_Potential_Energy-OPLS-2005>
65.1384353637695

> <r_mmod_Stretch_Energy-OPLS-2005>
134.81852722168

> <r_mmod_Bend_Energy-OPLS-2005>
226.999374389648

> <r_mmod_Torsional_Energy-OPLS-2005>
290.35205078125

> <r_mmod_Improper_Torsional_Energy-OPLS-2005>
7.32790851593018

> <r_mmod_Van_der_Waal_Energy-OPLS-2005>
130.025207519531

> <r_mmod_Electrostatic_Energy-OPLS-2005>
-518.384155273438

> <r_mmod_Solvation_Energy-OPLS-2005>
-296.486572265625

> <b_mmod_Minimization_Converged-OPLS-2005>
0

> <r_mmod_RMS_Derivative-OPLS-2005>
1.79927098751068

$$$$
63
                    3D
 Structure written by MMmdl.
161170  0  0  1  0            999 V2000
  -30.6634  -14.6566   20.4700 C   0  0  0  0  0  0
  -30.4184  -12.3998   19.4680 C   0  0  0  0  0  0
  -29.5032  -12.4908   18.2295 C   0  0  0  0  0  0
  -28.0247  -12.3439   18.6365 C   0  0  0  0  0  0
  -27.6431  -13.2322   19.8525 C   0  0  2  0  0  0
  -28.6864  -13.1451   20.9872 C   0  0  0  0  0  0
  -25.2513  -13.8205   20.5681 C   0  0  0  0  0  0
  -24.1810  -13.0451   20.9213 C   0  0  0  0  0  0
  -24.6405  -11.6928   20.8757 C   0  0  0  0  0  0
  -23.9087  -10.4300   21.0414 C   0  0  0  0  0  0
  -24.3634   -9.4206   21.9187 C   0  0  0  0  0  0
  -23.6301   -8.2245   22.0755 C   0  0  0  0  0  0
  -22.4283   -8.0289   21.3543 C   0  0  0  0  0  0
  -21.9924   -9.0267   20.4649 C   0  0  0  0  0  0
  -22.7262  -10.2142   20.3059 C   0  0  0  0  0  0
  -21.6858   -6.0744   22.5277 C   0  0  0  0  0  0
  -21.4023   -6.5644   23.8212 C   0  0  0  0  0  0
  -21.3652   -5.6793   24.9169 C   0  0  0  0  0  0
  -21.6044   -4.3057   24.7220 C   0  0  0  0  0  0
  -21.8821   -3.8153   23.4339 C   0  0  0  0  0  0
  -21.9196   -4.6972   22.3398 C   0  0  0  0  0  0
  -22.7830  -13.5226   21.1864 C   0  0  0  0  0  0
  -22.1662   -4.2159   21.0975 F   0  0  0  0  0  0
  -21.5620   -3.4537   25.7728 F   0  0  0  0  0  0
  -29.9944  -13.4619   20.4049 N   0  0  0  0  0  0
  -26.2943  -12.9421   20.3289 N   0  0  0  0  0  0
  -25.9334  -11.6561   20.5763 N   0  0  0  0  0  0
  -22.0476  -12.8207   22.0411 N   0  0  0  0  0  0
  -25.4190  -15.1920   20.4064 N   0  0  0  0  0  0
  -31.8548  -14.7187   20.1575 O   0  0  0  0  0  0
  -21.6643   -6.8888   21.4241 O   0  0  0  0  0  0
  -22.3503  -14.5525   20.6705 O   0  0  0  0  0  0
  -24.6245  -31.8604   23.2040 C   0  0  0  0  0  0
  -25.9108  -32.4776   23.8360 C   0  0  1  0  0  0
  -27.2229  -27.3266   20.1262 C   0  0  0  0  0  0
  -25.5941  -33.8578   24.2285 N   0  0  0  0  0  0
  -23.4187  -30.4821   21.5450 C   0  0  2  0  0  0
  -24.8658  -28.9317   20.1162 C   0  0  0  0  0  0
  -22.7478  -29.4639   22.4953 C   0  0  0  0  0  0
  -18.0281  -28.1402   22.8485 C   0  0  0  0  0  0
  -24.1480  -36.7292   23.2629 C   0  0  0  0  0  0
  -25.9572  -30.7926   21.3733 C   0  0  0  0  0  0
  -26.0318  -29.4170   20.7234 C   0  0  0  0  0  0
  -27.2160  -28.6228   20.7229 C   0  0  0  0  0  0
  -26.0392  -26.8851   19.5020 C   0  0  0  0  0  0
  -24.8685  -27.6695   19.4998 C   0  0  0  0  0  0
  -23.6326  -29.8114   20.1616 C   0  0  0  0  0  0
  -25.4110  -36.3087   24.0318 C   0  0  1  0  0  0
  -20.5881  -28.3709   23.1293 C   0  0  2  0  0  0
  -20.6778  -26.9435   22.5423 C   0  0  0  0  0  0
  -19.5756  -26.6406   21.5220 C   0  0  0  0  0  0
  -18.1924  -26.7944   22.1623 C   0  0  0  0  0  0
  -19.1530  -28.8871   23.2883 C   0  0  0  0  0  0
  -18.9447  -30.1467   23.8911 C   0  0  0  0  0  0
  -17.6448  -30.6601   24.0569 C   0  0  0  0  0  0
  -25.9055  -34.9454   23.5104 C   0  0  0  0  0  0
  -16.5339  -29.9104   23.6331 C   0  0  0  0  0  0
  -16.7272  -28.6525   23.0347 C   0  0  0  0  0  0
  -26.4519  -31.6572   25.0717 C   0  0  0  0  0  0
  -25.3754  -31.3717   26.1445 C   0  0  0  0  0  0
  -27.0333  -30.2971   24.6163 C   0  0  0  0  0  0
  -27.6087  -32.4297   25.7487 C   0  0  0  0  0  0
  -27.5587  -37.1793   24.8459 C   0  0  0  0  0  0
  -21.4195  -29.3051   22.3688 N   0  0  0  0  0  0
  -26.4292  -37.3781   23.9410 N   0  0  0  0  0  0
  -24.6853  -31.0620   22.0978 N   0  0  0  0  0  0
  -23.4205  -28.8189   23.3036 O   0  0  0  0  0  0
  -28.3417  -26.4897   20.0969 O   0  0  0  0  0  0
  -26.5622  -34.8932   22.4672 O   0  0  0  0  0  0
  -23.5409  -32.1418   23.7369 O   0  0  0  0  0  0
  -30.4349  -19.6672   19.7669 C   0  0  0  0  0  0
  -30.0089  -21.0247   19.8574 C   0  0  0  0  0  0
  -28.2781  -20.3379   21.3507 C   0  0  0  0  0  0
  -27.7392  -24.7633   21.8401 C   0  0  0  0  0  0
  -28.7390  -18.9736   21.3222 C   0  0  0  0  0  0
  -29.8427  -18.6000   20.4993 C   0  0  0  0  0  0
  -28.9194  -21.4229   20.6718 C   0  0  0  0  0  0
  -28.2614  -25.1668   20.5808 C   0  0  0  0  0  0
  -27.9254  -23.4114   21.9858 C   0  0  0  0  0  0
  -28.7211  -23.9814   20.0099 C   0  0  0  0  0  0
  -28.0805  -17.9570   22.1621 C   0  0  0  0  0  0
  -26.8209  -18.0037   22.6287 C   0  0  0  0  0  0
  -26.2157  -16.9453   23.5251 C   0  0  0  0  0  0
  -30.5620  -17.1862   20.4155 C   0  0  0  0  0  0
  -28.5342  -22.8462   20.8542 N   0  0  0  0  0  0
  -29.9525  -15.8216   20.6471 N   0  0  0  0  0  0
  -27.6139  -22.6689   23.0856 O   0  0  0  0  0  0
  -29.3107  -23.8583   18.7893 O   0  0  0  0  0  0
  -31.4636  -12.4957   19.1696 H   0  0  0  0  0  0
  -30.3343  -11.4203   19.9414 H   0  0  0  0  0  0
  -29.7693  -11.7168   17.5088 H   0  0  0  0  0  0
  -29.6551  -13.4466   17.7254 H   0  0  0  0  0  0
  -27.8538  -11.2935   18.8749 H   0  0  0  0  0  0
  -27.3771  -12.5705   17.7885 H   0  0  0  0  0  0
  -27.6455  -14.2595   19.4873 H   0  0  0  0  0  0
  -28.6982  -12.1461   21.4263 H   0  0  0  0  0  0
  -28.4372  -13.8336   21.7965 H   0  0  0  0  0  0
  -25.2780   -9.5672   22.4761 H   0  0  0  0  0  0
  -24.0008   -7.4630   22.7467 H   0  0  0  0  0  0
  -21.0859   -8.8793   19.8948 H   0  0  0  0  0  0
  -22.3732  -10.9684   19.6167 H   0  0  0  0  0  0
  -21.2027   -7.6154   23.9721 H   0  0  0  0  0  0
  -21.1468   -6.0520   25.9070 H   0  0  0  0  0  0
  -22.0610   -2.7619   23.2832 H   0  0  0  0  0  0
  -22.4110  -11.9876   22.4799 H   0  0  0  0  0  0
  -21.1079  -13.1200   22.2597 H   0  0  0  0  0  0
  -24.6594  -15.8467   20.5520 H   0  0  0  0  0  0
  -26.2688  -15.6384   20.0882 H   0  0  0  0  0  0
  -26.7178  -32.5454   23.1110 H   0  0  0  0  0  0
  -25.0085  -33.9731   25.0431 H   0  0  0  0  0  0
  -22.7112  -31.3009   21.4007 H   0  0  0  0  0  0
  -23.3746  -35.9622   23.3298 H   0  0  0  0  0  0
  -24.3568  -36.8910   22.2042 H   0  0  0  0  0  0
  -23.7222  -37.6491   23.6649 H   0  0  0  0  0  0
  -26.0831  -31.5535   20.6011 H   0  0  0  0  0  0
  -26.8397  -30.8456   21.9992 H   0  0  0  0  0  0
  -28.1150  -28.9945   21.1947 H   0  0  0  0  0  0
  -26.0191  -25.9159   19.0240 H   0  0  0  0  0  0
  -23.9740  -27.2920   19.0235 H   0  0  0  0  0  0
  -23.7464  -30.5862   19.4025 H   0  0  0  0  0  0
  -22.7534  -29.2366   19.8635 H   0  0  0  0  0  0
  -25.1271  -36.1950   25.0803 H   0  0  0  0  0  0
  -20.9961  -28.3290   24.1420 H   0  0  0  0  0  0
  -20.5677  -26.2324   23.3628 H   0  0  0  0  0  0
  -21.6645  -26.7473   22.1203 H   0  0  0  0  0  0
  -19.6932  -25.6326   21.1226 H   0  0  0  0  0  0
  -19.6697  -27.3236   20.6762 H   0  0  0  0  0  0
  -17.4205  -26.6703   21.4019 H   0  0  0  0  0  0
  -18.0328  -26.0087   22.9020 H   0  0  0  0  0  0
  -19.7916  -30.7267   24.2316 H   0  0  0  0  0  0
  -17.4999  -31.6286   24.5165 H   0  0  0  0  0  0
  -15.5339  -30.3005   23.7661 H   0  0  0  0  0  0
  -15.8673  -28.0848   22.7052 H   0  0  0  0  0  0
  -24.5965  -30.7018   25.7794 H   0  0  0  0  0  0
  -24.8911  -32.2878   26.4822 H   0  0  0  0  0  0
  -25.8089  -30.8957   27.0245 H   0  0  0  0  0  0
  -26.2891  -29.6740   24.1176 H   0  0  0  0  0  0
  -27.3996  -29.7213   25.4678 H   0  0  0  0  0  0
  -27.8799  -30.4222   23.9402 H   0  0  0  0  0  0
  -27.2700  -33.3599   26.2063 H   0  0  0  0  0  0
  -28.3909  -32.6844   25.0320 H   0  0  0  0  0  0
  -28.0742  -31.8408   26.5401 H   0  0  0  0  0  0
  -28.2587  -38.0107   24.7524 H   0  0  0  0  0  0
  -28.1102  -36.2641   24.6250 H   0  0  0  0  0  0
  -27.2319  -37.1393   25.8866 H   0  0  0  0  0  0
  -20.9405  -29.8743   21.6853 H   0  0  0  0  0  0
  -26.0181  -38.2851   24.1440 H   0  0  0  0  0  0
  -31.2866  -19.4516   19.1370 H   0  0  0  0  0  0
  -30.5646  -21.7694   19.3067 H   0  0  0  0  0  0
  -27.4301  -20.5677   21.9745 H   0  0  0  0  0  0
  -27.3011  -25.4195   22.5792 H   0  0  0  0  0  0
  -28.6912  -17.1180   22.4586 H   0  0  0  0  0  0
  -26.1721  -18.8310   22.3799 H   0  0  0  0  0  0
  -26.8484  -16.0586   23.5813 H   0  0  0  0  0  0
  -25.2396  -16.6434   23.1451 H   0  0  0  0  0  0
  -26.0858  -17.3366   24.5345 H   0  0  0  0  0  0
  -31.4260  -17.2602   21.0780 H   0  0  0  0  0  0
  -30.9882  -17.1383   19.4111 H   0  0  0  0  0  0
  -28.9624  -15.7594   20.8236 H   0  0  0  0  0  0
  -27.2325  -23.2529   23.7338 H   0  0  0  0  0  0
  -29.3867  -24.7383   18.4316 H   0  0  0  0  0  0
  1 25  1  0  0  0
  1 30  2  0  0  0
  1 86  1  0  0  0
  2  3  1  0  0  0
  2 25  1  0  0  0
  2 89  1  0  0  0
  2 90  1  0  0  0
  3  4  1  0  0  0
  3 91  1  0  0  0
  3 92  1  0  0  0
  4  5  1  0  0  0
  4 93  1  0  0  0
  4 94  1  0  0  0
  5  6  1  0  0  0
  5 26  1  0  0  0
  5 95  1  0  0  0
  6 25  1  0  0  0
  6 96  1  0  0  0
  6 97  1  0  0  0
  7  8  2  0  0  0
  7 26  1  0  0  0
  7 29  1  0  0  0
  8  9  1  0  0  0
  8 22  1  0  0  0
  9 10  1  0  0  0
  9 27  2  0  0  0
 10 11  2  0  0  0
 10 15  1  0  0  0
 11 12  1  0  0  0
 11 98  1  0  0  0
 12 13  2  0  0  0
 12 99  1  0  0  0
 13 14  1  0  0  0
 13 31  1  0  0  0
 14 15  2  0  0  0
 14100  1  0  0  0
 15101  1  0  0  0
 16 17  2  0  0  0
 16 21  1  0  0  0
 16 31  1  0  0  0
 17 18  1  0  0  0
 17102  1  0  0  0
 18 19  2  0  0  0
 18103  1  0  0  0
 19 20  1  0  0  0
 19 24  1  0  0  0
 20 21  2  0  0  0
 20104  1  0  0  0
 21 23  1  0  0  0
 22 28  1  0  0  0
 22 32  2  0  0  0
 26 27  1  0  0  0
 28105  1  0  0  0
 28106  1  0  0  0
 29107  1  0  0  0
 29108  1  0  0  0
 33 34  1  0  0  0
 33 66  1  0  0  0
 33 70  2  0  0  0
 34 36  1  0  0  0
 34 59  1  0  0  0
 34109  1  0  0  0
 35 44  2  0  0  0
 35 45  1  0  0  0
 35 68  1  0  0  0
 36 56  1  0  0  0
 36110  1  0  0  0
 37 39  1  0  0  0
 37 47  1  0  0  0
 37 66  1  0  0  0
 37111  1  0  0  0
 38 43  2  0  0  0
 38 46  1  0  0  0
 38 47  1  0  0  0
 39 64  1  0  0  0
 39 67  2  0  0  0
 40 52  1  0  0  0
 40 53  2  0  0  0
 40 58  1  0  0  0
 41112  1  0  0  0
 41113  1  0  0  0
 41114  1  0  0  0
 41 48  1  0  0  0
 42 43  1  0  0  0
 42 66  1  0  0  0
 42115  1  0  0  0
 42116  1  0  0  0
 43 44  1  0  0  0
 44117  1  0  0  0
 45 46  2  0  0  0
 45118  1  0  0  0
 46119  1  0  0  0
 47120  1  0  0  0
 47121  1  0  0  0
 48 56  1  0  0  0
 48 65  1  0  0  0
 48122  1  0  0  0
 49 50  1  0  0  0
 49 53  1  0  0  0
 49 64  1  0  0  0
 49123  1  0  0  0
 50 51  1  0  0  0
 50124  1  0  0  0
 50125  1  0  0  0
 51 52  1  0  0  0
 51126  1  0  0  0
 51127  1  0  0  0
 52128  1  0  0  0
 52129  1  0  0  0
 53 54  1  0  0  0
 54 55  2  0  0  0
 54130  1  0  0  0
 55 57  1  0  0  0
 55131  1  0  0  0
 56 69  2  0  0  0
 57 58  2  0  0  0
 57132  1  0  0  0
 58133  1  0  0  0
 59 60  1  0  0  0
 59 61  1  0  0  0
 59 62  1  0  0  0
 60134  1  0  0  0
 60135  1  0  0  0
 60136  1  0  0  0
 61137  1  0  0  0
 61138  1  0  0  0
 61139  1  0  0  0
 62140  1  0  0  0
 62141  1  0  0  0
 62142  1  0  0  0
 63 65  1  0  0  0
 63143  1  0  0  0
 63144  1  0  0  0
 63145  1  0  0  0
 64146  1  0  0  0
 65147  1  0  0  0
 68 78  1  0  0  0
 71 72  2  0  0  0
 71 76  1  0  0  0
 71148  1  0  0  0
 72 77  1  0  0  0
 72149  1  0  0  0
 73 75  1  0  0  0
 73 77  2  0  0  0
 73150  1  0  0  0
 74 78  1  0  0  0
 74 79  2  0  0  0
 74151  1  0  0  0
 75 76  2  0  0  0
 75 81  1  0  0  0
 76 84  1  0  0  0
 77 85  1  0  0  0
 78 80  2  0  0  0
 79 85  1  0  0  0
 79 87  1  0  0  0
 80 85  1  0  0  0
 80 88  1  0  0  0
 81 82  2  0  0  0
 81152  1  0  0  0
 82 83  1  0  0  0
 82153  1  0  0  0
 83154  1  0  0  0
 83155  1  0  0  0
 83156  1  0  0  0
 84 86  1  0  0  0
 84157  1  0  0  0
 84158  1  0  0  0
 86159  1  0  0  0
 87160  1  0  0  0
 88161  1  0  0  0
M  ISO  4   1 100  68 101  78 101  86 100
M  END
> <chiral flag>
0

> <version>
0

> <s_m_source_file>
/data/baiqing/PycharmProjects/Reinvent-master-3.2/result/LINK_invent/BTK/process_docking_weight1_custom_product_contain_oxygen_bond_distance_aromatic_linkinvent_7_9_3/rearranged_h_0066.sdf

> <i_m_source_file_index>
64

> <r_mmod_Potential_Energy-OPLS-2005>
55.451587677002

> <r_mmod_Stretch_Energy-OPLS-2005>
84.8465042114258

> <r_mmod_Bend_Energy-OPLS-2005>
154.037307739258

> <r_mmod_Torsional_Energy-OPLS-2005>
217.747802734375

> <r_mmod_Improper_Torsional_Energy-OPLS-2005>
6.47710275650024

> <r_mmod_Van_der_Waal_Energy-OPLS-2005>
140.090591430664

> <r_mmod_Electrostatic_Energy-OPLS-2005>
-381.111114501953

> <r_mmod_Solvation_Energy-OPLS-2005>
-218.217086791992

> <b_mmod_Minimization_Converged-OPLS-2005>
0

> <r_mmod_RMS_Derivative-OPLS-2005>
1.99039316177368

$$$$
64
                    3D
 Structure written by MMmdl.
154163  0  0  1  0            999 V2000
  -30.6146  -14.7075   20.6083 C   0  0  0  0  0  0
  -30.4533  -12.4730   19.4590 C   0  0  0  0  0  0
  -29.5207  -12.5520   18.2275 C   0  0  0  0  0  0
  -28.0472  -12.3529   18.6326 C   0  0  0  0  0  0
  -27.6558  -13.2172   19.8564 C   0  0  2  0  0  0
  -28.6883  -13.0668   20.9902 C   0  0  0  0  0  0
  -25.2579  -13.8169   20.5609 C   0  0  0  0  0  0
  -24.1843  -13.0448   20.9146 C   0  0  0  0  0  0
  -24.6399  -11.6903   20.8699 C   0  0  0  0  0  0
  -23.9066  -10.4295   21.0396 C   0  0  0  0  0  0
  -24.3618   -9.4199   21.9166 C   0  0  0  0  0  0
  -23.6284   -8.2242   22.0746 C   0  0  0  0  0  0
  -22.4274   -8.0285   21.3533 C   0  0  0  0  0  0
  -21.9905   -9.0268   20.4645 C   0  0  0  0  0  0
  -22.7237  -10.2144   20.3053 C   0  0  0  0  0  0
  -21.6856   -6.0717   22.5259 C   0  0  0  0  0  0
  -21.4020   -6.5626   23.8186 C   0  0  0  0  0  0
  -21.3663   -5.6783   24.9150 C   0  0  0  0  0  0
  -21.6042   -4.3042   24.7211 C   0  0  0  0  0  0
  -21.8837   -3.8129   23.4341 C   0  0  0  0  0  0
  -21.9202   -4.6943   22.3391 C   0  0  0  0  0  0
  -22.7860  -13.5227   21.1831 C   0  0  0  0  0  0
  -22.1674   -4.2134   21.0963 F   0  0  0  0  0  0
  -21.5642   -3.4526   25.7727 F   0  0  0  0  0  0
  -30.0088  -13.4687   20.4646 N   0  0  0  0  0  0
  -26.2989  -12.9334   20.3185 N   0  0  0  0  0  0
  -25.9322  -11.6499   20.5660 N   0  0  0  0  0  0
  -22.0518  -12.8227   22.0402 N   0  0  0  0  0  0
  -25.4362  -15.1899   20.4026 N   0  0  0  0  0  0
  -31.6647  -14.9694   20.0109 O   0  0  0  0  0  0
  -21.6648   -6.8875   21.4228 O   0  0  0  0  0  0
  -22.3517  -14.5522   20.6663 O   0  0  0  0  0  0
  -24.6321  -31.8553   23.1991 C   0  0  0  0  0  0
  -25.9116  -32.4768   23.8359 C   0  0  1  0  0  0
  -27.2148  -27.2562   20.1220 C   0  0  0  0  0  0
  -25.5898  -33.8567   24.2281 N   0  0  0  0  0  0
  -23.4310  -30.4763   21.5476 C   0  0  2  0  0  0
  -24.8740  -28.9196   20.1136 C   0  0  0  0  0  0
  -22.7514  -29.4580   22.4959 C   0  0  0  0  0  0
  -18.0282  -28.1393   22.8487 C   0  0  0  0  0  0
  -24.1477  -36.7293   23.2651 C   0  0  0  0  0  0
  -25.9765  -30.7643   21.3764 C   0  0  0  0  0  0
  -26.0489  -29.3854   20.7191 C   0  0  0  0  0  0
  -27.2266  -28.5674   20.7066 C   0  0  0  0  0  0
  -26.0199  -26.8603   19.4840 C   0  0  0  0  0  0
  -24.8644  -27.6652   19.4839 C   0  0  0  0  0  0
  -23.6475  -29.8112   20.1636 C   0  0  0  0  0  0
  -25.4099  -36.3104   24.0359 C   0  0  1  0  0  0
  -20.5888  -28.3691   23.1282 C   0  0  2  0  0  0
  -20.6768  -26.9418   22.5411 C   0  0  0  0  0  0
  -19.5743  -26.6384   21.5220 C   0  0  0  0  0  0
  -18.1923  -26.7938   22.1634 C   0  0  0  0  0  0
  -19.1541  -28.8861   23.2872 C   0  0  0  0  0  0
  -18.9459  -30.1462   23.8887 C   0  0  0  0  0  0
  -17.6454  -30.6594   24.0567 C   0  0  0  0  0  0
  -25.9040  -34.9465   23.5132 C   0  0  0  0  0  0
  -16.5341  -29.9094   23.6336 C   0  0  0  0  0  0
  -16.7265  -28.6515   23.0351 C   0  0  0  0  0  0
  -26.4501  -31.6586   25.0738 C   0  0  0  0  0  0
  -25.3737  -31.3694   26.1471 C   0  0  0  0  0  0
  -27.0367  -30.3031   24.6179 C   0  0  0  0  0  0
  -27.6088  -32.4328   25.7466 C   0  0  0  0  0  0
  -27.5584  -37.1791   24.8469 C   0  0  0  0  0  0
  -21.4225  -29.3044   22.3695 N   0  0  0  0  0  0
  -26.4280  -37.3797   23.9439 N   0  0  0  0  0  0
  -24.7005  -31.0490   22.0989 N   0  0  0  0  0  0
  -23.4200  -28.8113   23.3065 O   0  0  0  0  0  0
  -28.3032  -26.3546   20.1312 O   0  0  0  0  0  0
  -26.5632  -34.8931   22.4716 O   0  0  0  0  0  0
  -23.5464  -32.1374   23.7273 O   0  0  0  0  0  0
  -28.8727  -18.5721   23.4767 C   0  0  0  0  0  0
  -28.8108  -19.7048   22.6584 C   0  0  0  0  0  0
  -29.7326  -18.4034   20.8259 C   0  0  0  0  0  0
  -29.9759  -15.2034   22.8405 C   0  0  0  0  0  0
  -29.3407  -17.3268   23.0230 C   0  0  0  0  0  0
  -29.7714  -17.1862   21.6554 C   0  0  0  0  0  0
  -29.2599  -19.7081   21.3196 C   0  0  0  0  0  0
  -29.4751  -16.0946   23.7251 C   0  0  0  0  0  0
  -28.9562  -22.3212   20.9911 C   0  0  0  0  0  0
  -28.7510  -23.5966   20.0300 C   0  0  0  0  0  0
  -28.0776  -24.9534   20.6454 C   0  0  0  0  0  0
  -30.0977  -15.7520   21.5617 N   0  0  0  0  0  0
  -29.1667  -21.0010   20.5542 N   0  0  0  0  0  0
  -28.9746  -22.5943   22.1925 O   0  0  0  0  0  0
  -29.1829  -15.8246   25.0358 O   0  0  0  0  0  0
  -31.4853  -12.6483   19.1544 H   0  0  0  0  0  0
  -30.4378  -11.4705   19.8896 H   0  0  0  0  0  0
  -29.8067  -11.8038   17.4873 H   0  0  0  0  0  0
  -29.6428  -13.5229   17.7428 H   0  0  0  0  0  0
  -27.9070  -11.2969   18.8668 H   0  0  0  0  0  0
  -27.3900  -12.5681   17.7900 H   0  0  0  0  0  0
  -27.6771  -14.2552   19.5245 H   0  0  0  0  0  0
  -28.7216  -12.0353   21.3449 H   0  0  0  0  0  0
  -28.3451  -13.6542   21.8367 H   0  0  0  0  0  0
  -25.2793   -9.5665   22.4697 H   0  0  0  0  0  0
  -24.0012   -7.4630   22.7457 H   0  0  0  0  0  0
  -21.0833   -8.8772   19.8938 H   0  0  0  0  0  0
  -22.3699  -10.9668   19.6153 H   0  0  0  0  0  0
  -21.1984   -7.6131   23.9682 H   0  0  0  0  0  0
  -21.1484   -6.0507   25.9051 H   0  0  0  0  0  0
  -22.0613   -2.7595   23.2832 H   0  0  0  0  0  0
  -22.4161  -11.9923   22.4833 H   0  0  0  0  0  0
  -21.1122  -13.1224   22.2597 H   0  0  0  0  0  0
  -24.6804  -15.8579   20.5076 H   0  0  0  0  0  0
  -26.2974  -15.6138   20.0803 H   0  0  0  0  0  0
  -26.7172  -32.5427   23.1098 H   0  0  0  0  0  0
  -25.0027  -33.9716   25.0412 H   0  0  0  0  0  0
  -22.7278  -31.2992   21.4035 H   0  0  0  0  0  0
  -23.3764  -35.9598   23.3294 H   0  0  0  0  0  0
  -24.3574  -36.8924   22.2069 H   0  0  0  0  0  0
  -23.7167  -37.6467   23.6668 H   0  0  0  0  0  0
  -26.1037  -31.5186   20.5996 H   0  0  0  0  0  0
  -26.8574  -30.8235   22.0030 H   0  0  0  0  0  0
  -28.1326  -28.9218   21.1763 H   0  0  0  0  0  0
  -25.9699  -25.9025   18.9869 H   0  0  0  0  0  0
  -23.9665  -27.3108   18.9971 H   0  0  0  0  0  0
  -23.7785  -30.5887   19.4113 H   0  0  0  0  0  0
  -22.7617  -29.2525   19.8565 H   0  0  0  0  0  0
  -25.1264  -36.1993   25.0849 H   0  0  0  0  0  0
  -20.9954  -28.3256   24.1415 H   0  0  0  0  0  0
  -20.5669  -26.2310   23.3616 H   0  0  0  0  0  0
  -21.6634  -26.7450   22.1206 H   0  0  0  0  0  0
  -19.6903  -25.6292   21.1262 H   0  0  0  0  0  0
  -19.6671  -27.3186   20.6748 H   0  0  0  0  0  0
  -17.4193  -26.6674   21.4041 H   0  0  0  0  0  0
  -18.0315  -26.0081   22.9033 H   0  0  0  0  0  0
  -19.7926  -30.7291   24.2255 H   0  0  0  0  0  0
  -17.5003  -31.6280   24.5170 H   0  0  0  0  0  0
  -15.5340  -30.2995   23.7669 H   0  0  0  0  0  0
  -15.8661  -28.0837   22.7065 H   0  0  0  0  0  0
  -24.5847  -30.7151   25.7743 H   0  0  0  0  0  0
  -24.9007  -32.2848   26.5035 H   0  0  0  0  0  0
  -25.8045  -30.8716   27.0166 H   0  0  0  0  0  0
  -26.2939  -29.6741   24.1254 H   0  0  0  0  0  0
  -27.4152  -29.7330   25.4668 H   0  0  0  0  0  0
  -27.8770  -30.4363   23.9363 H   0  0  0  0  0  0
  -27.2721  -33.3604   26.2110 H   0  0  0  0  0  0
  -28.3818  -32.6928   25.0222 H   0  0  0  0  0  0
  -28.0853  -31.8419   26.5299 H   0  0  0  0  0  0
  -28.2608  -38.0091   24.7570 H   0  0  0  0  0  0
  -28.1093  -36.2639   24.6242 H   0  0  0  0  0  0
  -27.2339  -37.1377   25.8882 H   0  0  0  0  0  0
  -20.9426  -29.8792   21.6913 H   0  0  0  0  0  0
  -26.0193  -38.2886   24.1453 H   0  0  0  0  0  0
  -28.5478  -18.6650   24.5026 H   0  0  0  0  0  0
  -28.3941  -20.5817   23.1280 H   0  0  0  0  0  0
  -30.0659  -18.3233   19.8012 H   0  0  0  0  0  0
  -30.2417  -14.1699   23.0356 H   0  0  0  0  0  0
  -28.1573  -23.2759   19.1758 H   0  0  0  0  0  0
  -29.7332  -23.8476   19.6309 H   0  0  0  0  0  0
  -28.3664  -25.0139   21.6950 H   0  0  0  0  0  0
  -27.0056  -24.7595   20.6911 H   0  0  0  0  0  0
  -29.2583  -20.9075   19.5519 H   0  0  0  0  0  0
  -28.8052  -16.6068   25.4264 H   0  0  0  0  0  0
  1 25  1  0  0  0
  1 30  2  0  0  0
  1 82  1  0  0  0
  2  3  1  0  0  0
  2 25  1  0  0  0
  2 86  1  0  0  0
  2 87  1  0  0  0
  3  4  1  0  0  0
  3 88  1  0  0  0
  3 89  1  0  0  0
  4  5  1  0  0  0
  4 90  1  0  0  0
  4 91  1  0  0  0
  5  6  1  0  0  0
  5 26  1  0  0  0
  5 92  1  0  0  0
  6 25  1  0  0  0
  6 93  1  0  0  0
  6 94  1  0  0  0
  7  8  2  0  0  0
  7 26  1  0  0  0
  7 29  1  0  0  0
  8  9  1  0  0  0
  8 22  1  0  0  0
  9 10  1  0  0  0
  9 27  2  0  0  0
 10 11  2  0  0  0
 10 15  1  0  0  0
 11 12  1  0  0  0
 11 95  1  0  0  0
 12 13  2  0  0  0
 12 96  1  0  0  0
 13 14  1  0  0  0
 13 31  1  0  0  0
 14 15  2  0  0  0
 14 97  1  0  0  0
 15 98  1  0  0  0
 16 17  2  0  0  0
 16 21  1  0  0  0
 16 31  1  0  0  0
 17 18  1  0  0  0
 17 99  1  0  0  0
 18 19  2  0  0  0
 18100  1  0  0  0
 19 20  1  0  0  0
 19 24  1  0  0  0
 20 21  2  0  0  0
 20101  1  0  0  0
 21 23  1  0  0  0
 22 28  1  0  0  0
 22 32  2  0  0  0
 26 27  1  0  0  0
 28102  1  0  0  0
 28103  1  0  0  0
 29104  1  0  0  0
 29105  1  0  0  0
 33 34  1  0  0  0
 33 66  1  0  0  0
 33 70  2  0  0  0
 34 36  1  0  0  0
 34 59  1  0  0  0
 34106  1  0  0  0
 35 44  2  0  0  0
 35 45  1  0  0  0
 35 68  1  0  0  0
 36 56  1  0  0  0
 36107  1  0  0  0
 37 39  1  0  0  0
 37 47  1  0  0  0
 37 66  1  0  0  0
 37108  1  0  0  0
 38 43  2  0  0  0
 38 46  1  0  0  0
 38 47  1  0  0  0
 39 64  1  0  0  0
 39 67  2  0  0  0
 40 52  1  0  0  0
 40 53  2  0  0  0
 40 58  1  0  0  0
 41109  1  0  0  0
 41110  1  0  0  0
 41111  1  0  0  0
 41 48  1  0  0  0
 42 43  1  0  0  0
 42 66  1  0  0  0
 42112  1  0  0  0
 42113  1  0  0  0
 43 44  1  0  0  0
 44114  1  0  0  0
 45 46  2  0  0  0
 45115  1  0  0  0
 46116  1  0  0  0
 47117  1  0  0  0
 47118  1  0  0  0
 48 56  1  0  0  0
 48 65  1  0  0  0
 48119  1  0  0  0
 49 50  1  0  0  0
 49 53  1  0  0  0
 49 64  1  0  0  0
 49120  1  0  0  0
 50 51  1  0  0  0
 50121  1  0  0  0
 50122  1  0  0  0
 51 52  1  0  0  0
 51123  1  0  0  0
 51124  1  0  0  0
 52125  1  0  0  0
 52126  1  0  0  0
 53 54  1  0  0  0
 54 55  2  0  0  0
 54127  1  0  0  0
 55 57  1  0  0  0
 55128  1  0  0  0
 56 69  2  0  0  0
 57 58  2  0  0  0
 57129  1  0  0  0
 58130  1  0  0  0
 59 60  1  0  0  0
 59 61  1  0  0  0
 59 62  1  0  0  0
 60131  1  0  0  0
 60132  1  0  0  0
 60133  1  0  0  0
 61134  1  0  0  0
 61135  1  0  0  0
 61136  1  0  0  0
 62137  1  0  0  0
 62138  1  0  0  0
 62139  1  0  0  0
 63 65  1  0  0  0
 63140  1  0  0  0
 63141  1  0  0  0
 63142  1  0  0  0
 64143  1  0  0  0
 65144  1  0  0  0
 68 81  1  0  0  0
 71 72  2  0  0  0
 71 75  1  0  0  0
 71145  1  0  0  0
 72 77  1  0  0  0
 72146  1  0  0  0
 73 76  1  0  0  0
 73 77  2  0  0  0
 73147  1  0  0  0
 74 78  2  0  0  0
 74 82  1  0  0  0
 74148  1  0  0  0
 75 76  2  0  0  0
 75 78  1  0  0  0
 76 82  1  0  0  0
 77 83  1  0  0  0
 78 85  1  0  0  0
 79 80  1  0  0  0
 79 83  1  0  0  0
 79 84  2  0  0  0
 80 81  1  0  0  0
 80149  1  0  0  0
 80150  1  0  0  0
 81151  1  0  0  0
 81152  1  0  0  0
 83153  1  0  0  0
 85154  1  0  0  0
M  ISO  4   1 100  68 101  81 101  82 100
M  END
> <chiral flag>
0

> <version>
0

> <s_m_source_file>
/data/baiqing/PycharmProjects/Reinvent-master-3.2/result/LINK_invent/BTK/process_docking_weight1_custom_product_contain_oxygen_bond_distance_aromatic_linkinvent_7_9_3/rearranged_h_0066.sdf

> <i_m_source_file_index>
65

> <r_mmod_Potential_Energy-OPLS-2005>
212.718032836914

> <r_mmod_Stretch_Energy-OPLS-2005>
156.869735717773

> <r_mmod_Bend_Energy-OPLS-2005>
193.213027954102

> <r_mmod_Torsional_Energy-OPLS-2005>
229.769393920898

> <r_mmod_Improper_Torsional_Energy-OPLS-2005>
3.19350290298462

> <r_mmod_Van_der_Waal_Energy-OPLS-2005>
147.349624633789

> <r_mmod_Electrostatic_Energy-OPLS-2005>
-351.126129150391

> <r_mmod_Solvation_Energy-OPLS-2005>
-246.573196411133

> <b_mmod_Minimization_Converged-OPLS-2005>
0

> <r_mmod_RMS_Derivative-OPLS-2005>
3.12895464897156

$$$$
66
                    3D
 Structure written by MMmdl.
161170  0  0  1  0            999 V2000
  -30.6352  -14.7389   20.4532 C   0  0  0  0  0  0
  -30.4228  -12.4492   19.4759 C   0  0  0  0  0  0
  -29.5061  -12.5024   18.2359 C   0  0  0  0  0  0
  -28.0329  -12.3305   18.6508 C   0  0  0  0  0  0
  -27.6392  -13.2352   19.8496 C   0  0  2  0  0  0
  -28.6850  -13.1840   20.9854 C   0  0  0  0  0  0
  -25.2497  -13.8208   20.5700 C   0  0  0  0  0  0
  -24.1797  -13.0442   20.9212 C   0  0  0  0  0  0
  -24.6395  -11.6920   20.8756 C   0  0  0  0  0  0
  -23.9078  -10.4293   21.0413 C   0  0  0  0  0  0
  -24.3621   -9.4207   21.9191 C   0  0  0  0  0  0
  -23.6294   -8.2248   22.0760 C   0  0  0  0  0  0
  -22.4279   -8.0283   21.3546 C   0  0  0  0  0  0
  -21.9917   -9.0262   20.4648 C   0  0  0  0  0  0
  -22.7249  -10.2139   20.3061 C   0  0  0  0  0  0
  -21.6855   -6.0737   22.5276 C   0  0  0  0  0  0
  -21.4016   -6.5641   23.8209 C   0  0  0  0  0  0
  -21.3660   -5.6791   24.9174 C   0  0  0  0  0  0
  -21.6045   -4.3055   24.7220 C   0  0  0  0  0  0
  -21.8819   -3.8148   23.4343 C   0  0  0  0  0  0
  -21.9192   -4.6964   22.3400 C   0  0  0  0  0  0
  -22.7819  -13.5223   21.1863 C   0  0  0  0  0  0
  -22.1660   -4.2150   21.0978 F   0  0  0  0  0  0
  -21.5628   -3.4538   25.7735 F   0  0  0  0  0  0
  -29.9839  -13.5262   20.3951 N   0  0  0  0  0  0
  -26.2929  -12.9421   20.3293 N   0  0  0  0  0  0
  -25.9327  -11.6560   20.5771 N   0  0  0  0  0  0
  -22.0462  -12.8214   22.0417 N   0  0  0  0  0  0
  -25.4163  -15.1933   20.4095 N   0  0  0  0  0  0
  -31.8244  -14.7829   20.1312 O   0  0  0  0  0  0
  -21.6643   -6.8884   21.4240 O   0  0  0  0  0  0
  -22.3506  -14.5528   20.6709 O   0  0  0  0  0  0
  -24.6309  -31.8547   23.1971 C   0  0  0  0  0  0
  -25.9135  -32.4748   23.8317 C   0  0  1  0  0  0
  -27.2208  -27.2725   20.1391 C   0  0  0  0  0  0
  -25.5921  -33.8547   24.2243 N   0  0  0  0  0  0
  -23.4268  -30.4752   21.5413 C   0  0  2  0  0  0
  -24.8732  -28.9152   20.1153 C   0  0  0  0  0  0
  -22.7502  -29.4588   22.4927 C   0  0  0  0  0  0
  -18.0287  -28.1381   22.8482 C   0  0  0  0  0  0
  -24.1487  -36.7281   23.2640 C   0  0  0  0  0  0
  -25.9689  -30.7740   21.3695 C   0  0  0  0  0  0
  -26.0442  -29.3937   20.7180 C   0  0  0  0  0  0
  -27.2252  -28.5868   20.7121 C   0  0  0  0  0  0
  -26.0293  -26.8485   19.5188 C   0  0  0  0  0  0
  -24.8700  -27.6502   19.5032 C   0  0  0  0  0  0
  -23.6437  -29.8024   20.1588 C   0  0  0  0  0  0
  -25.4112  -36.3065   24.0320 C   0  0  1  0  0  0
  -20.5886  -28.3688   23.1278 C   0  0  2  0  0  0
  -20.6777  -26.9402   22.5408 C   0  0  0  0  0  0
  -19.5752  -26.6374   21.5204 C   0  0  0  0  0  0
  -18.1933  -26.7924   22.1615 C   0  0  0  0  0  0
  -19.1537  -28.8852   23.2876 C   0  0  0  0  0  0
  -18.9464  -30.1458   23.8888 C   0  0  0  0  0  0
  -17.6463  -30.6588   24.0551 C   0  0  0  0  0  0
  -25.9051  -34.9436   23.5087 C   0  0  0  0  0  0
  -16.5354  -29.9081   23.6331 C   0  0  0  0  0  0
  -16.7270  -28.6500   23.0345 C   0  0  0  0  0  0
  -26.4500  -31.6581   25.0710 C   0  0  0  0  0  0
  -25.3720  -31.3719   26.1430 C   0  0  0  0  0  0
  -27.0351  -30.3010   24.6165 C   0  0  0  0  0  0
  -27.6060  -32.4322   25.7480 C   0  0  0  0  0  0
  -27.5574  -37.1804   24.8463 C   0  0  0  0  0  0
  -21.4208  -29.3033   22.3671 N   0  0  0  0  0  0
  -26.4289  -37.3763   23.9406 N   0  0  0  0  0  0
  -24.6950  -31.0528   22.0935 N   0  0  0  0  0  0
  -23.4206  -28.8135   23.3024 O   0  0  0  0  0  0
  -28.3234  -26.3979   20.1374 O   0  0  0  0  0  0
  -26.5627  -34.8920   22.4660 O   0  0  0  0  0  0
  -23.5468  -32.1355   23.7287 O   0  0  0  0  0  0
  -31.6769  -17.6462   20.9239 C   0  0  0  0  0  0
  -29.4544  -18.5059   20.4692 C   0  0  0  0  0  0
  -32.1630  -18.9673   20.9654 C   0  0  0  0  0  0
  -29.9065  -19.9037   20.5162 C   0  0  0  0  0  0
  -30.3236  -17.3443   20.6603 C   0  0  0  0  0  0
  -31.2966  -20.0658   20.7727 C   0  0  0  0  0  0
  -27.7663  -21.2184   19.9846 C   0  0  0  0  0  0
  -27.2183  -22.6636   19.9583 C   0  0  0  0  0  0
  -29.4942  -22.5926   20.5320 C   0  0  0  0  0  0
  -28.4297  -23.6287   19.9448 C   0  0  1  0  0  0
  -28.8130  -23.9736   18.4904 C   0  0  0  0  0  0
  -28.1752  -25.0311   20.7370 C   0  0  0  0  0  0
  -33.6495  -19.2200   21.2081 C   0  0  0  0  0  0
  -29.0701  -21.1492   20.3240 N   0  0  0  0  0  0
  -29.8958  -15.9097   20.6381 N   0  0  0  0  0  0
  -27.0359  -20.2611   19.7157 O   0  0  0  0  0  0
  -31.8493  -21.2986   20.8409 F   0  0  0  0  0  0
  -34.3122  -18.1011   21.5090 F   0  0  0  0  0  0
  -34.2002  -19.7361   20.1088 F   0  0  0  0  0  0
  -33.8253  -20.0735   22.2175 F   0  0  0  0  0  0
  -31.4667  -12.5519   19.1753 H   0  0  0  0  0  0
  -30.3508  -11.4782   19.9673 H   0  0  0  0  0  0
  -29.7866  -11.7261   17.5231 H   0  0  0  0  0  0
  -29.6360  -13.4553   17.7193 H   0  0  0  0  0  0
  -27.8887  -11.2828   18.9168 H   0  0  0  0  0  0
  -27.3753  -12.5203   17.8018 H   0  0  0  0  0  0
  -27.6296  -14.2547   19.4627 H   0  0  0  0  0  0
  -28.7201  -12.1934   21.4411 H   0  0  0  0  0  0
  -28.4244  -13.8803   21.7847 H   0  0  0  0  0  0
  -25.2766   -9.5686   22.4766 H   0  0  0  0  0  0
  -23.9997   -7.4644   22.7484 H   0  0  0  0  0  0
  -21.0848   -8.8788   19.8953 H   0  0  0  0  0  0
  -22.3710  -10.9683   19.6172 H   0  0  0  0  0  0
  -21.2011   -7.6149   23.9713 H   0  0  0  0  0  0
  -21.1482   -6.0524   25.9077 H   0  0  0  0  0  0
  -22.0597   -2.7608   23.2843 H   0  0  0  0  0  0
  -22.4081  -11.9876   22.4802 H   0  0  0  0  0  0
  -21.1085  -13.1246   22.2620 H   0  0  0  0  0  0
  -24.6426  -15.8407   20.5137 H   0  0  0  0  0  0
  -26.2535  -15.6349   20.0528 H   0  0  0  0  0  0
  -26.7205  -32.5418   23.1062 H   0  0  0  0  0  0
  -25.0084  -33.9659   25.0400 H   0  0  0  0  0  0
  -22.7227  -31.2975   21.3938 H   0  0  0  0  0  0
  -23.3742  -35.9618   23.3297 H   0  0  0  0  0  0
  -24.3583  -36.8911   22.2054 H   0  0  0  0  0  0
  -23.7248  -37.6482   23.6678 H   0  0  0  0  0  0
  -26.0962  -31.5309   20.5948 H   0  0  0  0  0  0
  -26.8500  -30.8329   21.9965 H   0  0  0  0  0  0
  -28.1281  -28.9505   21.1820 H   0  0  0  0  0  0
  -25.9907  -25.8741   19.0534 H   0  0  0  0  0  0
  -23.9726  -27.2766   19.0289 H   0  0  0  0  0  0
  -23.7686  -30.5753   19.3997 H   0  0  0  0  0  0
  -22.7631  -29.2330   19.8549 H   0  0  0  0  0  0
  -25.1301  -36.1898   25.0811 H   0  0  0  0  0  0
  -20.9981  -28.3262   24.1397 H   0  0  0  0  0  0
  -20.5670  -26.2292   23.3610 H   0  0  0  0  0  0
  -21.6653  -26.7432   22.1205 H   0  0  0  0  0  0
  -19.6912  -25.6281   21.1241 H   0  0  0  0  0  0
  -19.6692  -27.3182   20.6734 H   0  0  0  0  0  0
  -17.4203  -26.6662   21.4015 H   0  0  0  0  0  0
  -18.0341  -26.0063   22.9007 H   0  0  0  0  0  0
  -19.7941  -30.7275   24.2247 H   0  0  0  0  0  0
  -17.5016  -31.6261   24.5167 H   0  0  0  0  0  0
  -15.5358  -30.2974   23.7664 H   0  0  0  0  0  0
  -15.8672  -28.0820   22.7053 H   0  0  0  0  0  0
  -24.5908  -30.7045   25.7758 H   0  0  0  0  0  0
  -24.8889  -32.2884   26.4837 H   0  0  0  0  0  0
  -25.8040  -30.8918   27.0218 H   0  0  0  0  0  0
  -26.2927  -29.6753   24.1198 H   0  0  0  0  0  0
  -27.4062  -29.7274   25.4669 H   0  0  0  0  0  0
  -27.8789  -30.4297   23.9380 H   0  0  0  0  0  0
  -27.2670  -33.3633   26.2027 H   0  0  0  0  0  0
  -28.3888  -32.6848   25.0318 H   0  0  0  0  0  0
  -28.0697  -31.8452   26.5418 H   0  0  0  0  0  0
  -28.2591  -38.0096   24.7522 H   0  0  0  0  0  0
  -28.1067  -36.2639   24.6284 H   0  0  0  0  0  0
  -27.2298  -37.1446   25.8863 H   0  0  0  0  0  0
  -20.9396  -29.8766   21.6883 H   0  0  0  0  0  0
  -26.0158  -38.2826   24.1417 H   0  0  0  0  0  0
  -32.3866  -16.8590   21.1112 H   0  0  0  0  0  0
  -28.4104  -18.3065   20.2812 H   0  0  0  0  0  0
  -26.6185  -22.7975   20.8598 H   0  0  0  0  0  0
  -26.5586  -22.8154   19.1032 H   0  0  0  0  0  0
  -29.6238  -22.7484   21.6043 H   0  0  0  0  0  0
  -30.4481  -22.8086   20.0558 H   0  0  0  0  0  0
  -28.9814  -23.0827   17.8847 H   0  0  0  0  0  0
  -29.7263  -24.5691   18.4575 H   0  0  0  0  0  0
  -28.0295  -24.5568   18.0049 H   0  0  0  0  0  0
  -28.8706  -25.0401   21.5759 H   0  0  0  0  0  0
  -27.2023  -24.9816   21.2269 H   0  0  0  0  0  0
  -28.9056  -15.7515   20.7479 H   0  0  0  0  0  0
  1 25  1  0  0  0
  1 30  2  0  0  0
  1 85  1  0  0  0
  2  3  1  0  0  0
  2 25  1  0  0  0
  2 91  1  0  0  0
  2 92  1  0  0  0
  3  4  1  0  0  0
  3 93  1  0  0  0
  3 94  1  0  0  0
  4  5  1  0  0  0
  4 95  1  0  0  0
  4 96  1  0  0  0
  5  6  1  0  0  0
  5 26  1  0  0  0
  5 97  1  0  0  0
  6 25  1  0  0  0
  6 98  1  0  0  0
  6 99  1  0  0  0
  7  8  2  0  0  0
  7 26  1  0  0  0
  7 29  1  0  0  0
  8  9  1  0  0  0
  8 22  1  0  0  0
  9 10  1  0  0  0
  9 27  2  0  0  0
 10 11  2  0  0  0
 10 15  1  0  0  0
 11 12  1  0  0  0
 11100  1  0  0  0
 12 13  2  0  0  0
 12101  1  0  0  0
 13 14  1  0  0  0
 13 31  1  0  0  0
 14 15  2  0  0  0
 14102  1  0  0  0
 15103  1  0  0  0
 16 17  2  0  0  0
 16 21  1  0  0  0
 16 31  1  0  0  0
 17 18  1  0  0  0
 17104  1  0  0  0
 18 19  2  0  0  0
 18105  1  0  0  0
 19 20  1  0  0  0
 19 24  1  0  0  0
 20 21  2  0  0  0
 20106  1  0  0  0
 21 23  1  0  0  0
 22 28  1  0  0  0
 22 32  2  0  0  0
 26 27  1  0  0  0
 28107  1  0  0  0
 28108  1  0  0  0
 29109  1  0  0  0
 29110  1  0  0  0
 33 34  1  0  0  0
 33 66  1  0  0  0
 33 70  2  0  0  0
 34 36  1  0  0  0
 34 59  1  0  0  0
 34111  1  0  0  0
 35 44  2  0  0  0
 35 45  1  0  0  0
 35 68  1  0  0  0
 36 56  1  0  0  0
 36112  1  0  0  0
 37 39  1  0  0  0
 37 47  1  0  0  0
 37 66  1  0  0  0
 37113  1  0  0  0
 38 43  2  0  0  0
 38 46  1  0  0  0
 38 47  1  0  0  0
 39 64  1  0  0  0
 39 67  2  0  0  0
 40 52  1  0  0  0
 40 53  2  0  0  0
 40 58  1  0  0  0
 41114  1  0  0  0
 41115  1  0  0  0
 41116  1  0  0  0
 41 48  1  0  0  0
 42 43  1  0  0  0
 42 66  1  0  0  0
 42117  1  0  0  0
 42118  1  0  0  0
 43 44  1  0  0  0
 44119  1  0  0  0
 45 46  2  0  0  0
 45120  1  0  0  0
 46121  1  0  0  0
 47122  1  0  0  0
 47123  1  0  0  0
 48 56  1  0  0  0
 48 65  1  0  0  0
 48124  1  0  0  0
 49 50  1  0  0  0
 49 53  1  0  0  0
 49 64  1  0  0  0
 49125  1  0  0  0
 50 51  1  0  0  0
 50126  1  0  0  0
 50127  1  0  0  0
 51 52  1  0  0  0
 51128  1  0  0  0
 51129  1  0  0  0
 52130  1  0  0  0
 52131  1  0  0  0
 53 54  1  0  0  0
 54 55  2  0  0  0
 54132  1  0  0  0
 55 57  1  0  0  0
 55133  1  0  0  0
 56 69  2  0  0  0
 57 58  2  0  0  0
 57134  1  0  0  0
 58135  1  0  0  0
 59 60  1  0  0  0
 59 61  1  0  0  0
 59 62  1  0  0  0
 60136  1  0  0  0
 60137  1  0  0  0
 60138  1  0  0  0
 61139  1  0  0  0
 61140  1  0  0  0
 61141  1  0  0  0
 62142  1  0  0  0
 62143  1  0  0  0
 62144  1  0  0  0
 63 65  1  0  0  0
 63145  1  0  0  0
 63146  1  0  0  0
 63147  1  0  0  0
 64148  1  0  0  0
 65149  1  0  0  0
 68 82  1  0  0  0
 71 73  2  0  0  0
 71 75  1  0  0  0
 71150  1  0  0  0
 72 74  1  0  0  0
 72 75  2  0  0  0
 72151  1  0  0  0
 73 76  1  0  0  0
 73 83  1  0  0  0
 74 76  2  0  0  0
 74 84  1  0  0  0
 75 85  1  0  0  0
 76 87  1  0  0  0
 77 78  1  0  0  0
 77 84  1  0  0  0
 77 86  2  0  0  0
 78 80  1  0  0  0
 78152  1  0  0  0
 78153  1  0  0  0
 79 80  1  0  0  0
 79 84  1  0  0  0
 79154  1  0  0  0
 79155  1  0  0  0
 80 81  1  0  0  0
 80 82  1  0  0  0
 81156  1  0  0  0
 81157  1  0  0  0
 81158  1  0  0  0
 82159  1  0  0  0
 82160  1  0  0  0
 83 88  1  0  0  0
 83 89  1  0  0  0
 83 90  1  0  0  0
 85161  1  0  0  0
M  ISO  4   1 100  68 101  82 101  85 100
M  END
> <chiral flag>
0

> <version>
0

> <s_m_source_file>
/data/baiqing/PycharmProjects/Reinvent-master-3.2/result/LINK_invent/BTK/process_docking_weight1_custom_product_contain_oxygen_bond_distance_aromatic_linkinvent_7_9_3/rearranged_h_0066.sdf

> <i_m_source_file_index>
66

> <r_mmod_Potential_Energy-OPLS-2005>
287.748779296875

> <r_mmod_Stretch_Energy-OPLS-2005>
135.37077331543

> <r_mmod_Bend_Energy-OPLS-2005>
200.674102783203

> <r_mmod_Torsional_Energy-OPLS-2005>
295.865814208984

> <r_mmod_Improper_Torsional_Energy-OPLS-2005>
5.32610845565796

> <r_mmod_Van_der_Waal_Energy-OPLS-2005>
152.285018920898

> <r_mmod_Electrostatic_Energy-OPLS-2005>
-371.665008544922

> <r_mmod_Solvation_Energy-OPLS-2005>
-209.341491699219

> <b_mmod_Minimization_Converged-OPLS-2005>
0

> <r_mmod_RMS_Derivative-OPLS-2005>
1.51415908336639

$$$$
67
                    3D
 Structure written by MMmdl.
164173  0  0  1  0            999 V2000
  -30.6079  -14.7706   20.4476 C   0  0  0  0  0  0
  -30.4410  -12.4720   19.4900 C   0  0  0  0  0  0
  -29.5275  -12.5376   18.2455 C   0  0  0  0  0  0
  -28.0503  -12.3614   18.6433 C   0  0  0  0  0  0
  -27.6507  -13.2429   19.8568 C   0  0  2  0  0  0
  -28.6928  -13.1723   20.9975 C   0  0  0  0  0  0
  -25.2542  -13.8213   20.5670 C   0  0  0  0  0  0
  -24.1821  -13.0458   20.9149 C   0  0  0  0  0  0
  -24.6436  -11.6929   20.8714 C   0  0  0  0  0  0
  -23.9100  -10.4307   21.0392 C   0  0  0  0  0  0
  -24.3650   -9.4236   21.9171 C   0  0  0  0  0  0
  -23.6307   -8.2281   22.0750 C   0  0  0  0  0  0
  -22.4282   -8.0331   21.3550 C   0  0  0  0  0  0
  -21.9920   -9.0302   20.4659 C   0  0  0  0  0  0
  -22.7267  -10.2163   20.3060 C   0  0  0  0  0  0
  -21.6857   -6.0744   22.5270 C   0  0  0  0  0  0
  -21.4034   -6.5632   23.8219 C   0  0  0  0  0  0
  -21.3659   -5.6780   24.9169 C   0  0  0  0  0  0
  -21.6039   -4.3038   24.7210 C   0  0  0  0  0  0
  -21.8829   -3.8145   23.4319 C   0  0  0  0  0  0
  -21.9197   -4.6968   22.3383 C   0  0  0  0  0  0
  -22.7843  -13.5257   21.1818 C   0  0  0  0  0  0
  -22.1659   -4.2167   21.0952 F   0  0  0  0  0  0
  -21.5620   -3.4517   25.7705 F   0  0  0  0  0  0
  -29.9989  -13.5315   20.4307 N   0  0  0  0  0  0
  -26.2999  -12.9441   20.3284 N   0  0  0  0  0  0
  -25.9379  -11.6578   20.5722 N   0  0  0  0  0  0
  -22.0482  -12.8270   22.0385 N   0  0  0  0  0  0
  -25.4251  -15.1954   20.4150 N   0  0  0  0  0  0
  -31.7756  -14.8758   20.0589 O   0  0  0  0  0  0
  -21.6657   -6.8908   21.4248 O   0  0  0  0  0  0
  -22.3522  -14.5553   20.6663 O   0  0  0  0  0  0
  -24.6333  -31.8554   23.1979 C   0  0  0  0  0  0
  -25.9152  -32.4757   23.8338 C   0  0  1  0  0  0
  -27.2249  -27.2475   20.1319 C   0  0  0  0  0  0
  -25.5944  -33.8554   24.2252 N   0  0  0  0  0  0
  -23.4322  -30.4779   21.5421 C   0  0  2  0  0  0
  -24.8800  -28.9274   20.1075 C   0  0  0  0  0  0
  -22.7520  -29.4603   22.4896 C   0  0  0  0  0  0
  -18.0291  -28.1422   22.8468 C   0  0  0  0  0  0
  -24.1483  -36.7276   23.2643 C   0  0  0  0  0  0
  -25.9797  -30.7636   21.3828 C   0  0  0  0  0  0
  -26.0533  -29.3872   20.7200 C   0  0  0  0  0  0
  -27.2265  -28.5608   20.7199 C   0  0  0  0  0  0
  -26.0283  -26.8683   19.4782 C   0  0  0  0  0  0
  -24.8739  -27.6750   19.4769 C   0  0  0  0  0  0
  -23.6512  -29.8162   20.1568 C   0  0  0  0  0  0
  -25.4117  -36.3076   24.0322 C   0  0  1  0  0  0
  -20.5895  -28.3731   23.1254 C   0  0  2  0  0  0
  -20.6781  -26.9440   22.5417 C   0  0  0  0  0  0
  -19.5759  -26.6397   21.5219 C   0  0  0  0  0  0
  -18.1933  -26.7962   22.1616 C   0  0  0  0  0  0
  -19.1545  -28.8895   23.2852 C   0  0  0  0  0  0
  -18.9474  -30.1485   23.8891 C   0  0  0  0  0  0
  -17.6474  -30.6603   24.0585 C   0  0  0  0  0  0
  -25.9060  -34.9440   23.5089 C   0  0  0  0  0  0
  -16.5368  -29.9109   23.6334 C   0  0  0  0  0  0
  -16.7279  -28.6533   23.0342 C   0  0  0  0  0  0
  -26.4494  -31.6598   25.0742 C   0  0  0  0  0  0
  -25.3684  -31.3805   26.1449 C   0  0  0  0  0  0
  -27.0359  -30.3004   24.6295 C   0  0  0  0  0  0
  -27.6045  -32.4358   25.7505 C   0  0  0  0  0  0
  -27.5580  -37.1800   24.8452 C   0  0  0  0  0  0
  -21.4223  -29.3055   22.3631 N   0  0  0  0  0  0
  -26.4301  -37.3775   23.9401 N   0  0  0  0  0  0
  -24.7007  -31.0504   22.0970 N   0  0  0  0  0  0
  -23.4190  -28.8150   23.3019 O   0  0  0  0  0  0
  -28.3092  -26.3298   20.2136 O   0  0  0  0  0  0
  -26.5647  -34.8930   22.4666 O   0  0  0  0  0  0
  -23.5470  -32.1405   23.7242 O   0  0  0  0  0  0
  -29.2103  -18.2146   17.8681 C   0  0  0  0  0  0
  -29.4883  -17.0846   18.6589 C   0  0  0  0  0  0
  -29.6708  -18.5533   20.5912 C   0  0  0  0  0  0
  -29.1707  -19.5205   18.4012 C   0  0  0  0  0  0
  -29.4018  -19.7513   19.7873 C   0  0  0  0  0  0
  -29.7293  -17.1927   20.0432 C   0  0  0  0  0  0
  -28.4766  -22.1213   20.4002 C   0  0  0  0  0  0
  -30.7292  -21.9309   20.1136 C   0  0  0  0  0  0
  -28.9829  -23.6248   20.5352 C   0  0  1  0  0  0
  -30.3718  -23.4393   19.9035 C   0  0  1  0  0  0
  -28.8881  -20.6617   17.4315 C   0  0  0  0  0  0
  -32.7184  -24.4247   19.5851 C   0  0  0  0  0  0
  -28.0671  -24.8535   19.9681 C   0  0  0  0  0  0
  -31.4450  -24.4077   20.4417 C   0  0  0  0  0  0
  -29.4758  -21.1786   20.2389 N   0  0  0  0  0  0
  -29.8732  -15.9055   20.7857 N   0  0  0  0  0  0
  -27.2769  -21.8445   20.4747 O   0  0  0  0  0  0
  -31.4869  -12.5862   19.1996 H   0  0  0  0  0  0
  -30.3732  -11.4926   19.9641 H   0  0  0  0  0  0
  -29.8173  -11.7760   17.5221 H   0  0  0  0  0  0
  -29.6561  -13.4985   17.7444 H   0  0  0  0  0  0
  -27.8968  -11.3079   18.8808 H   0  0  0  0  0  0
  -27.4070  -12.5831   17.7907 H   0  0  0  0  0  0
  -27.6446  -14.2683   19.4879 H   0  0  0  0  0  0
  -28.7244  -12.1683   21.4269 H   0  0  0  0  0  0
  -28.4226  -13.8479   21.8094 H   0  0  0  0  0  0
  -25.2803   -9.5691   22.4737 H   0  0  0  0  0  0
  -24.0003   -7.4661   22.7471 H   0  0  0  0  0  0
  -21.0832   -8.8854   19.8962 H   0  0  0  0  0  0
  -22.3747  -10.9710   19.6176 H   0  0  0  0  0  0
  -21.2064   -7.6138   23.9714 H   0  0  0  0  0  0
  -21.1455   -6.0506   25.9065 H   0  0  0  0  0  0
  -22.0609   -2.7604   23.2819 H   0  0  0  0  0  0
  -22.4037  -11.9912   22.4784 H   0  0  0  0  0  0
  -21.1149  -13.1373   22.2631 H   0  0  0  0  0  0
  -24.6648  -15.8562   20.5287 H   0  0  0  0  0  0
  -26.2885  -15.6336   20.1175 H   0  0  0  0  0  0
  -26.7229  -32.5406   23.1085 H   0  0  0  0  0  0
  -25.0075  -33.9687   25.0397 H   0  0  0  0  0  0
  -22.7310  -31.3018   21.3972 H   0  0  0  0  0  0
  -23.3755  -35.9596   23.3299 H   0  0  0  0  0  0
  -24.3579  -36.8914   22.2061 H   0  0  0  0  0  0
  -23.7227  -37.6471   23.6680 H   0  0  0  0  0  0
  -26.1286  -31.5281   20.6190 H   0  0  0  0  0  0
  -26.8517  -30.8059   22.0235 H   0  0  0  0  0  0
  -28.1210  -28.9090   21.2186 H   0  0  0  0  0  0
  -25.9474  -25.9177   18.9731 H   0  0  0  0  0  0
  -23.9793  -27.3162   18.9864 H   0  0  0  0  0  0
  -23.7810  -30.5971   19.4074 H   0  0  0  0  0  0
  -22.7676  -29.2556   19.8453 H   0  0  0  0  0  0
  -25.1291  -36.1930   25.0816 H   0  0  0  0  0  0
  -20.9981  -28.3341   24.1381 H   0  0  0  0  0  0
  -20.5692  -26.2347   23.3635 H   0  0  0  0  0  0
  -21.6657  -26.7465   22.1231 H   0  0  0  0  0  0
  -19.6928  -25.6301   21.1272 H   0  0  0  0  0  0
  -19.6703  -27.3185   20.6732 H   0  0  0  0  0  0
  -17.4209  -26.6703   21.4020 H   0  0  0  0  0  0
  -18.0312  -26.0118   22.9017 H   0  0  0  0  0  0
  -19.7953  -30.7299   24.2263 H   0  0  0  0  0  0
  -17.5031  -31.6282   24.5194 H   0  0  0  0  0  0
  -15.5371  -30.3016   23.7667 H   0  0  0  0  0  0
  -15.8675  -28.0859   22.7050 H   0  0  0  0  0  0
  -24.5827  -30.7195   25.7773 H   0  0  0  0  0  0
  -24.8922  -32.3004   26.4851 H   0  0  0  0  0  0
  -25.7950  -30.8990   27.0252 H   0  0  0  0  0  0
  -26.2985  -29.6741   24.1269 H   0  0  0  0  0  0
  -27.3945  -29.7291   25.4867 H   0  0  0  0  0  0
  -27.8887  -30.4248   23.9621 H   0  0  0  0  0  0
  -27.2641  -33.3648   26.2088 H   0  0  0  0  0  0
  -28.3838  -32.6947   25.0323 H   0  0  0  0  0  0
  -28.0735  -31.8505   26.5425 H   0  0  0  0  0  0
  -28.2600  -38.0098   24.7521 H   0  0  0  0  0  0
  -28.1089  -36.2641   24.6245 H   0  0  0  0  0  0
  -27.2317  -37.1402   25.8865 H   0  0  0  0  0  0
  -20.9421  -29.8766   21.6820 H   0  0  0  0  0  0
  -26.0169  -38.2849   24.1426 H   0  0  0  0  0  0
  -29.0192  -18.0640   16.8148 H   0  0  0  0  0  0
  -29.4767  -16.1167   18.1792 H   0  0  0  0  0  0
  -29.8554  -18.6852   21.6476 H   0  0  0  0  0  0
  -31.3092  -21.7860   21.0261 H   0  0  0  0  0  0
  -31.3275  -21.5524   19.2830 H   0  0  0  0  0  0
  -29.1060  -23.7821   21.6063 H   0  0  0  0  0  0
  -30.2585  -23.6183   18.8325 H   0  0  0  0  0  0
  -28.8786  -20.3156   16.3975 H   0  0  0  0  0  0
  -29.6423  -21.4457   17.4937 H   0  0  0  0  0  0
  -27.9116  -21.1017   17.6339 H   0  0  0  0  0  0
  -33.4695  -25.0902   20.0110 H   0  0  0  0  0  0
  -32.5030  -24.7810   18.5770 H   0  0  0  0  0  0
  -33.1622  -23.4318   19.5016 H   0  0  0  0  0  0
  -27.0713  -24.6303   20.3525 H   0  0  0  0  0  0
  -28.0022  -24.7374   18.8864 H   0  0  0  0  0  0
  -31.6948  -24.1567   21.4744 H   0  0  0  0  0  0
  -31.0427  -25.4219   20.4739 H   0  0  0  0  0  0
  -29.0847  -15.6932   21.3783 H   0  0  0  0  0  0
  1 25  1  0  0  0
  1 30  2  0  0  0
  1 86  1  0  0  0
  2  3  1  0  0  0
  2 25  1  0  0  0
  2 88  1  0  0  0
  2 89  1  0  0  0
  3  4  1  0  0  0
  3 90  1  0  0  0
  3 91  1  0  0  0
  4  5  1  0  0  0
  4 92  1  0  0  0
  4 93  1  0  0  0
  5  6  1  0  0  0
  5 26  1  0  0  0
  5 94  1  0  0  0
  6 25  1  0  0  0
  6 95  1  0  0  0
  6 96  1  0  0  0
  7  8  2  0  0  0
  7 26  1  0  0  0
  7 29  1  0  0  0
  8  9  1  0  0  0
  8 22  1  0  0  0
  9 10  1  0  0  0
  9 27  2  0  0  0
 10 11  2  0  0  0
 10 15  1  0  0  0
 11 12  1  0  0  0
 11 97  1  0  0  0
 12 13  2  0  0  0
 12 98  1  0  0  0
 13 14  1  0  0  0
 13 31  1  0  0  0
 14 15  2  0  0  0
 14 99  1  0  0  0
 15100  1  0  0  0
 16 17  2  0  0  0
 16 21  1  0  0  0
 16 31  1  0  0  0
 17 18  1  0  0  0
 17101  1  0  0  0
 18 19  2  0  0  0
 18102  1  0  0  0
 19 20  1  0  0  0
 19 24  1  0  0  0
 20 21  2  0  0  0
 20103  1  0  0  0
 21 23  1  0  0  0
 22 28  1  0  0  0
 22 32  2  0  0  0
 26 27  1  0  0  0
 28104  1  0  0  0
 28105  1  0  0  0
 29106  1  0  0  0
 29107  1  0  0  0
 33 34  1  0  0  0
 33 66  1  0  0  0
 33 70  2  0  0  0
 34 36  1  0  0  0
 34 59  1  0  0  0
 34108  1  0  0  0
 35 44  2  0  0  0
 35 45  1  0  0  0
 35 68  1  0  0  0
 36 56  1  0  0  0
 36109  1  0  0  0
 37 39  1  0  0  0
 37 47  1  0  0  0
 37 66  1  0  0  0
 37110  1  0  0  0
 38 43  2  0  0  0
 38 46  1  0  0  0
 38 47  1  0  0  0
 39 64  1  0  0  0
 39 67  2  0  0  0
 40 52  1  0  0  0
 40 53  2  0  0  0
 40 58  1  0  0  0
 41111  1  0  0  0
 41112  1  0  0  0
 41113  1  0  0  0
 41 48  1  0  0  0
 42 43  1  0  0  0
 42 66  1  0  0  0
 42114  1  0  0  0
 42115  1  0  0  0
 43 44  1  0  0  0
 44116  1  0  0  0
 45 46  2  0  0  0
 45117  1  0  0  0
 46118  1  0  0  0
 47119  1  0  0  0
 47120  1  0  0  0
 48 56  1  0  0  0
 48 65  1  0  0  0
 48121  1  0  0  0
 49 50  1  0  0  0
 49 53  1  0  0  0
 49 64  1  0  0  0
 49122  1  0  0  0
 50 51  1  0  0  0
 50123  1  0  0  0
 50124  1  0  0  0
 51 52  1  0  0  0
 51125  1  0  0  0
 51126  1  0  0  0
 52127  1  0  0  0
 52128  1  0  0  0
 53 54  1  0  0  0
 54 55  2  0  0  0
 54129  1  0  0  0
 55 57  1  0  0  0
 55130  1  0  0  0
 56 69  2  0  0  0
 57 58  2  0  0  0
 57131  1  0  0  0
 58132  1  0  0  0
 59 60  1  0  0  0
 59 61  1  0  0  0
 59 62  1  0  0  0
 60133  1  0  0  0
 60134  1  0  0  0
 60135  1  0  0  0
 61136  1  0  0  0
 61137  1  0  0  0
 61138  1  0  0  0
 62139  1  0  0  0
 62140  1  0  0  0
 62141  1  0  0  0
 63 65  1  0  0  0
 63142  1  0  0  0
 63143  1  0  0  0
 63144  1  0  0  0
 64145  1  0  0  0
 65146  1  0  0  0
 68 83  1  0  0  0
 71 72  2  0  0  0
 71 74  1  0  0  0
 71147  1  0  0  0
 72 76  1  0  0  0
 72148  1  0  0  0
 73 75  1  0  0  0
 73 76  2  0  0  0
 73149  1  0  0  0
 74 75  2  0  0  0
 74 81  1  0  0  0
 75 85  1  0  0  0
 76 86  1  0  0  0
 77 79  1  0  0  0
 77 85  1  0  0  0
 77 87  2  0  0  0
 78 80  1  0  0  0
 78 85  1  0  0  0
 78150  1  0  0  0
 78151  1  0  0  0
 79 80  1  0  0  0
 79 83  1  0  0  0
 79152  1  0  0  0
 80 84  1  0  0  0
 80153  1  0  0  0
 81154  1  0  0  0
 81155  1  0  0  0
 81156  1  0  0  0
 82 84  1  0  0  0
 82157  1  0  0  0
 82158  1  0  0  0
 82159  1  0  0  0
 83160  1  0  0  0
 83161  1  0  0  0
 84162  1  0  0  0
 84163  1  0  0  0
 86164  1  0  0  0
M  ISO  4   1 100  68 101  83 101  86 100
M  END
> <chiral flag>
0

> <version>
0

> <s_m_source_file>
/data/baiqing/PycharmProjects/Reinvent-master-3.2/result/LINK_invent/BTK/process_docking_weight1_custom_product_contain_oxygen_bond_distance_aromatic_linkinvent_7_9_3/rearranged_h_0066.sdf

> <i_m_source_file_index>
67

> <r_mmod_Potential_Energy-OPLS-2005>
356.355010986328

> <r_mmod_Stretch_Energy-OPLS-2005>
139.897338867188

> <r_mmod_Bend_Energy-OPLS-2005>
203.12565612793

> <r_mmod_Torsional_Energy-OPLS-2005>
335.660430908203

> <r_mmod_Improper_Torsional_Energy-OPLS-2005>
6.52675724029541

> <r_mmod_Van_der_Waal_Energy-OPLS-2005>
127.952659606934

> <r_mmod_Electrostatic_Energy-OPLS-2005>
-333.644470214844

> <r_mmod_Solvation_Energy-OPLS-2005>
-219.54963684082

> <b_mmod_Minimization_Converged-OPLS-2005>
0

> <r_mmod_RMS_Derivative-OPLS-2005>
3.63754200935364

$$$$
68
                    3D
 Structure written by MMmdl.
162171  0  0  1  0            999 V2000
  -30.6793  -14.4585   20.6168 C   0  0  0  0  0  0
  -30.4372  -12.3146   19.4069 C   0  0  0  0  0  0
  -29.4952  -12.5207   18.2014 C   0  0  0  0  0  0
  -28.0164  -12.3793   18.6159 C   0  0  0  0  0  0
  -27.6686  -13.1996   19.8861 C   0  0  2  0  0  0
  -28.7102  -12.9268   20.9933 C   0  0  0  0  0  0
  -25.2608  -13.8150   20.5678 C   0  0  0  0  0  0
  -24.1843  -13.0436   20.9164 C   0  0  0  0  0  0
  -24.6389  -11.6901   20.8731 C   0  0  0  0  0  0
  -23.9048  -10.4293   21.0401 C   0  0  0  0  0  0
  -24.3600   -9.4212   21.9180 C   0  0  0  0  0  0
  -23.6284   -8.2245   22.0750 C   0  0  0  0  0  0
  -22.4268   -8.0276   21.3538 C   0  0  0  0  0  0
  -21.9901   -9.0251   20.4639 C   0  0  0  0  0  0
  -22.7225  -10.2136   20.3049 C   0  0  0  0  0  0
  -21.6850   -6.0730   22.5271 C   0  0  0  0  0  0
  -21.4005   -6.5631   23.8205 C   0  0  0  0  0  0
  -21.3659   -5.6781   24.9169 C   0  0  0  0  0  0
  -21.6052   -4.3045   24.7220 C   0  0  0  0  0  0
  -21.8821   -3.8139   23.4338 C   0  0  0  0  0  0
  -21.9193   -4.6955   22.3394 C   0  0  0  0  0  0
  -22.7867  -13.5239   21.1839 C   0  0  0  0  0  0
  -22.1662   -4.2140   21.0970 F   0  0  0  0  0  0
  -21.5636   -3.4523   25.7733 F   0  0  0  0  0  0
  -30.0439  -13.2636   20.4603 N   0  0  0  0  0  0
  -26.3057  -12.9308   20.3420 N   0  0  0  0  0  0
  -25.9316  -11.6472   20.5780 N   0  0  0  0  0  0
  -22.0502  -12.8228   22.0389 N   0  0  0  0  0  0
  -25.4335  -15.1865   20.4043 N   0  0  0  0  0  0
  -31.7718  -14.7042   20.0944 O   0  0  0  0  0  0
  -21.6638   -6.8870   21.4232 O   0  0  0  0  0  0
  -22.3553  -14.5555   20.6701 O   0  0  0  0  0  0
  -24.6135  -31.8699   23.2100 C   0  0  0  0  0  0
  -25.9036  -32.4832   23.8396 C   0  0  1  0  0  0
  -27.2434  -27.4379   20.1096 C   0  0  0  0  0  0
  -25.5918  -33.8628   24.2339 N   0  0  0  0  0  0
  -23.4025  -30.4931   21.5485 C   0  0  2  0  0  0
  -24.8530  -28.9545   20.1214 C   0  0  0  0  0  0
  -22.7409  -29.4681   22.4978 C   0  0  0  0  0  0
  -18.0287  -28.1388   22.8490 C   0  0  0  0  0  0
  -24.1485  -36.7296   23.2631 C   0  0  0  0  0  0
  -25.9294  -30.8354   21.3639 C   0  0  0  0  0  0
  -26.0103  -29.4656   20.7242 C   0  0  0  0  0  0
  -27.2088  -28.7147   20.7222 C   0  0  0  0  0  0
  -26.0751  -26.9475   19.4948 C   0  0  0  0  0  0
  -24.8797  -27.6913   19.5057 C   0  0  0  0  0  0
  -23.6138  -29.8219   20.1651 C   0  0  0  0  0  0
  -25.4107  -36.3115   24.0344 C   0  0  1  0  0  0
  -20.5877  -28.3672   23.1309 C   0  0  2  0  0  0
  -20.6776  -26.9417   22.5414 C   0  0  0  0  0  0
  -19.5768  -26.6397   21.5206 C   0  0  0  0  0  0
  -18.1941  -26.7945   22.1608 C   0  0  0  0  0  0
  -19.1535  -28.8848   23.2900 C   0  0  0  0  0  0
  -18.9468  -30.1458   23.8902 C   0  0  0  0  0  0
  -17.6473  -30.6597   24.0575 C   0  0  0  0  0  0
  -25.9043  -34.9483   23.5131 C   0  0  0  0  0  0
  -16.5358  -29.9104   23.6336 C   0  0  0  0  0  0
  -16.7278  -28.6525   23.0343 C   0  0  0  0  0  0
  -26.4469  -31.6601   25.0713 C   0  0  0  0  0  0
  -25.3744  -31.3704   26.1470 C   0  0  0  0  0  0
  -27.0290  -30.3048   24.6050 C   0  0  0  0  0  0
  -27.6059  -32.4299   25.7474 C   0  0  0  0  0  0
  -27.5595  -37.1795   24.8461 C   0  0  0  0  0  0
  -21.4140  -29.3037   22.3705 N   0  0  0  0  0  0
  -26.4283  -37.3815   23.9442 N   0  0  0  0  0  0
  -24.6663  -31.0811   22.0993 N   0  0  0  0  0  0
  -23.4176  -28.8246   23.3040 O   0  0  0  0  0  0
  -28.3731  -26.6523   20.0126 O   0  0  0  0  0  0
  -26.5598  -34.8938   22.4685 O   0  0  0  0  0  0
  -23.5329  -32.1444   23.7497 O   0  0  0  0  0  0
  -30.6602  -18.9717   20.4320 C   0  0  0  0  0  0
  -30.7388  -17.5616   20.4537 C   0  0  0  0  0  0
  -29.0066  -18.8979   22.1991 C   0  0  0  0  0  0
  -29.0960  -17.4829   22.2659 C   0  0  0  0  0  0
  -29.7850  -19.6576   21.3011 C   0  0  0  0  0  0
  -29.9628  -16.7902   21.3598 C   0  0  0  0  0  0
  -28.3617  -21.6031   21.0563 C   0  0  0  0  0  0
  -28.0447  -22.9417   21.1638 C   0  0  0  0  0  0
  -30.6813  -21.9290   21.5580 C   0  0  0  0  0  0
  -30.3240  -23.4639   21.7481 C   0  0  0  0  0  0
  -28.2311  -16.7795   23.2730 C   0  0  0  0  0  0
  -27.8019  -17.5607   24.5115 C   0  0  0  0  0  0
  -28.6774  -25.2657   22.0551 C   0  0  0  0  0  0
  -29.1753  -26.4455   21.1747 C   0  0  0  0  0  0
  -29.6477  -21.0878   21.2830 N   0  0  0  0  0  0
  -29.0295  -23.8784   21.5856 N   0  0  0  0  0  0
  -29.9993  -15.3514   21.3663 N   0  0  0  0  0  0
  -26.9738  -23.5374   20.9224 O   0  5  0  0  0  0
  -31.8597  -21.5625   21.6806 O   0  0  0  0  0  0
  -31.2293  -24.2390   22.0904 O   0  0  0  0  0  0
  -27.8797  -15.6005   23.1804 O   0  0  0  0  0  0
  -31.4768  -12.4435   19.0983 H   0  0  0  0  0  0
  -30.3653  -11.2916   19.7783 H   0  0  0  0  0  0
  -29.7316  -11.8042   17.4133 H   0  0  0  0  0  0
  -29.6613  -13.5101   17.7719 H   0  0  0  0  0  0
  -27.8228  -11.3215   18.7980 H   0  0  0  0  0  0
  -27.3631  -12.6680   17.7917 H   0  0  0  0  0  0
  -27.7285  -14.2553   19.6199 H   0  0  0  0  0  0
  -28.6891  -11.8721   21.2732 H   0  0  0  0  0  0
  -28.4611  -13.4581   21.9097 H   0  0  0  0  0  0
  -25.2750   -9.5686   22.4750 H   0  0  0  0  0  0
  -23.9994   -7.4632   22.7464 H   0  0  0  0  0  0
  -21.0838   -8.8762   19.8941 H   0  0  0  0  0  0
  -22.3684  -10.9665   19.6146 H   0  0  0  0  0  0
  -21.1986   -7.6142   23.9700 H   0  0  0  0  0  0
  -21.1480   -6.0514   25.9071 H   0  0  0  0  0  0
  -22.0599   -2.7600   23.2834 H   0  0  0  0  0  0
  -22.4104  -11.9870   22.4750 H   0  0  0  0  0  0
  -21.1130  -13.1265   22.2612 H   0  0  0  0  0  0
  -24.6736  -15.8482   20.5188 H   0  0  0  0  0  0
  -26.3031  -15.6224   20.1231 H   0  0  0  0  0  0
  -26.7107  -32.5569   23.1165 H   0  0  0  0  0  0
  -25.0137  -33.9799   25.0530 H   0  0  0  0  0  0
  -22.6923  -31.3108   21.4077 H   0  0  0  0  0  0
  -23.3787  -35.9589   23.3265 H   0  0  0  0  0  0
  -24.3597  -36.8937   22.2056 H   0  0  0  0  0  0
  -23.7183  -37.6467   23.6654 H   0  0  0  0  0  0
  -26.0378  -31.5953   20.5884 H   0  0  0  0  0  0
  -26.8179  -30.8962   21.9796 H   0  0  0  0  0  0
  -28.1008  -29.1315   21.1689 H   0  0  0  0  0  0
  -26.0935  -25.9793   19.0131 H   0  0  0  0  0  0
  -23.9923  -27.2917   19.0338 H   0  0  0  0  0  0
  -23.7237  -30.5949   19.4030 H   0  0  0  0  0  0
  -22.7370  -29.2422   19.8687 H   0  0  0  0  0  0
  -25.1275  -36.1967   25.0837 H   0  0  0  0  0  0
  -20.9988  -28.3238   24.1421 H   0  0  0  0  0  0
  -20.5698  -26.2280   23.3598 H   0  0  0  0  0  0
  -21.6645  -26.7486   22.1191 H   0  0  0  0  0  0
  -19.6939  -25.6311   21.1235 H   0  0  0  0  0  0
  -19.6723  -27.3204   20.6737 H   0  0  0  0  0  0
  -17.4229  -26.6715   21.3990 H   0  0  0  0  0  0
  -18.0346  -26.0071   22.8993 H   0  0  0  0  0  0
  -19.7947  -30.7271   24.2250 H   0  0  0  0  0  0
  -17.5041  -31.6275   24.5194 H   0  0  0  0  0  0
  -15.5363  -30.3012   23.7659 H   0  0  0  0  0  0
  -15.8683  -28.0861   22.7024 H   0  0  0  0  0  0
  -24.5895  -30.7077   25.7814 H   0  0  0  0  0  0
  -24.8954  -32.2860   26.4945 H   0  0  0  0  0  0
  -25.8099  -30.8853   27.0211 H   0  0  0  0  0  0
  -26.2808  -29.6820   24.1122 H   0  0  0  0  0  0
  -27.4113  -29.7274   25.4477 H   0  0  0  0  0  0
  -27.8631  -30.4404   23.9158 H   0  0  0  0  0  0
  -27.2699  -33.3607   26.2059 H   0  0  0  0  0  0
  -28.3860  -32.6834   25.0286 H   0  0  0  0  0  0
  -28.0722  -31.8403   26.5378 H   0  0  0  0  0  0
  -28.2568  -38.0141   24.7595 H   0  0  0  0  0  0
  -28.1135  -36.2677   24.6165 H   0  0  0  0  0  0
  -27.2338  -37.1301   25.8867 H   0  0  0  0  0  0
  -20.9300  -29.8735   21.6907 H   0  0  0  0  0  0
  -26.0171  -38.2882   24.1498 H   0  0  0  0  0  0
  -31.2624  -19.5254   19.7251 H   0  0  0  0  0  0
  -31.4022  -17.0915   19.7437 H   0  0  0  0  0  0
  -28.3295  -19.4347   22.8478 H   0  0  0  0  0  0
  -27.6417  -20.8610   20.7359 H   0  0  0  0  0  0
  -28.6193  -18.1830   24.8758 H   0  0  0  0  0  0
  -27.5210  -16.8736   25.3095 H   0  0  0  0  0  0
  -26.9453  -18.1943   24.2826 H   0  0  0  0  0  0
  -27.6189  -25.4069   22.2764 H   0  0  0  0  0  0
  -29.1310  -25.3918   23.0397 H   0  0  0  0  0  0
  -30.2011  -26.2826   20.8477 H   0  0  0  0  0  0
  -29.2190  -27.3469   21.7849 H   0  0  0  0  0  0
  -29.2332  -14.9299   21.8767 H   0  0  0  0  0  0
  1 25  1  0  0  0
  1 30  2  0  0  0
  1 87  1  0  0  0
  2  3  1  0  0  0
  2 25  1  0  0  0
  2 92  1  0  0  0
  2 93  1  0  0  0
  3  4  1  0  0  0
  3 94  1  0  0  0
  3 95  1  0  0  0
  4  5  1  0  0  0
  4 96  1  0  0  0
  4 97  1  0  0  0
  5  6  1  0  0  0
  5 26  1  0  0  0
  5 98  1  0  0  0
  6 25  1  0  0  0
  6 99  1  0  0  0
  6100  1  0  0  0
  7  8  2  0  0  0
  7 26  1  0  0  0
  7 29  1  0  0  0
  8  9  1  0  0  0
  8 22  1  0  0  0
  9 10  1  0  0  0
  9 27  2  0  0  0
 10 11  2  0  0  0
 10 15  1  0  0  0
 11 12  1  0  0  0
 11101  1  0  0  0
 12 13  2  0  0  0
 12102  1  0  0  0
 13 14  1  0  0  0
 13 31  1  0  0  0
 14 15  2  0  0  0
 14103  1  0  0  0
 15104  1  0  0  0
 16 17  2  0  0  0
 16 21  1  0  0  0
 16 31  1  0  0  0
 17 18  1  0  0  0
 17105  1  0  0  0
 18 19  2  0  0  0
 18106  1  0  0  0
 19 20  1  0  0  0
 19 24  1  0  0  0
 20 21  2  0  0  0
 20107  1  0  0  0
 21 23  1  0  0  0
 22 28  1  0  0  0
 22 32  2  0  0  0
 26 27  1  0  0  0
 28108  1  0  0  0
 28109  1  0  0  0
 29110  1  0  0  0
 29111  1  0  0  0
 33 34  1  0  0  0
 33 66  1  0  0  0
 33 70  2  0  0  0
 34 36  1  0  0  0
 34 59  1  0  0  0
 34112  1  0  0  0
 35 44  2  0  0  0
 35 45  1  0  0  0
 35 68  1  0  0  0
 36 56  1  0  0  0
 36113  1  0  0  0
 37 39  1  0  0  0
 37 47  1  0  0  0
 37 66  1  0  0  0
 37114  1  0  0  0
 38 43  2  0  0  0
 38 46  1  0  0  0
 38 47  1  0  0  0
 39 64  1  0  0  0
 39 67  2  0  0  0
 40 52  1  0  0  0
 40 53  2  0  0  0
 40 58  1  0  0  0
 41115  1  0  0  0
 41116  1  0  0  0
 41117  1  0  0  0
 41 48  1  0  0  0
 42 43  1  0  0  0
 42 66  1  0  0  0
 42118  1  0  0  0
 42119  1  0  0  0
 43 44  1  0  0  0
 44120  1  0  0  0
 45 46  2  0  0  0
 45121  1  0  0  0
 46122  1  0  0  0
 47123  1  0  0  0
 47124  1  0  0  0
 48 56  1  0  0  0
 48 65  1  0  0  0
 48125  1  0  0  0
 49 50  1  0  0  0
 49 53  1  0  0  0
 49 64  1  0  0  0
 49126  1  0  0  0
 50 51  1  0  0  0
 50127  1  0  0  0
 50128  1  0  0  0
 51 52  1  0  0  0
 51129  1  0  0  0
 51130  1  0  0  0
 52131  1  0  0  0
 52132  1  0  0  0
 53 54  1  0  0  0
 54 55  2  0  0  0
 54133  1  0  0  0
 55 57  1  0  0  0
 55134  1  0  0  0
 56 69  2  0  0  0
 57 58  2  0  0  0
 57135  1  0  0  0
 58136  1  0  0  0
 59 60  1  0  0  0
 59 61  1  0  0  0
 59 62  1  0  0  0
 60137  1  0  0  0
 60138  1  0  0  0
 60139  1  0  0  0
 61140  1  0  0  0
 61141  1  0  0  0
 61142  1  0  0  0
 62143  1  0  0  0
 62144  1  0  0  0
 62145  1  0  0  0
 63 65  1  0  0  0
 63146  1  0  0  0
 63147  1  0  0  0
 63148  1  0  0  0
 64149  1  0  0  0
 65150  1  0  0  0
 68 84  1  0  0  0
 71 72  2  0  0  0
 71 75  1  0  0  0
 71151  1  0  0  0
 72 76  1  0  0  0
 72152  1  0  0  0
 73 74  1  0  0  0
 73 75  2  0  0  0
 73153  1  0  0  0
 74 76  2  0  0  0
 74 81  1  0  0  0
 75 85  1  0  0  0
 76 87  1  0  0  0
 77 78  2  0  0  0
 77 85  1  0  0  0
 77154  1  0  0  0
 78 86  1  0  0  0
 78 88  1  0  0  0
 79 80  1  0  0  0
 79 85  1  0  0  0
 79 89  2  0  0  0
 80 86  1  0  0  0
 80 90  2  0  0  0
 81 82  1  0  0  0
 81 91  2  0  0  0
 82155  1  0  0  0
 82156  1  0  0  0
 82157  1  0  0  0
 83 84  1  0  0  0
 83 86  1  0  0  0
 83158  1  0  0  0
 83159  1  0  0  0
 84160  1  0  0  0
 84161  1  0  0  0
 87162  1  0  0  0
M  CHG  1  88  -1
M  ISO  4   1 100  68 101  84 101  87 100
M  END
> <chiral flag>
0

> <version>
0

> <s_m_source_file>
/data/baiqing/PycharmProjects/Reinvent-master-3.2/result/LINK_invent/BTK/process_docking_weight1_custom_product_contain_oxygen_bond_distance_aromatic_linkinvent_7_9_3/rearranged_h_0066.sdf

> <i_m_source_file_index>
68

> <r_mmod_Potential_Energy-OPLS-2005>
-23.5497245788574

> <r_mmod_Stretch_Energy-OPLS-2005>
56.6446990966797

> <r_mmod_Bend_Energy-OPLS-2005>
125.47762298584

> <r_mmod_Torsional_Energy-OPLS-2005>
292.382659912109

> <r_mmod_Improper_Torsional_Energy-OPLS-2005>
3.3896496295929

> <r_mmod_Van_der_Waal_Energy-OPLS-2005>
200.17008972168

> <r_mmod_Electrostatic_Energy-OPLS-2005>
-286.804412841797

> <r_mmod_Solvation_Energy-OPLS-2005>
-425.301452636719

> <b_mmod_Minimization_Converged-OPLS-2005>
0

> <r_mmod_RMS_Derivative-OPLS-2005>
1.71281623840332

$$$$
69
                    3D
 Structure written by MMmdl.
153161  0  0  1  0            999 V2000
  -30.6163  -14.7781   20.4431 C   0  0  0  0  0  0
  -30.4290  -12.4801   19.4623 C   0  0  0  0  0  0
  -29.5044  -12.5016   18.2266 C   0  0  0  0  0  0
  -28.0328  -12.3216   18.6473 C   0  0  0  0  0  0
  -27.6339  -13.2339   19.8382 C   0  0  2  0  0  0
  -28.6831  -13.2030   20.9693 C   0  0  0  0  0  0
  -25.2490  -13.8198   20.5699 C   0  0  0  0  0  0
  -24.1793  -13.0437   20.9222 C   0  0  0  0  0  0
  -24.6388  -11.6920   20.8753 C   0  0  0  0  0  0
  -23.9067  -10.4296   21.0411 C   0  0  0  0  0  0
  -24.3622   -9.4212   21.9188 C   0  0  0  0  0  0
  -23.6302   -8.2243   22.0755 C   0  0  0  0  0  0
  -22.4282   -8.0281   21.3544 C   0  0  0  0  0  0
  -21.9917   -9.0254   20.4646 C   0  0  0  0  0  0
  -22.7241  -10.2136   20.3058 C   0  0  0  0  0  0
  -21.6857   -6.0736   22.5281 C   0  0  0  0  0  0
  -21.4013   -6.5642   23.8213 C   0  0  0  0  0  0
  -21.3657   -5.6794   24.9175 C   0  0  0  0  0  0
  -21.6047   -4.3057   24.7225 C   0  0  0  0  0  0
  -21.8821   -3.8147   23.4346 C   0  0  0  0  0  0
  -21.9196   -4.6964   22.3403 C   0  0  0  0  0  0
  -22.7815  -13.5221   21.1881 C   0  0  0  0  0  0
  -22.1665   -4.2151   21.0980 F   0  0  0  0  0  0
  -21.5629   -3.4542   25.7735 F   0  0  0  0  0  0
  -29.9723  -13.5602   20.3676 N   0  0  0  0  0  0
  -26.2906  -12.9409   20.3248 N   0  0  0  0  0  0
  -25.9315  -11.6550   20.5740 N   0  0  0  0  0  0
  -22.0463  -12.8205   22.0432 N   0  0  0  0  0  0
  -25.4159  -15.1927   20.4101 N   0  0  0  0  0  0
  -31.8301  -14.8064   20.2196 O   0  0  0  0  0  0
  -21.6644   -6.8878   21.4241 O   0  0  0  0  0  0
  -22.3504  -14.5527   20.6728 O   0  0  0  0  0  0
  -24.6337  -31.8531   23.1964 C   0  0  0  0  0  0
  -25.9157  -32.4738   23.8318 C   0  0  1  0  0  0
  -27.2164  -27.2481   20.1347 C   0  0  0  0  0  0
  -25.5958  -33.8541   24.2246 N   0  0  0  0  0  0
  -23.4311  -30.4741   21.5400 C   0  0  2  0  0  0
  -24.8769  -28.9138   20.1135 C   0  0  0  0  0  0
  -22.7516  -29.4593   22.4909 C   0  0  0  0  0  0
  -18.0295  -28.1391   22.8485 C   0  0  0  0  0  0
  -24.1490  -36.7260   23.2641 C   0  0  0  0  0  0
  -25.9776  -30.7622   21.3768 C   0  0  0  0  0  0
  -26.0502  -29.3823   20.7198 C   0  0  0  0  0  0
  -27.2271  -28.5639   20.7123 C   0  0  0  0  0  0
  -26.0227  -26.8433   19.5068 C   0  0  0  0  0  0
  -24.8691  -27.6533   19.4937 C   0  0  0  0  0  0
  -23.6498  -29.8043   20.1576 C   0  0  0  0  0  0
  -25.4119  -36.3051   24.0328 C   0  0  1  0  0  0
  -20.5902  -28.3701   23.1264 C   0  0  2  0  0  0
  -20.6780  -26.9418   22.5403 C   0  0  0  0  0  0
  -19.5754  -26.6385   21.5210 C   0  0  0  0  0  0
  -18.1934  -26.7934   22.1621 C   0  0  0  0  0  0
  -19.1550  -28.8863   23.2866 C   0  0  0  0  0  0
  -18.9468  -30.1462   23.8886 C   0  0  0  0  0  0
  -17.6466  -30.6588   24.0560 C   0  0  0  0  0  0
  -25.9066  -34.9430   23.5086 C   0  0  0  0  0  0
  -16.5357  -29.9082   23.6335 C   0  0  0  0  0  0
  -16.7281  -28.6502   23.0356 C   0  0  0  0  0  0
  -26.4525  -31.6573   25.0715 C   0  0  0  0  0  0
  -25.3747  -31.3719   26.1432 C   0  0  0  0  0  0
  -27.0377  -30.2990   24.6213 C   0  0  0  0  0  0
  -27.6080  -32.4315   25.7486 C   0  0  0  0  0  0
  -27.5573  -37.1786   24.8471 C   0  0  0  0  0  0
  -21.4221  -29.3045   22.3653 N   0  0  0  0  0  0
  -26.4285  -37.3758   23.9415 N   0  0  0  0  0  0
  -24.7000  -31.0486   22.0940 N   0  0  0  0  0  0
  -23.4207  -28.8142   23.3022 O   0  0  0  0  0  0
  -28.3044  -26.3463   20.1276 O   0  0  0  0  0  0
  -26.5624  -34.8919   22.4647 O   0  0  0  0  0  0
  -23.5485  -32.1351   23.7256 O   0  0  0  0  0  0
  -27.9813  -19.3865   18.3256 C   0  0  0  0  0  0
  -28.6432  -18.3116   18.9478 C   0  0  0  0  0  0
  -28.0534  -20.6964   18.8374 C   0  0  0  0  0  0
  -29.4009  -18.4919   20.1247 C   0  0  0  0  0  0
  -29.4256  -19.8590   20.6827 C   0  0  0  0  0  0
  -28.7689  -21.0033   20.0184 C   0  0  0  0  0  0
  -30.2807  -17.2765   20.5881 C   0  0  0  0  0  0
  -28.4556  -23.6469   19.8907 C   0  0  0  0  0  0
  -28.1270  -24.9763   20.7417 C   0  0  0  0  0  0
  -30.1619  -20.0938   22.0103 C   0  0  0  0  0  0
  -28.7157  -22.4216   20.5143 N   0  0  0  0  0  0
  -29.8534  -15.9495   20.4932 N   0  0  0  0  0  0
  -31.4109  -17.5426   21.0038 O   0  0  0  0  0  0
  -28.4766  -23.7494   18.6610 O   0  0  0  0  0  0
  -29.9719  -19.0803   22.8572 F   0  0  0  0  0  0
  -31.4669  -20.2500   21.7915 F   0  0  0  0  0  0
  -29.7270  -21.1848   22.6429 F   0  0  0  0  0  0
  -31.4672  -12.6066   19.1507 H   0  0  0  0  0  0
  -30.3842  -11.5131   19.9655 H   0  0  0  0  0  0
  -29.7910  -11.7159   17.5262 H   0  0  0  0  0  0
  -29.6227  -13.4462   17.6932 H   0  0  0  0  0  0
  -27.8968  -11.2755   18.9237 H   0  0  0  0  0  0
  -27.3720  -12.4977   17.7977 H   0  0  0  0  0  0
  -27.6141  -14.2472   19.4378 H   0  0  0  0  0  0
  -28.7327  -12.2161   21.4319 H   0  0  0  0  0  0
  -28.4168  -13.9043   21.7620 H   0  0  0  0  0  0
  -25.2770   -9.5691   22.4763 H   0  0  0  0  0  0
  -24.0019   -7.4632   22.7472 H   0  0  0  0  0  0
  -21.0850   -8.8768   19.8949 H   0  0  0  0  0  0
  -22.3699  -10.9675   19.6167 H   0  0  0  0  0  0
  -21.1998   -7.6150   23.9715 H   0  0  0  0  0  0
  -21.1479   -6.0523   25.9079 H   0  0  0  0  0  0
  -22.0599   -2.7610   23.2842 H   0  0  0  0  0  0
  -22.4085  -11.9863   22.4809 H   0  0  0  0  0  0
  -21.1077  -13.1221   22.2639 H   0  0  0  0  0  0
  -24.6400  -15.8382   20.5103 H   0  0  0  0  0  0
  -26.2509  -15.6359   20.0524 H   0  0  0  0  0  0
  -26.7223  -32.5384   23.1061 H   0  0  0  0  0  0
  -25.0151  -33.9676   25.0425 H   0  0  0  0  0  0
  -22.7288  -31.2966   21.3920 H   0  0  0  0  0  0
  -23.3763  -35.9580   23.3300 H   0  0  0  0  0  0
  -24.3576  -36.8881   22.2055 H   0  0  0  0  0  0
  -23.7236  -37.6458   23.6668 H   0  0  0  0  0  0
  -26.1197  -31.5225   20.6073 H   0  0  0  0  0  0
  -26.8542  -30.8107   22.0116 H   0  0  0  0  0  0
  -28.1309  -28.9220   21.1843 H   0  0  0  0  0  0
  -25.9776  -25.8741   19.0299 H   0  0  0  0  0  0
  -23.9729  -27.2903   19.0093 H   0  0  0  0  0  0
  -23.7786  -30.5788   19.4008 H   0  0  0  0  0  0
  -22.7672  -29.2394   19.8513 H   0  0  0  0  0  0
  -25.1306  -36.1885   25.0821 H   0  0  0  0  0  0
  -20.9990  -28.3274   24.1386 H   0  0  0  0  0  0
  -20.5675  -26.2314   23.3610 H   0  0  0  0  0  0
  -21.6647  -26.7438   22.1200 H   0  0  0  0  0  0
  -19.6912  -25.6293   21.1245 H   0  0  0  0  0  0
  -19.6688  -27.3188   20.6736 H   0  0  0  0  0  0
  -17.4204  -26.6684   21.4021 H   0  0  0  0  0  0
  -18.0331  -26.0078   22.9019 H   0  0  0  0  0  0
  -19.7943  -30.7283   24.2247 H   0  0  0  0  0  0
  -17.5021  -31.6267   24.5161 H   0  0  0  0  0  0
  -15.5355  -30.2977   23.7670 H   0  0  0  0  0  0
  -15.8685  -28.0814   22.7079 H   0  0  0  0  0  0
  -24.5944  -30.7043   25.7763 H   0  0  0  0  0  0
  -24.8915  -32.2880   26.4837 H   0  0  0  0  0  0
  -25.8071  -30.8919   27.0221 H   0  0  0  0  0  0
  -26.2958  -29.6721   24.1252 H   0  0  0  0  0  0
  -27.4075  -29.7274   25.4735 H   0  0  0  0  0  0
  -27.8836  -30.4265   23.9452 H   0  0  0  0  0  0
  -27.2700  -33.3639   26.2024 H   0  0  0  0  0  0
  -28.3914  -32.6826   25.0322 H   0  0  0  0  0  0
  -28.0728  -31.8460   26.5430 H   0  0  0  0  0  0
  -28.2593  -38.0080   24.7517 H   0  0  0  0  0  0
  -28.1065  -36.2611   24.6299 H   0  0  0  0  0  0
  -27.2291  -37.1437   25.8874 H   0  0  0  0  0  0
  -20.9413  -29.8757   21.6845 H   0  0  0  0  0  0
  -26.0155  -38.2827   24.1421 H   0  0  0  0  0  0
  -27.4213  -19.2064   17.4178 H   0  0  0  0  0  0
  -28.6010  -17.3387   18.4764 H   0  0  0  0  0  0
  -27.5165  -21.4674   18.3057 H   0  0  0  0  0  0
  -28.7587  -24.9495   21.6300 H   0  0  0  0  0  0
  -27.1066  -24.8704   21.1123 H   0  0  0  0  0  0
  -28.8607  -22.5045   21.5137 H   0  0  0  0  0  0
  -28.8637  -15.8249   20.3710 H   0  0  0  0  0  0
  1 25  1  0  0  0
  1 30  2  0  0  0
  1 82  1  0  0  0
  2  3  1  0  0  0
  2 25  1  0  0  0
  2 88  1  0  0  0
  2 89  1  0  0  0
  3  4  1  0  0  0
  3 90  1  0  0  0
  3 91  1  0  0  0
  4  5  1  0  0  0
  4 92  1  0  0  0
  4 93  1  0  0  0
  5  6  1  0  0  0
  5 26  1  0  0  0
  5 94  1  0  0  0
  6 25  1  0  0  0
  6 95  1  0  0  0
  6 96  1  0  0  0
  7  8  2  0  0  0
  7 26  1  0  0  0
  7 29  1  0  0  0
  8  9  1  0  0  0
  8 22  1  0  0  0
  9 10  1  0  0  0
  9 27  2  0  0  0
 10 11  2  0  0  0
 10 15  1  0  0  0
 11 12  1  0  0  0
 11 97  1  0  0  0
 12 13  2  0  0  0
 12 98  1  0  0  0
 13 14  1  0  0  0
 13 31  1  0  0  0
 14 15  2  0  0  0
 14 99  1  0  0  0
 15100  1  0  0  0
 16 17  2  0  0  0
 16 21  1  0  0  0
 16 31  1  0  0  0
 17 18  1  0  0  0
 17101  1  0  0  0
 18 19  2  0  0  0
 18102  1  0  0  0
 19 20  1  0  0  0
 19 24  1  0  0  0
 20 21  2  0  0  0
 20103  1  0  0  0
 21 23  1  0  0  0
 22 28  1  0  0  0
 22 32  2  0  0  0
 26 27  1  0  0  0
 28104  1  0  0  0
 28105  1  0  0  0
 29106  1  0  0  0
 29107  1  0  0  0
 33 34  1  0  0  0
 33 66  1  0  0  0
 33 70  2  0  0  0
 34 36  1  0  0  0
 34 59  1  0  0  0
 34108  1  0  0  0
 35 44  2  0  0  0
 35 45  1  0  0  0
 35 68  1  0  0  0
 36 56  1  0  0  0
 36109  1  0  0  0
 37 39  1  0  0  0
 37 47  1  0  0  0
 37 66  1  0  0  0
 37110  1  0  0  0
 38 43  2  0  0  0
 38 46  1  0  0  0
 38 47  1  0  0  0
 39 64  1  0  0  0
 39 67  2  0  0  0
 40 52  1  0  0  0
 40 53  2  0  0  0
 40 58  1  0  0  0
 41111  1  0  0  0
 41112  1  0  0  0
 41113  1  0  0  0
 41 48  1  0  0  0
 42 43  1  0  0  0
 42 66  1  0  0  0
 42114  1  0  0  0
 42115  1  0  0  0
 43 44  1  0  0  0
 44116  1  0  0  0
 45 46  2  0  0  0
 45117  1  0  0  0
 46118  1  0  0  0
 47119  1  0  0  0
 47120  1  0  0  0
 48 56  1  0  0  0
 48 65  1  0  0  0
 48121  1  0  0  0
 49 50  1  0  0  0
 49 53  1  0  0  0
 49 64  1  0  0  0
 49122  1  0  0  0
 50 51  1  0  0  0
 50123  1  0  0  0
 50124  1  0  0  0
 51 52  1  0  0  0
 51125  1  0  0  0
 51126  1  0  0  0
 52127  1  0  0  0
 52128  1  0  0  0
 53 54  1  0  0  0
 54 55  2  0  0  0
 54129  1  0  0  0
 55 57  1  0  0  0
 55130  1  0  0  0
 56 69  2  0  0  0
 57 58  2  0  0  0
 57131  1  0  0  0
 58132  1  0  0  0
 59 60  1  0  0  0
 59 61  1  0  0  0
 59 62  1  0  0  0
 60133  1  0  0  0
 60134  1  0  0  0
 60135  1  0  0  0
 61136  1  0  0  0
 61137  1  0  0  0
 61138  1  0  0  0
 62139  1  0  0  0
 62140  1  0  0  0
 62141  1  0  0  0
 63 65  1  0  0  0
 63142  1  0  0  0
 63143  1  0  0  0
 63144  1  0  0  0
 64145  1  0  0  0
 65146  1  0  0  0
 68 79  1  0  0  0
 71 72  2  0  0  0
 71 73  1  0  0  0
 71147  1  0  0  0
 72 74  1  0  0  0
 72148  1  0  0  0
 73 76  2  0  0  0
 73149  1  0  0  0
 74 75  2  0  0  0
 74 77  1  0  0  0
 75 76  1  0  0  0
 75 80  1  0  0  0
 76 81  1  0  0  0
 77 82  1  0  0  0
 77 83  2  0  0  0
 78 79  1  0  0  0
 78 81  1  0  0  0
 78 84  2  0  0  0
 79150  1  0  0  0
 79151  1  0  0  0
 80 85  1  0  0  0
 80 86  1  0  0  0
 80 87  1  0  0  0
 81152  1  0  0  0
 82153  1  0  0  0
M  ISO  4   1 100  68 101  79 101  82 100
M  END
> <chiral flag>
0

> <version>
0

> <s_m_source_file>
/data/baiqing/PycharmProjects/Reinvent-master-3.2/result/LINK_invent/BTK/process_docking_weight1_custom_product_contain_oxygen_bond_distance_aromatic_linkinvent_7_9_3/rearranged_h_0066.sdf

> <i_m_source_file_index>
69

> <r_mmod_Potential_Energy-OPLS-2005>
119.553749084473

> <r_mmod_Stretch_Energy-OPLS-2005>
143.522689819336

> <r_mmod_Bend_Energy-OPLS-2005>
167.336700439453

> <r_mmod_Torsional_Energy-OPLS-2005>
265.930419921875

> <r_mmod_Improper_Torsional_Energy-OPLS-2005>
7.69750928878784

> <r_mmod_Van_der_Waal_Energy-OPLS-2005>
147.3291015625

> <r_mmod_Electrostatic_Energy-OPLS-2005>
-461.229919433594

> <r_mmod_Solvation_Energy-OPLS-2005>
-249.5888671875

> <b_mmod_Minimization_Converged-OPLS-2005>
0

> <r_mmod_RMS_Derivative-OPLS-2005>
0.942817389965057

$$$$
70
                    3D
 Structure written by MMmdl.
161170  0  0  1  0            999 V2000
  -30.6417  -14.7441   20.4973 C   0  0  0  0  0  0
  -30.4468  -12.4697   19.4859 C   0  0  0  0  0  0
  -29.5279  -12.5286   18.2458 C   0  0  0  0  0  0
  -28.0468  -12.3778   18.6422 C   0  0  0  0  0  0
  -27.6550  -13.2480   19.8669 C   0  0  2  0  0  0
  -28.6962  -13.1592   21.0052 C   0  0  0  0  0  0
  -25.2512  -13.8238   20.5696 C   0  0  0  0  0  0
  -24.1806  -13.0473   20.9205 C   0  0  0  0  0  0
  -24.6429  -11.6961   20.8720 C   0  0  0  0  0  0
  -23.9109  -10.4332   21.0414 C   0  0  0  0  0  0
  -24.3671   -9.4234   21.9172 C   0  0  0  0  0  0
  -23.6328   -8.2267   22.0723 C   0  0  0  0  0  0
  -22.4281   -8.0331   21.3549 C   0  0  0  0  0  0
  -21.9947   -9.0315   20.4642 C   0  0  0  0  0  0
  -22.7301  -10.2176   20.3066 C   0  0  0  0  0  0
  -21.6839   -6.0775   22.5264 C   0  0  0  0  0  0
  -21.4017   -6.5656   23.8215 C   0  0  0  0  0  0
  -21.3672   -5.6789   24.9156 C   0  0  0  0  0  0
  -21.6050   -4.3056   24.7198 C   0  0  0  0  0  0
  -21.8804   -3.8170   23.4311 C   0  0  0  0  0  0
  -21.9172   -4.6999   22.3371 C   0  0  0  0  0  0
  -22.7824  -13.5242   21.1899 C   0  0  0  0  0  0
  -22.1648   -4.2213   21.0939 F   0  0  0  0  0  0
  -21.5649   -3.4518   25.7703 F   0  0  0  0  0  0
  -30.0082  -13.5172   20.4442 N   0  0  0  0  0  0
  -26.2980  -12.9493   20.3323 N   0  0  0  0  0  0
  -25.9355  -11.6624   20.5704 N   0  0  0  0  0  0
  -22.0442  -12.8229   22.0446 N   0  0  0  0  0  0
  -25.4260  -15.1953   20.4136 N   0  0  0  0  0  0
  -31.7975  -14.8492   20.0805 O   0  0  0  0  0  0
  -21.6639   -6.8930   21.4231 O   0  0  0  0  0  0
  -22.3517  -14.5568   20.6784 O   0  0  0  0  0  0
  -24.6357  -31.8549   23.1991 C   0  0  0  0  0  0
  -25.9182  -32.4731   23.8338 C   0  0  1  0  0  0
  -27.2017  -27.2279   20.1396 C   0  0  0  0  0  0
  -25.5980  -33.8550   24.2251 N   0  0  0  0  0  0
  -23.4284  -30.4807   21.5450 C   0  0  2  0  0  0
  -24.8721  -28.9284   20.1166 C   0  0  0  0  0  0
  -22.7505  -29.4589   22.4911 C   0  0  0  0  0  0
  -18.0266  -28.1317   22.8459 C   0  0  0  0  0  0
  -24.1505  -36.7275   23.2636 C   0  0  0  0  0  0
  -25.9816  -30.7621   21.3826 C   0  0  0  0  0  0
  -26.0513  -29.3857   20.7167 C   0  0  0  0  0  0
  -27.2217  -28.5517   20.7084 C   0  0  0  0  0  0
  -25.9829  -26.8395   19.5350 C   0  0  0  0  0  0
  -24.8437  -27.6627   19.5209 C   0  0  0  0  0  0
  -23.6464  -29.8198   20.1602 C   0  0  0  0  0  0
  -25.4112  -36.3049   24.0325 C   0  0  1  0  0  0
  -20.5884  -28.3652   23.1250 C   0  0  2  0  0  0
  -20.6747  -26.9353   22.5408 C   0  0  0  0  0  0
  -19.5728  -26.6315   21.5202 C   0  0  0  0  0  0
  -18.1903  -26.7862   22.1599 C   0  0  0  0  0  0
  -19.1529  -28.8787   23.2847 C   0  0  0  0  0  0
  -18.9480  -30.1398   23.8861 C   0  0  0  0  0  0
  -17.6494  -30.6550   24.0516 C   0  0  0  0  0  0
  -25.9072  -34.9428   23.5072 C   0  0  0  0  0  0
  -16.5378  -29.9055   23.6313 C   0  0  0  0  0  0
  -16.7263  -28.6449   23.0370 C   0  0  0  0  0  0
  -26.4486  -31.6590   25.0775 C   0  0  0  0  0  0
  -25.3672  -31.3887   26.1495 C   0  0  0  0  0  0
  -27.0324  -30.2956   24.6385 C   0  0  0  0  0  0
  -27.6004  -32.4354   25.7580 C   0  0  0  0  0  0
  -27.5574  -37.1779   24.8431 C   0  0  0  0  0  0
  -21.4202  -29.3040   22.3677 N   0  0  0  0  0  0
  -26.4269  -37.3764   23.9411 N   0  0  0  0  0  0
  -24.7004  -31.0506   22.0964 N   0  0  0  0  0  0
  -23.4214  -28.8107   23.2989 O   0  0  0  0  0  0
  -28.2849  -26.3059   20.1896 O   0  0  0  0  0  0
  -26.5637  -34.8922   22.4649 O   0  0  0  0  0  0
  -23.5503  -32.1409   23.7257 O   0  0  0  0  0  0
  -29.0698  -19.4275   18.5326 C   0  0  0  0  0  0
  -29.7435  -18.5216   20.6819 C   0  0  0  0  0  0
  -29.0615  -18.1190   18.0006 C   0  0  0  0  0  0
  -29.4078  -19.7057   19.8848 C   0  0  0  0  0  0
  -29.7497  -17.1497   20.1536 C   0  0  0  0  0  0
  -29.3909  -17.0082   18.7928 C   0  0  0  0  0  0
  -29.8165  -21.7686   21.4569 C   0  0  0  0  0  0
  -29.6866  -23.1271   21.4484 C   0  0  0  0  0  0
  -30.5670  -23.6742   23.7226 C   0  0  0  0  0  0
  -30.1194  -24.0341   22.5079 C   0  0  0  0  0  0
  -28.7663  -22.2190   19.4831 C   0  0  0  0  0  0
  -29.1209  -23.6379   20.1277 C   0  0  1  0  0  0
  -28.6610  -17.8753   16.5546 C   0  0  0  0  0  0
  -27.9934  -24.8161   20.1281 C   0  0  0  0  0  0
  -29.3644  -21.1160   20.3081 N   0  0  0  0  0  0
  -29.9469  -15.8792   20.9083 N   0  0  0  0  0  0
  -29.2985  -15.7797   18.2308 F   0  0  0  0  0  0
  -31.4870  -12.6020   19.1817 H   0  0  0  0  0  0
  -30.4012  -11.4863   19.9564 H   0  0  0  0  0  0
  -29.8124  -11.7520   17.5351 H   0  0  0  0  0  0
  -29.6707  -13.4688   17.7121 H   0  0  0  0  0  0
  -27.8763  -11.3244   18.8659 H   0  0  0  0  0  0
  -27.4091  -12.6234   17.7926 H   0  0  0  0  0  0
  -27.6608  -14.2838   19.5206 H   0  0  0  0  0  0
  -28.7223  -12.1524   21.4328 H   0  0  0  0  0  0
  -28.4233  -13.8280   21.8227 H   0  0  0  0  0  0
  -25.2842   -9.5691   22.4721 H   0  0  0  0  0  0
  -24.0068   -7.4632   22.7387 H   0  0  0  0  0  0
  -21.0911   -8.8868   19.8914 H   0  0  0  0  0  0
  -22.3821  -10.9727   19.6168 H   0  0  0  0  0  0
  -21.2024   -7.6162   23.9751 H   0  0  0  0  0  0
  -21.1509   -6.0494   25.9075 H   0  0  0  0  0  0
  -22.0579   -2.7637   23.2744 H   0  0  0  0  0  0
  -22.4053  -11.9917   22.4867 H   0  0  0  0  0  0
  -21.1041  -13.1249   22.2615 H   0  0  0  0  0  0
  -24.6809  -15.8676   20.5583 H   0  0  0  0  0  0
  -26.2919  -15.6209   20.1084 H   0  0  0  0  0  0
  -26.7269  -32.5339   23.1100 H   0  0  0  0  0  0
  -25.0091  -33.9683   25.0365 H   0  0  0  0  0  0
  -22.7240  -31.3027   21.3997 H   0  0  0  0  0  0
  -23.3782  -35.9593   23.3245 H   0  0  0  0  0  0
  -24.3598  -36.8960   22.2064 H   0  0  0  0  0  0
  -23.7291  -37.6469   23.6701 H   0  0  0  0  0  0
  -26.1353  -31.5283   20.6218 H   0  0  0  0  0  0
  -26.8529  -30.7974   22.0250 H   0  0  0  0  0  0
  -28.1232  -28.9028   21.1905 H   0  0  0  0  0  0
  -25.8493  -25.8678   19.0892 H   0  0  0  0  0  0
  -23.9303  -27.2919   19.0784 H   0  0  0  0  0  0
  -23.7731  -30.5971   19.4049 H   0  0  0  0  0  0
  -22.7614  -29.2571   19.8551 H   0  0  0  0  0  0
  -25.1301  -36.1844   25.0820 H   0  0  0  0  0  0
  -20.9966  -28.3229   24.1377 H   0  0  0  0  0  0
  -20.5552  -26.2294   23.3637 H   0  0  0  0  0  0
  -21.6635  -26.7287   22.1283 H   0  0  0  0  0  0
  -19.6886  -25.6211   21.1266 H   0  0  0  0  0  0
  -19.6678  -27.3100   20.6706 H   0  0  0  0  0  0
  -17.4186  -26.6618   21.3988 H   0  0  0  0  0  0
  -18.0265  -25.9982   22.8962 H   0  0  0  0  0  0
  -19.7982  -30.7169   24.2259 H   0  0  0  0  0  0
  -17.5077  -31.6238   24.5105 H   0  0  0  0  0  0
  -15.5378  -30.2969   23.7622 H   0  0  0  0  0  0
  -15.8658  -28.0742   22.7161 H   0  0  0  0  0  0
  -24.5834  -30.7199   25.7919 H   0  0  0  0  0  0
  -24.8878  -32.3134   26.4727 H   0  0  0  0  0  0
  -25.7968  -30.9247   27.0384 H   0  0  0  0  0  0
  -26.2969  -29.6722   24.1293 H   0  0  0  0  0  0
  -27.3785  -29.7219   25.4996 H   0  0  0  0  0  0
  -27.8938  -30.4141   23.9809 H   0  0  0  0  0  0
  -27.2547  -33.3643   26.2134 H   0  0  0  0  0  0
  -28.3858  -32.6945   25.0468 H   0  0  0  0  0  0
  -28.0626  -31.8508   26.5546 H   0  0  0  0  0  0
  -28.2541  -38.0118   24.7498 H   0  0  0  0  0  0
  -28.1111  -36.2647   24.6183 H   0  0  0  0  0  0
  -27.2282  -37.1353   25.8829 H   0  0  0  0  0  0
  -20.9362  -29.8911   21.7024 H   0  0  0  0  0  0
  -26.0110  -38.2815   24.1461 H   0  0  0  0  0  0
  -28.8008  -20.2215   17.8554 H   0  0  0  0  0  0
  -29.9895  -18.6656   21.7260 H   0  0  0  0  0  0
  -30.2354  -21.1640   22.2523 H   0  0  0  0  0  0
  -30.8651  -24.4239   24.4445 H   0  0  0  0  0  0
  -30.6433  -22.6361   24.0191 H   0  0  0  0  0  0
  -30.0801  -25.1001   22.3036 H   0  0  0  0  0  0
  -29.1325  -22.1956   18.4580 H   0  0  0  0  0  0
  -27.6865  -22.0716   19.4420 H   0  0  0  0  0  0
  -29.9690  -24.0260   19.5608 H   0  0  0  0  0  0
  -28.4546  -18.8023   16.0201 H   0  0  0  0  0  0
  -27.7655  -17.2507   16.5100 H   0  0  0  0  0  0
  -29.4558  -17.3500   16.0228 H   0  0  0  0  0  0
  -27.2650  -24.5749   20.9120 H   0  0  0  0  0  0
  -27.4876  -24.6355   19.1773 H   0  0  0  0  0  0
  -29.2064  -15.6906   21.5687 H   0  0  0  0  0  0
  1 25  1  0  0  0
  1 30  2  0  0  0
  1 86  1  0  0  0
  2  3  1  0  0  0
  2 25  1  0  0  0
  2 88  1  0  0  0
  2 89  1  0  0  0
  3  4  1  0  0  0
  3 90  1  0  0  0
  3 91  1  0  0  0
  4  5  1  0  0  0
  4 92  1  0  0  0
  4 93  1  0  0  0
  5  6  1  0  0  0
  5 26  1  0  0  0
  5 94  1  0  0  0
  6 25  1  0  0  0
  6 95  1  0  0  0
  6 96  1  0  0  0
  7  8  2  0  0  0
  7 26  1  0  0  0
  7 29  1  0  0  0
  8  9  1  0  0  0
  8 22  1  0  0  0
  9 10  1  0  0  0
  9 27  2  0  0  0
 10 11  2  0  0  0
 10 15  1  0  0  0
 11 12  1  0  0  0
 11 97  1  0  0  0
 12 13  2  0  0  0
 12 98  1  0  0  0
 13 14  1  0  0  0
 13 31  1  0  0  0
 14 15  2  0  0  0
 14 99  1  0  0  0
 15100  1  0  0  0
 16 17  2  0  0  0
 16 21  1  0  0  0
 16 31  1  0  0  0
 17 18  1  0  0  0
 17101  1  0  0  0
 18 19  2  0  0  0
 18102  1  0  0  0
 19 20  1  0  0  0
 19 24  1  0  0  0
 20 21  2  0  0  0
 20103  1  0  0  0
 21 23  1  0  0  0
 22 28  1  0  0  0
 22 32  2  0  0  0
 26 27  1  0  0  0
 28104  1  0  0  0
 28105  1  0  0  0
 29106  1  0  0  0
 29107  1  0  0  0
 33 34  1  0  0  0
 33 66  1  0  0  0
 33 70  2  0  0  0
 34 36  1  0  0  0
 34 59  1  0  0  0
 34108  1  0  0  0
 35 44  2  0  0  0
 35 45  1  0  0  0
 35 68  1  0  0  0
 36 56  1  0  0  0
 36109  1  0  0  0
 37 39  1  0  0  0
 37 47  1  0  0  0
 37 66  1  0  0  0
 37110  1  0  0  0
 38 43  2  0  0  0
 38 46  1  0  0  0
 38 47  1  0  0  0
 39 64  1  0  0  0
 39 67  2  0  0  0
 40 52  1  0  0  0
 40 53  2  0  0  0
 40 58  1  0  0  0
 41111  1  0  0  0
 41112  1  0  0  0
 41113  1  0  0  0
 41 48  1  0  0  0
 42 43  1  0  0  0
 42 66  1  0  0  0
 42114  1  0  0  0
 42115  1  0  0  0
 43 44  1  0  0  0
 44116  1  0  0  0
 45 46  2  0  0  0
 45117  1  0  0  0
 46118  1  0  0  0
 47119  1  0  0  0
 47120  1  0  0  0
 48 56  1  0  0  0
 48 65  1  0  0  0
 48121  1  0  0  0
 49 50  1  0  0  0
 49 53  1  0  0  0
 49 64  1  0  0  0
 49122  1  0  0  0
 50 51  1  0  0  0
 50123  1  0  0  0
 50124  1  0  0  0
 51 52  1  0  0  0
 51125  1  0  0  0
 51126  1  0  0  0
 52127  1  0  0  0
 52128  1  0  0  0
 53 54  1  0  0  0
 54 55  2  0  0  0
 54129  1  0  0  0
 55 57  1  0  0  0
 55130  1  0  0  0
 56 69  2  0  0  0
 57 58  2  0  0  0
 57131  1  0  0  0
 58132  1  0  0  0
 59 60  1  0  0  0
 59 61  1  0  0  0
 59 62  1  0  0  0
 60133  1  0  0  0
 60134  1  0  0  0
 60135  1  0  0  0
 61136  1  0  0  0
 61137  1  0  0  0
 61138  1  0  0  0
 62139  1  0  0  0
 62140  1  0  0  0
 62141  1  0  0  0
 63 65  1  0  0  0
 63142  1  0  0  0
 63143  1  0  0  0
 63144  1  0  0  0
 64145  1  0  0  0
 65146  1  0  0  0
 68 84  1  0  0  0
 71 73  2  0  0  0
 71 74  1  0  0  0
 71147  1  0  0  0
 72 74  2  0  0  0
 72 75  1  0  0  0
 72148  1  0  0  0
 73 76  1  0  0  0
 73 83  1  0  0  0
 74 85  1  0  0  0
 75 76  2  0  0  0
 75 86  1  0  0  0
 76 87  1  0  0  0
 77 78  2  0  0  0
 77 85  1  0  0  0
 77149  1  0  0  0
 78 80  1  0  0  0
 78 82  1  0  0  0
 79 80  2  0  0  0
 79150  1  0  0  0
 79151  1  0  0  0
 80152  1  0  0  0
 81 82  1  0  0  0
 81 85  1  0  0  0
 81153  1  0  0  0
 81154  1  0  0  0
 82 84  1  0  0  0
 82155  1  0  0  0
 83156  1  0  0  0
 83157  1  0  0  0
 83158  1  0  0  0
 84159  1  0  0  0
 84160  1  0  0  0
 86161  1  0  0  0
M  ISO  4   1 100  68 101  84 101  86 100
M  END
> <chiral flag>
0

> <version>
0

> <s_m_source_file>
/data/baiqing/PycharmProjects/Reinvent-master-3.2/result/LINK_invent/BTK/process_docking_weight1_custom_product_contain_oxygen_bond_distance_aromatic_linkinvent_7_9_3/rearranged_h_0066.sdf

> <i_m_source_file_index>
70

> <r_mmod_Potential_Energy-OPLS-2005>
293.738067626953

> <r_mmod_Stretch_Energy-OPLS-2005>
140.004806518555

> <r_mmod_Bend_Energy-OPLS-2005>
248.492492675781

> <r_mmod_Torsional_Energy-OPLS-2005>
265.183959960938

> <r_mmod_Improper_Torsional_Energy-OPLS-2005>
5.18624973297119

> <r_mmod_Van_der_Waal_Energy-OPLS-2005>
140.875518798828

> <r_mmod_Electrostatic_Energy-OPLS-2005>
-387.458129882812

> <r_mmod_Solvation_Energy-OPLS-2005>
-211.977996826172

> <b_mmod_Minimization_Converged-OPLS-2005>
0

> <r_mmod_RMS_Derivative-OPLS-2005>
6.24278879165649

$$$$
71
                    3D
 Structure written by MMmdl.
157166  0  0  1  0            999 V2000
  -30.6284  -14.7207   20.4774 C   0  0  0  0  0  0
  -30.4169  -12.4445   19.4765 C   0  0  0  0  0  0
  -29.4988  -12.5592   18.2381 C   0  0  0  0  0  0
  -28.0280  -12.3625   18.6476 C   0  0  0  0  0  0
  -27.6458  -13.2318   19.8765 C   0  0  2  0  0  0
  -28.6926  -13.1422   21.0126 C   0  0  0  0  0  0
  -25.2489  -13.8190   20.5685 C   0  0  0  0  0  0
  -24.1767  -13.0453   20.9148 C   0  0  0  0  0  0
  -24.6361  -11.6928   20.8686 C   0  0  0  0  0  0
  -23.9057  -10.4298   21.0325 C   0  0  0  0  0  0
  -24.3622   -9.4231   21.9109 C   0  0  0  0  0  0
  -23.6286   -8.2282   22.0712 C   0  0  0  0  0  0
  -22.4254   -8.0305   21.3507 C   0  0  0  0  0  0
  -21.9882   -9.0257   20.4579 C   0  0  0  0  0  0
  -22.7226  -10.2140   20.2975 C   0  0  0  0  0  0
  -21.6878   -6.0733   22.5238 C   0  0  0  0  0  0
  -21.4058   -6.5641   23.8175 C   0  0  0  0  0  0
  -21.3672   -5.6797   24.9130 C   0  0  0  0  0  0
  -21.6055   -4.3067   24.7198 C   0  0  0  0  0  0
  -21.8817   -3.8153   23.4318 C   0  0  0  0  0  0
  -21.9177   -4.6952   22.3371 C   0  0  0  0  0  0
  -22.7785  -13.5215   21.1847 C   0  0  0  0  0  0
  -22.1610   -4.2130   21.0947 F   0  0  0  0  0  0
  -21.5639   -3.4567   25.7731 F   0  0  0  0  0  0
  -30.0023  -13.4903   20.4424 N   0  0  0  0  0  0
  -26.2943  -12.9410   20.3399 N   0  0  0  0  0  0
  -25.9310  -11.6560   20.5791 N   0  0  0  0  0  0
  -22.0518  -12.8128   22.0413 N   0  0  0  0  0  0
  -25.4226  -15.1916   20.4104 N   0  0  0  0  0  0
  -31.7803  -14.8360   20.0503 O   0  0  0  0  0  0
  -21.6636   -6.8892   21.4203 O   0  0  0  0  0  0
  -22.3444  -14.5536   20.6752 O   0  0  0  0  0  0
  -24.6325  -31.8584   23.1983 C   0  0  0  0  0  0
  -25.9107  -32.4798   23.8353 C   0  0  1  0  0  0
  -27.2118  -27.2306   20.1105 C   0  0  0  0  0  0
  -25.5872  -33.8598   24.2241 N   0  0  0  0  0  0
  -23.4306  -30.4829   21.5498 C   0  0  2  0  0  0
  -24.8709  -28.9300   20.1133 C   0  0  0  0  0  0
  -22.7473  -29.4640   22.4928 C   0  0  0  0  0  0
  -18.0292  -28.1415   22.8534 C   0  0  0  0  0  0
  -24.1487  -36.7338   23.2651 C   0  0  0  0  0  0
  -25.9792  -30.7550   21.3854 C   0  0  0  0  0  0
  -26.0479  -29.3751   20.7259 C   0  0  0  0  0  0
  -27.2120  -28.5368   20.7210 C   0  0  0  0  0  0
  -26.0077  -26.8686   19.4571 C   0  0  0  0  0  0
  -24.8582  -27.6815   19.4764 C   0  0  0  0  0  0
  -23.6450  -29.8238   20.1655 C   0  0  0  0  0  0
  -25.4134  -36.3127   24.0308 C   0  0  1  0  0  0
  -20.5891  -28.3743   23.1294 C   0  0  2  0  0  0
  -20.6793  -26.9456   22.5440 C   0  0  0  0  0  0
  -19.5734  -26.6397   21.5282 C   0  0  0  0  0  0
  -18.1902  -26.7961   22.1677 C   0  0  0  0  0  0
  -19.1548  -28.8899   23.2905 C   0  0  0  0  0  0
  -18.9457  -30.1503   23.8922 C   0  0  0  0  0  0
  -17.6455  -30.6619   24.0582 C   0  0  0  0  0  0
  -25.9048  -34.9483   23.5096 C   0  0  0  0  0  0
  -16.5358  -29.9130   23.6324 C   0  0  0  0  0  0
  -16.7281  -28.6540   23.0382 C   0  0  0  0  0  0
  -26.4440  -31.6661   25.0774 C   0  0  0  0  0  0
  -25.3609  -31.3839   26.1468 C   0  0  0  0  0  0
  -27.0339  -30.3101   24.6271 C   0  0  0  0  0  0
  -27.5971  -32.4451   25.7549 C   0  0  0  0  0  0
  -27.5607  -37.1824   24.8446 C   0  0  0  0  0  0
  -21.4177  -29.3095   22.3672 N   0  0  0  0  0  0
  -26.4330  -37.3812   23.9380 N   0  0  0  0  0  0
  -24.7023  -31.0465   22.1015 N   0  0  0  0  0  0
  -23.4149  -28.8166   23.3028 O   0  0  0  0  0  0
  -28.3182  -26.3360   20.1876 O   0  0  0  0  0  0
  -26.5614  -34.8946   22.4665 O   0  0  0  0  0  0
  -23.5453  -32.1474   23.7178 O   0  0  0  0  0  0
  -28.8356  -19.3701   18.6155 C   0  0  0  0  0  0
  -29.2253  -16.9614   18.8326 C   0  0  0  0  0  0
  -29.7442  -18.4673   20.6846 C   0  0  0  0  0  0
  -28.7977  -18.0666   18.0786 C   0  0  0  0  0  0
  -29.3261  -19.6383   19.9136 C   0  0  0  0  0  0
  -29.6938  -17.1029   20.1563 C   0  0  0  0  0  0
  -30.1171  -23.2616   20.8952 C   0  0  0  0  0  0
  -30.3760  -21.7125   20.9297 C   0  0  0  0  0  0
  -28.4250  -22.1476   19.7624 C   0  0  0  0  0  0
  -28.6781  -23.5576   20.4634 C   0  0  2  0  0  0
  -28.2530  -17.8442   16.6808 C   0  0  0  0  0  0
  -28.3428  -24.9228   19.6228 C   0  0  0  0  0  0
  -29.3470  -21.0801   20.3156 N   0  0  0  0  0  0
  -29.9184  -15.8371   20.8882 N   0  0  0  0  0  0
  -30.9555  -24.1266   21.1857 O   0  0  0  0  0  0
  -31.3744  -21.1835   21.4388 O   0  0  0  0  0  0
  -31.4625  -12.5415   19.1789 H   0  0  0  0  0  0
  -30.3278  -11.4548   19.9320 H   0  0  0  0  0  0
  -29.7878  -11.8322   17.4794 H   0  0  0  0  0  0
  -29.6245  -13.5418   17.7768 H   0  0  0  0  0  0
  -27.8758  -11.3061   18.8786 H   0  0  0  0  0  0
  -27.3677  -12.5842   17.8066 H   0  0  0  0  0  0
  -27.6477  -14.2638   19.5291 H   0  0  0  0  0  0
  -28.7234  -12.1355   21.4334 H   0  0  0  0  0  0
  -28.4303  -13.8086   21.8364 H   0  0  0  0  0  0
  -25.2775   -9.5780   22.4673 H   0  0  0  0  0  0
  -23.9963   -7.4694   22.7475 H   0  0  0  0  0  0
  -21.0798   -8.8809   19.8891 H   0  0  0  0  0  0
  -22.3633  -10.9671   19.6110 H   0  0  0  0  0  0
  -21.2092   -7.6143   23.9706 H   0  0  0  0  0  0
  -21.1493   -6.0508   25.9025 H   0  0  0  0  0  0
  -22.0584   -2.7609   23.2835 H   0  0  0  0  0  0
  -22.4228  -11.9715   22.4590 H   0  0  0  0  0  0
  -21.1187  -13.1103   22.2881 H   0  0  0  0  0  0
  -24.6670  -15.8569   20.5210 H   0  0  0  0  0  0
  -26.2878  -15.6263   20.1175 H   0  0  0  0  0  0
  -26.7173  -32.5414   23.1093 H   0  0  0  0  0  0
  -24.9980  -33.9800   25.0358 H   0  0  0  0  0  0
  -22.7318  -31.3092   21.4053 H   0  0  0  0  0  0
  -23.3777  -35.9641   23.3298 H   0  0  0  0  0  0
  -24.3552  -36.9000   22.2072 H   0  0  0  0  0  0
  -23.7224  -37.6522   23.6708 H   0  0  0  0  0  0
  -26.1116  -31.5069   20.6066 H   0  0  0  0  0  0
  -26.8581  -30.8144   22.0155 H   0  0  0  0  0  0
  -28.1101  -28.8658   21.2258 H   0  0  0  0  0  0
  -25.8815  -25.9398   18.9254 H   0  0  0  0  0  0
  -23.9563  -27.3316   18.9956 H   0  0  0  0  0  0
  -23.7640  -30.6066   19.4137 H   0  0  0  0  0  0
  -22.7538  -29.2681   19.8652 H   0  0  0  0  0  0
  -25.1305  -36.2034   25.0792 H   0  0  0  0  0  0
  -21.0004  -28.3371   24.1415 H   0  0  0  0  0  0
  -20.5807  -26.2342   23.3669 H   0  0  0  0  0  0
  -21.6641  -26.7509   22.1190 H   0  0  0  0  0  0
  -19.6887  -25.6312   21.1310 H   0  0  0  0  0  0
  -19.6652  -27.3203   20.6822 H   0  0  0  0  0  0
  -17.4186  -26.6801   21.4050 H   0  0  0  0  0  0
  -18.0190  -26.0099   22.9047 H   0  0  0  0  0  0
  -19.7931  -30.7314   24.2298 H   0  0  0  0  0  0
  -17.5015  -31.6307   24.5190 H   0  0  0  0  0  0
  -15.5361  -30.3048   23.7640 H   0  0  0  0  0  0
  -15.8685  -28.0860   22.7098 H   0  0  0  0  0  0
  -24.5752  -30.7222   25.7777 H   0  0  0  0  0  0
  -24.8806  -32.3032   26.4847 H   0  0  0  0  0  0
  -25.7854  -30.9039   27.0297 H   0  0  0  0  0  0
  -26.2986  -29.6839   24.1205 H   0  0  0  0  0  0
  -27.3978  -29.7359   25.4797 H   0  0  0  0  0  0
  -27.8835  -30.4421   23.9567 H   0  0  0  0  0  0
  -27.2557  -33.3785   26.2046 H   0  0  0  0  0  0
  -28.3816  -32.6999   25.0406 H   0  0  0  0  0  0
  -28.0605  -31.8650   26.5543 H   0  0  0  0  0  0
  -28.2594  -38.0159   24.7551 H   0  0  0  0  0  0
  -28.1153  -36.2682   24.6244 H   0  0  0  0  0  0
  -27.2272  -37.1418   25.8834 H   0  0  0  0  0  0
  -20.9340  -29.8874   21.6938 H   0  0  0  0  0  0
  -26.0226  -38.2884   24.1432 H   0  0  0  0  0  0
  -28.4896  -20.1822   17.9925 H   0  0  0  0  0  0
  -29.1451  -15.9763   18.3939 H   0  0  0  0  0  0
  -30.0924  -18.6189   21.6977 H   0  0  0  0  0  0
  -28.6121  -22.2513   18.6919 H   0  0  0  0  0  0
  -27.3824  -21.8390   19.8692 H   0  0  0  0  0  0
  -28.0937  -23.5752   21.3856 H   0  0  0  0  0  0
  -27.8309  -18.7592   16.2621 H   0  0  0  0  0  0
  -27.4666  -17.0902   16.7038 H   0  0  0  0  0  0
  -29.0353  -17.4891   16.0096 H   0  0  0  0  0  0
  -27.4185  -24.6809   19.1013 H   0  0  0  0  0  0
  -29.0692  -24.9657   18.8071 H   0  0  0  0  0  0
  -29.1408  -15.5908   21.4825 H   0  0  0  0  0  0
  1 25  1  0  0  0
  1 30  2  0  0  0
  1 84  1  0  0  0
  2  3  1  0  0  0
  2 25  1  0  0  0
  2 87  1  0  0  0
  2 88  1  0  0  0
  3  4  1  0  0  0
  3 89  1  0  0  0
  3 90  1  0  0  0
  4  5  1  0  0  0
  4 91  1  0  0  0
  4 92  1  0  0  0
  5  6  1  0  0  0
  5 26  1  0  0  0
  5 93  1  0  0  0
  6 25  1  0  0  0
  6 94  1  0  0  0
  6 95  1  0  0  0
  7  8  2  0  0  0
  7 26  1  0  0  0
  7 29  1  0  0  0
  8  9  1  0  0  0
  8 22  1  0  0  0
  9 10  1  0  0  0
  9 27  2  0  0  0
 10 11  2  0  0  0
 10 15  1  0  0  0
 11 12  1  0  0  0
 11 96  1  0  0  0
 12 13  2  0  0  0
 12 97  1  0  0  0
 13 14  1  0  0  0
 13 31  1  0  0  0
 14 15  2  0  0  0
 14 98  1  0  0  0
 15 99  1  0  0  0
 16 17  2  0  0  0
 16 21  1  0  0  0
 16 31  1  0  0  0
 17 18  1  0  0  0
 17100  1  0  0  0
 18 19  2  0  0  0
 18101  1  0  0  0
 19 20  1  0  0  0
 19 24  1  0  0  0
 20 21  2  0  0  0
 20102  1  0  0  0
 21 23  1  0  0  0
 22 28  1  0  0  0
 22 32  2  0  0  0
 26 27  1  0  0  0
 28103  1  0  0  0
 28104  1  0  0  0
 29105  1  0  0  0
 29106  1  0  0  0
 33 34  1  0  0  0
 33 66  1  0  0  0
 33 70  2  0  0  0
 34 36  1  0  0  0
 34 59  1  0  0  0
 34107  1  0  0  0
 35 44  2  0  0  0
 35 45  1  0  0  0
 35 68  1  0  0  0
 36 56  1  0  0  0
 36108  1  0  0  0
 37 39  1  0  0  0
 37 47  1  0  0  0
 37 66  1  0  0  0
 37109  1  0  0  0
 38 43  2  0  0  0
 38 46  1  0  0  0
 38 47  1  0  0  0
 39 64  1  0  0  0
 39 67  2  0  0  0
 40 52  1  0  0  0
 40 53  2  0  0  0
 40 58  1  0  0  0
 41110  1  0  0  0
 41111  1  0  0  0
 41112  1  0  0  0
 41 48  1  0  0  0
 42 43  1  0  0  0
 42 66  1  0  0  0
 42113  1  0  0  0
 42114  1  0  0  0
 43 44  1  0  0  0
 44115  1  0  0  0
 45 46  2  0  0  0
 45116  1  0  0  0
 46117  1  0  0  0
 47118  1  0  0  0
 47119  1  0  0  0
 48 56  1  0  0  0
 48 65  1  0  0  0
 48120  1  0  0  0
 49 50  1  0  0  0
 49 53  1  0  0  0
 49 64  1  0  0  0
 49121  1  0  0  0
 50 51  1  0  0  0
 50122  1  0  0  0
 50123  1  0  0  0
 51 52  1  0  0  0
 51124  1  0  0  0
 51125  1  0  0  0
 52126  1  0  0  0
 52127  1  0  0  0
 53 54  1  0  0  0
 54 55  2  0  0  0
 54128  1  0  0  0
 55 57  1  0  0  0
 55129  1  0  0  0
 56 69  2  0  0  0
 57 58  2  0  0  0
 57130  1  0  0  0
 58131  1  0  0  0
 59 60  1  0  0  0
 59 61  1  0  0  0
 59 62  1  0  0  0
 60132  1  0  0  0
 60133  1  0  0  0
 60134  1  0  0  0
 61135  1  0  0  0
 61136  1  0  0  0
 61137  1  0  0  0
 62138  1  0  0  0
 62139  1  0  0  0
 62140  1  0  0  0
 63 65  1  0  0  0
 63141  1  0  0  0
 63142  1  0  0  0
 63143  1  0  0  0
 64144  1  0  0  0
 65145  1  0  0  0
 68 82  1  0  0  0
 71 74  2  0  0  0
 71 75  1  0  0  0
 71146  1  0  0  0
 72 74  1  0  0  0
 72 76  2  0  0  0
 72147  1  0  0  0
 73 75  2  0  0  0
 73 76  1  0  0  0
 73148  1  0  0  0
 74 81  1  0  0  0
 75 83  1  0  0  0
 76 84  1  0  0  0
 77 78  1  0  0  0
 77 80  1  0  0  0
 77 85  2  0  0  0
 78 83  1  0  0  0
 78 86  2  0  0  0
 79 80  1  0  0  0
 79 83  1  0  0  0
 79149  1  0  0  0
 79150  1  0  0  0
 80 82  1  0  0  0
 80151  1  0  0  0
 81152  1  0  0  0
 81153  1  0  0  0
 81154  1  0  0  0
 82155  1  0  0  0
 82156  1  0  0  0
 84157  1  0  0  0
M  ISO  4   1 100  68 101  82 101  84 100
M  END
> <chiral flag>
0

> <version>
0

> <s_m_source_file>
/data/baiqing/PycharmProjects/Reinvent-master-3.2/result/LINK_invent/BTK/process_docking_weight1_custom_product_contain_oxygen_bond_distance_aromatic_linkinvent_7_9_3/rearranged_h_0066.sdf

> <i_m_source_file_index>
71

> <r_mmod_Potential_Energy-OPLS-2005>
310.313690185547

> <r_mmod_Stretch_Energy-OPLS-2005>
135.1181640625

> <r_mmod_Bend_Energy-OPLS-2005>
217.78840637207

> <r_mmod_Torsional_Energy-OPLS-2005>
272.505981445312

> <r_mmod_Improper_Torsional_Energy-OPLS-2005>
6.48063230514526

> <r_mmod_Van_der_Waal_Energy-OPLS-2005>
132.44384765625

> <r_mmod_Electrostatic_Energy-OPLS-2005>
-278.308959960938

> <r_mmod_Solvation_Energy-OPLS-2005>
-260.559753417969

> <b_mmod_Minimization_Converged-OPLS-2005>
0

> <r_mmod_RMS_Derivative-OPLS-2005>
5.10128545761108

$$$$
72
                    3D
 Structure written by MMmdl.
164173  0  0  1  0            999 V2000
  -30.5980  -14.6877   20.4587 C   0  0  0  0  0  0
  -30.4418  -12.4058   19.4545 C   0  0  0  0  0  0
  -29.5087  -12.4891   18.2227 C   0  0  0  0  0  0
  -28.0352  -12.3105   18.6460 C   0  0  0  0  0  0
  -27.6497  -13.2102   19.8507 C   0  0  2  0  0  0
  -28.6997  -13.0767   20.9780 C   0  0  0  0  0  0
  -25.2569  -13.8127   20.5667 C   0  0  0  0  0  0
  -24.1839  -13.0413   20.9230 C   0  0  0  0  0  0
  -24.6406  -11.6888   20.8782 C   0  0  0  0  0  0
  -23.9091  -10.4260   21.0457 C   0  0  0  0  0  0
  -24.3637   -9.4147   21.9213 C   0  0  0  0  0  0
  -23.6303   -8.2182   22.0747 C   0  0  0  0  0  0
  -22.4275   -8.0258   21.3553 C   0  0  0  0  0  0
  -21.9941   -9.0241   20.4658 C   0  0  0  0  0  0
  -22.7288  -10.2111   20.3085 C   0  0  0  0  0  0
  -21.6818   -6.0740   22.5311 C   0  0  0  0  0  0
  -21.3969   -6.5627   23.8247 C   0  0  0  0  0  0
  -21.3672   -5.6780   24.9210 C   0  0  0  0  0  0
  -21.6051   -4.3048   24.7245 C   0  0  0  0  0  0
  -21.8820   -3.8150   23.4362 C   0  0  0  0  0  0
  -21.9168   -4.6969   22.3425 C   0  0  0  0  0  0
  -22.7868  -13.5239   21.1916 C   0  0  0  0  0  0
  -22.1646   -4.2168   21.0998 F   0  0  0  0  0  0
  -21.5660   -3.4523   25.7754 F   0  0  0  0  0  0
  -30.0106  -13.4433   20.4143 N   0  0  0  0  0  0
  -26.2977  -12.9312   20.3268 N   0  0  0  0  0  0
  -25.9316  -11.6480   20.5751 N   0  0  0  0  0  0
  -22.0479  -12.8225   22.0449 N   0  0  0  0  0  0
  -25.4261  -15.1837   20.4042 N   0  0  0  0  0  0
  -31.7574  -14.8572   20.0677 O   0  0  0  0  0  0
  -21.6608   -6.8883   21.4271 O   0  0  0  0  0  0
  -22.3576  -14.5577   20.6803 O   0  0  0  0  0  0
  -24.6235  -31.8649   23.1979 C   0  0  0  0  0  0
  -25.9082  -32.4809   23.8327 C   0  0  1  0  0  0
  -27.2394  -27.3142   20.1457 C   0  0  0  0  0  0
  -25.5907  -33.8599   24.2293 N   0  0  0  0  0  0
  -23.4198  -30.4893   21.5348 C   0  0  2  0  0  0
  -24.8772  -28.9447   20.1102 C   0  0  0  0  0  0
  -22.7499  -29.4671   22.4852 C   0  0  0  0  0  0
  -18.0330  -28.1470   22.8498 C   0  0  0  0  0  0
  -24.1472  -36.7275   23.2634 C   0  0  0  0  0  0
  -25.9617  -30.7982   21.3709 C   0  0  0  0  0  0
  -26.0413  -29.4192   20.7261 C   0  0  0  0  0  0
  -27.2216  -28.6158   20.7376 C   0  0  0  0  0  0
  -26.0545  -26.9067   19.4886 C   0  0  0  0  0  0
  -24.8853  -27.6914   19.4808 C   0  0  0  0  0  0
  -23.6441  -29.8248   20.1505 C   0  0  0  0  0  0
  -25.4110  -36.3107   24.0341 C   0  0  1  0  0  0
  -20.5932  -28.3772   23.1251 C   0  0  2  0  0  0
  -20.6795  -26.9496   22.5413 C   0  0  0  0  0  0
  -19.5755  -26.6457   21.5233 C   0  0  0  0  0  0
  -18.1946  -26.8005   22.1653 C   0  0  0  0  0  0
  -19.1582  -28.8934   23.2871 C   0  0  0  0  0  0
  -18.9503  -30.1525   23.8911 C   0  0  0  0  0  0
  -17.6502  -30.6638   24.0620 C   0  0  0  0  0  0
  -25.9049  -34.9471   23.5136 C   0  0  0  0  0  0
  -16.5400  -29.9160   23.6364 C   0  0  0  0  0  0
  -16.7311  -28.6585   23.0372 C   0  0  0  0  0  0
  -26.4498  -31.6573   25.0660 C   0  0  0  0  0  0
  -25.3715  -31.3700   26.1369 C   0  0  0  0  0  0
  -27.0358  -30.3010   24.6054 C   0  0  0  0  0  0
  -27.6078  -32.4296   25.7422 C   0  0  0  0  0  0
  -27.5589  -37.1808   24.8485 C   0  0  0  0  0  0
  -21.4217  -29.3089   22.3589 N   0  0  0  0  0  0
  -26.4291  -37.3823   23.9450 N   0  0  0  0  0  0
  -24.6865  -31.0695   22.0916 N   0  0  0  0  0  0
  -23.4219  -28.8244   23.2962 O   0  0  0  0  0  0
  -28.3529  -26.4510   20.2344 O   0  0  0  0  0  0
  -26.5650  -34.8906   22.4727 O   0  0  0  0  0  0
  -23.5387  -32.1423   23.7282 O   0  0  0  0  0  0
  -30.3804  -19.4014   19.6885 C   0  0  0  0  0  0
  -30.5144  -17.9716   19.7960 C   0  0  0  0  0  0
  -28.7651  -19.3949   21.4001 C   0  0  0  0  0  0
  -28.8620  -17.9704   21.5320 C   0  0  0  0  0  0
  -29.4969  -20.2013   20.4832 C   0  0  0  0  0  0
  -29.7579  -17.1978   20.7247 C   0  0  0  0  0  0
  -29.8253  -22.8151   19.7525 C   0  0  0  0  0  0
  -28.1999  -22.4173   20.9502 C   0  0  0  0  0  0
  -29.0086  -23.7694   20.7568 C   0  0  2  0  0  0
  -30.3821  -25.6656   22.0546 C   0  0  0  0  0  0
  -29.5765  -23.6676   23.3525 C   0  0  0  0  0  0
  -28.1688  -24.9766   20.0542 C   0  0  0  0  0  0
  -29.9737  -24.1863   21.9504 C   0  0  0  0  0  0
  -27.9732  -17.3455   22.6123 C   0  0  0  0  0  0
  -29.3605  -21.6799   20.4434 N   0  0  0  0  0  0
  -29.7750  -15.7199   20.8366 N   0  0  0  0  0  0
  -30.5535  -22.9357   18.7946 O   0  0  0  0  0  0
  -28.4715  -17.6610   23.8069 F   0  0  0  0  0  0
  -26.7394  -17.8434   22.5267 F   0  0  0  0  0  0
  -27.8605  -16.0195   22.5506 F   0  0  0  0  0  0
  -31.4850  -12.5198   19.1571 H   0  0  0  0  0  0
  -30.3703  -11.4192   19.9129 H   0  0  0  0  0  0
  -29.7800  -11.7216   17.4942 H   0  0  0  0  0  0
  -29.6369  -13.4481   17.7189 H   0  0  0  0  0  0
  -27.9056  -11.2633   18.9236 H   0  0  0  0  0  0
  -27.3676  -12.4838   17.8011 H   0  0  0  0  0  0
  -27.6618  -14.2370   19.4858 H   0  0  0  0  0  0
  -28.7234  -12.0482   21.3434 H   0  0  0  0  0  0
  -28.4412  -13.6842   21.8449 H   0  0  0  0  0  0
  -25.2793   -9.5579   22.4787 H   0  0  0  0  0  0
  -24.0016   -7.4533   22.7423 H   0  0  0  0  0  0
  -21.0891   -8.8799   19.8923 H   0  0  0  0  0  0
  -22.3819  -10.9662   19.6180 H   0  0  0  0  0  0
  -21.1927   -7.6125   23.9775 H   0  0  0  0  0  0
  -21.1510   -6.0489   25.9125 H   0  0  0  0  0  0
  -22.0587   -2.7611   23.2858 H   0  0  0  0  0  0
  -22.4030  -11.9831   22.4795 H   0  0  0  0  0  0
  -21.1106  -13.1287   22.2649 H   0  0  0  0  0  0
  -24.6709  -15.8412   20.5658 H   0  0  0  0  0  0
  -26.2858  -15.6282   20.1108 H   0  0  0  0  0  0
  -26.7157  -32.5553   23.1075 H   0  0  0  0  0  0
  -24.9984  -33.9749   25.0384 H   0  0  0  0  0  0
  -22.7093  -31.3061   21.3870 H   0  0  0  0  0  0
  -23.3752  -35.9593   23.3313 H   0  0  0  0  0  0
  -24.3516  -36.8884   22.2040 H   0  0  0  0  0  0
  -23.7159  -37.6448   23.6638 H   0  0  0  0  0  0
  -26.0876  -31.5467   20.5879 H   0  0  0  0  0  0
  -26.8430  -30.8644   21.9953 H   0  0  0  0  0  0
  -28.1032  -28.9732   21.2508 H   0  0  0  0  0  0
  -26.0011  -25.9592   18.9781 H   0  0  0  0  0  0
  -24.0010  -27.3284   18.9782 H   0  0  0  0  0  0
  -23.7686  -30.5983   19.3911 H   0  0  0  0  0  0
  -22.7671  -29.2533   19.8416 H   0  0  0  0  0  0
  -25.1274  -36.1975   25.0839 H   0  0  0  0  0  0
  -21.0105  -28.3403   24.1335 H   0  0  0  0  0  0
  -20.5754  -26.2415   23.3649 H   0  0  0  0  0  0
  -21.6667  -26.7537   22.1195 H   0  0  0  0  0  0
  -19.6913  -25.6368   21.1268 H   0  0  0  0  0  0
  -19.6672  -27.3260   20.6755 H   0  0  0  0  0  0
  -17.4248  -26.6811   21.4026 H   0  0  0  0  0  0
  -18.0299  -26.0122   22.9031 H   0  0  0  0  0  0
  -19.7958  -30.7366   24.2258 H   0  0  0  0  0  0
  -17.5052  -31.6290   24.5285 H   0  0  0  0  0  0
  -15.5405  -30.3108   23.7614 H   0  0  0  0  0  0
  -15.8709  -28.0905   22.7099 H   0  0  0  0  0  0
  -24.5918  -30.7035   25.7665 H   0  0  0  0  0  0
  -24.8847  -32.2866   26.4724 H   0  0  0  0  0  0
  -25.8008  -30.8903   27.0169 H   0  0  0  0  0  0
  -26.2910  -29.6727   24.1146 H   0  0  0  0  0  0
  -27.4179  -29.7280   25.4499 H   0  0  0  0  0  0
  -27.8713  -30.4302   23.9170 H   0  0  0  0  0  0
  -27.2742  -33.3635   26.1940 H   0  0  0  0  0  0
  -28.3909  -32.6802   25.0265 H   0  0  0  0  0  0
  -28.0704  -31.8435   26.5364 H   0  0  0  0  0  0
  -28.2667  -38.0058   24.7597 H   0  0  0  0  0  0
  -28.1045  -36.2623   24.6280 H   0  0  0  0  0  0
  -27.2315  -37.1430   25.8884 H   0  0  0  0  0  0
  -20.9419  -29.8767   21.6737 H   0  0  0  0  0  0
  -26.0164  -38.2902   24.1468 H   0  0  0  0  0  0
  -30.9990  -19.8977   18.9540 H   0  0  0  0  0  0
  -31.2025  -17.4720   19.1297 H   0  0  0  0  0  0
  -28.0850  -19.8895   22.0785 H   0  0  0  0  0  0
  -27.3322  -22.3312   20.2883 H   0  0  0  0  0  0
  -27.8990  -22.1887   21.9692 H   0  0  0  0  0  0
  -30.6215  -26.1057   21.0882 H   0  0  0  0  0  0
  -31.2729  -25.7684   22.6758 H   0  0  0  0  0  0
  -29.6011  -26.2644   22.5211 H   0  0  0  0  0  0
  -29.4857  -22.5827   23.3833 H   0  0  0  0  0  0
  -28.6422  -24.1047   23.7103 H   0  0  0  0  0  0
  -30.3507  -23.9045   24.0857 H   0  0  0  0  0  0
  -27.1337  -24.7662   20.3210 H   0  0  0  0  0  0
  -28.2134  -24.8381   18.9723 H   0  0  0  0  0  0
  -30.9312  -23.6918   21.7791 H   0  0  0  0  0  0
  -28.9403  -15.3592   21.2787 H   0  0  0  0  0  0
  1 25  1  0  0  0
  1 30  2  0  0  0
  1 86  1  0  0  0
  2  3  1  0  0  0
  2 25  1  0  0  0
  2 91  1  0  0  0
  2 92  1  0  0  0
  3  4  1  0  0  0
  3 93  1  0  0  0
  3 94  1  0  0  0
  4  5  1  0  0  0
  4 95  1  0  0  0
  4 96  1  0  0  0
  5  6  1  0  0  0
  5 26  1  0  0  0
  5 97  1  0  0  0
  6 25  1  0  0  0
  6 98  1  0  0  0
  6 99  1  0  0  0
  7  8  2  0  0  0
  7 26  1  0  0  0
  7 29  1  0  0  0
  8  9  1  0  0  0
  8 22  1  0  0  0
  9 10  1  0  0  0
  9 27  2  0  0  0
 10 11  2  0  0  0
 10 15  1  0  0  0
 11 12  1  0  0  0
 11100  1  0  0  0
 12 13  2  0  0  0
 12101  1  0  0  0
 13 14  1  0  0  0
 13 31  1  0  0  0
 14 15  2  0  0  0
 14102  1  0  0  0
 15103  1  0  0  0
 16 17  2  0  0  0
 16 21  1  0  0  0
 16 31  1  0  0  0
 17 18  1  0  0  0
 17104  1  0  0  0
 18 19  2  0  0  0
 18105  1  0  0  0
 19 20  1  0  0  0
 19 24  1  0  0  0
 20 21  2  0  0  0
 20106  1  0  0  0
 21 23  1  0  0  0
 22 28  1  0  0  0
 22 32  2  0  0  0
 26 27  1  0  0  0
 28107  1  0  0  0
 28108  1  0  0  0
 29109  1  0  0  0
 29110  1  0  0  0
 33 34  1  0  0  0
 33 66  1  0  0  0
 33 70  2  0  0  0
 34 36  1  0  0  0
 34 59  1  0  0  0
 34111  1  0  0  0
 35 44  2  0  0  0
 35 45  1  0  0  0
 35 68  1  0  0  0
 36 56  1  0  0  0
 36112  1  0  0  0
 37 39  1  0  0  0
 37 47  1  0  0  0
 37 66  1  0  0  0
 37113  1  0  0  0
 38 43  2  0  0  0
 38 46  1  0  0  0
 38 47  1  0  0  0
 39 64  1  0  0  0
 39 67  2  0  0  0
 40 52  1  0  0  0
 40 53  2  0  0  0
 40 58  1  0  0  0
 41114  1  0  0  0
 41115  1  0  0  0
 41116  1  0  0  0
 41 48  1  0  0  0
 42 43  1  0  0  0
 42 66  1  0  0  0
 42117  1  0  0  0
 42118  1  0  0  0
 43 44  1  0  0  0
 44119  1  0  0  0
 45 46  2  0  0  0
 45120  1  0  0  0
 46121  1  0  0  0
 47122  1  0  0  0
 47123  1  0  0  0
 48 56  1  0  0  0
 48 65  1  0  0  0
 48124  1  0  0  0
 49 50  1  0  0  0
 49 53  1  0  0  0
 49 64  1  0  0  0
 49125  1  0  0  0
 50 51  1  0  0  0
 50126  1  0  0  0
 50127  1  0  0  0
 51 52  1  0  0  0
 51128  1  0  0  0
 51129  1  0  0  0
 52130  1  0  0  0
 52131  1  0  0  0
 53 54  1  0  0  0
 54 55  2  0  0  0
 54132  1  0  0  0
 55 57  1  0  0  0
 55133  1  0  0  0
 56 69  2  0  0  0
 57 58  2  0  0  0
 57134  1  0  0  0
 58135  1  0  0  0
 59 60  1  0  0  0
 59 61  1  0  0  0
 59 62  1  0  0  0
 60136  1  0  0  0
 60137  1  0  0  0
 60138  1  0  0  0
 61139  1  0  0  0
 61140  1  0  0  0
 61141  1  0  0  0
 62142  1  0  0  0
 62143  1  0  0  0
 62144  1  0  0  0
 63 65  1  0  0  0
 63145  1  0  0  0
 63146  1  0  0  0
 63147  1  0  0  0
 64148  1  0  0  0
 65149  1  0  0  0
 68 82  1  0  0  0
 71 72  2  0  0  0
 71 75  1  0  0  0
 71150  1  0  0  0
 72 76  1  0  0  0
 72151  1  0  0  0
 73 74  1  0  0  0
 73 75  2  0  0  0
 73152  1  0  0  0
 74 76  2  0  0  0
 74 84  1  0  0  0
 75 85  1  0  0  0
 76 86  1  0  0  0
 77 79  1  0  0  0
 77 85  1  0  0  0
 77 87  2  0  0  0
 78 79  1  0  0  0
 78 85  1  0  0  0
 78153  1  0  0  0
 78154  1  0  0  0
 79 82  1  0  0  0
 79 83  1  0  0  0
 80155  1  0  0  0
 80156  1  0  0  0
 80157  1  0  0  0
 80 83  1  0  0  0
 81 83  1  0  0  0
 81158  1  0  0  0
 81159  1  0  0  0
 81160  1  0  0  0
 82161  1  0  0  0
 82162  1  0  0  0
 83163  1  0  0  0
 84 88  1  0  0  0
 84 89  1  0  0  0
 84 90  1  0  0  0
 86164  1  0  0  0
M  ISO  4   1 100  68 101  82 101  86 100
M  END
> <chiral flag>
0

> <version>
0

> <s_m_source_file>
/data/baiqing/PycharmProjects/Reinvent-master-3.2/result/LINK_invent/BTK/process_docking_weight1_custom_product_contain_oxygen_bond_distance_aromatic_linkinvent_7_9_3/rearranged_h_0066.sdf

> <i_m_source_file_index>
72

> <r_mmod_Potential_Energy-OPLS-2005>
291.777374267578

> <r_mmod_Stretch_Energy-OPLS-2005>
114.467811584473

> <r_mmod_Bend_Energy-OPLS-2005>
235.159164428711

> <r_mmod_Torsional_Energy-OPLS-2005>
245.739181518555

> <r_mmod_Improper_Torsional_Energy-OPLS-2005>
4.23814153671265

> <r_mmod_Van_der_Waal_Energy-OPLS-2005>
157.48747253418

> <r_mmod_Electrostatic_Energy-OPLS-2005>
-317.680236816406

> <r_mmod_Solvation_Energy-OPLS-2005>
-209.592147827148

> <b_mmod_Minimization_Converged-OPLS-2005>
0

> <r_mmod_RMS_Derivative-OPLS-2005>
5.91891098022461

$$$$
73
                    3D
 Structure written by MMmdl.
159168  0  0  1  0            999 V2000
  -30.5789  -14.7862   20.4389 C   0  0  0  0  0  0
  -30.4333  -12.4698   19.4597 C   0  0  0  0  0  0
  -29.5113  -12.4933   18.2193 C   0  0  0  0  0  0
  -28.0356  -12.3146   18.6346 C   0  0  0  0  0  0
  -27.6325  -13.2258   19.8262 C   0  0  2  0  0  0
  -28.6792  -13.1838   20.9579 C   0  0  0  0  0  0
  -25.2481  -13.8159   20.5647 C   0  0  0  0  0  0
  -24.1780  -13.0400   20.9187 C   0  0  0  0  0  0
  -24.6361  -11.6879   20.8687 C   0  0  0  0  0  0
  -23.9036  -10.4273   21.0352 C   0  0  0  0  0  0
  -24.3589   -9.4197   21.9146 C   0  0  0  0  0  0
  -23.6273   -8.2231   22.0738 C   0  0  0  0  0  0
  -22.4255   -8.0261   21.3536 C   0  0  0  0  0  0
  -21.9877   -9.0198   20.4622 C   0  0  0  0  0  0
  -22.7191  -10.2090   20.3010 C   0  0  0  0  0  0
  -21.6863   -6.0718   22.5269 C   0  0  0  0  0  0
  -21.4020   -6.5612   23.8203 C   0  0  0  0  0  0
  -21.3659   -5.6769   24.9157 C   0  0  0  0  0  0
  -21.6048   -4.3037   24.7211 C   0  0  0  0  0  0
  -21.8822   -3.8126   23.4321 C   0  0  0  0  0  0
  -21.9193   -4.6943   22.3385 C   0  0  0  0  0  0
  -22.7812  -13.5202   21.1852 C   0  0  0  0  0  0
  -22.1665   -4.2119   21.0973 F   0  0  0  0  0  0
  -21.5624   -3.4541   25.7730 F   0  0  0  0  0  0
  -29.9704  -13.5501   20.3608 N   0  0  0  0  0  0
  -26.2888  -12.9350   20.3150 N   0  0  0  0  0  0
  -25.9280  -11.6499   20.5632 N   0  0  0  0  0  0
  -22.0483  -12.8182   22.0414 N   0  0  0  0  0  0
  -25.4164  -15.1893   20.4080 N   0  0  0  0  0  0
  -31.7970  -14.8775   20.2627 O   0  0  0  0  0  0
  -21.6629   -6.8846   21.4227 O   0  0  0  0  0  0
  -22.3501  -14.5503   20.6694 O   0  0  0  0  0  0
  -24.6305  -31.8541   23.1936 C   0  0  0  0  0  0
  -25.9095  -32.4771   23.8332 C   0  0  1  0  0  0
  -27.2377  -27.2757   20.1028 C   0  0  0  0  0  0
  -25.5898  -33.8562   24.2277 N   0  0  0  0  0  0
  -23.4287  -30.4744   21.5347 C   0  0  2  0  0  0
  -24.8815  -28.9102   20.1159 C   0  0  0  0  0  0
  -22.7539  -29.4565   22.4864 C   0  0  0  0  0  0
  -18.0306  -28.1391   22.8471 C   0  0  0  0  0  0
  -24.1468  -36.7269   23.2658 C   0  0  0  0  0  0
  -25.9743  -30.7726   21.3656 C   0  0  0  0  0  0
  -26.0538  -29.3911   20.7130 C   0  0  0  0  0  0
  -27.2386  -28.5879   20.6876 C   0  0  0  0  0  0
  -26.0399  -26.8490   19.4964 C   0  0  0  0  0  0
  -24.8776  -27.6470   19.4999 C   0  0  0  0  0  0
  -23.6542  -29.8015   20.1549 C   0  0  0  0  0  0
  -25.4082  -36.3074   24.0357 C   0  0  1  0  0  0
  -20.5899  -28.3690   23.1234 C   0  0  2  0  0  0
  -20.6762  -26.9399   22.5387 C   0  0  0  0  0  0
  -19.5746  -26.6376   21.5189 C   0  0  0  0  0  0
  -18.1929  -26.7926   22.1623 C   0  0  0  0  0  0
  -19.1559  -28.8856   23.2864 C   0  0  0  0  0  0
  -18.9511  -30.1457   23.8891 C   0  0  0  0  0  0
  -17.6527  -30.6601   24.0548 C   0  0  0  0  0  0
  -25.9021  -34.9447   23.5112 C   0  0  0  0  0  0
  -16.5401  -29.9118   23.6316 C   0  0  0  0  0  0
  -16.7297  -28.6523   23.0330 C   0  0  0  0  0  0
  -26.4458  -31.6589   25.0720 C   0  0  0  0  0  0
  -25.3673  -31.3756   26.1450 C   0  0  0  0  0  0
  -27.0300  -30.3030   24.6135 C   0  0  0  0  0  0
  -27.6046  -32.4309   25.7474 C   0  0  0  0  0  0
  -27.5542  -37.1775   24.8473 C   0  0  0  0  0  0
  -21.4239  -29.3049   22.3650 N   0  0  0  0  0  0
  -26.4246  -37.3779   23.9446 N   0  0  0  0  0  0
  -24.6982  -31.0502   22.0909 N   0  0  0  0  0  0
  -23.4259  -28.8063   23.2919 O   0  0  0  0  0  0
  -28.3642  -26.4241   20.0415 O   0  0  0  0  0  0
  -26.5615  -34.8919   22.4698 O   0  0  0  0  0  0
  -23.5448  -32.1354   23.7252 O   0  0  0  0  0  0
  -29.8191  -19.9456   22.0215 C   0  0  0  0  0  0
  -30.1661  -17.5167   22.1781 C   0  0  0  0  0  0
  -29.5824  -18.5470   20.0461 C   0  0  0  0  0  0
  -30.1211  -18.7962   22.7743 C   0  0  0  0  0  0
  -29.5437  -19.8872   20.6418 C   0  0  0  0  0  0
  -29.8960  -17.3280   20.8052 C   0  0  0  0  0  0
  -29.8205  -23.2821   19.1001 C   0  0  0  0  0  0
  -30.1427  -21.8441   19.1749 C   0  0  0  0  0  0
  -30.6906  -24.1517   18.5462 C   0  0  0  0  0  0
  -28.3628  -22.2765   20.5757 C   0  0  0  0  0  0
  -28.4974  -23.6289   19.7598 C   0  0  1  0  0  0
  -30.3948  -18.9648   24.2558 C   0  0  0  0  0  0
  -28.2952  -25.0231   20.5809 C   0  0  0  0  0  0
  -29.2662  -21.2108   19.9975 N   0  0  0  0  0  0
  -29.7579  -15.9163   20.3440 N   0  0  0  0  0  0
  -31.0622  -21.2762   18.5750 O   0  0  0  0  0  0
  -31.4758  -12.6029   19.1647 H   0  0  0  0  0  0
  -30.3807  -11.4995   19.9575 H   0  0  0  0  0  0
  -29.7991  -11.7137   17.5140 H   0  0  0  0  0  0
  -29.6331  -13.4397   17.6914 H   0  0  0  0  0  0
  -27.8986  -11.2687   18.9102 H   0  0  0  0  0  0
  -27.3799  -12.4901   17.7795 H   0  0  0  0  0  0
  -27.6121  -14.2400   19.4272 H   0  0  0  0  0  0
  -28.7245  -12.1887   21.4010 H   0  0  0  0  0  0
  -28.4082  -13.8719   21.7582 H   0  0  0  0  0  0
  -25.2724   -9.5689   22.4724 H   0  0  0  0  0  0
  -23.9973   -7.4634   22.7465 H   0  0  0  0  0  0
  -21.0826   -8.8695   19.8929 H   0  0  0  0  0  0
  -22.3636  -10.9601   19.6122 H   0  0  0  0  0  0
  -21.2033   -7.6133   23.9691 H   0  0  0  0  0  0
  -21.1485   -6.0513   25.9067 H   0  0  0  0  0  0
  -22.0607   -2.7585   23.2839 H   0  0  0  0  0  0
  -22.4107  -11.9865   22.4848 H   0  0  0  0  0  0
  -21.1053  -13.1138   22.2537 H   0  0  0  0  0  0
  -24.6444  -15.8348   20.5270 H   0  0  0  0  0  0
  -26.2579  -15.6355   20.0712 H   0  0  0  0  0  0
  -26.7178  -32.5430   23.1100 H   0  0  0  0  0  0
  -25.0040  -33.9721   25.0418 H   0  0  0  0  0  0
  -22.7223  -31.2933   21.3715 H   0  0  0  0  0  0
  -23.3737  -35.9595   23.3336 H   0  0  0  0  0  0
  -24.3561  -36.8875   22.2071 H   0  0  0  0  0  0
  -23.7190  -37.6470   23.6652 H   0  0  0  0  0  0
  -26.0967  -31.5283   20.5878 H   0  0  0  0  0  0
  -26.8598  -30.8406   21.9862 H   0  0  0  0  0  0
  -28.1478  -28.9629   21.1362 H   0  0  0  0  0  0
  -26.0064  -25.8859   19.0056 H   0  0  0  0  0  0
  -23.9819  -27.2783   19.0217 H   0  0  0  0  0  0
  -23.7934  -30.5716   19.3915 H   0  0  0  0  0  0
  -22.7734  -29.2350   19.8466 H   0  0  0  0  0  0
  -25.1257  -36.1923   25.0849 H   0  0  0  0  0  0
  -21.0013  -28.3268   24.1337 H   0  0  0  0  0  0
  -20.5583  -26.2340   23.3616 H   0  0  0  0  0  0
  -21.6639  -26.7360   22.1226 H   0  0  0  0  0  0
  -19.6878  -25.6279   21.1244 H   0  0  0  0  0  0
  -19.6655  -27.3171   20.6692 H   0  0  0  0  0  0
  -17.4181  -26.6677   21.4043 H   0  0  0  0  0  0
  -18.0323  -26.0093   22.9036 H   0  0  0  0  0  0
  -19.8011  -30.7249   24.2252 H   0  0  0  0  0  0
  -17.5099  -31.6265   24.5189 H   0  0  0  0  0  0
  -15.5404  -30.3035   23.7614 H   0  0  0  0  0  0
  -15.8693  -28.0850   22.7013 H   0  0  0  0  0  0
  -24.5883  -30.7049   25.7791 H   0  0  0  0  0  0
  -24.8817  -32.2935   26.4785 H   0  0  0  0  0  0
  -25.7992  -30.9018   27.0267 H   0  0  0  0  0  0
  -26.2889  -29.6832   24.1079 H   0  0  0  0  0  0
  -27.3986  -29.7218   25.4585 H   0  0  0  0  0  0
  -27.8746  -30.4387   23.9380 H   0  0  0  0  0  0
  -27.2687  -33.3644   26.1992 H   0  0  0  0  0  0
  -28.3849  -32.6829   25.0274 H   0  0  0  0  0  0
  -28.0691  -31.8464   26.5423 H   0  0  0  0  0  0
  -28.2561  -38.0071   24.7508 H   0  0  0  0  0  0
  -28.1051  -36.2591   24.6309 H   0  0  0  0  0  0
  -27.2287  -37.1441   25.8894 H   0  0  0  0  0  0
  -20.9420  -29.8956   21.7004 H   0  0  0  0  0  0
  -26.0141  -38.2862   24.1477 H   0  0  0  0  0  0
  -29.8214  -20.9015   22.5276 H   0  0  0  0  0  0
  -30.3592  -16.6595   22.8057 H   0  0  0  0  0  0
  -29.3516  -18.4460   18.9940 H   0  0  0  0  0  0
  -31.6285  -23.8229   18.1168 H   0  0  0  0  0  0
  -30.4920  -25.2142   18.5213 H   0  0  0  0  0  0
  -28.6494  -22.4749   21.6083 H   0  0  0  0  0  0
  -27.3293  -21.9318   20.5977 H   0  0  0  0  0  0
  -27.7531  -23.6102   18.9606 H   0  0  0  0  0  0
  -31.4624  -19.1123   24.4187 H   0  0  0  0  0  0
  -30.0667  -18.0993   24.8303 H   0  0  0  0  0  0
  -29.8720  -19.8416   24.6396 H   0  0  0  0  0  0
  -27.3359  -24.9364   21.0932 H   0  0  0  0  0  0
  -29.0275  -25.0093   21.3890 H   0  0  0  0  0  0
  -28.8088  -15.6741   20.1001 H   0  0  0  0  0  0
  1 25  1  0  0  0
  1 30  2  0  0  0
  1 85  1  0  0  0
  2  3  1  0  0  0
  2 25  1  0  0  0
  2 87  1  0  0  0
  2 88  1  0  0  0
  3  4  1  0  0  0
  3 89  1  0  0  0
  3 90  1  0  0  0
  4  5  1  0  0  0
  4 91  1  0  0  0
  4 92  1  0  0  0
  5  6  1  0  0  0
  5 26  1  0  0  0
  5 93  1  0  0  0
  6 25  1  0  0  0
  6 94  1  0  0  0
  6 95  1  0  0  0
  7  8  2  0  0  0
  7 26  1  0  0  0
  7 29  1  0  0  0
  8  9  1  0  0  0
  8 22  1  0  0  0
  9 10  1  0  0  0
  9 27  2  0  0  0
 10 11  2  0  0  0
 10 15  1  0  0  0
 11 12  1  0  0  0
 11 96  1  0  0  0
 12 13  2  0  0  0
 12 97  1  0  0  0
 13 14  1  0  0  0
 13 31  1  0  0  0
 14 15  2  0  0  0
 14 98  1  0  0  0
 15 99  1  0  0  0
 16 17  2  0  0  0
 16 21  1  0  0  0
 16 31  1  0  0  0
 17 18  1  0  0  0
 17100  1  0  0  0
 18 19  2  0  0  0
 18101  1  0  0  0
 19 20  1  0  0  0
 19 24  1  0  0  0
 20 21  2  0  0  0
 20102  1  0  0  0
 21 23  1  0  0  0
 22 28  1  0  0  0
 22 32  2  0  0  0
 26 27  1  0  0  0
 28103  1  0  0  0
 28104  1  0  0  0
 29105  1  0  0  0
 29106  1  0  0  0
 33 34  1  0  0  0
 33 66  1  0  0  0
 33 70  2  0  0  0
 34 36  1  0  0  0
 34 59  1  0  0  0
 34107  1  0  0  0
 35 44  2  0  0  0
 35 45  1  0  0  0
 35 68  1  0  0  0
 36 56  1  0  0  0
 36108  1  0  0  0
 37 39  1  0  0  0
 37 47  1  0  0  0
 37 66  1  0  0  0
 37109  1  0  0  0
 38 43  2  0  0  0
 38 46  1  0  0  0
 38 47  1  0  0  0
 39 64  1  0  0  0
 39 67  2  0  0  0
 40 52  1  0  0  0
 40 53  2  0  0  0
 40 58  1  0  0  0
 41110  1  0  0  0
 41111  1  0  0  0
 41112  1  0  0  0
 41 48  1  0  0  0
 42 43  1  0  0  0
 42 66  1  0  0  0
 42113  1  0  0  0
 42114  1  0  0  0
 43 44  1  0  0  0
 44115  1  0  0  0
 45 46  2  0  0  0
 45116  1  0  0  0
 46117  1  0  0  0
 47118  1  0  0  0
 47119  1  0  0  0
 48 56  1  0  0  0
 48 65  1  0  0  0
 48120  1  0  0  0
 49 50  1  0  0  0
 49 53  1  0  0  0
 49 64  1  0  0  0
 49121  1  0  0  0
 50 51  1  0  0  0
 50122  1  0  0  0
 50123  1  0  0  0
 51 52  1  0  0  0
 51124  1  0  0  0
 51125  1  0  0  0
 52126  1  0  0  0
 52127  1  0  0  0
 53 54  1  0  0  0
 54 55  2  0  0  0
 54128  1  0  0  0
 55 57  1  0  0  0
 55129  1  0  0  0
 56 69  2  0  0  0
 57 58  2  0  0  0
 57130  1  0  0  0
 58131  1  0  0  0
 59 60  1  0  0  0
 59 61  1  0  0  0
 59 62  1  0  0  0
 60132  1  0  0  0
 60133  1  0  0  0
 60134  1  0  0  0
 61135  1  0  0  0
 61136  1  0  0  0
 61137  1  0  0  0
 62138  1  0  0  0
 62139  1  0  0  0
 62140  1  0  0  0
 63 65  1  0  0  0
 63141  1  0  0  0
 63142  1  0  0  0
 63143  1  0  0  0
 64144  1  0  0  0
 65145  1  0  0  0
 68 83  1  0  0  0
 71 74  2  0  0  0
 71 75  1  0  0  0
 71146  1  0  0  0
 72 74  1  0  0  0
 72 76  2  0  0  0
 72147  1  0  0  0
 73 75  2  0  0  0
 73 76  1  0  0  0
 73148  1  0  0  0
 74 82  1  0  0  0
 75 84  1  0  0  0
 76 85  1  0  0  0
 77 78  1  0  0  0
 77 79  2  0  0  0
 77 81  1  0  0  0
 78 84  1  0  0  0
 78 86  2  0  0  0
 79149  1  0  0  0
 79150  1  0  0  0
 80 81  1  0  0  0
 80 84  1  0  0  0
 80151  1  0  0  0
 80152  1  0  0  0
 81 83  1  0  0  0
 81153  1  0  0  0
 82154  1  0  0  0
 82155  1  0  0  0
 82156  1  0  0  0
 83157  1  0  0  0
 83158  1  0  0  0
 85159  1  0  0  0
M  ISO  4   1 100  68 101  83 101  85 100
M  END
> <chiral flag>
0

> <version>
0

> <s_m_source_file>
/data/baiqing/PycharmProjects/Reinvent-master-3.2/result/LINK_invent/BTK/process_docking_weight1_custom_product_contain_oxygen_bond_distance_aromatic_linkinvent_7_9_3/rearranged_h_0066.sdf

> <i_m_source_file_index>
73

> <r_mmod_Potential_Energy-OPLS-2005>
360.882385253906

> <r_mmod_Stretch_Energy-OPLS-2005>
132.002075195312

> <r_mmod_Bend_Energy-OPLS-2005>
216.125625610352

> <r_mmod_Torsional_Energy-OPLS-2005>
329.489959716797

> <r_mmod_Improper_Torsional_Energy-OPLS-2005>
12.8953218460083

> <r_mmod_Van_der_Waal_Energy-OPLS-2005>
125.389801025391

> <r_mmod_Electrostatic_Energy-OPLS-2005>
-322.768615722656

> <r_mmod_Solvation_Energy-OPLS-2005>
-225.049728393555

> <b_mmod_Minimization_Converged-OPLS-2005>
0

> <r_mmod_RMS_Derivative-OPLS-2005>
5.21878671646118

$$$$
74
                    3D
 Structure written by MMmdl.
163171  0  0  1  0            999 V2000
  -30.5208  -15.0487   20.4033 C   0  0  0  0  0  0
  -30.4391  -12.6603   19.4953 C   0  0  0  0  0  0
  -29.5220  -12.5413   18.2560 C   0  0  0  0  0  0
  -28.0602  -12.3090   18.6808 C   0  0  0  0  0  0
  -27.6211  -13.2582   19.8260 C   0  0  2  0  0  0
  -28.6651  -13.3439   20.9589 C   0  0  0  0  0  0
  -25.2429  -13.8227   20.5713 C   0  0  0  0  0  0
  -24.1766  -13.0435   20.9242 C   0  0  0  0  0  0
  -24.6401  -11.6926   20.8761 C   0  0  0  0  0  0
  -23.9088  -10.4291   21.0405 C   0  0  0  0  0  0
  -24.3631   -9.4206   21.9185 C   0  0  0  0  0  0
  -23.6299   -8.2245   22.0756 C   0  0  0  0  0  0
  -22.4282   -8.0284   21.3544 C   0  0  0  0  0  0
  -21.9922   -9.0259   20.4648 C   0  0  0  0  0  0
  -22.7258  -10.2135   20.3056 C   0  0  0  0  0  0
  -21.6855   -6.0738   22.5280 C   0  0  0  0  0  0
  -21.4014   -6.5641   23.8212 C   0  0  0  0  0  0
  -21.3657   -5.6793   24.9176 C   0  0  0  0  0  0
  -21.6041   -4.3056   24.7226 C   0  0  0  0  0  0
  -21.8818   -3.8148   23.4347 C   0  0  0  0  0  0
  -21.9193   -4.6965   22.3404 C   0  0  0  0  0  0
  -22.7783  -13.5197   21.1894 C   0  0  0  0  0  0
  -22.1662   -4.2148   21.0982 F   0  0  0  0  0  0
  -21.5627   -3.4541   25.7741 F   0  0  0  0  0  0
  -29.9232  -13.7814   20.3400 N   0  0  0  0  0  0
  -26.2855  -12.9479   20.3209 N   0  0  0  0  0  0
  -25.9334  -11.6600   20.5725 N   0  0  0  0  0  0
  -22.0436  -12.8184   22.0448 N   0  0  0  0  0  0
  -25.4059  -15.1958   20.4128 N   0  0  0  0  0  0
  -31.7405  -15.0681   20.1981 O   0  0  0  0  0  0
  -21.6642   -6.8882   21.4242 O   0  0  0  0  0  0
  -22.3467  -14.5501   20.6733 O   0  0  0  0  0  0
  -24.6512  -31.8381   23.1821 C   0  0  0  0  0  0
  -25.9251  -32.4662   23.8232 C   0  0  1  0  0  0
  -27.2154  -27.0622   20.1622 C   0  0  0  0  0  0
  -25.5975  -33.8470   24.2150 N   0  0  0  0  0  0
  -23.4586  -30.4552   21.5290 C   0  0  2  0  0  0
  -24.9095  -28.8694   20.1119 C   0  0  0  0  0  0
  -22.7606  -29.4519   22.4828 C   0  0  0  0  0  0
  -18.0317  -28.1400   22.8471 C   0  0  0  0  0  0
  -24.1496  -36.7240   23.2644 C   0  0  0  0  0  0
  -26.0206  -30.6876   21.3925 C   0  0  0  0  0  0
  -26.0908  -29.2919   20.7350 C   0  0  0  0  0  0
  -27.2440  -28.4070   20.7389 C   0  0  0  0  0  0
  -26.0064  -26.7637   19.4943 C   0  0  0  0  0  0
  -24.8849  -27.6220   19.4732 C   0  0  0  0  0  0
  -23.6902  -29.7807   20.1509 C   0  0  0  0  0  0
  -25.4130  -36.3015   24.0313 C   0  0  1  0  0  0
  -20.5935  -28.3740   23.1212 C   0  0  2  0  0  0
  -20.6801  -26.9434   22.5403 C   0  0  0  0  0  0
  -19.5775  -26.6380   21.5212 C   0  0  0  0  0  0
  -18.1954  -26.7937   22.1619 C   0  0  0  0  0  0
  -19.1573  -28.8888   23.2830 C   0  0  0  0  0  0
  -18.9489  -30.1476   23.8868 C   0  0  0  0  0  0
  -17.6483  -30.6593   24.0557 C   0  0  0  0  0  0
  -25.9090  -34.9392   23.5042 C   0  0  0  0  0  0
  -16.5375  -29.9085   23.6338 C   0  0  0  0  0  0
  -16.7298  -28.6501   23.0359 C   0  0  0  0  0  0
  -26.4542  -31.6553   25.0703 C   0  0  0  0  0  0
  -25.3700  -31.3758   26.1378 C   0  0  0  0  0  0
  -27.0422  -30.2942   24.6335 C   0  0  0  0  0  0
  -27.6065  -32.4330   25.7496 C   0  0  0  0  0  0
  -27.5577  -37.1770   24.8461 C   0  0  0  0  0  0
  -21.4293  -29.3052   22.3572 N   0  0  0  0  0  0
  -26.4285  -37.3737   23.9411 N   0  0  0  0  0  0
  -24.7305  -31.0164   22.0892 N   0  0  0  0  0  0
  -23.4213  -28.8073   23.3007 O   0  0  0  0  0  0
  -28.2414  -26.0245   20.2258 O   0  0  0  0  0  0
  -26.5680  -34.8903   22.4626 O   0  0  0  0  0  0
  -23.5615  -32.1297   23.6989 O   0  0  0  0  0  0
  -31.6720  -19.4034   21.5553 C   0  0  0  0  0  0
  -31.3104  -18.0933   21.1848 C   0  0  0  0  0  0
  -29.2470  -19.0406   20.3467 C   0  0  0  0  0  0
  -30.8602  -20.5546   21.3594 C   0  0  0  0  0  0
  -30.0647  -17.7923   20.6084 C   0  0  0  0  0  0
  -29.6064  -20.4810   20.6602 C   0  0  0  0  0  0
  -31.3347  -21.7664   22.0949 C   0  0  0  0  0  0
  -33.3515  -23.7598   23.6666 C   0  0  0  0  0  0
  -29.0130  -23.2092   20.2503 C   0  0  0  0  0  0
  -33.5895  -25.1812   24.1749 C   0  0  0  0  0  0
  -33.0142  -24.6806   21.3985 C   0  0  0  0  0  0
  -32.7805  -22.2271   21.8189 C   0  0  0  0  0  0
  -27.8920  -24.4702   20.1965 C   0  0  0  0  0  0
  -28.7514  -21.7873   20.4110 N   0  0  0  0  0  0
  -29.7455  -16.2712   20.4308 N   0  0  0  0  0  0
  -33.0620  -23.5711   22.3577 N   0  0  0  0  0  0
  -30.6173  -22.3761   22.8970 O   0  0  0  0  0  0
  -33.4287  -22.8270   24.4710 O   0  0  0  0  0  0
  -30.1772  -23.5628   20.0550 O   0  0  0  0  0  0
  -31.4669  -12.8341   19.1740 H   0  0  0  0  0  0
  -30.4575  -11.7263   20.0587 H   0  0  0  0  0  0
  -29.8588  -11.7309   17.6085 H   0  0  0  0  0  0
  -29.5891  -13.4555   17.6635 H   0  0  0  0  0  0
  -27.9758  -11.2727   19.0102 H   0  0  0  0  0  0
  -27.3937  -12.4119   17.8233 H   0  0  0  0  0  0
  -27.5639  -14.2468   19.3696 H   0  0  0  0  0  0
  -28.7802  -12.3867   21.4693 H   0  0  0  0  0  0
  -28.3496  -14.0662   21.7135 H   0  0  0  0  0  0
  -25.2773   -9.5681   22.4768 H   0  0  0  0  0  0
  -24.0003   -7.4638   22.7480 H   0  0  0  0  0  0
  -21.0852   -8.8784   19.8958 H   0  0  0  0  0  0
  -22.3714  -10.9676   19.6170 H   0  0  0  0  0  0
  -21.2007   -7.6150   23.9714 H   0  0  0  0  0  0
  -21.1476   -6.0526   25.9074 H   0  0  0  0  0  0
  -22.0597   -2.7611   23.2851 H   0  0  0  0  0  0
  -22.4061  -11.9853   22.4841 H   0  0  0  0  0  0
  -21.1046  -13.1199   22.2645 H   0  0  0  0  0  0
  -24.6322  -15.8422   20.5223 H   0  0  0  0  0  0
  -26.2414  -15.6392   20.0555 H   0  0  0  0  0  0
  -26.7319  -32.5244   23.0954 H   0  0  0  0  0  0
  -25.0094  -33.9573   25.0281 H   0  0  0  0  0  0
  -22.7656  -31.2839   21.3681 H   0  0  0  0  0  0
  -23.3772  -35.9556   23.3281 H   0  0  0  0  0  0
  -24.3581  -36.8908   22.2063 H   0  0  0  0  0  0
  -23.7240  -37.6422   23.6707 H   0  0  0  0  0  0
  -26.1861  -31.4370   20.6174 H   0  0  0  0  0  0
  -26.8879  -30.7406   22.0389 H   0  0  0  0  0  0
  -28.1420  -28.7263   21.2489 H   0  0  0  0  0  0
  -25.8875  -25.8170   18.9911 H   0  0  0  0  0  0
  -23.9865  -27.2959   18.9666 H   0  0  0  0  0  0
  -23.8344  -30.5539   19.3955 H   0  0  0  0  0  0
  -22.8033  -29.2275   19.8360 H   0  0  0  0  0  0
  -25.1317  -36.1835   25.0805 H   0  0  0  0  0  0
  -21.0023  -28.3348   24.1333 H   0  0  0  0  0  0
  -20.5709  -26.2350   23.3631 H   0  0  0  0  0  0
  -21.6660  -26.7442   22.1188 H   0  0  0  0  0  0
  -19.6948  -25.6285   21.1262 H   0  0  0  0  0  0
  -19.6720  -27.3170   20.6728 H   0  0  0  0  0  0
  -17.4225  -26.6686   21.4019 H   0  0  0  0  0  0
  -18.0348  -26.0084   22.9020 H   0  0  0  0  0  0
  -19.7966  -30.7289   24.2233 H   0  0  0  0  0  0
  -17.5042  -31.6272   24.5158 H   0  0  0  0  0  0
  -15.5376  -30.2976   23.7678 H   0  0  0  0  0  0
  -15.8700  -28.0807   22.7098 H   0  0  0  0  0  0
  -24.5909  -30.7085   25.7678 H   0  0  0  0  0  0
  -24.8856  -32.2942   26.4709 H   0  0  0  0  0  0
  -25.7952  -30.8992   27.0219 H   0  0  0  0  0  0
  -26.3059  -29.6642   24.1335 H   0  0  0  0  0  0
  -27.4010  -29.7270   25.4934 H   0  0  0  0  0  0
  -27.8976  -30.4161   23.9686 H   0  0  0  0  0  0
  -27.2666  -33.3671   26.1977 H   0  0  0  0  0  0
  -28.3919  -32.6822   25.0349 H   0  0  0  0  0  0
  -28.0680  -31.8518   26.5489 H   0  0  0  0  0  0
  -28.2560  -38.0096   24.7524 H   0  0  0  0  0  0
  -28.1104  -36.2624   24.6263 H   0  0  0  0  0  0
  -27.2292  -37.1381   25.8861 H   0  0  0  0  0  0
  -20.9526  -29.8749   21.6724 H   0  0  0  0  0  0
  -26.0150  -38.2803   24.1427 H   0  0  0  0  0  0
  -32.6086  -19.4944   22.0862 H   0  0  0  0  0  0
  -32.0002  -17.2987   21.4306 H   0  0  0  0  0  0
  -28.2810  -18.8833   19.8890 H   0  0  0  0  0  0
  -32.7456  -25.8270   23.9333 H   0  0  0  0  0  0
  -34.4924  -25.6021   23.7332 H   0  0  0  0  0  0
  -33.7115  -25.1868   25.2579 H   0  0  0  0  0  0
  -33.9422  -25.2535   21.4100 H   0  0  0  0  0  0
  -32.1908  -25.3556   21.6358 H   0  0  0  0  0  0
  -32.8625  -24.3439   20.3730 H   0  0  0  0  0  0
  -32.9548  -22.1881   20.7436 H   0  0  0  0  0  0
  -33.4789  -21.5123   22.2543 H   0  0  0  0  0  0
  -27.1854  -24.2911   21.0072 H   0  0  0  0  0  0
  -27.3374  -24.2800   19.2793 H   0  0  0  0  0  0
  -27.7581  -21.6010   20.3692 H   0  0  0  0  0  0
  -28.7577  -16.0794   20.3615 H   0  0  0  0  0  0
  1 25  1  0  0  0
  1 30  2  0  0  0
  1 85  1  0  0  0
  2  3  1  0  0  0
  2 25  1  0  0  0
  2 90  1  0  0  0
  2 91  1  0  0  0
  3  4  1  0  0  0
  3 92  1  0  0  0
  3 93  1  0  0  0
  4  5  1  0  0  0
  4 94  1  0  0  0
  4 95  1  0  0  0
  5  6  1  0  0  0
  5 26  1  0  0  0
  5 96  1  0  0  0
  6 25  1  0  0  0
  6 97  1  0  0  0
  6 98  1  0  0  0
  7  8  2  0  0  0
  7 26  1  0  0  0
  7 29  1  0  0  0
  8  9  1  0  0  0
  8 22  1  0  0  0
  9 10  1  0  0  0
  9 27  2  0  0  0
 10 11  2  0  0  0
 10 15  1  0  0  0
 11 12  1  0  0  0
 11 99  1  0  0  0
 12 13  2  0  0  0
 12100  1  0  0  0
 13 14  1  0  0  0
 13 31  1  0  0  0
 14 15  2  0  0  0
 14101  1  0  0  0
 15102  1  0  0  0
 16 17  2  0  0  0
 16 21  1  0  0  0
 16 31  1  0  0  0
 17 18  1  0  0  0
 17103  1  0  0  0
 18 19  2  0  0  0
 18104  1  0  0  0
 19 20  1  0  0  0
 19 24  1  0  0  0
 20 21  2  0  0  0
 20105  1  0  0  0
 21 23  1  0  0  0
 22 28  1  0  0  0
 22 32  2  0  0  0
 26 27  1  0  0  0
 28106  1  0  0  0
 28107  1  0  0  0
 29108  1  0  0  0
 29109  1  0  0  0
 33 34  1  0  0  0
 33 66  1  0  0  0
 33 70  2  0  0  0
 34 36  1  0  0  0
 34 59  1  0  0  0
 34110  1  0  0  0
 35 44  2  0  0  0
 35 45  1  0  0  0
 35 68  1  0  0  0
 36 56  1  0  0  0
 36111  1  0  0  0
 37 39  1  0  0  0
 37 47  1  0  0  0
 37 66  1  0  0  0
 37112  1  0  0  0
 38 43  2  0  0  0
 38 46  1  0  0  0
 38 47  1  0  0  0
 39 64  1  0  0  0
 39 67  2  0  0  0
 40 52  1  0  0  0
 40 53  2  0  0  0
 40 58  1  0  0  0
 41113  1  0  0  0
 41114  1  0  0  0
 41115  1  0  0  0
 41 48  1  0  0  0
 42 43  1  0  0  0
 42 66  1  0  0  0
 42116  1  0  0  0
 42117  1  0  0  0
 43 44  1  0  0  0
 44118  1  0  0  0
 45 46  2  0  0  0
 45119  1  0  0  0
 46120  1  0  0  0
 47121  1  0  0  0
 47122  1  0  0  0
 48 56  1  0  0  0
 48 65  1  0  0  0
 48123  1  0  0  0
 49 50  1  0  0  0
 49 53  1  0  0  0
 49 64  1  0  0  0
 49124  1  0  0  0
 50 51  1  0  0  0
 50125  1  0  0  0
 50126  1  0  0  0
 51 52  1  0  0  0
 51127  1  0  0  0
 51128  1  0  0  0
 52129  1  0  0  0
 52130  1  0  0  0
 53 54  1  0  0  0
 54 55  2  0  0  0
 54131  1  0  0  0
 55 57  1  0  0  0
 55132  1  0  0  0
 56 69  2  0  0  0
 57 58  2  0  0  0
 57133  1  0  0  0
 58134  1  0  0  0
 59 60  1  0  0  0
 59 61  1  0  0  0
 59 62  1  0  0  0
 60135  1  0  0  0
 60136  1  0  0  0
 60137  1  0  0  0
 61138  1  0  0  0
 61139  1  0  0  0
 61140  1  0  0  0
 62141  1  0  0  0
 62142  1  0  0  0
 62143  1  0  0  0
 63 65  1  0  0  0
 63144  1  0  0  0
 63145  1  0  0  0
 63146  1  0  0  0
 64147  1  0  0  0
 65148  1  0  0  0
 68 83  1  0  0  0
 71 72  2  0  0  0
 71 74  1  0  0  0
 71149  1  0  0  0
 72 75  1  0  0  0
 72150  1  0  0  0
 73 75  2  0  0  0
 73 76  1  0  0  0
 73151  1  0  0  0
 74 76  2  0  0  0
 74 77  1  0  0  0
 75 85  1  0  0  0
 76 84  1  0  0  0
 77 82  1  0  0  0
 77 87  2  0  0  0
 78 80  1  0  0  0
 78 86  1  0  0  0
 78 88  2  0  0  0
 79 83  1  0  0  0
 79 84  1  0  0  0
 79 89  2  0  0  0
 80152  1  0  0  0
 80153  1  0  0  0
 80154  1  0  0  0
 81 86  1  0  0  0
 81155  1  0  0  0
 81156  1  0  0  0
 81157  1  0  0  0
 82 86  1  0  0  0
 82158  1  0  0  0
 82159  1  0  0  0
 83160  1  0  0  0
 83161  1  0  0  0
 84162  1  0  0  0
 85163  1  0  0  0
M  ISO  4   1 100  68 101  83 101  85 100
M  END
> <chiral flag>
0

> <version>
0

> <s_m_source_file>
/data/baiqing/PycharmProjects/Reinvent-master-3.2/result/LINK_invent/BTK/process_docking_weight1_custom_product_contain_oxygen_bond_distance_aromatic_linkinvent_7_9_3/rearranged_h_0066.sdf

> <i_m_source_file_index>
74

> <r_mmod_Potential_Energy-OPLS-2005>
685.891174316406

> <r_mmod_Stretch_Energy-OPLS-2005>
359.331726074219

> <r_mmod_Bend_Energy-OPLS-2005>
281.197845458984

> <r_mmod_Torsional_Energy-OPLS-2005>
291.533782958984

> <r_mmod_Improper_Torsional_Energy-OPLS-2005>
7.65882015228271

> <r_mmod_Van_der_Waal_Energy-OPLS-2005>
150.251495361328

> <r_mmod_Electrostatic_Energy-OPLS-2005>
-393.902801513672

> <r_mmod_Solvation_Energy-OPLS-2005>
-279.430603027344

> <b_mmod_Minimization_Converged-OPLS-2005>
0

> <r_mmod_RMS_Derivative-OPLS-2005>
0.887879252433777

$$$$
75
                    3D
 Structure written by MMmdl.
156165  0  0  1  0            999 V2000
  -30.6167  -14.7648   20.4352 C   0  0  0  0  0  0
  -30.4447  -12.4582   19.4856 C   0  0  0  0  0  0
  -29.5222  -12.4757   18.2443 C   0  0  0  0  0  0
  -28.0436  -12.3273   18.6513 C   0  0  0  0  0  0
  -27.6470  -13.2350   19.8467 C   0  0  2  0  0  0
  -28.6909  -13.1848   20.9832 C   0  0  0  0  0  0
  -25.2556  -13.8193   20.5686 C   0  0  0  0  0  0
  -24.1836  -13.0444   20.9192 C   0  0  0  0  0  0
  -24.6428  -11.6919   20.8737 C   0  0  0  0  0  0
  -23.9107  -10.4290   21.0403 C   0  0  0  0  0  0
  -24.3641   -9.4200   21.9184 C   0  0  0  0  0  0
  -23.6299   -8.2240   22.0747 C   0  0  0  0  0  0
  -22.4277   -8.0284   21.3545 C   0  0  0  0  0  0
  -21.9930   -9.0269   20.4653 C   0  0  0  0  0  0
  -22.7276  -10.2134   20.3063 C   0  0  0  0  0  0
  -21.6850   -6.0736   22.5279 C   0  0  0  0  0  0
  -21.4010   -6.5632   23.8215 C   0  0  0  0  0  0
  -21.3665   -5.6783   24.9170 C   0  0  0  0  0  0
  -21.6041   -4.3053   24.7212 C   0  0  0  0  0  0
  -21.8827   -3.8151   23.4338 C   0  0  0  0  0  0
  -21.9196   -4.6968   22.3396 C   0  0  0  0  0  0
  -22.7860  -13.5239   21.1860 C   0  0  0  0  0  0
  -22.1667   -4.2166   21.0969 F   0  0  0  0  0  0
  -21.5638   -3.4528   25.7723 F   0  0  0  0  0  0
  -29.9954  -13.5326   20.4045 N   0  0  0  0  0  0
  -26.2979  -12.9406   20.3262 N   0  0  0  0  0  0
  -25.9356  -11.6552   20.5739 N   0  0  0  0  0  0
  -22.0507  -12.8224   22.0411 N   0  0  0  0  0  0
  -25.4289  -15.1902   20.4103 N   0  0  0  0  0  0
  -31.8117  -14.8487   20.1344 O   0  0  0  0  0  0
  -21.6637   -6.8882   21.4241 O   0  0  0  0  0  0
  -22.3554  -14.5552   20.6720 O   0  0  0  0  0  0
  -24.6356  -31.8540   23.1992 C   0  0  0  0  0  0
  -25.9170  -32.4746   23.8335 C   0  0  1  0  0  0
  -27.2255  -27.2401   20.1218 C   0  0  0  0  0  0
  -25.5967  -33.8550   24.2261 N   0  0  0  0  0  0
  -23.4340  -30.4767   21.5447 C   0  0  2  0  0  0
  -24.8834  -28.9290   20.1107 C   0  0  0  0  0  0
  -22.7526  -29.4583   22.4922 C   0  0  0  0  0  0
  -18.0295  -28.1391   22.8484 C   0  0  0  0  0  0
  -24.1486  -36.7270   23.2634 C   0  0  0  0  0  0
  -25.9844  -30.7579   21.3865 C   0  0  0  0  0  0
  -26.0580  -29.3812   20.7250 C   0  0  0  0  0  0
  -27.2295  -28.5483   20.7258 C   0  0  0  0  0  0
  -26.0281  -26.8866   19.4492 C   0  0  0  0  0  0
  -24.8754  -27.6895   19.4631 C   0  0  0  0  0  0
  -23.6533  -29.8134   20.1611 C   0  0  0  0  0  0
  -25.4110  -36.3060   24.0323 C   0  0  1  0  0  0
  -20.5902  -28.3700   23.1266 C   0  0  2  0  0  0
  -20.6777  -26.9414   22.5405 C   0  0  0  0  0  0
  -19.5745  -26.6379   21.5220 C   0  0  0  0  0  0
  -18.1930  -26.7933   22.1632 C   0  0  0  0  0  0
  -19.1552  -28.8866   23.2863 C   0  0  0  0  0  0
  -18.9469  -30.1474   23.8865 C   0  0  0  0  0  0
  -17.6467  -30.6592   24.0556 C   0  0  0  0  0  0
  -25.9059  -34.9432   23.5087 C   0  0  0  0  0  0
  -16.5356  -29.9080   23.6346 C   0  0  0  0  0  0
  -16.7279  -28.6502   23.0357 C   0  0  0  0  0  0
  -26.4517  -31.6582   25.0741 C   0  0  0  0  0  0
  -25.3732  -31.3772   26.1459 C   0  0  0  0  0  0
  -27.0370  -30.2982   24.6278 C   0  0  0  0  0  0
  -27.6059  -32.4334   25.7527 C   0  0  0  0  0  0
  -27.5579  -37.1780   24.8456 C   0  0  0  0  0  0
  -21.4227  -29.3044   22.3661 N   0  0  0  0  0  0
  -26.4280  -37.3763   23.9416 N   0  0  0  0  0  0
  -24.7037  -31.0472   22.0996 N   0  0  0  0  0  0
  -23.4212  -28.8118   23.3029 O   0  0  0  0  0  0
  -28.2908  -26.2933   20.2124 O   0  0  0  0  0  0
  -26.5616  -34.8909   22.4646 O   0  0  0  0  0  0
  -23.5495  -32.1375   23.7269 O   0  0  0  0  0  0
  -29.8821  -19.6778   18.4022 C   0  0  0  0  0  0
  -30.0304  -18.4277   17.7843 C   0  0  0  0  0  0
  -29.6428  -23.2303   21.3396 C   0  0  0  0  0  0
  -29.6742  -18.5563   20.5484 C   0  0  0  0  0  0
  -28.7802  -23.5244   20.2327 C   0  0  0  0  0  0
  -29.6439  -19.8103   19.7860 C   0  0  0  0  0  0
  -29.9914  -17.2305   18.5185 C   0  0  0  0  0  0
  -29.8840  -17.2343   19.9369 C   0  0  0  0  0  0
  -29.9943  -21.8892   21.3275 C   0  0  0  0  0  0
  -28.6819  -22.2668   19.6176 C   0  0  0  0  0  0
  -27.9796  -24.8614   19.8327 C   0  0  0  0  0  0
  -29.4245  -21.2180   20.2472 N   0  0  0  0  0  0
  -29.9817  -16.0523   17.7748 N   0  0  0  0  0  0
  -29.8442  -15.9083   20.6338 N   0  0  0  0  0  0
  -30.8071  -21.2223   22.1942 O   0  0  0  0  0  0
  -27.9440  -21.9694   18.5103 O   0  0  0  0  0  0
  -31.4847  -12.5810   19.1789 H   0  0  0  0  0  0
  -30.3984  -11.4896   19.9859 H   0  0  0  0  0  0
  -29.8025  -11.6733   17.5595 H   0  0  0  0  0  0
  -29.6621  -13.4009   17.6894 H   0  0  0  0  0  0
  -27.8859  -11.2806   18.9145 H   0  0  0  0  0  0
  -27.3970  -12.5254   17.7955 H   0  0  0  0  0  0
  -27.6394  -14.2531   19.4550 H   0  0  0  0  0  0
  -28.7282  -12.1934   21.4376 H   0  0  0  0  0  0
  -28.4211  -13.8761   21.7821 H   0  0  0  0  0  0
  -25.2780   -9.5660   22.4768 H   0  0  0  0  0  0
  -24.0011   -7.4620   22.7444 H   0  0  0  0  0  0
  -21.0871   -8.8800   19.8947 H   0  0  0  0  0  0
  -22.3753  -10.9674   19.6174 H   0  0  0  0  0  0
  -21.2001   -7.6142   23.9718 H   0  0  0  0  0  0
  -21.1485   -6.0509   25.9075 H   0  0  0  0  0  0
  -22.0611   -2.7617   23.2816 H   0  0  0  0  0  0
  -22.4108  -11.9863   22.4780 H   0  0  0  0  0  0
  -21.1141  -13.1271   22.2641 H   0  0  0  0  0  0
  -24.6613  -15.8463   20.5025 H   0  0  0  0  0  0
  -26.2817  -15.6234   20.0789 H   0  0  0  0  0  0
  -26.7242  -32.5381   23.1080 H   0  0  0  0  0  0
  -25.0167  -33.9686   25.0445 H   0  0  0  0  0  0
  -22.7319  -31.2998   21.3983 H   0  0  0  0  0  0
  -23.3757  -35.9595   23.3284 H   0  0  0  0  0  0
  -24.3583  -36.8901   22.2053 H   0  0  0  0  0  0
  -23.7228  -37.6460   23.6663 H   0  0  0  0  0  0
  -26.1270  -31.5175   20.6159 H   0  0  0  0  0  0
  -26.8592  -30.8060   22.0226 H   0  0  0  0  0  0
  -28.1214  -28.8871   21.2348 H   0  0  0  0  0  0
  -25.9272  -25.9567   18.9121 H   0  0  0  0  0  0
  -23.9816  -27.3388   18.9666 H   0  0  0  0  0  0
  -23.7755  -30.5892   19.4046 H   0  0  0  0  0  0
  -22.7723  -29.2439   19.8579 H   0  0  0  0  0  0
  -25.1290  -36.1899   25.0816 H   0  0  0  0  0  0
  -20.9995  -28.3272   24.1384 H   0  0  0  0  0  0
  -20.5699  -26.2304   23.3612 H   0  0  0  0  0  0
  -21.6638  -26.7441   22.1186 H   0  0  0  0  0  0
  -19.6900  -25.6283   21.1267 H   0  0  0  0  0  0
  -19.6688  -27.3175   20.6741 H   0  0  0  0  0  0
  -17.4204  -26.6693   21.4023 H   0  0  0  0  0  0
  -18.0316  -26.0077   22.9030 H   0  0  0  0  0  0
  -19.7944  -30.7309   24.2201 H   0  0  0  0  0  0
  -17.5017  -31.6269   24.5154 H   0  0  0  0  0  0
  -15.5349  -30.2966   23.7685 H   0  0  0  0  0  0
  -15.8685  -28.0816   22.7074 H   0  0  0  0  0  0
  -24.5901  -30.7119   25.7802 H   0  0  0  0  0  0
  -24.8934  -32.2962   26.4832 H   0  0  0  0  0  0
  -25.8033  -30.8991   27.0268 H   0  0  0  0  0  0
  -26.2978  -29.6727   24.1260 H   0  0  0  0  0  0
  -27.3966  -29.7250   25.4833 H   0  0  0  0  0  0
  -27.8893  -30.4218   23.9596 H   0  0  0  0  0  0
  -27.2647  -33.3636   26.2080 H   0  0  0  0  0  0
  -28.3885  -32.6890   25.0374 H   0  0  0  0  0  0
  -28.0712  -31.8485   26.5467 H   0  0  0  0  0  0
  -28.2564  -38.0111   24.7547 H   0  0  0  0  0  0
  -28.1109  -36.2639   24.6224 H   0  0  0  0  0  0
  -27.2308  -37.1366   25.8862 H   0  0  0  0  0  0
  -20.9430  -29.8774   21.6862 H   0  0  0  0  0  0
  -26.0155  -38.2831   24.1439 H   0  0  0  0  0  0
  -29.9176  -20.5564   17.7757 H   0  0  0  0  0  0
  -30.1397  -18.4021   16.7090 H   0  0  0  0  0  0
  -29.9634  -23.9401   22.0879 H   0  0  0  0  0  0
  -29.5225  -18.6178   21.6161 H   0  0  0  0  0  0
  -26.9857  -24.6305   20.2142 H   0  0  0  0  0  0
  -27.9118  -24.8457   18.7445 H   0  0  0  0  0  0
  -29.7515  -16.1300   16.7902 H   0  0  0  0  0  0
  -29.5372  -15.2547   18.2057 H   0  0  0  0  0  0
  -28.9745  -15.7232   21.1084 H   0  0  0  0  0  0
  -31.1512  -21.8523   22.8210 H   0  0  0  0  0  0
  -27.6591  -22.7846   18.1127 H   0  0  0  0  0  0
  1 25  1  0  0  0
  1 30  2  0  0  0
  1 84  1  0  0  0
  2  3  1  0  0  0
  2 25  1  0  0  0
  2 87  1  0  0  0
  2 88  1  0  0  0
  3  4  1  0  0  0
  3 89  1  0  0  0
  3 90  1  0  0  0
  4  5  1  0  0  0
  4 91  1  0  0  0
  4 92  1  0  0  0
  5  6  1  0  0  0
  5 26  1  0  0  0
  5 93  1  0  0  0
  6 25  1  0  0  0
  6 94  1  0  0  0
  6 95  1  0  0  0
  7  8  2  0  0  0
  7 26  1  0  0  0
  7 29  1  0  0  0
  8  9  1  0  0  0
  8 22  1  0  0  0
  9 10  1  0  0  0
  9 27  2  0  0  0
 10 11  2  0  0  0
 10 15  1  0  0  0
 11 12  1  0  0  0
 11 96  1  0  0  0
 12 13  2  0  0  0
 12 97  1  0  0  0
 13 14  1  0  0  0
 13 31  1  0  0  0
 14 15  2  0  0  0
 14 98  1  0  0  0
 15 99  1  0  0  0
 16 17  2  0  0  0
 16 21  1  0  0  0
 16 31  1  0  0  0
 17 18  1  0  0  0
 17100  1  0  0  0
 18 19  2  0  0  0
 18101  1  0  0  0
 19 20  1  0  0  0
 19 24  1  0  0  0
 20 21  2  0  0  0
 20102  1  0  0  0
 21 23  1  0  0  0
 22 28  1  0  0  0
 22 32  2  0  0  0
 26 27  1  0  0  0
 28103  1  0  0  0
 28104  1  0  0  0
 29105  1  0  0  0
 29106  1  0  0  0
 33 34  1  0  0  0
 33 66  1  0  0  0
 33 70  2  0  0  0
 34 36  1  0  0  0
 34 59  1  0  0  0
 34107  1  0  0  0
 35 44  2  0  0  0
 35 45  1  0  0  0
 35 68  1  0  0  0
 36 56  1  0  0  0
 36108  1  0  0  0
 37 39  1  0  0  0
 37 47  1  0  0  0
 37 66  1  0  0  0
 37109  1  0  0  0
 38 43  2  0  0  0
 38 46  1  0  0  0
 38 47  1  0  0  0
 39 64  1  0  0  0
 39 67  2  0  0  0
 40 52  1  0  0  0
 40 53  2  0  0  0
 40 58  1  0  0  0
 41110  1  0  0  0
 41111  1  0  0  0
 41112  1  0  0  0
 41 48  1  0  0  0
 42 43  1  0  0  0
 42 66  1  0  0  0
 42113  1  0  0  0
 42114  1  0  0  0
 43 44  1  0  0  0
 44115  1  0  0  0
 45 46  2  0  0  0
 45116  1  0  0  0
 46117  1  0  0  0
 47118  1  0  0  0
 47119  1  0  0  0
 48 56  1  0  0  0
 48 65  1  0  0  0
 48120  1  0  0  0
 49 50  1  0  0  0
 49 53  1  0  0  0
 49 64  1  0  0  0
 49121  1  0  0  0
 50 51  1  0  0  0
 50122  1  0  0  0
 50123  1  0  0  0
 51 52  1  0  0  0
 51124  1  0  0  0
 51125  1  0  0  0
 52126  1  0  0  0
 52127  1  0  0  0
 53 54  1  0  0  0
 54 55  2  0  0  0
 54128  1  0  0  0
 55 57  1  0  0  0
 55129  1  0  0  0
 56 69  2  0  0  0
 57 58  2  0  0  0
 57130  1  0  0  0
 58131  1  0  0  0
 59 60  1  0  0  0
 59 61  1  0  0  0
 59 62  1  0  0  0
 60132  1  0  0  0
 60133  1  0  0  0
 60134  1  0  0  0
 61135  1  0  0  0
 61136  1  0  0  0
 61137  1  0  0  0
 62138  1  0  0  0
 62139  1  0  0  0
 62140  1  0  0  0
 63 65  1  0  0  0
 63141  1  0  0  0
 63142  1  0  0  0
 63143  1  0  0  0
 64144  1  0  0  0
 65145  1  0  0  0
 68 81  1  0  0  0
 71 72  2  0  0  0
 71 76  1  0  0  0
 71146  1  0  0  0
 72 77  1  0  0  0
 72147  1  0  0  0
 73 75  1  0  0  0
 73 79  2  0  0  0
 73148  1  0  0  0
 74 76  2  0  0  0
 74 78  1  0  0  0
 74149  1  0  0  0
 75 80  2  0  0  0
 75 81  1  0  0  0
 76 82  1  0  0  0
 77 78  2  0  0  0
 77 83  1  0  0  0
 78 84  1  0  0  0
 79 82  1  0  0  0
 79 85  1  0  0  0
 80 82  1  0  0  0
 80 86  1  0  0  0
 81150  1  0  0  0
 81151  1  0  0  0
 83152  1  0  0  0
 83153  1  0  0  0
 84154  1  0  0  0
 85155  1  0  0  0
 86156  1  0  0  0
M  ISO  4   1 100  68 101  81 101  84 100
M  END
> <chiral flag>
0

> <version>
0

> <s_m_source_file>
/data/baiqing/PycharmProjects/Reinvent-master-3.2/result/LINK_invent/BTK/process_docking_weight1_custom_product_contain_oxygen_bond_distance_aromatic_linkinvent_7_9_3/rearranged_h_0066.sdf

> <i_m_source_file_index>
75

> <r_mmod_Potential_Energy-OPLS-2005>
153.957153320312

> <r_mmod_Stretch_Energy-OPLS-2005>
140.892776489258

> <r_mmod_Bend_Energy-OPLS-2005>
184.476119995117

> <r_mmod_Torsional_Energy-OPLS-2005>
265.456237792969

> <r_mmod_Improper_Torsional_Energy-OPLS-2005>
10.4688282012939

> <r_mmod_Van_der_Waal_Energy-OPLS-2005>
150.130340576172

> <r_mmod_Electrostatic_Energy-OPLS-2005>
-443.603302001953

> <r_mmod_Solvation_Energy-OPLS-2005>
-255.29541015625

> <b_mmod_Minimization_Converged-OPLS-2005>
0

> <r_mmod_RMS_Derivative-OPLS-2005>
2.59475469589233

$$$$
76
                    3D
 Structure written by MMmdl.
159168  0  0  1  0            999 V2000
  -30.6178  -14.7697   20.4600 C   0  0  0  0  0  0
  -30.4297  -12.4736   19.4725 C   0  0  0  0  0  0
  -29.5076  -12.5091   18.2346 C   0  0  0  0  0  0
  -28.0353  -12.3289   18.6514 C   0  0  0  0  0  0
  -27.6378  -13.2358   19.8466 C   0  0  2  0  0  0
  -28.6847  -13.1913   20.9806 C   0  0  0  0  0  0
  -25.2492  -13.8203   20.5701 C   0  0  0  0  0  0
  -24.1793  -13.0440   20.9218 C   0  0  0  0  0  0
  -24.6393  -11.6921   20.8756 C   0  0  0  0  0  0
  -23.9074  -10.4292   21.0410 C   0  0  0  0  0  0
  -24.3623   -9.4206   21.9186 C   0  0  0  0  0  0
  -23.6296   -8.2242   22.0754 C   0  0  0  0  0  0
  -22.4278   -8.0281   21.3545 C   0  0  0  0  0  0
  -21.9917   -9.0256   20.4646 C   0  0  0  0  0  0
  -22.7248  -10.2135   20.3057 C   0  0  0  0  0  0
  -21.6854   -6.0735   22.5279 C   0  0  0  0  0  0
  -21.4016   -6.5639   23.8211 C   0  0  0  0  0  0
  -21.3659   -5.6793   24.9173 C   0  0  0  0  0  0
  -21.6044   -4.3055   24.7225 C   0  0  0  0  0  0
  -21.8818   -3.8147   23.4346 C   0  0  0  0  0  0
  -21.9192   -4.6964   22.3402 C   0  0  0  0  0  0
  -22.7812  -13.5216   21.1874 C   0  0  0  0  0  0
  -22.1661   -4.2150   21.0980 F   0  0  0  0  0  0
  -21.5628   -3.4539   25.7737 F   0  0  0  0  0  0
  -29.9793  -13.5487   20.3888 N   0  0  0  0  0  0
  -26.2919  -12.9420   20.3277 N   0  0  0  0  0  0
  -25.9325  -11.6558   20.5759 N   0  0  0  0  0  0
  -22.0462  -12.8201   22.0430 N   0  0  0  0  0  0
  -25.4158  -15.1930   20.4111 N   0  0  0  0  0  0
  -31.8150  -14.8285   20.1650 O   0  0  0  0  0  0
  -21.6641   -6.8880   21.4241 O   0  0  0  0  0  0
  -22.3495  -14.5520   20.6719 O   0  0  0  0  0  0
  -24.6328  -31.8535   23.1962 C   0  0  0  0  0  0
  -25.9147  -32.4746   23.8316 C   0  0  1  0  0  0
  -27.2199  -27.2499   20.1403 C   0  0  0  0  0  0
  -25.5935  -33.8548   24.2243 N   0  0  0  0  0  0
  -23.4314  -30.4744   21.5395 C   0  0  2  0  0  0
  -24.8811  -28.9169   20.1125 C   0  0  0  0  0  0
  -22.7514  -29.4590   22.4901 C   0  0  0  0  0  0
  -18.0292  -28.1389   22.8478 C   0  0  0  0  0  0
  -24.1491  -36.7278   23.2640 C   0  0  0  0  0  0
  -25.9778  -30.7638   21.3775 C   0  0  0  0  0  0
  -26.0536  -29.3839   20.7224 C   0  0  0  0  0  0
  -27.2302  -28.5639   20.7226 C   0  0  0  0  0  0
  -26.0292  -26.8523   19.4997 C   0  0  0  0  0  0
  -24.8743  -27.6592   19.4889 C   0  0  0  0  0  0
  -23.6521  -29.8056   20.1572 C   0  0  0  0  0  0
  -25.4117  -36.3064   24.0326 C   0  0  1  0  0  0
  -20.5899  -28.3704   23.1263 C   0  0  2  0  0  0
  -20.6780  -26.9418   22.5407 C   0  0  0  0  0  0
  -19.5758  -26.6382   21.5211 C   0  0  0  0  0  0
  -18.1937  -26.7929   22.1621 C   0  0  0  0  0  0
  -19.1547  -28.8863   23.2863 C   0  0  0  0  0  0
  -18.9470  -30.1459   23.8888 C   0  0  0  0  0  0
  -17.6470  -30.6588   24.0561 C   0  0  0  0  0  0
  -25.9061  -34.9436   23.5090 C   0  0  0  0  0  0
  -16.5360  -29.9087   23.6333 C   0  0  0  0  0  0
  -16.7280  -28.6504   23.0352 C   0  0  0  0  0  0
  -26.4508  -31.6573   25.0712 C   0  0  0  0  0  0
  -25.3723  -31.3733   26.1427 C   0  0  0  0  0  0
  -27.0357  -30.2986   24.6205 C   0  0  0  0  0  0
  -27.6055  -32.4318   25.7494 C   0  0  0  0  0  0
  -27.5581  -37.1789   24.8462 C   0  0  0  0  0  0
  -21.4217  -29.3047   22.3649 N   0  0  0  0  0  0
  -26.4289  -37.3767   23.9415 N   0  0  0  0  0  0
  -24.6998  -31.0488   22.0942 N   0  0  0  0  0  0
  -23.4202  -28.8136   23.3014 O   0  0  0  0  0  0
  -28.2865  -26.3194   20.1563 O   0  0  0  0  0  0
  -26.5633  -34.8915   22.4659 O   0  0  0  0  0  0
  -23.5473  -32.1362   23.7248 O   0  0  0  0  0  0
  -31.1511  -20.0825   21.2056 C   0  0  0  0  0  0
  -31.5373  -17.6569   21.2781 C   0  0  0  0  0  0
  -29.4232  -18.5426   20.4631 C   0  0  0  0  0  0
  -31.9769  -18.9777   21.4979 C   0  0  0  0  0  0
  -29.8510  -19.9333   20.6719 C   0  0  0  0  0  0
  -30.2562  -17.3696   20.7548 C   0  0  0  0  0  0
  -27.6009  -22.8057   19.6300 C   0  0  0  0  0  0
  -28.4212  -23.5761   20.3593 C   0  0  0  0  0  0
  -28.0167  -21.3942   19.6016 C   0  0  0  0  0  0
  -29.4854  -22.5884   20.9052 C   0  0  0  0  0  0
  -33.3678  -19.2138   22.0548 C   0  0  0  0  0  0
  -28.7180  -25.2723   22.2977 C   0  0  0  0  0  0
  -28.0728  -25.0422   20.9258 C   0  0  1  0  0  0
  -29.1011  -21.2125   20.4022 N   0  0  0  0  0  0
  -29.8549  -15.9328   20.6106 N   0  0  0  0  0  0
  -27.4563  -20.5017   18.9592 O   0  0  0  0  0  0
  -31.4700  -12.5964   19.1664 H   0  0  0  0  0  0
  -30.3776  -11.5028   19.9676 H   0  0  0  0  0  0
  -29.7939  -11.7310   17.5259 H   0  0  0  0  0  0
  -29.6281  -13.4595   17.7122 H   0  0  0  0  0  0
  -27.8977  -11.2816   18.9220 H   0  0  0  0  0  0
  -27.3760  -12.5117   17.8021 H   0  0  0  0  0  0
  -27.6243  -14.2530   19.4553 H   0  0  0  0  0  0
  -28.7286  -12.1997   21.4333 H   0  0  0  0  0  0
  -28.4183  -13.8838   21.7810 H   0  0  0  0  0  0
  -25.2768   -9.5680   22.4763 H   0  0  0  0  0  0
  -24.0003   -7.4633   22.7474 H   0  0  0  0  0  0
  -21.0847   -8.8777   19.8952 H   0  0  0  0  0  0
  -22.3706  -10.9675   19.6167 H   0  0  0  0  0  0
  -21.2009   -7.6147   23.9716 H   0  0  0  0  0  0
  -21.1483   -6.0523   25.9076 H   0  0  0  0  0  0
  -22.0597   -2.7610   23.2846 H   0  0  0  0  0  0
  -22.4086  -11.9863   22.4812 H   0  0  0  0  0  0
  -21.1080  -13.1219   22.2642 H   0  0  0  0  0  0
  -24.6439  -15.8423   20.5179 H   0  0  0  0  0  0
  -26.2547  -15.6348   20.0586 H   0  0  0  0  0  0
  -26.7213  -32.5399   23.1057 H   0  0  0  0  0  0
  -25.0080  -33.9680   25.0388 H   0  0  0  0  0  0
  -22.7288  -31.2969   21.3900 H   0  0  0  0  0  0
  -23.3759  -35.9603   23.3292 H   0  0  0  0  0  0
  -24.3581  -36.8914   22.2056 H   0  0  0  0  0  0
  -23.7238  -37.6473   23.6672 H   0  0  0  0  0  0
  -26.1160  -31.5229   20.6063 H   0  0  0  0  0  0
  -26.8549  -30.8157   22.0110 H   0  0  0  0  0  0
  -28.1286  -28.9150   21.2105 H   0  0  0  0  0  0
  -25.9845  -25.8832   19.0228 H   0  0  0  0  0  0
  -23.9780  -27.2962   19.0050 H   0  0  0  0  0  0
  -23.7782  -30.5802   19.3998 H   0  0  0  0  0  0
  -22.7707  -29.2392   19.8519 H   0  0  0  0  0  0
  -25.1298  -36.1904   25.0818 H   0  0  0  0  0  0
  -20.9987  -28.3284   24.1385 H   0  0  0  0  0  0
  -20.5682  -26.2314   23.3615 H   0  0  0  0  0  0
  -21.6649  -26.7438   22.1201 H   0  0  0  0  0  0
  -19.6924  -25.6291   21.1246 H   0  0  0  0  0  0
  -19.6699  -27.3186   20.6736 H   0  0  0  0  0  0
  -17.4206  -26.6673   21.4023 H   0  0  0  0  0  0
  -18.0336  -26.0073   22.9021 H   0  0  0  0  0  0
  -19.7949  -30.7271   24.2257 H   0  0  0  0  0  0
  -17.5029  -31.6270   24.5160 H   0  0  0  0  0  0
  -15.5362  -30.2989   23.7663 H   0  0  0  0  0  0
  -15.8679  -28.0822   22.7077 H   0  0  0  0  0  0
  -24.5907  -30.7073   25.7756 H   0  0  0  0  0  0
  -24.8904  -32.2906   26.4820 H   0  0  0  0  0  0
  -25.8030  -30.8934   27.0223 H   0  0  0  0  0  0
  -26.2943  -29.6731   24.1218 H   0  0  0  0  0  0
  -27.4026  -29.7252   25.4728 H   0  0  0  0  0  0
  -27.8826  -30.4259   23.9459 H   0  0  0  0  0  0
  -27.2656  -33.3626   26.2046 H   0  0  0  0  0  0
  -28.3879  -32.6864   25.0333 H   0  0  0  0  0  0
  -28.0705  -31.8458   26.5431 H   0  0  0  0  0  0
  -28.2579  -38.0104   24.7525 H   0  0  0  0  0  0
  -28.1094  -36.2635   24.6263 H   0  0  0  0  0  0
  -27.2300  -37.1408   25.8864 H   0  0  0  0  0  0
  -20.9406  -29.8773   21.6853 H   0  0  0  0  0  0
  -26.0165  -38.2836   24.1427 H   0  0  0  0  0  0
  -31.5498  -21.0690   21.3932 H   0  0  0  0  0  0
  -32.2108  -16.8541   21.5411 H   0  0  0  0  0  0
  -28.4306  -18.3685   20.0735 H   0  0  0  0  0  0
  -26.6676  -23.1508   19.2116 H   0  0  0  0  0  0
  -29.4867  -22.5827   21.9951 H   0  0  0  0  0  0
  -30.4740  -22.8868   20.5554 H   0  0  0  0  0  0
  -33.4227  -20.1591   22.5958 H   0  0  0  0  0  0
  -34.0986  -19.2416   21.2459 H   0  0  0  0  0  0
  -33.6550  -18.4197   22.7449 H   0  0  0  0  0  0
  -28.4695  -24.4714   22.9939 H   0  0  0  0  0  0
  -28.3694  -26.2044   22.7427 H   0  0  0  0  0  0
  -29.8036  -25.3276   22.2173 H   0  0  0  0  0  0
  -27.0025  -24.9736   21.1260 H   0  0  0  0  0  0
  -28.8614  -15.7630   20.6342 H   0  0  0  0  0  0
  1 25  1  0  0  0
  1 30  2  0  0  0
  1 85  1  0  0  0
  2  3  1  0  0  0
  2 25  1  0  0  0
  2 87  1  0  0  0
  2 88  1  0  0  0
  3  4  1  0  0  0
  3 89  1  0  0  0
  3 90  1  0  0  0
  4  5  1  0  0  0
  4 91  1  0  0  0
  4 92  1  0  0  0
  5  6  1  0  0  0
  5 26  1  0  0  0
  5 93  1  0  0  0
  6 25  1  0  0  0
  6 94  1  0  0  0
  6 95  1  0  0  0
  7  8  2  0  0  0
  7 26  1  0  0  0
  7 29  1  0  0  0
  8  9  1  0  0  0
  8 22  1  0  0  0
  9 10  1  0  0  0
  9 27  2  0  0  0
 10 11  2  0  0  0
 10 15  1  0  0  0
 11 12  1  0  0  0
 11 96  1  0  0  0
 12 13  2  0  0  0
 12 97  1  0  0  0
 13 14  1  0  0  0
 13 31  1  0  0  0
 14 15  2  0  0  0
 14 98  1  0  0  0
 15 99  1  0  0  0
 16 17  2  0  0  0
 16 21  1  0  0  0
 16 31  1  0  0  0
 17 18  1  0  0  0
 17100  1  0  0  0
 18 19  2  0  0  0
 18101  1  0  0  0
 19 20  1  0  0  0
 19 24  1  0  0  0
 20 21  2  0  0  0
 20102  1  0  0  0
 21 23  1  0  0  0
 22 28  1  0  0  0
 22 32  2  0  0  0
 26 27  1  0  0  0
 28103  1  0  0  0
 28104  1  0  0  0
 29105  1  0  0  0
 29106  1  0  0  0
 33 34  1  0  0  0
 33 66  1  0  0  0
 33 70  2  0  0  0
 34 36  1  0  0  0
 34 59  1  0  0  0
 34107  1  0  0  0
 35 44  2  0  0  0
 35 45  1  0  0  0
 35 68  1  0  0  0
 36 56  1  0  0  0
 36108  1  0  0  0
 37 39  1  0  0  0
 37 47  1  0  0  0
 37 66  1  0  0  0
 37109  1  0  0  0
 38 43  2  0  0  0
 38 46  1  0  0  0
 38 47  1  0  0  0
 39 64  1  0  0  0
 39 67  2  0  0  0
 40 52  1  0  0  0
 40 53  2  0  0  0
 40 58  1  0  0  0
 41110  1  0  0  0
 41111  1  0  0  0
 41112  1  0  0  0
 41 48  1  0  0  0
 42 43  1  0  0  0
 42 66  1  0  0  0
 42113  1  0  0  0
 42114  1  0  0  0
 43 44  1  0  0  0
 44115  1  0  0  0
 45 46  2  0  0  0
 45116  1  0  0  0
 46117  1  0  0  0
 47118  1  0  0  0
 47119  1  0  0  0
 48 56  1  0  0  0
 48 65  1  0  0  0
 48120  1  0  0  0
 49 50  1  0  0  0
 49 53  1  0  0  0
 49 64  1  0  0  0
 49121  1  0  0  0
 50 51  1  0  0  0
 50122  1  0  0  0
 50123  1  0  0  0
 51 52  1  0  0  0
 51124  1  0  0  0
 51125  1  0  0  0
 52126  1  0  0  0
 52127  1  0  0  0
 53 54  1  0  0  0
 54 55  2  0  0  0
 54128  1  0  0  0
 55 57  1  0  0  0
 55129  1  0  0  0
 56 69  2  0  0  0
 57 58  2  0  0  0
 57130  1  0  0  0
 58131  1  0  0  0
 59 60  1  0  0  0
 59 61  1  0  0  0
 59 62  1  0  0  0
 60132  1  0  0  0
 60133  1  0  0  0
 60134  1  0  0  0
 61135  1  0  0  0
 61136  1  0  0  0
 61137  1  0  0  0
 62138  1  0  0  0
 62139  1  0  0  0
 62140  1  0  0  0
 63 65  1  0  0  0
 63141  1  0  0  0
 63142  1  0  0  0
 63143  1  0  0  0
 64144  1  0  0  0
 65145  1  0  0  0
 68 83  1  0  0  0
 71 74  2  0  0  0
 71 75  1  0  0  0
 71146  1  0  0  0
 72 74  1  0  0  0
 72 76  2  0  0  0
 72147  1  0  0  0
 73 75  2  0  0  0
 73 76  1  0  0  0
 73148  1  0  0  0
 74 81  1  0  0  0
 75 84  1  0  0  0
 76 85  1  0  0  0
 77 78  2  0  0  0
 77 79  1  0  0  0
 77149  1  0  0  0
 78 80  1  0  0  0
 78 83  1  0  0  0
 79 84  1  0  0  0
 79 86  2  0  0  0
 80 84  1  0  0  0
 80150  1  0  0  0
 80151  1  0  0  0
 81152  1  0  0  0
 81153  1  0  0  0
 81154  1  0  0  0
 82155  1  0  0  0
 82156  1  0  0  0
 82157  1  0  0  0
 82 83  1  0  0  0
 83158  1  0  0  0
 85159  1  0  0  0
M  ISO  4   1 100  68 101  83 101  85 100
M  END
> <chiral flag>
0

> <version>
0

> <s_m_source_file>
/data/baiqing/PycharmProjects/Reinvent-master-3.2/result/LINK_invent/BTK/process_docking_weight1_custom_product_contain_oxygen_bond_distance_aromatic_linkinvent_7_9_3/rearranged_h_0066.sdf

> <i_m_source_file_index>
76

> <r_mmod_Potential_Energy-OPLS-2005>
287.655181884766

> <r_mmod_Stretch_Energy-OPLS-2005>
138.208679199219

> <r_mmod_Bend_Energy-OPLS-2005>
221.871734619141

> <r_mmod_Torsional_Energy-OPLS-2005>
277.059661865234

> <r_mmod_Improper_Torsional_Energy-OPLS-2005>
7.40030241012573

> <r_mmod_Van_der_Waal_Energy-OPLS-2005>
134.377410888672

> <r_mmod_Electrostatic_Energy-OPLS-2005>
-373.325622558594

> <r_mmod_Solvation_Energy-OPLS-2005>
-214.76237487793

> <b_mmod_Minimization_Converged-OPLS-2005>
0

> <r_mmod_RMS_Derivative-OPLS-2005>
0.440465360879898

$$$$
77
                    3D
 Structure written by MMmdl.
160168  0  0  1  0            999 V2000
  -30.5095  -15.0536   20.4179 C   0  0  0  0  0  0
  -30.4367  -12.6646   19.5021 C   0  0  0  0  0  0
  -29.5206  -12.5422   18.2618 C   0  0  0  0  0  0
  -28.0594  -12.3047   18.6845 C   0  0  0  0  0  0
  -27.6181  -13.2552   19.8274 C   0  0  2  0  0  0
  -28.6589  -13.3391   20.9625 C   0  0  0  0  0  0
  -25.2412  -13.8221   20.5719 C   0  0  0  0  0  0
  -24.1748  -13.0435   20.9250 C   0  0  0  0  0  0
  -24.6379  -11.6925   20.8757 C   0  0  0  0  0  0
  -23.9067  -10.4294   21.0407 C   0  0  0  0  0  0
  -24.3619   -9.4211   21.9182 C   0  0  0  0  0  0
  -23.6297   -8.2246   22.0749 C   0  0  0  0  0  0
  -22.4277   -8.0282   21.3541 C   0  0  0  0  0  0
  -21.9915   -9.0251   20.4639 C   0  0  0  0  0  0
  -22.7240  -10.2134   20.3050 C   0  0  0  0  0  0
  -21.6857   -6.0736   22.5276 C   0  0  0  0  0  0
  -21.4014   -6.5641   23.8208 C   0  0  0  0  0  0
  -21.3656   -5.6793   24.9172 C   0  0  0  0  0  0
  -21.6046   -4.3055   24.7223 C   0  0  0  0  0  0
  -21.8816   -3.8148   23.4343 C   0  0  0  0  0  0
  -21.9192   -4.6965   22.3400 C   0  0  0  0  0  0
  -22.7768  -13.5201   21.1902 C   0  0  0  0  0  0
  -22.1663   -4.2151   21.0975 F   0  0  0  0  0  0
  -21.5627   -3.4537   25.7734 F   0  0  0  0  0  0
  -29.9168  -13.7836   20.3483 N   0  0  0  0  0  0
  -26.2827  -12.9462   20.3210 N   0  0  0  0  0  0
  -25.9305  -11.6587   20.5724 N   0  0  0  0  0  0
  -22.0425  -12.8185   22.0455 N   0  0  0  0  0  0
  -25.4047  -15.1951   20.4123 N   0  0  0  0  0  0
  -31.7291  -15.0784   20.2099 O   0  0  0  0  0  0
  -21.6640   -6.8878   21.4236 O   0  0  0  0  0  0
  -22.3455  -14.5505   20.6740 O   0  0  0  0  0  0
  -24.6509  -31.8375   23.1821 C   0  0  0  0  0  0
  -25.9251  -32.4656   23.8234 C   0  0  1  0  0  0
  -27.2164  -27.0622   20.1681 C   0  0  0  0  0  0
  -25.5970  -33.8465   24.2144 N   0  0  0  0  0  0
  -23.4591  -30.4548   21.5283 C   0  0  2  0  0  0
  -24.9104  -28.8695   20.1111 C   0  0  0  0  0  0
  -22.7609  -29.4509   22.4819 C   0  0  0  0  0  0
  -18.0320  -28.1401   22.8461 C   0  0  0  0  0  0
  -24.1502  -36.7248   23.2641 C   0  0  0  0  0  0
  -26.0196  -30.6885   21.3927 C   0  0  0  0  0  0
  -26.0910  -29.2917   20.7365 C   0  0  0  0  0  0
  -27.2443  -28.4070   20.7444 C   0  0  0  0  0  0
  -26.0108  -26.7666   19.4922 C   0  0  0  0  0  0
  -24.8875  -27.6226   19.4714 C   0  0  0  0  0  0
  -23.6920  -29.7823   20.1494 C   0  0  0  0  0  0
  -25.4130  -36.3005   24.0304 C   0  0  1  0  0  0
  -20.5933  -28.3741   23.1212 C   0  0  2  0  0  0
  -20.6805  -26.9433   22.5398 C   0  0  0  0  0  0
  -19.5778  -26.6380   21.5208 C   0  0  0  0  0  0
  -18.1960  -26.7939   22.1617 C   0  0  0  0  0  0
  -19.1574  -28.8887   23.2826 C   0  0  0  0  0  0
  -18.9488  -30.1480   23.8858 C   0  0  0  0  0  0
  -17.6482  -30.6592   24.0561 C   0  0  0  0  0  0
  -25.9086  -34.9386   23.5035 C   0  0  0  0  0  0
  -16.5372  -29.9083   23.6337 C   0  0  0  0  0  0
  -16.7302  -28.6508   23.0342 C   0  0  0  0  0  0
  -26.4542  -31.6555   25.0711 C   0  0  0  0  0  0
  -25.3697  -31.3755   26.1381 C   0  0  0  0  0  0
  -27.0418  -30.2941   24.6341 C   0  0  0  0  0  0
  -27.6062  -32.4329   25.7500 C   0  0  0  0  0  0
  -27.5577  -37.1775   24.8456 C   0  0  0  0  0  0
  -21.4292  -29.3055   22.3575 N   0  0  0  0  0  0
  -26.4289  -37.3730   23.9396 N   0  0  0  0  0  0
  -24.7300  -31.0163   22.0894 N   0  0  0  0  0  0
  -23.4210  -28.8055   23.3005 O   0  0  0  0  0  0
  -28.2440  -26.0252   20.2254 O   0  0  0  0  0  0
  -26.5686  -34.8901   22.4623 O   0  0  0  0  0  0
  -23.5609  -32.1280   23.6997 O   0  0  0  0  0  0
  -31.6282  -19.3967   21.6440 C   0  0  0  0  0  0
  -31.2698  -18.0877   21.2711 C   0  0  0  0  0  0
  -29.2307  -19.0444   20.3858 C   0  0  0  0  0  0
  -30.8313  -20.5509   21.4244 C   0  0  0  0  0  0
  -30.0415  -17.7930   20.6567 C   0  0  0  0  0  0
  -29.5936  -20.4840   20.7018 C   0  0  0  0  0  0
  -28.9921  -23.2004   20.2209 C   0  0  0  0  0  0
  -30.4635  -21.1965   24.4295 C   0  0  0  0  0  0
  -31.0398  -23.6024   23.8813 C   0  0  0  0  0  0
  -31.3517  -21.8167   22.1099 C   0  0  0  0  0  0
  -27.8911  -24.4750   20.3346 C   0  0  0  0  0  0
  -30.5151  -22.2693   23.3281 C   0  0  0  0  0  0
  -28.7423  -21.7938   20.4885 N   0  0  0  0  0  0
  -29.7283  -16.2731   20.4578 N   0  0  0  0  0  0
  -30.0909  -23.5250   19.7677 O   0  0  0  0  0  0
  -31.4640  -12.8437   19.1821 H   0  0  0  0  0  0
  -30.4590  -11.7305   20.0664 H   0  0  0  0  0  0
  -29.8614  -11.7344   17.6134 H   0  0  0  0  0  0
  -29.5842  -13.4581   17.6719 H   0  0  0  0  0  0
  -27.9753  -11.2685   19.0150 H   0  0  0  0  0  0
  -27.3938  -12.4040   17.8260 H   0  0  0  0  0  0
  -27.5619  -14.2437   19.3713 H   0  0  0  0  0  0
  -28.7756  -12.3778   21.4648 H   0  0  0  0  0  0
  -28.3376  -14.0519   21.7239 H   0  0  0  0  0  0
  -25.2754   -9.5695   22.4767 H   0  0  0  0  0  0
  -24.0002   -7.4635   22.7469 H   0  0  0  0  0  0
  -21.0847   -8.8769   19.8942 H   0  0  0  0  0  0
  -22.3689  -10.9676   19.6165 H   0  0  0  0  0  0
  -21.2010   -7.6148   23.9713 H   0  0  0  0  0  0
  -21.1480   -6.0522   25.9073 H   0  0  0  0  0  0
  -22.0599   -2.7611   23.2839 H   0  0  0  0  0  0
  -22.4053  -11.9853   22.4844 H   0  0  0  0  0  0
  -21.1035  -13.1190   22.2651 H   0  0  0  0  0  0
  -24.6298  -15.8406   20.5207 H   0  0  0  0  0  0
  -26.2359  -15.6370   20.0433 H   0  0  0  0  0  0
  -26.7312  -32.5242   23.0952 H   0  0  0  0  0  0
  -25.0079  -33.9564   25.0261 H   0  0  0  0  0  0
  -22.7660  -31.2835   21.3681 H   0  0  0  0  0  0
  -23.3767  -35.9580   23.3276 H   0  0  0  0  0  0
  -24.3581  -36.8926   22.2060 H   0  0  0  0  0  0
  -23.7261  -37.6432   23.6714 H   0  0  0  0  0  0
  -26.1813  -31.4386   20.6170 H   0  0  0  0  0  0
  -26.8872  -30.7436   22.0383 H   0  0  0  0  0  0
  -28.1414  -28.7249   21.2573 H   0  0  0  0  0  0
  -25.9012  -25.8260   18.9752 H   0  0  0  0  0  0
  -23.9912  -27.2969   18.9603 H   0  0  0  0  0  0
  -23.8378  -30.5570   19.3960 H   0  0  0  0  0  0
  -22.8055  -29.2306   19.8334 H   0  0  0  0  0  0
  -25.1318  -36.1829   25.0797 H   0  0  0  0  0  0
  -21.0014  -28.3346   24.1338 H   0  0  0  0  0  0
  -20.5713  -26.2344   23.3625 H   0  0  0  0  0  0
  -21.6672  -26.7446   22.1186 H   0  0  0  0  0  0
  -19.6950  -25.6282   21.1267 H   0  0  0  0  0  0
  -19.6731  -27.3171   20.6721 H   0  0  0  0  0  0
  -17.4228  -26.6678   21.4022 H   0  0  0  0  0  0
  -18.0357  -26.0093   22.9022 H   0  0  0  0  0  0
  -19.7966  -30.7299   24.2212 H   0  0  0  0  0  0
  -17.5039  -31.6269   24.5171 H   0  0  0  0  0  0
  -15.5370  -30.2966   23.7690 H   0  0  0  0  0  0
  -15.8706  -28.0823   22.7056 H   0  0  0  0  0  0
  -24.5912  -30.7075   25.7673 H   0  0  0  0  0  0
  -24.8844  -32.2936   26.4708 H   0  0  0  0  0  0
  -25.7945  -30.8987   27.0223 H   0  0  0  0  0  0
  -26.3053  -29.6632   24.1347 H   0  0  0  0  0  0
  -27.4000  -29.7279   25.4947 H   0  0  0  0  0  0
  -27.8975  -30.4143   23.9691 H   0  0  0  0  0  0
  -27.2671  -33.3680   26.1962 H   0  0  0  0  0  0
  -28.3929  -32.6796   25.0360 H   0  0  0  0  0  0
  -28.0664  -31.8526   26.5506 H   0  0  0  0  0  0
  -28.2551  -38.0110   24.7510 H   0  0  0  0  0  0
  -28.1116  -36.2627   24.6272 H   0  0  0  0  0  0
  -27.2289  -37.1398   25.8861 H   0  0  0  0  0  0
  -20.9514  -29.8761   21.6741 H   0  0  0  0  0  0
  -26.0151  -38.2796   24.1420 H   0  0  0  0  0  0
  -32.5597  -19.4983   22.1831 H   0  0  0  0  0  0
  -31.9504  -17.2902   21.5336 H   0  0  0  0  0  0
  -28.2692  -18.8945   19.9168 H   0  0  0  0  0  0
  -29.9035  -21.5459   25.2965 H   0  0  0  0  0  0
  -31.4640  -20.9242   24.7679 H   0  0  0  0  0  0
  -29.9741  -20.2883   24.0772 H   0  0  0  0  0  0
  -30.4229  -23.9583   24.7067 H   0  0  0  0  0  0
  -31.0315  -24.3762   23.1119 H   0  0  0  0  0  0
  -32.0636  -23.5086   24.2472 H   0  0  0  0  0  0
  -31.4903  -22.6166   21.3945 H   0  0  0  0  0  0
  -32.3693  -21.6405   22.4614 H   0  0  0  0  0  0
  -27.3829  -24.3496   21.2912 H   0  0  0  0  0  0
  -27.1454  -24.2392   19.5785 H   0  0  0  0  0  0
  -29.4901  -22.4450   23.0035 H   0  0  0  0  0  0
  -27.7516  -21.6322   20.6123 H   0  0  0  0  0  0
  -28.7415  -16.0788   20.3822 H   0  0  0  0  0  0
  1 25  1  0  0  0
  1 30  2  0  0  0
  1 84  1  0  0  0
  2  3  1  0  0  0
  2 25  1  0  0  0
  2 86  1  0  0  0
  2 87  1  0  0  0
  3  4  1  0  0  0
  3 88  1  0  0  0
  3 89  1  0  0  0
  4  5  1  0  0  0
  4 90  1  0  0  0
  4 91  1  0  0  0
  5  6  1  0  0  0
  5 26  1  0  0  0
  5 92  1  0  0  0
  6 25  1  0  0  0
  6 93  1  0  0  0
  6 94  1  0  0  0
  7  8  2  0  0  0
  7 26  1  0  0  0
  7 29  1  0  0  0
  8  9  1  0  0  0
  8 22  1  0  0  0
  9 10  1  0  0  0
  9 27  2  0  0  0
 10 11  2  0  0  0
 10 15  1  0  0  0
 11 12  1  0  0  0
 11 95  1  0  0  0
 12 13  2  0  0  0
 12 96  1  0  0  0
 13 14  1  0  0  0
 13 31  1  0  0  0
 14 15  2  0  0  0
 14 97  1  0  0  0
 15 98  1  0  0  0
 16 17  2  0  0  0
 16 21  1  0  0  0
 16 31  1  0  0  0
 17 18  1  0  0  0
 17 99  1  0  0  0
 18 19  2  0  0  0
 18100  1  0  0  0
 19 20  1  0  0  0
 19 24  1  0  0  0
 20 21  2  0  0  0
 20101  1  0  0  0
 21 23  1  0  0  0
 22 28  1  0  0  0
 22 32  2  0  0  0
 26 27  1  0  0  0
 28102  1  0  0  0
 28103  1  0  0  0
 29104  1  0  0  0
 29105  1  0  0  0
 33 34  1  0  0  0
 33 66  1  0  0  0
 33 70  2  0  0  0
 34 36  1  0  0  0
 34 59  1  0  0  0
 34106  1  0  0  0
 35 44  2  0  0  0
 35 45  1  0  0  0
 35 68  1  0  0  0
 36 56  1  0  0  0
 36107  1  0  0  0
 37 39  1  0  0  0
 37 47  1  0  0  0
 37 66  1  0  0  0
 37108  1  0  0  0
 38 43  2  0  0  0
 38 46  1  0  0  0
 38 47  1  0  0  0
 39 64  1  0  0  0
 39 67  2  0  0  0
 40 52  1  0  0  0
 40 53  2  0  0  0
 40 58  1  0  0  0
 41109  1  0  0  0
 41110  1  0  0  0
 41111  1  0  0  0
 41 48  1  0  0  0
 42 43  1  0  0  0
 42 66  1  0  0  0
 42112  1  0  0  0
 42113  1  0  0  0
 43 44  1  0  0  0
 44114  1  0  0  0
 45 46  2  0  0  0
 45115  1  0  0  0
 46116  1  0  0  0
 47117  1  0  0  0
 47118  1  0  0  0
 48 56  1  0  0  0
 48 65  1  0  0  0
 48119  1  0  0  0
 49 50  1  0  0  0
 49 53  1  0  0  0
 49 64  1  0  0  0
 49120  1  0  0  0
 50 51  1  0  0  0
 50121  1  0  0  0
 50122  1  0  0  0
 51 52  1  0  0  0
 51123  1  0  0  0
 51124  1  0  0  0
 52125  1  0  0  0
 52126  1  0  0  0
 53 54  1  0  0  0
 54 55  2  0  0  0
 54127  1  0  0  0
 55 57  1  0  0  0
 55128  1  0  0  0
 56 69  2  0  0  0
 57 58  2  0  0  0
 57129  1  0  0  0
 58130  1  0  0  0
 59 60  1  0  0  0
 59 61  1  0  0  0
 59 62  1  0  0  0
 60131  1  0  0  0
 60132  1  0  0  0
 60133  1  0  0  0
 61134  1  0  0  0
 61135  1  0  0  0
 61136  1  0  0  0
 62137  1  0  0  0
 62138  1  0  0  0
 62139  1  0  0  0
 63 65  1  0  0  0
 63140  1  0  0  0
 63141  1  0  0  0
 63142  1  0  0  0
 64143  1  0  0  0
 65144  1  0  0  0
 68 81  1  0  0  0
 71 72  2  0  0  0
 71 74  1  0  0  0
 71145  1  0  0  0
 72 75  1  0  0  0
 72146  1  0  0  0
 73 75  2  0  0  0
 73 76  1  0  0  0
 73147  1  0  0  0
 74 76  2  0  0  0
 74 80  1  0  0  0
 75 84  1  0  0  0
 76 83  1  0  0  0
 77 81  1  0  0  0
 77 83  1  0  0  0
 77 85  2  0  0  0
 78148  1  0  0  0
 78149  1  0  0  0
 78150  1  0  0  0
 78 82  1  0  0  0
 79 82  1  0  0  0
 79151  1  0  0  0
 79152  1  0  0  0
 79153  1  0  0  0
 80 82  1  0  0  0
 80154  1  0  0  0
 80155  1  0  0  0
 81156  1  0  0  0
 81157  1  0  0  0
 82158  1  0  0  0
 83159  1  0  0  0
 84160  1  0  0  0
M  ISO  4   1 100  68 101  81 101  84 100
M  END
> <chiral flag>
0

> <version>
0

> <s_m_source_file>
/data/baiqing/PycharmProjects/Reinvent-master-3.2/result/LINK_invent/BTK/process_docking_weight1_custom_product_contain_oxygen_bond_distance_aromatic_linkinvent_7_9_3/rearranged_h_0066.sdf

> <i_m_source_file_index>
77

> <r_mmod_Potential_Energy-OPLS-2005>
704.991821289062

> <r_mmod_Stretch_Energy-OPLS-2005>
354.388336181641

> <r_mmod_Bend_Energy-OPLS-2005>
284.802459716797

> <r_mmod_Torsional_Energy-OPLS-2005>
250.309112548828

> <r_mmod_Improper_Torsional_Energy-OPLS-2005>
7.85123157501221

> <r_mmod_Van_der_Waal_Energy-OPLS-2005>
134.629989624023

> <r_mmod_Electrostatic_Energy-OPLS-2005>
-356.131774902344

> <r_mmod_Solvation_Energy-OPLS-2005>
-242.168319702148

> <b_mmod_Minimization_Converged-OPLS-2005>
0

> <r_mmod_RMS_Derivative-OPLS-2005>
1.47541642189026

$$$$
78
                    3D
 Structure written by MMmdl.
155164  0  0  1  0            999 V2000
  -30.6399  -14.7731   20.4390 C   0  0  0  0  0  0
  -30.4207  -12.4680   19.4839 C   0  0  0  0  0  0
  -29.5074  -12.5039   18.2406 C   0  0  0  0  0  0
  -28.0353  -12.3289   18.6554 C   0  0  0  0  0  0
  -27.6373  -13.2411   19.8466 C   0  0  2  0  0  0
  -28.6842  -13.2135   20.9826 C   0  0  0  0  0  0
  -25.2493  -13.8228   20.5706 C   0  0  0  0  0  0
  -24.1794  -13.0457   20.9216 C   0  0  0  0  0  0
  -24.6402  -11.6940   20.8763 C   0  0  0  0  0  0
  -23.9082  -10.4302   21.0415 C   0  0  0  0  0  0
  -24.3631   -9.4216   21.9192 C   0  0  0  0  0  0
  -23.6300   -8.2251   22.0763 C   0  0  0  0  0  0
  -22.4283   -8.0288   21.3545 C   0  0  0  0  0  0
  -21.9924   -9.0268   20.4647 C   0  0  0  0  0  0
  -22.7260  -10.2141   20.3060 C   0  0  0  0  0  0
  -21.6847   -6.0745   22.5284 C   0  0  0  0  0  0
  -21.4012   -6.5647   23.8222 C   0  0  0  0  0  0
  -21.3660   -5.6793   24.9181 C   0  0  0  0  0  0
  -21.6039   -4.3058   24.7222 C   0  0  0  0  0  0
  -21.8820   -3.8156   23.4345 C   0  0  0  0  0  0
  -21.9193   -4.6971   22.3404 C   0  0  0  0  0  0
  -22.7813  -13.5229   21.1870 C   0  0  0  0  0  0
  -22.1659   -4.2155   21.0976 F   0  0  0  0  0  0
  -21.5630   -3.4542   25.7740 F   0  0  0  0  0  0
  -29.9806  -13.5600   20.3895 N   0  0  0  0  0  0
  -26.2926  -12.9448   20.3291 N   0  0  0  0  0  0
  -25.9338  -11.6581   20.5784 N   0  0  0  0  0  0
  -22.0452  -12.8211   22.0417 N   0  0  0  0  0  0
  -25.4149  -15.1952   20.4093 N   0  0  0  0  0  0
  -31.8329  -14.7831   20.1280 O   0  0  0  0  0  0
  -21.6644   -6.8888   21.4247 O   0  0  0  0  0  0
  -22.3486  -14.5526   20.6713 O   0  0  0  0  0  0
  -24.6316  -31.8523   23.1948 C   0  0  0  0  0  0
  -25.9140  -32.4739   23.8289 C   0  0  1  0  0  0
  -27.2251  -27.2479   20.1178 C   0  0  0  0  0  0
  -25.5921  -33.8536   24.2207 N   0  0  0  0  0  0
  -23.4283  -30.4724   21.5397 C   0  0  2  0  0  0
  -24.8745  -28.9141   20.1061 C   0  0  0  0  0  0
  -22.7500  -29.4584   22.4917 C   0  0  0  0  0  0
  -18.0285  -28.1386   22.8473 C   0  0  0  0  0  0
  -24.1493  -36.7267   23.2640 C   0  0  0  0  0  0
  -25.9740  -30.7601   21.3758 C   0  0  0  0  0  0
  -26.0451  -29.3809   20.7164 C   0  0  0  0  0  0
  -27.2179  -28.5570   20.7156 C   0  0  0  0  0  0
  -26.0240  -26.8459   19.4915 C   0  0  0  0  0  0
  -24.8693  -27.6557   19.4844 C   0  0  0  0  0  0
  -23.6444  -29.8001   20.1570 C   0  0  0  0  0  0
  -25.4118  -36.3051   24.0316 C   0  0  1  0  0  0
  -20.5888  -28.3690   23.1269 C   0  0  2  0  0  0
  -20.6771  -26.9408   22.5411 C   0  0  0  0  0  0
  -19.5749  -26.6378   21.5212 C   0  0  0  0  0  0
  -18.1923  -26.7917   22.1620 C   0  0  0  0  0  0
  -19.1544  -28.8856   23.2858 C   0  0  0  0  0  0
  -18.9473  -30.1457   23.8870 C   0  0  0  0  0  0
  -17.6474  -30.6587   24.0558 C   0  0  0  0  0  0
  -25.9068  -34.9426   23.5073 C   0  0  0  0  0  0
  -16.5360  -29.9081   23.6347 C   0  0  0  0  0  0
  -16.7272  -28.6504   23.0356 C   0  0  0  0  0  0
  -26.4489  -31.6582   25.0697 C   0  0  0  0  0  0
  -25.3682  -31.3773   26.1406 C   0  0  0  0  0  0
  -27.0338  -30.2982   24.6229 C   0  0  0  0  0  0
  -27.6028  -32.4337   25.7476 C   0  0  0  0  0  0
  -27.5574  -37.1780   24.8460 C   0  0  0  0  0  0
  -21.4209  -29.3031   22.3657 N   0  0  0  0  0  0
  -26.4284  -37.3760   23.9414 N   0  0  0  0  0  0
  -24.6971  -31.0480   22.0930 N   0  0  0  0  0  0
  -23.4193  -28.8158   23.3043 O   0  0  0  0  0  0
  -28.3306  -26.3641   20.2159 O   0  0  0  0  0  0
  -26.5668  -34.8917   22.4661 O   0  0  0  0  0  0
  -23.5470  -32.1357   23.7249 O   0  0  0  0  0  0
  -31.3369  -20.1278   20.2458 C   0  0  0  0  0  0
  -29.4639  -18.5845   20.4659 C   0  0  0  0  0  0
  -31.7354  -17.7221   20.4853 C   0  0  0  0  0  0
  -29.9344  -19.9731   20.3354 C   0  0  0  0  0  0
  -32.2178  -19.0369   20.3430 C   0  0  0  0  0  0
  -30.3511  -17.4121   20.5159 C   0  0  0  0  0  0
  -27.5990  -22.9415   20.7454 C   0  0  0  0  0  0
  -28.5385  -23.6219   20.0732 C   0  0  0  0  0  0
  -27.9609  -21.5212   20.9234 C   0  0  0  0  0  0
  -29.6193  -22.5714   19.7342 C   0  0  0  0  0  0
  -28.4668  -25.0900   19.4286 C   0  0  0  0  0  0
  -29.1386  -21.2517   20.2943 N   0  0  0  0  0  0
  -33.5949  -19.2634   20.3073 N   0  0  0  0  0  0
  -29.9243  -15.9676   20.6180 N   0  0  0  0  0  0
  -27.2929  -20.6877   21.5413 O   0  0  0  0  0  0
  -31.4646  -12.5646   19.1812 H   0  0  0  0  0  0
  -30.3489  -11.5016   19.9870 H   0  0  0  0  0  0
  -29.7932  -11.7217   17.5360 H   0  0  0  0  0  0
  -29.6336  -13.4519   17.7156 H   0  0  0  0  0  0
  -27.8971  -11.2829   18.9316 H   0  0  0  0  0  0
  -27.3771  -12.5074   17.8044 H   0  0  0  0  0  0
  -27.6212  -14.2555   19.4476 H   0  0  0  0  0  0
  -28.7279  -12.2304   21.4539 H   0  0  0  0  0  0
  -28.4205  -13.9219   21.7696 H   0  0  0  0  0  0
  -25.2770   -9.5690   22.4775 H   0  0  0  0  0  0
  -24.0005   -7.4642   22.7485 H   0  0  0  0  0  0
  -21.0859   -8.8791   19.8947 H   0  0  0  0  0  0
  -22.3725  -10.9686   19.6172 H   0  0  0  0  0  0
  -21.2004   -7.6155   23.9722 H   0  0  0  0  0  0
  -21.1476   -6.0526   25.9077 H   0  0  0  0  0  0
  -22.0596   -2.7618   23.2846 H   0  0  0  0  0  0
  -22.4055  -11.9864   22.4799 H   0  0  0  0  0  0
  -21.1072  -13.1248   22.2632 H   0  0  0  0  0  0
  -24.6412  -15.8441   20.5048 H   0  0  0  0  0  0
  -26.2581  -15.6365   20.0678 H   0  0  0  0  0  0
  -26.7194  -32.5377   23.1018 H   0  0  0  0  0  0
  -24.9997  -33.9654   25.0303 H   0  0  0  0  0  0
  -22.7255  -31.2953   21.3897 H   0  0  0  0  0  0
  -23.3766  -35.9592   23.3294 H   0  0  0  0  0  0
  -24.3569  -36.8918   22.2055 H   0  0  0  0  0  0
  -23.7239  -37.6453   23.6689 H   0  0  0  0  0  0
  -26.1155  -31.5221   20.6085 H   0  0  0  0  0  0
  -26.8512  -30.8070   22.0103 H   0  0  0  0  0  0
  -28.1116  -28.9055   21.2137 H   0  0  0  0  0  0
  -25.9297  -25.8714   19.0384 H   0  0  0  0  0  0
  -23.9685  -27.2861   19.0136 H   0  0  0  0  0  0
  -23.7602  -30.5729   19.3952 H   0  0  0  0  0  0
  -22.7645  -29.2266   19.8577 H   0  0  0  0  0  0
  -25.1307  -36.1874   25.0803 H   0  0  0  0  0  0
  -20.9961  -28.3288   24.1401 H   0  0  0  0  0  0
  -20.5684  -26.2305   23.3625 H   0  0  0  0  0  0
  -21.6643  -26.7447   22.1201 H   0  0  0  0  0  0
  -19.6925  -25.6292   21.1240 H   0  0  0  0  0  0
  -19.6692  -27.3199   20.6745 H   0  0  0  0  0  0
  -17.4196  -26.6668   21.4017 H   0  0  0  0  0  0
  -18.0321  -26.0065   22.9024 H   0  0  0  0  0  0
  -19.7966  -30.7263   24.2234 H   0  0  0  0  0  0
  -17.5046  -31.6271   24.5158 H   0  0  0  0  0  0
  -15.5364  -30.2977   23.7696 H   0  0  0  0  0  0
  -15.8669  -28.0817   22.7084 H   0  0  0  0  0  0
  -24.5888  -30.7082   25.7742 H   0  0  0  0  0  0
  -24.8828  -32.2952   26.4726 H   0  0  0  0  0  0
  -25.7961  -30.9034   27.0245 H   0  0  0  0  0  0
  -26.2932  -29.6723   24.1236 H   0  0  0  0  0  0
  -27.3968  -29.7262   25.4777 H   0  0  0  0  0  0
  -27.8834  -30.4230   23.9509 H   0  0  0  0  0  0
  -27.2648  -33.3697   26.1929 H   0  0  0  0  0  0
  -28.3899  -32.6789   25.0333 H   0  0  0  0  0  0
  -28.0608  -31.8520   26.5488 H   0  0  0  0  0  0
  -28.2570  -38.0096   24.7526 H   0  0  0  0  0  0
  -28.1084  -36.2620   24.6263 H   0  0  0  0  0  0
  -27.2282  -37.1398   25.8859 H   0  0  0  0  0  0
  -20.9412  -29.8733   21.6835 H   0  0  0  0  0  0
  -26.0158  -38.2827   24.1447 H   0  0  0  0  0  0
  -31.7708  -21.1104   20.1381 H   0  0  0  0  0  0
  -28.3964  -18.4193   20.5126 H   0  0  0  0  0  0
  -32.4799  -16.9492   20.5755 H   0  0  0  0  0  0
  -26.6506  -23.3577   21.0503 H   0  0  0  0  0  0
  -30.5664  -22.8895   20.1669 H   0  0  0  0  0  0
  -29.7404  -22.4900   18.6529 H   0  0  0  0  0  0
  -27.7958  -25.0613   18.5730 H   0  0  0  0  0  0
  -29.4429  -25.2093   18.9575 H   0  0  0  0  0  0
  -33.9423  -20.2032   20.4751 H   0  0  0  0  0  0
  -34.2156  -18.5483   20.6758 H   0  0  0  0  0  0
  -28.9407  -15.8260   20.7914 H   0  0  0  0  0  0
  1 25  1  0  0  0
  1 30  2  0  0  0
  1 84  1  0  0  0
  2  3  1  0  0  0
  2 25  1  0  0  0
  2 86  1  0  0  0
  2 87  1  0  0  0
  3  4  1  0  0  0
  3 88  1  0  0  0
  3 89  1  0  0  0
  4  5  1  0  0  0
  4 90  1  0  0  0
  4 91  1  0  0  0
  5  6  1  0  0  0
  5 26  1  0  0  0
  5 92  1  0  0  0
  6 25  1  0  0  0
  6 93  1  0  0  0
  6 94  1  0  0  0
  7  8  2  0  0  0
  7 26  1  0  0  0
  7 29  1  0  0  0
  8  9  1  0  0  0
  8 22  1  0  0  0
  9 10  1  0  0  0
  9 27  2  0  0  0
 10 11  2  0  0  0
 10 15  1  0  0  0
 11 12  1  0  0  0
 11 95  1  0  0  0
 12 13  2  0  0  0
 12 96  1  0  0  0
 13 14  1  0  0  0
 13 31  1  0  0  0
 14 15  2  0  0  0
 14 97  1  0  0  0
 15 98  1  0  0  0
 16 17  2  0  0  0
 16 21  1  0  0  0
 16 31  1  0  0  0
 17 18  1  0  0  0
 17 99  1  0  0  0
 18 19  2  0  0  0
 18100  1  0  0  0
 19 20  1  0  0  0
 19 24  1  0  0  0
 20 21  2  0  0  0
 20101  1  0  0  0
 21 23  1  0  0  0
 22 28  1  0  0  0
 22 32  2  0  0  0
 26 27  1  0  0  0
 28102  1  0  0  0
 28103  1  0  0  0
 29104  1  0  0  0
 29105  1  0  0  0
 33 34  1  0  0  0
 33 66  1  0  0  0
 33 70  2  0  0  0
 34 36  1  0  0  0
 34 59  1  0  0  0
 34106  1  0  0  0
 35 44  2  0  0  0
 35 45  1  0  0  0
 35 68  1  0  0  0
 36 56  1  0  0  0
 36107  1  0  0  0
 37 39  1  0  0  0
 37 47  1  0  0  0
 37 66  1  0  0  0
 37108  1  0  0  0
 38 43  2  0  0  0
 38 46  1  0  0  0
 38 47  1  0  0  0
 39 64  1  0  0  0
 39 67  2  0  0  0
 40 52  1  0  0  0
 40 53  2  0  0  0
 40 58  1  0  0  0
 41109  1  0  0  0
 41110  1  0  0  0
 41111  1  0  0  0
 41 48  1  0  0  0
 42 43  1  0  0  0
 42 66  1  0  0  0
 42112  1  0  0  0
 42113  1  0  0  0
 43 44  1  0  0  0
 44114  1  0  0  0
 45 46  2  0  0  0
 45115  1  0  0  0
 46116  1  0  0  0
 47117  1  0  0  0
 47118  1  0  0  0
 48 56  1  0  0  0
 48 65  1  0  0  0
 48119  1  0  0  0
 49 50  1  0  0  0
 49 53  1  0  0  0
 49 64  1  0  0  0
 49120  1  0  0  0
 50 51  1  0  0  0
 50121  1  0  0  0
 50122  1  0  0  0
 51 52  1  0  0  0
 51123  1  0  0  0
 51124  1  0  0  0
 52125  1  0  0  0
 52126  1  0  0  0
 53 54  1  0  0  0
 54 55  2  0  0  0
 54127  1  0  0  0
 55 57  1  0  0  0
 55128  1  0  0  0
 56 69  2  0  0  0
 57 58  2  0  0  0
 57129  1  0  0  0
 58130  1  0  0  0
 59 60  1  0  0  0
 59 61  1  0  0  0
 59 62  1  0  0  0
 60131  1  0  0  0
 60132  1  0  0  0
 60133  1  0  0  0
 61134  1  0  0  0
 61135  1  0  0  0
 61136  1  0  0  0
 62137  1  0  0  0
 62138  1  0  0  0
 62139  1  0  0  0
 63 65  1  0  0  0
 63140  1  0  0  0
 63141  1  0  0  0
 63142  1  0  0  0
 64143  1  0  0  0
 65144  1  0  0  0
 68 81  1  0  0  0
 71 74  2  0  0  0
 71 75  1  0  0  0
 71145  1  0  0  0
 72 74  1  0  0  0
 72 76  2  0  0  0
 72146  1  0  0  0
 73 75  2  0  0  0
 73 76  1  0  0  0
 73147  1  0  0  0
 74 82  1  0  0  0
 75 83  1  0  0  0
 76 84  1  0  0  0
 77 78  2  0  0  0
 77 79  1  0  0  0
 77148  1  0  0  0
 78 80  1  0  0  0
 78 81  1  0  0  0
 79 82  1  0  0  0
 79 85  2  0  0  0
 80 82  1  0  0  0
 80149  1  0  0  0
 80150  1  0  0  0
 81151  1  0  0  0
 81152  1  0  0  0
 83153  1  0  0  0
 83154  1  0  0  0
 84155  1  0  0  0
M  ISO  4   1 100  68 101  81 101  84 100
M  END
> <chiral flag>
0

> <version>
0

> <s_m_source_file>
/data/baiqing/PycharmProjects/Reinvent-master-3.2/result/LINK_invent/BTK/process_docking_weight1_custom_product_contain_oxygen_bond_distance_aromatic_linkinvent_7_9_3/rearranged_h_0066.sdf

> <i_m_source_file_index>
78

> <r_mmod_Potential_Energy-OPLS-2005>
316.524078369141

> <r_mmod_Stretch_Energy-OPLS-2005>
143.706817626953

> <r_mmod_Bend_Energy-OPLS-2005>
240.737808227539

> <r_mmod_Torsional_Energy-OPLS-2005>
254.774002075195

> <r_mmod_Improper_Torsional_Energy-OPLS-2005>
9.00168323516846

> <r_mmod_Van_der_Waal_Energy-OPLS-2005>
142.969940185547

> <r_mmod_Electrostatic_Energy-OPLS-2005>
-338.183807373047

> <r_mmod_Solvation_Energy-OPLS-2005>
-232.534103393555

> <b_mmod_Minimization_Converged-OPLS-2005>
0

> <r_mmod_RMS_Derivative-OPLS-2005>
1.99308550357819

$$$$
79
                    3D
 Structure written by MMmdl.
158167  0  0  1  0            999 V2000
  -30.5258  -15.0481   20.3387 C   0  0  0  0  0  0
  -30.4493  -12.6408   19.4983 C   0  0  0  0  0  0
  -29.5320  -12.5069   18.2580 C   0  0  0  0  0  0
  -28.0629  -12.3022   18.6717 C   0  0  0  0  0  0
  -27.6327  -13.2597   19.8156 C   0  0  2  0  0  0
  -28.6735  -13.3368   20.9547 C   0  0  0  0  0  0
  -25.2515  -13.8234   20.5661 C   0  0  0  0  0  0
  -24.1850  -13.0445   20.9187 C   0  0  0  0  0  0
  -24.6472  -11.6916   20.8757 C   0  0  0  0  0  0
  -23.9117  -10.4302   21.0398 C   0  0  0  0  0  0
  -24.3667   -9.4220   21.9164 C   0  0  0  0  0  0
  -23.6339   -8.2259   22.0742 C   0  0  0  0  0  0
  -22.4301   -8.0310   21.3559 C   0  0  0  0  0  0
  -21.9955   -9.0273   20.4636 C   0  0  0  0  0  0
  -22.7281  -10.2162   20.3038 C   0  0  0  0  0  0
  -21.6844   -6.0770   22.5306 C   0  0  0  0  0  0
  -21.4014   -6.5663   23.8250 C   0  0  0  0  0  0
  -21.3647   -5.6788   24.9191 C   0  0  0  0  0  0
  -21.6077   -4.3067   24.7207 C   0  0  0  0  0  0
  -21.8818   -3.8160   23.4334 C   0  0  0  0  0  0
  -21.9201   -4.6995   22.3404 C   0  0  0  0  0  0
  -22.7846  -13.5202   21.1831 C   0  0  0  0  0  0
  -22.1659   -4.2184   21.0967 F   0  0  0  0  0  0
  -21.5625   -3.4548   25.7713 F   0  0  0  0  0  0
  -29.9451  -13.7656   20.3571 N   0  0  0  0  0  0
  -26.2939  -12.9504   20.3160 N   0  0  0  0  0  0
  -25.9385  -11.6630   20.5653 N   0  0  0  0  0  0
  -22.0512  -12.8211   22.0415 N   0  0  0  0  0  0
  -25.4117  -15.1955   20.4021 N   0  0  0  0  0  0
  -31.7111  -15.0824   19.9904 O   0  0  0  0  0  0
  -21.6661   -6.8929   21.4270 O   0  0  0  0  0  0
  -22.3521  -14.5485   20.6629 O   0  0  0  0  0  0
  -24.6426  -31.8347   23.1898 C   0  0  0  0  0  0
  -25.9180  -32.4640   23.8246 C   0  0  1  0  0  0
  -27.2228  -27.1139   20.1456 C   0  0  0  0  0  0
  -25.5893  -33.8465   24.2138 N   0  0  0  0  0  0
  -23.4500  -30.4510   21.5304 C   0  0  2  0  0  0
  -24.9009  -28.8745   20.1137 C   0  0  0  0  0  0
  -22.7584  -29.4436   22.4833 C   0  0  0  0  0  0
  -18.0274  -28.1380   22.8426 C   0  0  0  0  0  0
  -24.1497  -36.7216   23.2639 C   0  0  0  0  0  0
  -26.0055  -30.7065   21.3856 C   0  0  0  0  0  0
  -26.0791  -29.3139   20.7319 C   0  0  0  0  0  0
  -27.2411  -28.4501   20.7255 C   0  0  0  0  0  0
  -26.0128  -26.7829   19.4910 C   0  0  0  0  0  0
  -24.8827  -27.6248   19.4777 C   0  0  0  0  0  0
  -23.6827  -29.7774   20.1499 C   0  0  0  0  0  0
  -25.4127  -36.2998   24.0305 C   0  0  1  0  0  0
  -20.5894  -28.3679   23.1238 C   0  0  2  0  0  0
  -20.6737  -26.9370   22.5394 C   0  0  0  0  0  0
  -19.5707  -26.6340   21.5190 C   0  0  0  0  0  0
  -18.1909  -26.7915   22.1616 C   0  0  0  0  0  0
  -19.1549  -28.8854   23.2819 C   0  0  0  0  0  0
  -18.9479  -30.1439   23.8839 C   0  0  0  0  0  0
  -17.6483  -30.6589   24.0539 C   0  0  0  0  0  0
  -25.9083  -34.9367   23.5052 C   0  0  0  0  0  0
  -16.5354  -29.9084   23.6322 C   0  0  0  0  0  0
  -16.7266  -28.6503   23.0339 C   0  0  0  0  0  0
  -26.4514  -31.6518   25.0675 C   0  0  0  0  0  0
  -25.3724  -31.3737   26.1378 C   0  0  0  0  0  0
  -27.0347  -30.2902   24.6228 C   0  0  0  0  0  0
  -27.6000  -32.4285   25.7503 C   0  0  0  0  0  0
  -27.5578  -37.1756   24.8471 C   0  0  0  0  0  0
  -21.4287  -29.2997   22.3629 N   0  0  0  0  0  0
  -26.4281  -37.3706   23.9420 N   0  0  0  0  0  0
  -24.7191  -31.0178   22.0924 N   0  0  0  0  0  0
  -23.4223  -28.7937   23.2986 O   0  0  0  0  0  0
  -28.2995  -26.1433   20.1480 O   0  0  0  0  0  0
  -26.5667  -34.8873   22.4635 O   0  0  0  0  0  0
  -23.5524  -32.1248   23.7050 O   0  0  0  0  0  0
  -29.0141  -18.8306   17.8730 C   0  0  0  0  0  0
  -29.3859  -17.6578   18.5758 C   0  0  0  0  0  0
  -29.5865  -19.0655   20.5250 C   0  0  0  0  0  0
  -28.9154  -20.1249   18.4509 C   0  0  0  0  0  0
  -29.2455  -20.3628   19.8204 C   0  0  0  0  0  0
  -29.6622  -17.6687   19.9564 C   0  0  0  0  0  0
  -30.2032  -21.9531   21.3701 C   0  0  0  0  0  0
  -31.3192  -22.8747   20.9242 C   0  0  0  0  0  0
  -30.5719  -23.9575   20.1636 C   0  0  0  0  0  0
  -29.1772  -23.3523   19.8414 C   0  0  2  0  0  0
  -28.4154  -21.2180   17.5230 C   0  0  0  0  0  0
  -28.1054  -24.5928   20.3331 C   0  0  0  0  0  0
  -29.2701  -21.8276   20.4170 N   0  0  0  0  0  0
  -29.8116  -16.2702   20.6378 N   0  0  0  0  0  0
  -30.2053  -21.3943   22.4739 O   0  0  0  0  0  0
  -31.4764  -12.8076   19.1647 H   0  0  0  0  0  0
  -30.4751  -11.7041   20.0570 H   0  0  0  0  0  0
  -29.8551  -11.6641   17.6413 H   0  0  0  0  0  0
  -29.6346  -13.3896   17.6298 H   0  0  0  0  0  0
  -27.9518  -11.2668   18.9945 H   0  0  0  0  0  0
  -27.4084  -12.4145   17.8050 H   0  0  0  0  0  0
  -27.5836  -14.2499   19.3538 H   0  0  0  0  0  0
  -28.7794  -12.3732   21.4573 H   0  0  0  0  0  0
  -28.3499  -14.0523   21.7161 H   0  0  0  0  0  0
  -25.2833   -9.5682   22.4698 H   0  0  0  0  0  0
  -24.0092   -7.4645   22.7436 H   0  0  0  0  0  0
  -21.0908   -8.8735   19.8927 H   0  0  0  0  0  0
  -22.3741  -10.9661   19.6109 H   0  0  0  0  0  0
  -21.2005   -7.6159   23.9751 H   0  0  0  0  0  0
  -21.1464   -6.0518   25.9106 H   0  0  0  0  0  0
  -22.0616   -2.7631   23.2796 H   0  0  0  0  0  0
  -22.4137  -11.9921   22.4878 H   0  0  0  0  0  0
  -21.1079  -13.1125   22.2438 H   0  0  0  0  0  0
  -24.6413  -15.8411   20.5225 H   0  0  0  0  0  0
  -26.2369  -15.6281   20.0130 H   0  0  0  0  0  0
  -26.7194  -32.5250   23.0917 H   0  0  0  0  0  0
  -24.9979  -33.9607   25.0232 H   0  0  0  0  0  0
  -22.7458  -31.2702   21.3623 H   0  0  0  0  0  0
  -23.3794  -35.9526   23.3306 H   0  0  0  0  0  0
  -24.3572  -36.8867   22.2058 H   0  0  0  0  0  0
  -23.7242  -37.6392   23.6697 H   0  0  0  0  0  0
  -26.1447  -31.4625   20.6109 H   0  0  0  0  0  0
  -26.8832  -30.7671   22.0201 H   0  0  0  0  0  0
  -28.1425  -28.7874   21.2162 H   0  0  0  0  0  0
  -25.9283  -25.8403   18.9755 H   0  0  0  0  0  0
  -23.9845  -27.2953   18.9717 H   0  0  0  0  0  0
  -23.8340  -30.5452   19.3920 H   0  0  0  0  0  0
  -22.8023  -29.2149   19.8324 H   0  0  0  0  0  0
  -25.1336  -36.1787   25.0799 H   0  0  0  0  0  0
  -20.9923  -28.3245   24.1387 H   0  0  0  0  0  0
  -20.5579  -26.2304   23.3642 H   0  0  0  0  0  0
  -21.6622  -26.7310   22.1217 H   0  0  0  0  0  0
  -19.6901  -25.6249   21.1235 H   0  0  0  0  0  0
  -19.6687  -27.3146   20.6731 H   0  0  0  0  0  0
  -17.4164  -26.6594   21.4046 H   0  0  0  0  0  0
  -18.0325  -26.0091   22.9052 H   0  0  0  0  0  0
  -19.7968  -30.7239   24.2225 H   0  0  0  0  0  0
  -17.5054  -31.6282   24.5127 H   0  0  0  0  0  0
  -15.5370  -30.2982   23.7723 H   0  0  0  0  0  0
  -15.8642  -28.0838   22.7080 H   0  0  0  0  0  0
  -24.5875  -30.7095   25.7739 H   0  0  0  0  0  0
  -24.8950  -32.2974   26.4686 H   0  0  0  0  0  0
  -25.8023  -30.8972   27.0227 H   0  0  0  0  0  0
  -26.2946  -29.6629   24.1228 H   0  0  0  0  0  0
  -27.3973  -29.7135   25.4765 H   0  0  0  0  0  0
  -27.8871  -30.4101   23.9530 H   0  0  0  0  0  0
  -27.2499  -33.3568   26.2037 H   0  0  0  0  0  0
  -28.3876  -32.6882   25.0422 H   0  0  0  0  0  0
  -28.0618  -31.8443   26.5478 H   0  0  0  0  0  0
  -28.2546  -38.0082   24.7494 H   0  0  0  0  0  0
  -28.1098  -36.2601   24.6320 H   0  0  0  0  0  0
  -27.2278  -37.1426   25.8861 H   0  0  0  0  0  0
  -20.9517  -29.8793   21.6854 H   0  0  0  0  0  0
  -26.0146  -38.2767   24.1484 H   0  0  0  0  0  0
  -28.7619  -18.7128   16.8293 H   0  0  0  0  0  0
  -29.3765  -16.7236   18.0294 H   0  0  0  0  0  0
  -29.8363  -19.1395   21.5728 H   0  0  0  0  0  0
  -31.9694  -22.3243   20.2390 H   0  0  0  0  0  0
  -31.9172  -23.2434   21.7570 H   0  0  0  0  0  0
  -31.1094  -24.2723   19.2648 H   0  0  0  0  0  0
  -30.4995  -24.8476   20.7906 H   0  0  0  0  0  0
  -29.1147  -23.3367   18.7564 H   0  0  0  0  0  0
  -27.8652  -20.7874   16.6882 H   0  0  0  0  0  0
  -29.2476  -21.7798   17.0912 H   0  0  0  0  0  0
  -27.7170  -21.8789   18.0328 H   0  0  0  0  0  0
  -27.9864  -24.4710   21.4108 H   0  0  0  0  0  0
  -27.1239  -24.3314   19.9469 H   0  0  0  0  0  0
  -29.0987  -16.1080   21.3367 H   0  0  0  0  0  0
  1 25  1  0  0  0
  1 30  2  0  0  0
  1 84  1  0  0  0
  2  3  1  0  0  0
  2 25  1  0  0  0
  2 86  1  0  0  0
  2 87  1  0  0  0
  3  4  1  0  0  0
  3 88  1  0  0  0
  3 89  1  0  0  0
  4  5  1  0  0  0
  4 90  1  0  0  0
  4 91  1  0  0  0
  5  6  1  0  0  0
  5 26  1  0  0  0
  5 92  1  0  0  0
  6 25  1  0  0  0
  6 93  1  0  0  0
  6 94  1  0  0  0
  7  8  2  0  0  0
  7 26  1  0  0  0
  7 29  1  0  0  0
  8  9  1  0  0  0
  8 22  1  0  0  0
  9 10  1  0  0  0
  9 27  2  0  0  0
 10 11  2  0  0  0
 10 15  1  0  0  0
 11 12  1  0  0  0
 11 95  1  0  0  0
 12 13  2  0  0  0
 12 96  1  0  0  0
 13 14  1  0  0  0
 13 31  1  0  0  0
 14 15  2  0  0  0
 14 97  1  0  0  0
 15 98  1  0  0  0
 16 17  2  0  0  0
 16 21  1  0  0  0
 16 31  1  0  0  0
 17 18  1  0  0  0
 17 99  1  0  0  0
 18 19  2  0  0  0
 18100  1  0  0  0
 19 20  1  0  0  0
 19 24  1  0  0  0
 20 21  2  0  0  0
 20101  1  0  0  0
 21 23  1  0  0  0
 22 28  1  0  0  0
 22 32  2  0  0  0
 26 27  1  0  0  0
 28102  1  0  0  0
 28103  1  0  0  0
 29104  1  0  0  0
 29105  1  0  0  0
 33 34  1  0  0  0
 33 66  1  0  0  0
 33 70  2  0  0  0
 34 36  1  0  0  0
 34 59  1  0  0  0
 34106  1  0  0  0
 35 44  2  0  0  0
 35 45  1  0  0  0
 35 68  1  0  0  0
 36 56  1  0  0  0
 36107  1  0  0  0
 37 39  1  0  0  0
 37 47  1  0  0  0
 37 66  1  0  0  0
 37108  1  0  0  0
 38 43  2  0  0  0
 38 46  1  0  0  0
 38 47  1  0  0  0
 39 64  1  0  0  0
 39 67  2  0  0  0
 40 52  1  0  0  0
 40 53  2  0  0  0
 40 58  1  0  0  0
 41109  1  0  0  0
 41110  1  0  0  0
 41111  1  0  0  0
 41 48  1  0  0  0
 42 43  1  0  0  0
 42 66  1  0  0  0
 42112  1  0  0  0
 42113  1  0  0  0
 43 44  1  0  0  0
 44114  1  0  0  0
 45 46  2  0  0  0
 45115  1  0  0  0
 46116  1  0  0  0
 47117  1  0  0  0
 47118  1  0  0  0
 48 56  1  0  0  0
 48 65  1  0  0  0
 48119  1  0  0  0
 49 50  1  0  0  0
 49 53  1  0  0  0
 49 64  1  0  0  0
 49120  1  0  0  0
 50 51  1  0  0  0
 50121  1  0  0  0
 50122  1  0  0  0
 51 52  1  0  0  0
 51123  1  0  0  0
 51124  1  0  0  0
 52125  1  0  0  0
 52126  1  0  0  0
 53 54  1  0  0  0
 54 55  2  0  0  0
 54127  1  0  0  0
 55 57  1  0  0  0
 55128  1  0  0  0
 56 69  2  0  0  0
 57 58  2  0  0  0
 57129  1  0  0  0
 58130  1  0  0  0
 59 60  1  0  0  0
 59 61  1  0  0  0
 59 62  1  0  0  0
 60131  1  0  0  0
 60132  1  0  0  0
 60133  1  0  0  0
 61134  1  0  0  0
 61135  1  0  0  0
 61136  1  0  0  0
 62137  1  0  0  0
 62138  1  0  0  0
 62139  1  0  0  0
 63 65  1  0  0  0
 63140  1  0  0  0
 63141  1  0  0  0
 63142  1  0  0  0
 64143  1  0  0  0
 65144  1  0  0  0
 68 82  1  0  0  0
 71 72  2  0  0  0
 71 74  1  0  0  0
 71145  1  0  0  0
 72 76  1  0  0  0
 72146  1  0  0  0
 73 75  1  0  0  0
 73 76  2  0  0  0
 73147  1  0  0  0
 74 75  2  0  0  0
 74 81  1  0  0  0
 75 83  1  0  0  0
 76 84  1  0  0  0
 77 78  1  0  0  0
 77 83  1  0  0  0
 77 85  2  0  0  0
 78 79  1  0  0  0
 78148  1  0  0  0
 78149  1  0  0  0
 79 80  1  0  0  0
 79150  1  0  0  0
 79151  1  0  0  0
 80 82  1  0  0  0
 80 83  1  0  0  0
 80152  1  0  0  0
 81153  1  0  0  0
 81154  1  0  0  0
 81155  1  0  0  0
 82156  1  0  0  0
 82157  1  0  0  0
 84158  1  0  0  0
M  ISO  4   1 100  68 101  82 101  84 100
M  END
> <chiral flag>
0

> <version>
0

> <s_m_source_file>
/data/baiqing/PycharmProjects/Reinvent-master-3.2/result/LINK_invent/BTK/process_docking_weight1_custom_product_contain_oxygen_bond_distance_aromatic_linkinvent_7_9_3/rearranged_h_0066.sdf

> <i_m_source_file_index>
79

> <r_mmod_Potential_Energy-OPLS-2005>
856.10693359375

> <r_mmod_Stretch_Energy-OPLS-2005>
357.17431640625

> <r_mmod_Bend_Energy-OPLS-2005>
344.286987304688

> <r_mmod_Torsional_Energy-OPLS-2005>
365.843566894531

> <r_mmod_Improper_Torsional_Energy-OPLS-2005>
5.5273814201355

> <r_mmod_Van_der_Waal_Energy-OPLS-2005>
133.89143371582

> <r_mmod_Electrostatic_Energy-OPLS-2005>
-363.505798339844

> <r_mmod_Solvation_Energy-OPLS-2005>
-223.997970581055

> <b_mmod_Minimization_Converged-OPLS-2005>
0

> <r_mmod_RMS_Derivative-OPLS-2005>
8.52518653869629

$$$$
80
                    3D
 Structure written by MMmdl.
161170  0  0  1  0            999 V2000
  -30.6017  -14.7481   20.4766 C   0  0  0  0  0  0
  -30.4415  -12.4563   19.4966 C   0  0  0  0  0  0
  -29.5274  -12.5251   18.2515 C   0  0  0  0  0  0
  -28.0493  -12.3491   18.6517 C   0  0  0  0  0  0
  -27.6509  -13.2335   19.8648 C   0  0  2  0  0  0
  -28.6897  -13.1482   21.0061 C   0  0  0  0  0  0
  -25.2543  -13.8203   20.5703 C   0  0  0  0  0  0
  -24.1817  -13.0447   20.9162 C   0  0  0  0  0  0
  -24.6413  -11.6931   20.8732 C   0  0  0  0  0  0
  -23.9084  -10.4309   21.0403 C   0  0  0  0  0  0
  -24.3633   -9.4222   21.9182 C   0  0  0  0  0  0
  -23.6299   -8.2264   22.0752 C   0  0  0  0  0  0
  -22.4273   -8.0303   21.3546 C   0  0  0  0  0  0
  -21.9906   -9.0274   20.4649 C   0  0  0  0  0  0
  -22.7247  -10.2144   20.3062 C   0  0  0  0  0  0
  -21.6857   -6.0741   22.5278 C   0  0  0  0  0  0
  -21.4019   -6.5639   23.8209 C   0  0  0  0  0  0
  -21.3654   -5.6781   24.9169 C   0  0  0  0  0  0
  -21.6038   -4.3046   24.7209 C   0  0  0  0  0  0
  -21.8825   -3.8147   23.4330 C   0  0  0  0  0  0
  -21.9190   -4.6974   22.3384 C   0  0  0  0  0  0
  -22.7839  -13.5240   21.1829 C   0  0  0  0  0  0
  -22.1656   -4.2166   21.0966 F   0  0  0  0  0  0
  -21.5628   -3.4523   25.7714 F   0  0  0  0  0  0
  -29.9983  -13.5079   20.4447 N   0  0  0  0  0  0
  -26.2983  -12.9411   20.3317 N   0  0  0  0  0  0
  -25.9348  -11.6547   20.5735 N   0  0  0  0  0  0
  -22.0484  -12.8244   22.0394 N   0  0  0  0  0  0
  -25.4256  -15.1929   20.4181 N   0  0  0  0  0  0
  -31.7566  -14.8756   20.0610 O   0  0  0  0  0  0
  -21.6645   -6.8895   21.4239 O   0  0  0  0  0  0
  -22.3521  -14.5539   20.6658 O   0  0  0  0  0  0
  -24.6338  -31.8553   23.1961 C   0  0  0  0  0  0
  -25.9155  -32.4752   23.8325 C   0  0  1  0  0  0
  -27.2166  -27.2319   20.1342 C   0  0  0  0  0  0
  -25.5936  -33.8554   24.2240 N   0  0  0  0  0  0
  -23.4319  -30.4757   21.5423 C   0  0  2  0  0  0
  -24.8789  -28.9233   20.1070 C   0  0  0  0  0  0
  -22.7524  -29.4589   22.4925 C   0  0  0  0  0  0
  -18.0290  -28.1402   22.8483 C   0  0  0  0  0  0
  -24.1477  -36.7271   23.2642 C   0  0  0  0  0  0
  -25.9800  -30.7577   21.3818 C   0  0  0  0  0  0
  -26.0520  -29.3790   20.7212 C   0  0  0  0  0  0
  -27.2215  -28.5454   20.7256 C   0  0  0  0  0  0
  -26.0240  -26.8667   19.4659 C   0  0  0  0  0  0
  -24.8721  -27.6761   19.4674 C   0  0  0  0  0  0
  -23.6500  -29.8116   20.1578 C   0  0  0  0  0  0
  -25.4112  -36.3062   24.0318 C   0  0  1  0  0  0
  -20.5899  -28.3703   23.1270 C   0  0  2  0  0  0
  -20.6774  -26.9416   22.5420 C   0  0  0  0  0  0
  -19.5746  -26.6381   21.5223 C   0  0  0  0  0  0
  -18.1925  -26.7938   22.1629 C   0  0  0  0  0  0
  -19.1548  -28.8874   23.2861 C   0  0  0  0  0  0
  -18.9473  -30.1472   23.8886 C   0  0  0  0  0  0
  -17.6469  -30.6597   24.0564 C   0  0  0  0  0  0
  -25.9064  -34.9440   23.5082 C   0  0  0  0  0  0
  -16.5359  -29.9093   23.6334 C   0  0  0  0  0  0
  -16.7276  -28.6511   23.0355 C   0  0  0  0  0  0
  -26.4496  -31.6595   25.0737 C   0  0  0  0  0  0
  -25.3690  -31.3796   26.1441 C   0  0  0  0  0  0
  -27.0359  -30.3000   24.6276 C   0  0  0  0  0  0
  -27.6042  -32.4355   25.7513 C   0  0  0  0  0  0
  -27.5573  -37.1785   24.8460 C   0  0  0  0  0  0
  -21.4237  -29.3035   22.3654 N   0  0  0  0  0  0
  -26.4277  -37.3772   23.9412 N   0  0  0  0  0  0
  -24.7013  -31.0481   22.0959 N   0  0  0  0  0  0
  -23.4204  -28.8144   23.3047 O   0  0  0  0  0  0
  -28.2893  -26.2991   20.2289 O   0  0  0  0  0  0
  -26.5652  -34.8926   22.4659 O   0  0  0  0  0  0
  -23.5477  -32.1406   23.7229 O   0  0  0  0  0  0
  -29.1768  -16.9898   18.8097 C   0  0  0  0  0  0
  -29.6186  -18.4925   20.6630 C   0  0  0  0  0  0
  -28.7831  -18.0886   18.0145 C   0  0  0  0  0  0
  -28.8708  -19.4208   18.5208 C   0  0  0  0  0  0
  -29.2413  -19.6704   19.8780 C   0  0  0  0  0  0
  -29.6176  -17.1297   20.1357 C   0  0  0  0  0  0
  -28.3140  -22.0687   20.3818 C   0  0  0  0  0  0
  -30.3038  -23.3152   20.2919 C   0  0  0  0  0  0
  -30.5731  -21.7934   20.5205 C   0  0  0  0  0  0
  -28.8258  -23.5521   20.6378 C   0  0  1  0  0  0
  -28.5965  -20.5923   17.5742 C   0  0  0  0  0  0
  -28.0390  -24.8216   19.9646 C   0  0  0  0  0  0
  -28.2635  -17.7854   16.6029 C   0  0  0  0  0  0
  -29.2984  -21.0952   20.3506 N   0  0  0  0  0  0
  -29.8625  -15.8586   20.8708 N   0  0  0  0  0  0
  -27.1097  -21.8293   20.2540 O   0  0  0  0  0  0
  -27.9598  -16.4943   16.4508 F   0  0  0  0  0  0
  -27.1515  -18.4730   16.3377 F   0  0  0  0  0  0
  -29.1948  -18.0935   15.7001 F   0  0  0  0  0  0
  -31.4863  -12.5754   19.2051 H   0  0  0  0  0  0
  -30.3786  -11.4753   19.9695 H   0  0  0  0  0  0
  -29.8165  -11.7614   17.5275 H   0  0  0  0  0  0
  -29.6610  -13.4840   17.7493 H   0  0  0  0  0  0
  -27.8976  -11.2967   18.8929 H   0  0  0  0  0  0
  -27.4025  -12.5608   17.7994 H   0  0  0  0  0  0
  -27.6510  -14.2612   19.5045 H   0  0  0  0  0  0
  -28.7212  -12.1396   21.4203 H   0  0  0  0  0  0
  -28.4178  -13.8072   21.8316 H   0  0  0  0  0  0
  -25.2796   -9.5683   22.4732 H   0  0  0  0  0  0
  -24.0001   -7.4653   22.7467 H   0  0  0  0  0  0
  -21.0828   -8.8808   19.8960 H   0  0  0  0  0  0
  -22.3728  -10.9676   19.6163 H   0  0  0  0  0  0
  -21.2029   -7.6143   23.9714 H   0  0  0  0  0  0
  -21.1461   -6.0513   25.9068 H   0  0  0  0  0  0
  -22.0614   -2.7611   23.2822 H   0  0  0  0  0  0
  -22.4077  -11.9897   22.4776 H   0  0  0  0  0  0
  -21.1125  -13.1309   22.2635 H   0  0  0  0  0  0
  -24.6595  -15.8473   20.5341 H   0  0  0  0  0  0
  -26.2812  -15.6366   20.1107 H   0  0  0  0  0  0
  -26.7231  -32.5396   23.1080 H   0  0  0  0  0  0
  -25.0036  -33.9680   25.0350 H   0  0  0  0  0  0
  -22.7283  -31.2974   21.3963 H   0  0  0  0  0  0
  -23.3747  -35.9593   23.3298 H   0  0  0  0  0  0
  -24.3570  -36.8910   22.2060 H   0  0  0  0  0  0
  -23.7223  -37.6463   23.6682 H   0  0  0  0  0  0
  -26.1249  -31.5188   20.6142 H   0  0  0  0  0  0
  -26.8549  -30.8058   22.0181 H   0  0  0  0  0  0
  -28.1143  -28.8857   21.2314 H   0  0  0  0  0  0
  -25.9409  -25.9236   18.9472 H   0  0  0  0  0  0
  -23.9763  -27.3242   18.9745 H   0  0  0  0  0  0
  -23.7736  -30.5898   19.4038 H   0  0  0  0  0  0
  -22.7673  -29.2469   19.8523 H   0  0  0  0  0  0
  -25.1286  -36.1908   25.0808 H   0  0  0  0  0  0
  -20.9970  -28.3290   24.1399 H   0  0  0  0  0  0
  -20.5676  -26.2315   23.3632 H   0  0  0  0  0  0
  -21.6644  -26.7441   22.1217 H   0  0  0  0  0  0
  -19.6904  -25.6288   21.1260 H   0  0  0  0  0  0
  -19.6678  -27.3185   20.6746 H   0  0  0  0  0  0
  -17.4194  -26.6689   21.4030 H   0  0  0  0  0  0
  -18.0305  -26.0091   22.9033 H   0  0  0  0  0  0
  -19.7953  -30.7287   24.2247 H   0  0  0  0  0  0
  -17.5030  -31.6274   24.5166 H   0  0  0  0  0  0
  -15.5363  -30.2990   23.7671 H   0  0  0  0  0  0
  -15.8673  -28.0821   22.7083 H   0  0  0  0  0  0
  -24.5833  -30.7182   25.7766 H   0  0  0  0  0  0
  -24.8918  -32.2995   26.4832 H   0  0  0  0  0  0
  -25.7961  -30.8986   27.0244 H   0  0  0  0  0  0
  -26.2978  -29.6742   24.1245 H   0  0  0  0  0  0
  -27.3953  -29.7276   25.4838 H   0  0  0  0  0  0
  -27.8882  -30.4254   23.9595 H   0  0  0  0  0  0
  -27.2625  -33.3649   26.2080 H   0  0  0  0  0  0
  -28.3846  -32.6936   25.0342 H   0  0  0  0  0  0
  -28.0710  -31.8500   26.5443 H   0  0  0  0  0  0
  -28.2582  -38.0090   24.7526 H   0  0  0  0  0  0
  -28.1077  -36.2630   24.6251 H   0  0  0  0  0  0
  -27.2304  -37.1398   25.8865 H   0  0  0  0  0  0
  -20.9438  -29.8746   21.6845 H   0  0  0  0  0  0
  -26.0153  -38.2834   24.1442 H   0  0  0  0  0  0
  -29.1074  -15.9974   18.3902 H   0  0  0  0  0  0
  -29.9130  -18.6397   21.6924 H   0  0  0  0  0  0
  -30.4826  -23.5711   19.2472 H   0  0  0  0  0  0
  -30.9702  -23.9323   20.8951 H   0  0  0  0  0  0
  -30.9285  -21.6151   21.5367 H   0  0  0  0  0  0
  -31.3287  -21.4121   19.8322 H   0  0  0  0  0  0
  -28.7575  -23.6830   21.7177 H   0  0  0  0  0  0
  -28.7716  -20.3381   16.5313 H   0  0  0  0  0  0
  -29.2563  -21.4376   17.7708 H   0  0  0  0  0  0
  -27.5627  -20.9247   17.6713 H   0  0  0  0  0  0
  -27.0091  -24.6287   20.2641 H   0  0  0  0  0  0
  -28.0595  -24.6897   18.8821 H   0  0  0  0  0  0
  -29.0994  -15.6036   21.4804 H   0  0  0  0  0  0
  1 25  1  0  0  0
  1 30  2  0  0  0
  1 85  1  0  0  0
  2  3  1  0  0  0
  2 25  1  0  0  0
  2 90  1  0  0  0
  2 91  1  0  0  0
  3  4  1  0  0  0
  3 92  1  0  0  0
  3 93  1  0  0  0
  4  5  1  0  0  0
  4 94  1  0  0  0
  4 95  1  0  0  0
  5  6  1  0  0  0
  5 26  1  0  0  0
  5 96  1  0  0  0
  6 25  1  0  0  0
  6 97  1  0  0  0
  6 98  1  0  0  0
  7  8  2  0  0  0
  7 26  1  0  0  0
  7 29  1  0  0  0
  8  9  1  0  0  0
  8 22  1  0  0  0
  9 10  1  0  0  0
  9 27  2  0  0  0
 10 11  2  0  0  0
 10 15  1  0  0  0
 11 12  1  0  0  0
 11 99  1  0  0  0
 12 13  2  0  0  0
 12100  1  0  0  0
 13 14  1  0  0  0
 13 31  1  0  0  0
 14 15  2  0  0  0
 14101  1  0  0  0
 15102  1  0  0  0
 16 17  2  0  0  0
 16 21  1  0  0  0
 16 31  1  0  0  0
 17 18  1  0  0  0
 17103  1  0  0  0
 18 19  2  0  0  0
 18104  1  0  0  0
 19 20  1  0  0  0
 19 24  1  0  0  0
 20 21  2  0  0  0
 20105  1  0  0  0
 21 23  1  0  0  0
 22 28  1  0  0  0
 22 32  2  0  0  0
 26 27  1  0  0  0
 28106  1  0  0  0
 28107  1  0  0  0
 29108  1  0  0  0
 29109  1  0  0  0
 33 34  1  0  0  0
 33 66  1  0  0  0
 33 70  2  0  0  0
 34 36  1  0  0  0
 34 59  1  0  0  0
 34110  1  0  0  0
 35 44  2  0  0  0
 35 45  1  0  0  0
 35 68  1  0  0  0
 36 56  1  0  0  0
 36111  1  0  0  0
 37 39  1  0  0  0
 37 47  1  0  0  0
 37 66  1  0  0  0
 37112  1  0  0  0
 38 43  2  0  0  0
 38 46  1  0  0  0
 38 47  1  0  0  0
 39 64  1  0  0  0
 39 67  2  0  0  0
 40 52  1  0  0  0
 40 53  2  0  0  0
 40 58  1  0  0  0
 41113  1  0  0  0
 41114  1  0  0  0
 41115  1  0  0  0
 41 48  1  0  0  0
 42 43  1  0  0  0
 42 66  1  0  0  0
 42116  1  0  0  0
 42117  1  0  0  0
 43 44  1  0  0  0
 44118  1  0  0  0
 45 46  2  0  0  0
 45119  1  0  0  0
 46120  1  0  0  0
 47121  1  0  0  0
 47122  1  0  0  0
 48 56  1  0  0  0
 48 65  1  0  0  0
 48123  1  0  0  0
 49 50  1  0  0  0
 49 53  1  0  0  0
 49 64  1  0  0  0
 49124  1  0  0  0
 50 51  1  0  0  0
 50125  1  0  0  0
 50126  1  0  0  0
 51 52  1  0  0  0
 51127  1  0  0  0
 51128  1  0  0  0
 52129  1  0  0  0
 52130  1  0  0  0
 53 54  1  0  0  0
 54 55  2  0  0  0
 54131  1  0  0  0
 55 57  1  0  0  0
 55132  1  0  0  0
 56 69  2  0  0  0
 57 58  2  0  0  0
 57133  1  0  0  0
 58134  1  0  0  0
 59 60  1  0  0  0
 59 61  1  0  0  0
 59 62  1  0  0  0
 60135  1  0  0  0
 60136  1  0  0  0
 60137  1  0  0  0
 61138  1  0  0  0
 61139  1  0  0  0
 61140  1  0  0  0
 62141  1  0  0  0
 62142  1  0  0  0
 62143  1  0  0  0
 63 65  1  0  0  0
 63144  1  0  0  0
 63145  1  0  0  0
 63146  1  0  0  0
 64147  1  0  0  0
 65148  1  0  0  0
 68 82  1  0  0  0
 71 73  2  0  0  0
 71 76  1  0  0  0
 71149  1  0  0  0
 72 75  1  0  0  0
 72 76  2  0  0  0
 72150  1  0  0  0
 73 74  1  0  0  0
 73 83  1  0  0  0
 74 75  2  0  0  0
 74 81  1  0  0  0
 75 84  1  0  0  0
 76 85  1  0  0  0
 77 80  1  0  0  0
 77 84  1  0  0  0
 77 86  2  0  0  0
 78 79  1  0  0  0
 78 80  1  0  0  0
 78151  1  0  0  0
 78152  1  0  0  0
 79 84  1  0  0  0
 79153  1  0  0  0
 79154  1  0  0  0
 80 82  1  0  0  0
 80155  1  0  0  0
 81156  1  0  0  0
 81157  1  0  0  0
 81158  1  0  0  0
 82159  1  0  0  0
 82160  1  0  0  0
 83 87  1  0  0  0
 83 88  1  0  0  0
 83 89  1  0  0  0
 85161  1  0  0  0
M  ISO  4   1 100  68 101  82 101  85 100
M  END
> <chiral flag>
0

> <version>
0

> <s_m_source_file>
/data/baiqing/PycharmProjects/Reinvent-master-3.2/result/LINK_invent/BTK/process_docking_weight1_custom_product_contain_oxygen_bond_distance_aromatic_linkinvent_7_9_3/rearranged_h_0066.sdf

> <i_m_source_file_index>
80

> <r_mmod_Potential_Energy-OPLS-2005>
384.000457763672

> <r_mmod_Stretch_Energy-OPLS-2005>
142.508361816406

> <r_mmod_Bend_Energy-OPLS-2005>
205.91584777832

> <r_mmod_Torsional_Energy-OPLS-2005>
326.264129638672

> <r_mmod_Improper_Torsional_Energy-OPLS-2005>
6.50909996032715

> <r_mmod_Van_der_Waal_Energy-OPLS-2005>
141.195663452148

> <r_mmod_Electrostatic_Energy-OPLS-2005>
-314.630859375

> <r_mmod_Solvation_Energy-OPLS-2005>
-220.194869995117

> <b_mmod_Minimization_Converged-OPLS-2005>
0

> <r_mmod_RMS_Derivative-OPLS-2005>
2.31813168525696

$$$$
81
                    3D
 Structure written by MMmdl.
160169  0  0  1  0            999 V2000
  -30.5884  -14.6890   20.4947 C   0  0  0  0  0  0
  -30.4470  -12.4230   19.4574 C   0  0  0  0  0  0
  -29.5137  -12.5137   18.2279 C   0  0  0  0  0  0
  -28.0365  -12.3426   18.6376 C   0  0  0  0  0  0
  -27.6530  -13.2157   19.8615 C   0  0  2  0  0  0
  -28.6977  -13.0783   20.9920 C   0  0  0  0  0  0
  -25.2566  -13.8169   20.5673 C   0  0  0  0  0  0
  -24.1832  -13.0438   20.9185 C   0  0  0  0  0  0
  -24.6396  -11.6907   20.8734 C   0  0  0  0  0  0
  -23.9060  -10.4295   21.0405 C   0  0  0  0  0  0
  -24.3613   -9.4212   21.9185 C   0  0  0  0  0  0
  -23.6288   -8.2247   22.0756 C   0  0  0  0  0  0
  -22.4271   -8.0283   21.3544 C   0  0  0  0  0  0
  -21.9905   -9.0256   20.4648 C   0  0  0  0  0  0
  -22.7230  -10.2138   20.3058 C   0  0  0  0  0  0
  -21.6857   -6.0733   22.5272 C   0  0  0  0  0  0
  -21.4017   -6.5639   23.8206 C   0  0  0  0  0  0
  -21.3654   -5.6790   24.9168 C   0  0  0  0  0  0
  -21.6045   -4.3053   24.7222 C   0  0  0  0  0  0
  -21.8821   -3.8143   23.4344 C   0  0  0  0  0  0
  -21.9196   -4.6959   22.3398 C   0  0  0  0  0  0
  -22.7854  -13.5236   21.1843 C   0  0  0  0  0  0
  -22.1664   -4.2145   21.0978 F   0  0  0  0  0  0
  -21.5625   -3.4538   25.7734 F   0  0  0  0  0  0
  -30.0089  -13.4444   20.4312 N   0  0  0  0  0  0
  -26.2989  -12.9341   20.3299 N   0  0  0  0  0  0
  -25.9323  -11.6500   20.5746 N   0  0  0  0  0  0
  -22.0491  -12.8237   22.0400 N   0  0  0  0  0  0
  -25.4285  -15.1894   20.4088 N   0  0  0  0  0  0
  -31.7470  -14.8716   20.1080 O   0  0  0  0  0  0
  -21.6641   -6.8875   21.4235 O   0  0  0  0  0  0
  -22.3543  -14.5539   20.6684 O   0  0  0  0  0  0
  -24.6284  -31.8579   23.2017 C   0  0  0  0  0  0
  -25.9122  -32.4768   23.8348 C   0  0  1  0  0  0
  -27.2205  -27.2915   20.1211 C   0  0  0  0  0  0
  -25.5929  -33.8569   24.2277 N   0  0  0  0  0  0
  -23.4238  -30.4818   21.5450 C   0  0  2  0  0  0
  -24.8710  -28.9373   20.1094 C   0  0  0  0  0  0
  -22.7489  -29.4608   22.4925 C   0  0  0  0  0  0
  -18.0291  -28.1380   22.8486 C   0  0  0  0  0  0
  -24.1489  -36.7287   23.2637 C   0  0  0  0  0  0
  -25.9683  -30.7804   21.3777 C   0  0  0  0  0  0
  -26.0418  -29.4065   20.7181 C   0  0  0  0  0  0
  -27.2196  -28.5960   20.7144 C   0  0  0  0  0  0
  -26.0269  -26.8899   19.4765 C   0  0  0  0  0  0
  -24.8673  -27.6859   19.4782 C   0  0  0  0  0  0
  -23.6405  -29.8204   20.1595 C   0  0  0  0  0  0
  -25.4114  -36.3080   24.0330 C   0  0  1  0  0  0
  -20.5895  -28.3686   23.1280 C   0  0  2  0  0  0
  -20.6783  -26.9405   22.5411 C   0  0  0  0  0  0
  -19.5758  -26.6379   21.5213 C   0  0  0  0  0  0
  -18.1937  -26.7921   22.1625 C   0  0  0  0  0  0
  -19.1544  -28.8852   23.2878 C   0  0  0  0  0  0
  -18.9462  -30.1453   23.8897 C   0  0  0  0  0  0
  -17.6463  -30.6581   24.0564 C   0  0  0  0  0  0
  -25.9053  -34.9446   23.5105 C   0  0  0  0  0  0
  -16.5355  -29.9081   23.6328 C   0  0  0  0  0  0
  -16.7278  -28.6499   23.0347 C   0  0  0  0  0  0
  -26.4497  -31.6575   25.0718 C   0  0  0  0  0  0
  -25.3725  -31.3724   26.1442 C   0  0  0  0  0  0
  -27.0335  -30.2993   24.6178 C   0  0  0  0  0  0
  -27.6055  -32.4307   25.7491 C   0  0  0  0  0  0
  -27.5580  -37.1803   24.8463 C   0  0  0  0  0  0
  -21.4201  -29.3036   22.3670 N   0  0  0  0  0  0
  -26.4293  -37.3773   23.9404 N   0  0  0  0  0  0
  -24.6925  -31.0568   22.0981 N   0  0  0  0  0  0
  -23.4207  -28.8144   23.3007 O   0  0  0  0  0  0
  -28.3197  -26.4083   20.1881 O   0  0  0  0  0  0
  -26.5623  -34.8916   22.4673 O   0  0  0  0  0  0
  -23.5442  -32.1386   23.7331 O   0  0  0  0  0  0
  -28.5064  -19.3086   21.1945 C   0  0  0  0  0  0
  -28.6182  -17.8886   21.2505 C   0  0  0  0  0  0
  -30.7350  -18.0153   20.1733 C   0  0  0  0  0  0
  -30.6127  -19.4522   20.1209 C   0  0  0  0  0  0
  -29.4851  -20.1841   20.6403 C   0  0  0  0  0  0
  -29.7408  -17.1820   20.7526 C   0  0  0  0  0  0
  -28.4018  -22.5550   21.2945 C   0  0  0  0  0  0
  -30.1127  -24.3675   21.4980 C   0  0  0  0  0  0
  -29.5625  -22.6014   19.6090 C   0  0  0  0  0  0
  -29.0775  -23.7882   20.5440 C   0  0  1  0  0  0
  -31.7755  -20.2169   19.5147 C   0  0  0  0  0  0
  -29.5797  -25.1160   22.7210 C   0  0  0  0  0  0
  -28.0623  -24.9359   20.0469 C   0  0  0  0  0  0
  -29.3219  -21.6587   20.7165 N   0  0  0  0  0  0
  -29.7461  -15.7118   20.8697 N   0  0  0  0  0  0
  -27.4311  -22.3581   21.9984 O   0  0  0  0  0  0
  -31.3398  -24.3020   21.3645 O   0  0  0  0  0  0
  -31.4852  -12.5676   19.1531 H   0  0  0  0  0  0
  -30.4012  -11.4291   19.9054 H   0  0  0  0  0  0
  -29.7860  -11.7563   17.4914 H   0  0  0  0  0  0
  -29.6474  -13.4784   17.7365 H   0  0  0  0  0  0
  -27.8791  -11.2893   18.8724 H   0  0  0  0  0  0
  -27.3827  -12.5664   17.7938 H   0  0  0  0  0  0
  -27.6665  -14.2490   19.5151 H   0  0  0  0  0  0
  -28.7217  -12.0551   21.3694 H   0  0  0  0  0  0
  -28.4323  -13.7020   21.8468 H   0  0  0  0  0  0
  -25.2765   -9.5684   22.4754 H   0  0  0  0  0  0
  -23.9994   -7.4644   22.7484 H   0  0  0  0  0  0
  -21.0830   -8.8779   19.8961 H   0  0  0  0  0  0
  -22.3692  -10.9676   19.6165 H   0  0  0  0  0  0
  -21.2014   -7.6148   23.9708 H   0  0  0  0  0  0
  -21.1471   -6.0523   25.9069 H   0  0  0  0  0  0
  -22.0607   -2.7605   23.2851 H   0  0  0  0  0  0
  -22.4100  -11.9905   22.4800 H   0  0  0  0  0  0
  -21.1113  -13.1277   22.2595 H   0  0  0  0  0  0
  -24.6571  -15.8410   20.5046 H   0  0  0  0  0  0
  -26.2686  -15.6245   20.0486 H   0  0  0  0  0  0
  -26.7187  -32.5434   23.1092 H   0  0  0  0  0  0
  -25.0069  -33.9706   25.0417 H   0  0  0  0  0  0
  -22.7183  -31.3034   21.4031 H   0  0  0  0  0  0
  -23.3746  -35.9627   23.3315 H   0  0  0  0  0  0
  -24.3577  -36.8889   22.2048 H   0  0  0  0  0  0
  -23.7249  -37.6498   23.6645 H   0  0  0  0  0  0
  -26.1036  -31.5438   20.6105 H   0  0  0  0  0  0
  -26.8474  -30.8285   22.0087 H   0  0  0  0  0  0
  -28.1151  -28.9484   21.2069 H   0  0  0  0  0  0
  -25.9563  -25.9377   18.9730 H   0  0  0  0  0  0
  -23.9723  -27.3230   18.9915 H   0  0  0  0  0  0
  -23.7633  -30.5994   19.4061 H   0  0  0  0  0  0
  -22.7593  -29.2536   19.8531 H   0  0  0  0  0  0
  -25.1294  -36.1936   25.0824 H   0  0  0  0  0  0
  -20.9986  -28.3263   24.1401 H   0  0  0  0  0  0
  -20.5681  -26.2290   23.3608 H   0  0  0  0  0  0
  -21.6650  -26.7432   22.1207 H   0  0  0  0  0  0
  -19.6919  -25.6293   21.1232 H   0  0  0  0  0  0
  -19.6694  -27.3197   20.6749 H   0  0  0  0  0  0
  -17.4204  -26.6666   21.4031 H   0  0  0  0  0  0
  -18.0341  -26.0065   22.9021 H   0  0  0  0  0  0
  -19.7936  -30.7268   24.2265 H   0  0  0  0  0  0
  -17.5013  -31.6256   24.5170 H   0  0  0  0  0  0
  -15.5355  -30.2981   23.7646 H   0  0  0  0  0  0
  -15.8680  -28.0817   22.7061 H   0  0  0  0  0  0
  -24.5903  -30.7066   25.7775 H   0  0  0  0  0  0
  -24.8911  -32.2894   26.4853 H   0  0  0  0  0  0
  -25.8045  -30.8912   27.0225 H   0  0  0  0  0  0
  -26.2909  -29.6748   24.1195 H   0  0  0  0  0  0
  -27.4019  -29.7244   25.4684 H   0  0  0  0  0  0
  -27.8787  -30.4272   23.9413 H   0  0  0  0  0  0
  -27.2666  -33.3607   26.2069 H   0  0  0  0  0  0
  -28.3868  -32.6865   25.0320 H   0  0  0  0  0  0
  -28.0717  -31.8425   26.5405 H   0  0  0  0  0  0
  -28.2606  -38.0094   24.7504 H   0  0  0  0  0  0
  -28.1072  -36.2625   24.6299 H   0  0  0  0  0  0
  -27.2295  -37.1463   25.8868 H   0  0  0  0  0  0
  -20.9376  -29.8763   21.6885 H   0  0  0  0  0  0
  -26.0176  -38.2850   24.1403 H   0  0  0  0  0  0
  -27.6121  -19.7392   21.6222 H   0  0  0  0  0  0
  -27.8064  -17.3377   21.7040 H   0  0  0  0  0  0
  -31.6217  -17.5499   19.7654 H   0  0  0  0  0  0
  -30.6013  -22.6931   19.2923 H   0  0  0  0  0  0
  -28.9090  -22.4199   18.7514 H   0  0  0  0  0  0
  -32.6428  -19.5751   19.3585 H   0  0  0  0  0  0
  -32.0866  -21.0307   20.1703 H   0  0  0  0  0  0
  -31.4926  -20.6321   18.5475 H   0  0  0  0  0  0
  -28.5043  -24.9833   22.8371 H   0  0  0  0  0  0
  -29.7818  -26.1828   22.6253 H   0  0  0  0  0  0
  -30.0665  -24.7524   23.6260 H   0  0  0  0  0  0
  -27.1020  -24.7348   20.5249 H   0  0  0  0  0  0
  -27.8895  -24.7722   18.9829 H   0  0  0  0  0  0
  -28.8782  -15.3393   21.2226 H   0  0  0  0  0  0
  1 25  1  0  0  0
  1 30  2  0  0  0
  1 85  1  0  0  0
  2  3  1  0  0  0
  2 25  1  0  0  0
  2 88  1  0  0  0
  2 89  1  0  0  0
  3  4  1  0  0  0
  3 90  1  0  0  0
  3 91  1  0  0  0
  4  5  1  0  0  0
  4 92  1  0  0  0
  4 93  1  0  0  0
  5  6  1  0  0  0
  5 26  1  0  0  0
  5 94  1  0  0  0
  6 25  1  0  0  0
  6 95  1  0  0  0
  6 96  1  0  0  0
  7  8  2  0  0  0
  7 26  1  0  0  0
  7 29  1  0  0  0
  8  9  1  0  0  0
  8 22  1  0  0  0
  9 10  1  0  0  0
  9 27  2  0  0  0
 10 11  2  0  0  0
 10 15  1  0  0  0
 11 12  1  0  0  0
 11 97  1  0  0  0
 12 13  2  0  0  0
 12 98  1  0  0  0
 13 14  1  0  0  0
 13 31  1  0  0  0
 14 15  2  0  0  0
 14 99  1  0  0  0
 15100  1  0  0  0
 16 17  2  0  0  0
 16 21  1  0  0  0
 16 31  1  0  0  0
 17 18  1  0  0  0
 17101  1  0  0  0
 18 19  2  0  0  0
 18102  1  0  0  0
 19 20  1  0  0  0
 19 24  1  0  0  0
 20 21  2  0  0  0
 20103  1  0  0  0
 21 23  1  0  0  0
 22 28  1  0  0  0
 22 32  2  0  0  0
 26 27  1  0  0  0
 28104  1  0  0  0
 28105  1  0  0  0
 29106  1  0  0  0
 29107  1  0  0  0
 33 34  1  0  0  0
 33 66  1  0  0  0
 33 70  2  0  0  0
 34 36  1  0  0  0
 34 59  1  0  0  0
 34108  1  0  0  0
 35 44  2  0  0  0
 35 45  1  0  0  0
 35 68  1  0  0  0
 36 56  1  0  0  0
 36109  1  0  0  0
 37 39  1  0  0  0
 37 47  1  0  0  0
 37 66  1  0  0  0
 37110  1  0  0  0
 38 43  2  0  0  0
 38 46  1  0  0  0
 38 47  1  0  0  0
 39 64  1  0  0  0
 39 67  2  0  0  0
 40 52  1  0  0  0
 40 53  2  0  0  0
 40 58  1  0  0  0
 41111  1  0  0  0
 41112  1  0  0  0
 41113  1  0  0  0
 41 48  1  0  0  0
 42 43  1  0  0  0
 42 66  1  0  0  0
 42114  1  0  0  0
 42115  1  0  0  0
 43 44  1  0  0  0
 44116  1  0  0  0
 45 46  2  0  0  0
 45117  1  0  0  0
 46118  1  0  0  0
 47119  1  0  0  0
 47120  1  0  0  0
 48 56  1  0  0  0
 48 65  1  0  0  0
 48121  1  0  0  0
 49 50  1  0  0  0
 49 53  1  0  0  0
 49 64  1  0  0  0
 49122  1  0  0  0
 50 51  1  0  0  0
 50123  1  0  0  0
 50124  1  0  0  0
 51 52  1  0  0  0
 51125  1  0  0  0
 51126  1  0  0  0
 52127  1  0  0  0
 52128  1  0  0  0
 53 54  1  0  0  0
 54 55  2  0  0  0
 54129  1  0  0  0
 55 57  1  0  0  0
 55130  1  0  0  0
 56 69  2  0  0  0
 57 58  2  0  0  0
 57131  1  0  0  0
 58132  1  0  0  0
 59 60  1  0  0  0
 59 61  1  0  0  0
 59 62  1  0  0  0
 60133  1  0  0  0
 60134  1  0  0  0
 60135  1  0  0  0
 61136  1  0  0  0
 61137  1  0  0  0
 61138  1  0  0  0
 62139  1  0  0  0
 62140  1  0  0  0
 62141  1  0  0  0
 63 65  1  0  0  0
 63142  1  0  0  0
 63143  1  0  0  0
 63144  1  0  0  0
 64145  1  0  0  0
 65146  1  0  0  0
 68 83  1  0  0  0
 71 72  2  0  0  0
 71 75  1  0  0  0
 71147  1  0  0  0
 72 76  1  0  0  0
 72148  1  0  0  0
 73 74  1  0  0  0
 73 76  2  0  0  0
 73149  1  0  0  0
 74 75  2  0  0  0
 74 81  1  0  0  0
 75 84  1  0  0  0
 76 85  1  0  0  0
 77 80  1  0  0  0
 77 84  1  0  0  0
 77 86  2  0  0  0
 78 82  1  0  0  0
 78 87  2  0  0  0
 78 80  1  0  0  0
 79 80  1  0  0  0
 79 84  1  0  0  0
 79150  1  0  0  0
 79151  1  0  0  0
 80 83  1  0  0  0
 81152  1  0  0  0
 81153  1  0  0  0
 81154  1  0  0  0
 82155  1  0  0  0
 82156  1  0  0  0
 82157  1  0  0  0
 83158  1  0  0  0
 83159  1  0  0  0
 85160  1  0  0  0
M  ISO  4   1 100  68 101  83 101  85 100
M  END
> <chiral flag>
0

> <version>
0

> <s_m_source_file>
/data/baiqing/PycharmProjects/Reinvent-master-3.2/result/LINK_invent/BTK/process_docking_weight1_custom_product_contain_oxygen_bond_distance_aromatic_linkinvent_7_9_3/rearranged_h_0066.sdf

> <i_m_source_file_index>
81

> <r_mmod_Potential_Energy-OPLS-2005>
99.7657470703125

> <r_mmod_Stretch_Energy-OPLS-2005>
102.738815307617

> <r_mmod_Bend_Energy-OPLS-2005>
194.35693359375

> <r_mmod_Torsional_Energy-OPLS-2005>
216.025268554688

> <r_mmod_Improper_Torsional_Energy-OPLS-2005>
7.03531789779663

> <r_mmod_Van_der_Waal_Energy-OPLS-2005>
147.025375366211

> <r_mmod_Electrostatic_Energy-OPLS-2005>
-404.719299316406

> <r_mmod_Solvation_Energy-OPLS-2005>
-228.349273681641

> <b_mmod_Minimization_Converged-OPLS-2005>
0

> <r_mmod_RMS_Derivative-OPLS-2005>
1.04379987716675

$$$$
82
                    3D
 Structure written by MMmdl.
151159  0  0  1  0            999 V2000
  -30.6404  -14.6619   20.5055 C   0  0  0  0  0  0
  -30.4319  -12.4104   19.4600 C   0  0  0  0  0  0
  -29.5062  -12.5087   18.2276 C   0  0  0  0  0  0
  -28.0311  -12.3395   18.6408 C   0  0  0  0  0  0
  -27.6472  -13.2234   19.8567 C   0  0  2  0  0  0
  -28.6918  -13.1154   20.9898 C   0  0  0  0  0  0
  -25.2524  -13.8179   20.5697 C   0  0  0  0  0  0
  -24.1802  -13.0437   20.9203 C   0  0  0  0  0  0
  -24.6384  -11.6913   20.8748 C   0  0  0  0  0  0
  -23.9060  -10.4293   21.0410 C   0  0  0  0  0  0
  -24.3614   -9.4208   21.9184 C   0  0  0  0  0  0
  -23.6289   -8.2244   22.0752 C   0  0  0  0  0  0
  -22.4273   -8.0283   21.3543 C   0  0  0  0  0  0
  -21.9906   -9.0254   20.4645 C   0  0  0  0  0  0
  -22.7235  -10.2133   20.3058 C   0  0  0  0  0  0
  -21.6848   -6.0735   22.5281 C   0  0  0  0  0  0
  -21.4017   -6.5641   23.8215 C   0  0  0  0  0  0
  -21.3664   -5.6790   24.9175 C   0  0  0  0  0  0
  -21.6045   -4.3053   24.7220 C   0  0  0  0  0  0
  -21.8816   -3.8149   23.4340 C   0  0  0  0  0  0
  -21.9190   -4.6965   22.3401 C   0  0  0  0  0  0
  -22.7827  -13.5225   21.1866 C   0  0  0  0  0  0
  -22.1661   -4.2156   21.0976 F   0  0  0  0  0  0
  -21.5629   -3.4537   25.7731 F   0  0  0  0  0  0
  -30.0015  -13.4511   20.4152 N   0  0  0  0  0  0
  -26.2957  -12.9374   20.3299 N   0  0  0  0  0  0
  -25.9312  -11.6523   20.5754 N   0  0  0  0  0  0
  -22.0470  -12.8219   22.0423 N   0  0  0  0  0  0
  -25.4203  -15.1900   20.4109 N   0  0  0  0  0  0
  -31.8244  -14.7736   20.1761 O   0  0  0  0  0  0
  -21.6638   -6.8882   21.4244 O   0  0  0  0  0  0
  -22.3514  -14.5527   20.6709 O   0  0  0  0  0  0
  -24.6255  -31.8586   23.2009 C   0  0  0  0  0  0
  -25.9101  -32.4772   23.8340 C   0  0  1  0  0  0
  -27.2308  -27.3204   20.1311 C   0  0  0  0  0  0
  -25.5920  -33.8570   24.2273 N   0  0  0  0  0  0
  -23.4202  -30.4777   21.5433 C   0  0  2  0  0  0
  -24.8699  -28.9267   20.1169 C   0  0  0  0  0  0
  -22.7476  -29.4599   22.4949 C   0  0  0  0  0  0
  -18.0282  -28.1398   22.8481 C   0  0  0  0  0  0
  -24.1487  -36.7278   23.2642 C   0  0  0  0  0  0
  -25.9592  -30.7911   21.3705 C   0  0  0  0  0  0
  -26.0372  -29.4155   20.7181 C   0  0  0  0  0  0
  -27.2237  -28.6247   20.7113 C   0  0  0  0  0  0
  -26.0444  -26.8760   19.5127 C   0  0  0  0  0  0
  -24.8743  -27.6618   19.5049 C   0  0  0  0  0  0
  -23.6366  -29.8057   20.1609 C   0  0  0  0  0  0
  -25.4119  -36.3068   24.0326 C   0  0  1  0  0  0
  -20.5880  -28.3690   23.1296 C   0  0  2  0  0  0
  -20.6771  -26.9415   22.5420 C   0  0  0  0  0  0
  -19.5747  -26.6393   21.5218 C   0  0  0  0  0  0
  -18.1926  -26.7941   22.1627 C   0  0  0  0  0  0
  -19.1533  -28.8865   23.2881 C   0  0  0  0  0  0
  -18.9455  -30.1472   23.8894 C   0  0  0  0  0  0
  -17.6454  -30.6599   24.0567 C   0  0  0  0  0  0
  -25.9051  -34.9438   23.5098 C   0  0  0  0  0  0
  -16.5345  -29.9096   23.6338 C   0  0  0  0  0  0
  -16.7270  -28.6515   23.0351 C   0  0  0  0  0  0
  -26.4496  -31.6576   25.0707 C   0  0  0  0  0  0
  -25.3745  -31.3703   26.1447 C   0  0  0  0  0  0
  -27.0343  -30.3002   24.6150 C   0  0  0  0  0  0
  -27.6054  -32.4319   25.7481 C   0  0  0  0  0  0
  -27.5568  -37.1810   24.8481 C   0  0  0  0  0  0
  -21.4192  -29.3032   22.3690 N   0  0  0  0  0  0
  -26.4300  -37.3761   23.9394 N   0  0  0  0  0  0
  -24.6867  -31.0595   22.0956 N   0  0  0  0  0  0
  -23.4195  -28.8156   23.3045 O   0  0  0  0  0  0
  -28.3494  -26.4785   20.1367 O   0  0  0  0  0  0
  -26.5619  -34.8900   22.4665 O   0  0  0  0  0  0
  -23.5417  -32.1383   23.7334 O   0  0  0  0  0  0
  -31.4262  -17.5751   21.4630 C   0  0  0  0  0  0
  -31.7655  -18.9357   21.6357 C   0  0  0  0  0  0
  -29.3477  -18.2665   20.4174 C   0  0  0  0  0  0
  -30.2114  -17.1923   20.8464 C   0  0  0  0  0  0
  -30.9192  -19.9740   21.1896 C   0  0  0  0  0  0
  -29.6950  -19.6613   20.5611 C   0  0  0  0  0  0
  -28.7314  -23.8983   19.9239 C   0  0  0  0  0  0
  -28.1976  -25.1351   20.7546 C   0  0  0  0  0  0
  -29.8532  -15.7704   20.7307 N   0  0  0  0  0  0
  -28.8566  -22.6195   20.5715 N   0  0  0  0  0  0
  -28.9925  -24.0376   18.7248 O   0  0  0  0  0  0
  -27.2095  -20.6353   20.1956 O   0  0  0  0  0  0
  -28.9483  -21.0994   18.4271 O   0  0  0  0  0  0
  -31.3125  -21.2598   21.3608 F   0  0  0  0  0  0
  -28.5957  -20.9997   19.8548 S   0  0  0  0  0  0
  -31.4746  -12.5295   19.1602 H   0  0  0  0  0  0
  -30.3638  -11.4234   19.9203 H   0  0  0  0  0  0
  -29.7783  -11.7538   17.4890 H   0  0  0  0  0  0
  -29.6418  -13.4761   17.7413 H   0  0  0  0  0  0
  -27.8771  -11.2893   18.8890 H   0  0  0  0  0  0
  -27.3737  -12.5550   17.7974 H   0  0  0  0  0  0
  -27.6533  -14.2514   19.4942 H   0  0  0  0  0  0
  -28.7087  -12.1079   21.4079 H   0  0  0  0  0  0
  -28.4383  -13.7809   21.8166 H   0  0  0  0  0  0
  -25.2757   -9.5685   22.4762 H   0  0  0  0  0  0
  -24.0001   -7.4632   22.7464 H   0  0  0  0  0  0
  -21.0841   -8.8767   19.8944 H   0  0  0  0  0  0
  -22.3690  -10.9673   19.6173 H   0  0  0  0  0  0
  -21.2016   -7.6151   23.9721 H   0  0  0  0  0  0
  -21.1492   -6.0519   25.9076 H   0  0  0  0  0  0
  -22.0590   -2.7613   23.2831 H   0  0  0  0  0  0
  -22.4084  -11.9888   22.4829 H   0  0  0  0  0  0
  -21.1089  -13.1251   22.2637 H   0  0  0  0  0  0
  -24.6424  -15.8339   20.5070 H   0  0  0  0  0  0
  -26.2572  -15.6342   20.0576 H   0  0  0  0  0  0
  -26.7172  -32.5450   23.1089 H   0  0  0  0  0  0
  -25.0071  -33.9716   25.0417 H   0  0  0  0  0  0
  -22.7124  -31.2961   21.3971 H   0  0  0  0  0  0
  -23.3731  -35.9633   23.3353 H   0  0  0  0  0  0
  -24.3557  -36.8853   22.2047 H   0  0  0  0  0  0
  -23.7264  -37.6503   23.6637 H   0  0  0  0  0  0
  -26.0885  -31.5520   20.5997 H   0  0  0  0  0  0
  -26.8402  -30.8436   21.9986 H   0  0  0  0  0  0
  -28.1227  -28.9965   21.1820 H   0  0  0  0  0  0
  -26.0187  -25.9043   19.0391 H   0  0  0  0  0  0
  -23.9801  -27.2811   19.0321 H   0  0  0  0  0  0
  -23.7555  -30.5789   19.4011 H   0  0  0  0  0  0
  -22.7573  -29.2327   19.8609 H   0  0  0  0  0  0
  -25.1306  -36.1921   25.0822 H   0  0  0  0  0  0
  -20.9966  -28.3266   24.1420 H   0  0  0  0  0  0
  -20.5681  -26.2295   23.3615 H   0  0  0  0  0  0
  -21.6640  -26.7458   22.1208 H   0  0  0  0  0  0
  -19.6908  -25.6306   21.1246 H   0  0  0  0  0  0
  -19.6693  -27.3206   20.6749 H   0  0  0  0  0  0
  -17.4199  -26.6683   21.4030 H   0  0  0  0  0  0
  -18.0330  -26.0094   22.9033 H   0  0  0  0  0  0
  -19.7928  -30.7294   24.2258 H   0  0  0  0  0  0
  -17.5006  -31.6278   24.5173 H   0  0  0  0  0  0
  -15.5347  -30.2997   23.7674 H   0  0  0  0  0  0
  -15.8663  -28.0841   22.7068 H   0  0  0  0  0  0
  -24.5912  -30.7064   25.7774 H   0  0  0  0  0  0
  -24.8953  -32.2871   26.4894 H   0  0  0  0  0  0
  -25.8092  -30.8861   27.0202 H   0  0  0  0  0  0
  -26.2916  -29.6755   24.1186 H   0  0  0  0  0  0
  -27.4056  -29.7255   25.4641 H   0  0  0  0  0  0
  -27.8769  -30.4288   23.9358 H   0  0  0  0  0  0
  -27.2652  -33.3605   26.2075 H   0  0  0  0  0  0
  -28.3858  -32.6912   25.0316 H   0  0  0  0  0  0
  -28.0733  -31.8443   26.5390 H   0  0  0  0  0  0
  -28.2640  -38.0049   24.7446 H   0  0  0  0  0  0
  -28.1005  -36.2579   24.6424 H   0  0  0  0  0  0
  -27.2271  -37.1609   25.8881 H   0  0  0  0  0  0
  -20.9383  -29.8724   21.6864 H   0  0  0  0  0  0
  -26.0174  -38.2841   24.1360 H   0  0  0  0  0  0
  -32.1130  -16.8255   21.8299 H   0  0  0  0  0  0
  -32.6998  -19.1901   22.1157 H   0  0  0  0  0  0
  -28.4063  -18.0343   19.9421 H   0  0  0  0  0  0
  -28.7387  -25.1556   21.7004 H   0  0  0  0  0  0
  -27.1583  -24.9336   21.0156 H   0  0  0  0  0  0
  -28.8686  -15.5630   20.7928 H   0  0  0  0  0  0
  -28.6574  -22.5793   21.5699 H   0  0  0  0  0  0
  1 25  1  0  0  0
  1 30  2  0  0  0
  1 79  1  0  0  0
  2  3  1  0  0  0
  2 25  1  0  0  0
  2 86  1  0  0  0
  2 87  1  0  0  0
  3  4  1  0  0  0
  3 88  1  0  0  0
  3 89  1  0  0  0
  4  5  1  0  0  0
  4 90  1  0  0  0
  4 91  1  0  0  0
  5  6  1  0  0  0
  5 26  1  0  0  0
  5 92  1  0  0  0
  6 25  1  0  0  0
  6 93  1  0  0  0
  6 94  1  0  0  0
  7  8  2  0  0  0
  7 26  1  0  0  0
  7 29  1  0  0  0
  8  9  1  0  0  0
  8 22  1  0  0  0
  9 10  1  0  0  0
  9 27  2  0  0  0
 10 11  2  0  0  0
 10 15  1  0  0  0
 11 12  1  0  0  0
 11 95  1  0  0  0
 12 13  2  0  0  0
 12 96  1  0  0  0
 13 14  1  0  0  0
 13 31  1  0  0  0
 14 15  2  0  0  0
 14 97  1  0  0  0
 15 98  1  0  0  0
 16 17  2  0  0  0
 16 21  1  0  0  0
 16 31  1  0  0  0
 17 18  1  0  0  0
 17 99  1  0  0  0
 18 19  2  0  0  0
 18100  1  0  0  0
 19 20  1  0  0  0
 19 24  1  0  0  0
 20 21  2  0  0  0
 20101  1  0  0  0
 21 23  1  0  0  0
 22 28  1  0  0  0
 22 32  2  0  0  0
 26 27  1  0  0  0
 28102  1  0  0  0
 28103  1  0  0  0
 29104  1  0  0  0
 29105  1  0  0  0
 33 34  1  0  0  0
 33 66  1  0  0  0
 33 70  2  0  0  0
 34 36  1  0  0  0
 34 59  1  0  0  0
 34106  1  0  0  0
 35 44  2  0  0  0
 35 45  1  0  0  0
 35 68  1  0  0  0
 36 56  1  0  0  0
 36107  1  0  0  0
 37 39  1  0  0  0
 37 47  1  0  0  0
 37 66  1  0  0  0
 37108  1  0  0  0
 38 43  2  0  0  0
 38 46  1  0  0  0
 38 47  1  0  0  0
 39 64  1  0  0  0
 39 67  2  0  0  0
 40 52  1  0  0  0
 40 53  2  0  0  0
 40 58  1  0  0  0
 41109  1  0  0  0
 41110  1  0  0  0
 41111  1  0  0  0
 41 48  1  0  0  0
 42 43  1  0  0  0
 42 66  1  0  0  0
 42112  1  0  0  0
 42113  1  0  0  0
 43 44  1  0  0  0
 44114  1  0  0  0
 45 46  2  0  0  0
 45115  1  0  0  0
 46116  1  0  0  0
 47117  1  0  0  0
 47118  1  0  0  0
 48 56  1  0  0  0
 48 65  1  0  0  0
 48119  1  0  0  0
 49 50  1  0  0  0
 49 53  1  0  0  0
 49 64  1  0  0  0
 49120  1  0  0  0
 50 51  1  0  0  0
 50121  1  0  0  0
 50122  1  0  0  0
 51 52  1  0  0  0
 51123  1  0  0  0
 51124  1  0  0  0
 52125  1  0  0  0
 52126  1  0  0  0
 53 54  1  0  0  0
 54 55  2  0  0  0
 54127  1  0  0  0
 55 57  1  0  0  0
 55128  1  0  0  0
 56 69  2  0  0  0
 57 58  2  0  0  0
 57129  1  0  0  0
 58130  1  0  0  0
 59 60  1  0  0  0
 59 61  1  0  0  0
 59 62  1  0  0  0
 60131  1  0  0  0
 60132  1  0  0  0
 60133  1  0  0  0
 61134  1  0  0  0
 61135  1  0  0  0
 61136  1  0  0  0
 62137  1  0  0  0
 62138  1  0  0  0
 62139  1  0  0  0
 63 65  1  0  0  0
 63140  1  0  0  0
 63141  1  0  0  0
 63142  1  0  0  0
 64143  1  0  0  0
 65144  1  0  0  0
 68 78  1  0  0  0
 71 72  2  0  0  0
 71 74  1  0  0  0
 71145  1  0  0  0
 72 75  1  0  0  0
 72146  1  0  0  0
 73 74  2  0  0  0
 73 76  1  0  0  0
 73147  1  0  0  0
 74 79  1  0  0  0
 75 76  2  0  0  0
 75 84  1  0  0  0
 76 85  1  0  0  0
 77 78  1  0  0  0
 77 80  1  0  0  0
 77 81  2  0  0  0
 78148  1  0  0  0
 78149  1  0  0  0
 79150  1  0  0  0
 80151  1  0  0  0
 80 85  1  0  0  0
 82 85  2  0  0  0
 83 85  2  0  0  0
M  ISO  4   1 100  68 101  78 101  79 100
M  END
> <chiral flag>
0

> <version>
0

> <s_m_source_file>
/data/baiqing/PycharmProjects/Reinvent-master-3.2/result/LINK_invent/BTK/process_docking_weight1_custom_product_contain_oxygen_bond_distance_aromatic_linkinvent_7_9_3/rearranged_h_0066.sdf

> <i_m_source_file_index>
82

> <r_mmod_Potential_Energy-OPLS-2005>
-76.6706085205078

> <r_mmod_Stretch_Energy-OPLS-2005>
85.2382507324219

> <r_mmod_Bend_Energy-OPLS-2005>
138.963607788086

> <r_mmod_Torsional_Energy-OPLS-2005>
263.3662109375

> <r_mmod_Improper_Torsional_Energy-OPLS-2005>
7.80876445770264

> <r_mmod_Van_der_Waal_Energy-OPLS-2005>
131.469879150391

> <r_mmod_Electrostatic_Energy-OPLS-2005>
-472.680908203125

> <r_mmod_Solvation_Energy-OPLS-2005>
-283.158782958984

> <b_mmod_Minimization_Converged-OPLS-2005>
0

> <r_mmod_RMS_Derivative-OPLS-2005>
1.49740290641785

$$$$
83
                    3D
 Structure written by MMmdl.
163171  0  0  1  0            999 V2000
  -30.7118  -14.4764   20.4810 C   0  0  0  0  0  0
  -30.4131  -12.2889   19.4214 C   0  0  0  0  0  0
  -29.4793  -12.4593   18.2050 C   0  0  0  0  0  0
  -28.0061  -12.3263   18.6316 C   0  0  0  0  0  0
  -27.6513  -13.1899   19.8691 C   0  0  2  0  0  0
  -28.7058  -13.0371   20.9885 C   0  0  0  0  0  0
  -25.2577  -13.8080   20.5730 C   0  0  0  0  0  0
  -24.1809  -13.0392   20.9224 C   0  0  0  0  0  0
  -24.6329  -11.6861   20.8763 C   0  0  0  0  0  0
  -23.8969  -10.4272   21.0436 C   0  0  0  0  0  0
  -24.3541   -9.4199   21.9204 C   0  0  0  0  0  0
  -23.6254   -8.2218   22.0751 C   0  0  0  0  0  0
  -22.4239   -8.0252   21.3540 C   0  0  0  0  0  0
  -21.9855   -9.0215   20.4642 C   0  0  0  0  0  0
  -22.7153  -10.2114   20.3077 C   0  0  0  0  0  0
  -21.6850   -6.0709   22.5265 C   0  0  0  0  0  0
  -21.4010   -6.5628   23.8189 C   0  0  0  0  0  0
  -21.3641   -5.6797   24.9163 C   0  0  0  0  0  0
  -21.6037   -4.3055   24.7231 C   0  0  0  0  0  0
  -21.8838   -3.8135   23.4359 C   0  0  0  0  0  0
  -21.9204   -4.6941   22.3406 C   0  0  0  0  0  0
  -22.7860  -13.5242   21.1889 C   0  0  0  0  0  0
  -22.1703   -4.2118   21.0997 F   0  0  0  0  0  0
  -21.5606   -3.4551   25.7752 F   0  0  0  0  0  0
  -30.0290  -13.3071   20.4079 N   0  0  0  0  0  0
  -26.2971  -12.9204   20.3426 N   0  0  0  0  0  0
  -25.9258  -11.6385   20.5843 N   0  0  0  0  0  0
  -22.0501  -12.8216   22.0429 N   0  0  0  0  0  0
  -25.4314  -15.1780   20.4148 N   0  0  0  0  0  0
  -31.9064  -14.5618   20.1986 O   0  0  0  0  0  0
  -21.6636   -6.8833   21.4221 O   0  0  0  0  0  0
  -22.3590  -14.5592   20.6799 O   0  0  0  0  0  0
  -24.6085  -31.8716   23.2136 C   0  0  0  0  0  0
  -25.8988  -32.4850   23.8420 C   0  0  1  0  0  0
  -27.2423  -27.4684   20.1068 C   0  0  0  0  0  0
  -25.5854  -33.8644   24.2357 N   0  0  0  0  0  0
  -23.3945  -30.4953   21.5523 C   0  0  2  0  0  0
  -24.8487  -28.9635   20.1165 C   0  0  0  0  0  0
  -22.7362  -29.4703   22.5036 C   0  0  0  0  0  0
  -18.0294  -28.1343   22.8556 C   0  0  0  0  0  0
  -24.1476  -36.7325   23.2640 C   0  0  0  0  0  0
  -25.9209  -30.8501   21.3618 C   0  0  0  0  0  0
  -26.0032  -29.4831   20.7169 C   0  0  0  0  0  0
  -27.2025  -28.7403   20.7169 C   0  0  0  0  0  0
  -26.0796  -26.9565   19.4966 C   0  0  0  0  0  0
  -24.8803  -27.6975   19.5035 C   0  0  0  0  0  0
  -23.6032  -29.8232   20.1672 C   0  0  0  0  0  0
  -25.4091  -36.3127   24.0346 C   0  0  1  0  0  0
  -20.5860  -28.3695   23.1398 C   0  0  2  0  0  0
  -20.6739  -26.9414   22.5564 C   0  0  0  0  0  0
  -19.5823  -26.6487   21.5252 C   0  0  0  0  0  0
  -18.1997  -26.7899   22.1663 C   0  0  0  0  0  0
  -19.1516  -28.8842   23.2958 C   0  0  0  0  0  0
  -18.9431  -30.1477   23.8879 C   0  0  0  0  0  0
  -17.6436  -30.6629   24.0447 C   0  0  0  0  0  0
  -25.9023  -34.9491   23.5154 C   0  0  0  0  0  0
  -16.5342  -29.9091   23.6253 C   0  0  0  0  0  0
  -16.7268  -28.6467   23.0362 C   0  0  0  0  0  0
  -26.4437  -31.6610   25.0725 C   0  0  0  0  0  0
  -25.3719  -31.3700   26.1485 C   0  0  0  0  0  0
  -27.0276  -30.3062   24.6066 C   0  0  0  0  0  0
  -27.6034  -32.4305   25.7470 C   0  0  0  0  0  0
  -27.5577  -37.1812   24.8467 C   0  0  0  0  0  0
  -21.4105  -29.3030   22.3752 N   0  0  0  0  0  0
  -26.4292  -37.3801   23.9410 N   0  0  0  0  0  0
  -24.6591  -31.0851   22.1013 N   0  0  0  0  0  0
  -23.4148  -28.8275   23.3093 O   0  0  0  0  0  0
  -28.3878  -26.7135   20.1080 O   0  0  0  0  0  0
  -26.5606  -34.8923   22.4730 O   0  0  0  0  0  0
  -23.5291  -32.1437   23.7573 O   0  0  0  0  0  0
  -26.9998  -18.8711   19.8883 C   0  0  0  0  0  0
  -27.1964  -19.9716   20.7349 C   0  0  0  0  0  0
  -29.4149  -19.1343   21.2860 C   0  0  0  0  0  0
  -28.0192  -17.9157   19.6963 C   0  0  0  0  0  0
  -29.2197  -17.9952   20.4629 C   0  0  0  0  0  0
  -28.4361  -20.1540   21.3721 C   0  0  0  0  0  0
  -29.6378  -22.2514   21.8486 C   0  0  0  0  0  0
  -27.7930  -16.9187   18.5702 C   0  0  0  0  0  0
  -31.1158  -17.2098   19.0157 C   0  0  0  0  0  0
  -29.3798  -23.7071   22.2671 C   0  0  0  0  0  0
  -29.3168  -24.6597   21.0462 C   0  0  0  0  0  0
  -28.5769  -25.9817   21.3228 C   0  0  0  0  0  0
  -30.3705  -16.9796   20.3523 C   0  0  2  0  0  0
  -28.6336  -21.3815   22.0565 N   0  0  0  0  0  0
  -29.9516  -15.5816   20.5917 N   0  0  0  0  0  0
  -30.7287  -21.9387   21.3635 O   0  0  0  0  0  0
  -31.4578  -12.3737   19.1137 H   0  0  0  0  0  0
  -30.3084  -11.2928   19.8561 H   0  0  0  0  0  0
  -29.7046  -11.7006   17.4522 H   0  0  0  0  0  0
  -29.6458  -13.4275   17.7270 H   0  0  0  0  0  0
  -27.8310  -11.2714   18.8531 H   0  0  0  0  0  0
  -27.3430  -12.5732   17.8018 H   0  0  0  0  0  0
  -27.6675  -14.2194   19.5275 H   0  0  0  0  0  0
  -28.6876  -12.0267   21.4009 H   0  0  0  0  0  0
  -28.4944  -13.7103   21.8211 H   0  0  0  0  0  0
  -25.2671   -9.5706   22.4782 H   0  0  0  0  0  0
  -23.9973   -7.4607   22.7450 H   0  0  0  0  0  0
  -21.0794   -8.8718   19.8929 H   0  0  0  0  0  0
  -22.3590  -10.9663   19.6198 H   0  0  0  0  0  0
  -21.2025   -7.6144   23.9672 H   0  0  0  0  0  0
  -21.1436   -6.0547   25.9054 H   0  0  0  0  0  0
  -22.0635   -2.7602   23.2887 H   0  0  0  0  0  0
  -22.4106  -11.9861   22.4774 H   0  0  0  0  0  0
  -21.1119  -13.1248   22.2623 H   0  0  0  0  0  0
  -24.6670  -15.8369   20.5175 H   0  0  0  0  0  0
  -26.2951  -15.6161   20.1259 H   0  0  0  0  0  0
  -26.7061  -32.5573   23.1201 H   0  0  0  0  0  0
  -24.9961  -33.9837   25.0465 H   0  0  0  0  0  0
  -22.6790  -31.3103   21.4157 H   0  0  0  0  0  0
  -23.3734  -35.9671   23.3325 H   0  0  0  0  0  0
  -24.3578  -36.8910   22.2056 H   0  0  0  0  0  0
  -23.7239  -37.6535   23.6639 H   0  0  0  0  0  0
  -26.0242  -31.6172   20.5917 H   0  0  0  0  0  0
  -26.8097  -30.9088   21.9783 H   0  0  0  0  0  0
  -28.0930  -29.1422   21.1796 H   0  0  0  0  0  0
  -26.1030  -25.9840   19.0252 H   0  0  0  0  0  0
  -23.9930  -27.2917   19.0373 H   0  0  0  0  0  0
  -23.7050  -30.5987   19.4062 H   0  0  0  0  0  0
  -22.7267  -29.2418   19.8737 H   0  0  0  0  0  0
  -25.1276  -36.2008   25.0845 H   0  0  0  0  0  0
  -20.9969  -28.3341   24.1507 H   0  0  0  0  0  0
  -20.5438  -26.2319   23.3758 H   0  0  0  0  0  0
  -21.6656  -26.7349   22.1496 H   0  0  0  0  0  0
  -19.7086  -25.6487   21.1133 H   0  0  0  0  0  0
  -19.6765  -27.3480   20.6919 H   0  0  0  0  0  0
  -17.4270  -26.6597   21.4078 H   0  0  0  0  0  0
  -18.0487  -25.9981   22.9015 H   0  0  0  0  0  0
  -19.7884  -30.7327   24.2206 H   0  0  0  0  0  0
  -17.4970  -31.6383   24.4893 H   0  0  0  0  0  0
  -15.5334  -30.3023   23.7495 H   0  0  0  0  0  0
  -15.8683  -28.0801   22.7026 H   0  0  0  0  0  0
  -24.5881  -30.7067   25.7812 H   0  0  0  0  0  0
  -24.8926  -32.2861   26.4946 H   0  0  0  0  0  0
  -25.8076  -30.8847   27.0225 H   0  0  0  0  0  0
  -26.2833  -29.6835   24.1092 H   0  0  0  0  0  0
  -27.4042  -29.7273   25.4502 H   0  0  0  0  0  0
  -27.8654  -30.4399   23.9221 H   0  0  0  0  0  0
  -27.2670  -33.3583   26.2099 H   0  0  0  0  0  0
  -28.3806  -32.6884   25.0270 H   0  0  0  0  0  0
  -28.0735  -31.8386   26.5332 H   0  0  0  0  0  0
  -28.2614  -38.0089   24.7496 H   0  0  0  0  0  0
  -28.1051  -36.2622   24.6313 H   0  0  0  0  0  0
  -27.2300  -37.1487   25.8872 H   0  0  0  0  0  0
  -20.9282  -29.8658   21.6898 H   0  0  0  0  0  0
  -26.0189  -38.2890   24.1383 H   0  0  0  0  0  0
  -26.0750  -18.8024   19.3319 H   0  0  0  0  0  0
  -26.4153  -20.7151   20.8263 H   0  0  0  0  0  0
  -30.3441  -19.2524   21.8249 H   0  0  0  0  0  0
  -26.7571  -16.5807   18.5529 H   0  0  0  0  0  0
  -28.4323  -16.0429   18.5993 H   0  0  0  0  0  0
  -27.9782  -17.4146   17.6183 H   0  0  0  0  0  0
  -31.3992  -18.2572   18.9140 H   0  0  0  0  0  0
  -30.5055  -16.9608   18.1487 H   0  0  0  0  0  0
  -32.0434  -16.6454   18.9403 H   0  0  0  0  0  0
  -30.1522  -24.0338   22.9646 H   0  0  0  0  0  0
  -28.4409  -23.7493   22.8205 H   0  0  0  0  0  0
  -28.8029  -24.1496   20.2298 H   0  0  0  0  0  0
  -30.3249  -24.8736   20.6861 H   0  0  0  0  0  0
  -29.1397  -26.5885   22.0335 H   0  0  0  0  0  0
  -27.6147  -25.7563   21.7898 H   0  0  0  0  0  0
  -31.0791  -17.2014   21.1511 H   0  0  0  0  0  0
  -27.8003  -21.7957   22.4507 H   0  0  0  0  0  0
  -28.9776  -15.4383   20.7980 H   0  0  0  0  0  0
  1 25  1  0  0  0
  1 30  2  0  0  0
  1 85  1  0  0  0
  2  3  1  0  0  0
  2 25  1  0  0  0
  2 87  1  0  0  0
  2 88  1  0  0  0
  3  4  1  0  0  0
  3 89  1  0  0  0
  3 90  1  0  0  0
  4  5  1  0  0  0
  4 91  1  0  0  0
  4 92  1  0  0  0
  5  6  1  0  0  0
  5 26  1  0  0  0
  5 93  1  0  0  0
  6 25  1  0  0  0
  6 94  1  0  0  0
  6 95  1  0  0  0
  7  8  2  0  0  0
  7 26  1  0  0  0
  7 29  1  0  0  0
  8  9  1  0  0  0
  8 22  1  0  0  0
  9 10  1  0  0  0
  9 27  2  0  0  0
 10 11  2  0  0  0
 10 15  1  0  0  0
 11 12  1  0  0  0
 11 96  1  0  0  0
 12 13  2  0  0  0
 12 97  1  0  0  0
 13 14  1  0  0  0
 13 31  1  0  0  0
 14 15  2  0  0  0
 14 98  1  0  0  0
 15 99  1  0  0  0
 16 17  2  0  0  0
 16 21  1  0  0  0
 16 31  1  0  0  0
 17 18  1  0  0  0
 17100  1  0  0  0
 18 19  2  0  0  0
 18101  1  0  0  0
 19 20  1  0  0  0
 19 24  1  0  0  0
 20 21  2  0  0  0
 20102  1  0  0  0
 21 23  1  0  0  0
 22 28  1  0  0  0
 22 32  2  0  0  0
 26 27  1  0  0  0
 28103  1  0  0  0
 28104  1  0  0  0
 29105  1  0  0  0
 29106  1  0  0  0
 33 34  1  0  0  0
 33 66  1  0  0  0
 33 70  2  0  0  0
 34 36  1  0  0  0
 34 59  1  0  0  0
 34107  1  0  0  0
 35 44  2  0  0  0
 35 45  1  0  0  0
 35 68  1  0  0  0
 36 56  1  0  0  0
 36108  1  0  0  0
 37 39  1  0  0  0
 37 47  1  0  0  0
 37 66  1  0  0  0
 37109  1  0  0  0
 38 43  2  0  0  0
 38 46  1  0  0  0
 38 47  1  0  0  0
 39 64  1  0  0  0
 39 67  2  0  0  0
 40 52  1  0  0  0
 40 53  2  0  0  0
 40 58  1  0  0  0
 41110  1  0  0  0
 41111  1  0  0  0
 41112  1  0  0  0
 41 48  1  0  0  0
 42 43  1  0  0  0
 42 66  1  0  0  0
 42113  1  0  0  0
 42114  1  0  0  0
 43 44  1  0  0  0
 44115  1  0  0  0
 45 46  2  0  0  0
 45116  1  0  0  0
 46117  1  0  0  0
 47118  1  0  0  0
 47119  1  0  0  0
 48 56  1  0  0  0
 48 65  1  0  0  0
 48120  1  0  0  0
 49 50  1  0  0  0
 49 53  1  0  0  0
 49 64  1  0  0  0
 49121  1  0  0  0
 50 51  1  0  0  0
 50122  1  0  0  0
 50123  1  0  0  0
 51 52  1  0  0  0
 51124  1  0  0  0
 51125  1  0  0  0
 52126  1  0  0  0
 52127  1  0  0  0
 53 54  1  0  0  0
 54 55  2  0  0  0
 54128  1  0  0  0
 55 57  1  0  0  0
 55129  1  0  0  0
 56 69  2  0  0  0
 57 58  2  0  0  0
 57130  1  0  0  0
 58131  1  0  0  0
 59 60  1  0  0  0
 59 61  1  0  0  0
 59 62  1  0  0  0
 60132  1  0  0  0
 60133  1  0  0  0
 60134  1  0  0  0
 61135  1  0  0  0
 61136  1  0  0  0
 61137  1  0  0  0
 62138  1  0  0  0
 62139  1  0  0  0
 62140  1  0  0  0
 63 65  1  0  0  0
 63141  1  0  0  0
 63142  1  0  0  0
 63143  1  0  0  0
 64144  1  0  0  0
 65145  1  0  0  0
 68 82  1  0  0  0
 71 72  2  0  0  0
 71 74  1  0  0  0
 71146  1  0  0  0
 72 76  1  0  0  0
 72147  1  0  0  0
 73 75  1  0  0  0
 73 76  2  0  0  0
 73148  1  0  0  0
 74 75  2  0  0  0
 74 78  1  0  0  0
 75 83  1  0  0  0
 76 84  1  0  0  0
 77 80  1  0  0  0
 77 84  1  0  0  0
 77 86  2  0  0  0
 78149  1  0  0  0
 78150  1  0  0  0
 78151  1  0  0  0
 79152  1  0  0  0
 79153  1  0  0  0
 79154  1  0  0  0
 79 83  1  0  0  0
 80 81  1  0  0  0
 80155  1  0  0  0
 80156  1  0  0  0
 81 82  1  0  0  0
 81157  1  0  0  0
 81158  1  0  0  0
 82159  1  0  0  0
 82160  1  0  0  0
 83 85  1  0  0  0
 83161  1  0  0  0
 84162  1  0  0  0
 85163  1  0  0  0
M  ISO  4   1 100  68 101  82 101  85 100
M  END
> <chiral flag>
0

> <version>
0

> <s_m_source_file>
/data/baiqing/PycharmProjects/Reinvent-master-3.2/result/LINK_invent/BTK/process_docking_weight1_custom_product_contain_oxygen_bond_distance_aromatic_linkinvent_7_9_3/rearranged_h_0066.sdf

> <i_m_source_file_index>
83

> <r_mmod_Potential_Energy-OPLS-2005>
-117.302696228027

> <r_mmod_Stretch_Energy-OPLS-2005>
35.5886611938477

> <r_mmod_Bend_Energy-OPLS-2005>
97.4411773681641

> <r_mmod_Torsional_Energy-OPLS-2005>
271.998016357422

> <r_mmod_Improper_Torsional_Energy-OPLS-2005>
9.14840698242188

> <r_mmod_Van_der_Waal_Energy-OPLS-2005>
148.397933959961

> <r_mmod_Electrostatic_Energy-OPLS-2005>
-476.243682861328

> <r_mmod_Solvation_Energy-OPLS-2005>
-223.585983276367

> <b_mmod_Minimization_Converged-OPLS-2005>
0

> <r_mmod_RMS_Derivative-OPLS-2005>
3.8027765750885

$$$$
84
                    3D
 Structure written by MMmdl.
156164  0  0  1  0            999 V2000
  -30.6304  -14.5866   20.5763 C   0  0  0  0  0  0
  -30.4510  -12.3747   19.4449 C   0  0  0  0  0  0
  -29.5101  -12.5106   18.2266 C   0  0  0  0  0  0
  -28.0339  -12.3473   18.6372 C   0  0  0  0  0  0
  -27.6647  -13.2034   19.8753 C   0  0  2  0  0  0
  -28.7056  -12.9992   20.9997 C   0  0  0  0  0  0
  -25.2606  -13.8154   20.5654 C   0  0  0  0  0  0
  -24.1849  -13.0439   20.9187 C   0  0  0  0  0  0
  -24.6407  -11.6906   20.8760 C   0  0  0  0  0  0
  -23.9074  -10.4290   21.0428 C   0  0  0  0  0  0
  -24.3617   -9.4203   21.9199 C   0  0  0  0  0  0
  -23.6290   -8.2238   22.0763 C   0  0  0  0  0  0
  -22.4275   -8.0284   21.3547 C   0  0  0  0  0  0
  -21.9916   -9.0261   20.4648 C   0  0  0  0  0  0
  -22.7256  -10.2137   20.3066 C   0  0  0  0  0  0
  -21.6842   -6.0746   22.5285 C   0  0  0  0  0  0
  -21.4012   -6.5646   23.8223 C   0  0  0  0  0  0
  -21.3656   -5.6797   24.9179 C   0  0  0  0  0  0
  -21.6044   -4.3061   24.7232 C   0  0  0  0  0  0
  -21.8818   -3.8160   23.4349 C   0  0  0  0  0  0
  -21.9190   -4.6974   22.3407 C   0  0  0  0  0  0
  -22.7876  -13.5246   21.1852 C   0  0  0  0  0  0
  -22.1652   -4.2160   21.0980 F   0  0  0  0  0  0
  -21.5630   -3.4537   25.7741 F   0  0  0  0  0  0
  -30.0341  -13.3574   20.4640 N   0  0  0  0  0  0
  -26.3037  -12.9305   20.3342 N   0  0  0  0  0  0
  -25.9330  -11.6478   20.5783 N   0  0  0  0  0  0
  -22.0495  -12.8233   22.0395 N   0  0  0  0  0  0
  -25.4357  -15.1855   20.4011 N   0  0  0  0  0  0
  -31.7104  -14.8447   20.0359 O   0  0  0  0  0  0
  -21.6634   -6.8883   21.4248 O   0  0  0  0  0  0
  -22.3558  -14.5548   20.6701 O   0  0  0  0  0  0
  -24.6262  -31.8621   23.2048 C   0  0  0  0  0  0
  -25.9118  -32.4774   23.8365 C   0  0  1  0  0  0
  -27.2293  -27.3413   20.1063 C   0  0  0  0  0  0
  -25.5936  -33.8574   24.2281 N   0  0  0  0  0  0
  -23.4176  -30.4869   21.5456 C   0  0  2  0  0  0
  -24.8637  -28.9437   20.1158 C   0  0  0  0  0  0
  -22.7470  -29.4631   22.4935 C   0  0  0  0  0  0
  -18.0273  -28.1369   22.8486 C   0  0  0  0  0  0
  -24.1485  -36.7311   23.2630 C   0  0  0  0  0  0
  -25.9588  -30.7966   21.3770 C   0  0  0  0  0  0
  -26.0322  -29.4273   20.7159 C   0  0  0  0  0  0
  -27.2187  -28.6390   20.6987 C   0  0  0  0  0  0
  -26.0331  -26.9017   19.4919 C   0  0  0  0  0  0
  -24.8631  -27.6826   19.5015 C   0  0  0  0  0  0
  -23.6334  -29.8256   20.1598 C   0  0  0  0  0  0
  -25.4095  -36.3071   24.0324 C   0  0  1  0  0  0
  -20.5880  -28.3686   23.1281 C   0  0  2  0  0  0
  -20.6767  -26.9416   22.5401 C   0  0  0  0  0  0
  -19.5740  -26.6386   21.5199 C   0  0  0  0  0  0
  -18.1926  -26.7912   22.1620 C   0  0  0  0  0  0
  -19.1533  -28.8841   23.2868 C   0  0  0  0  0  0
  -18.9472  -30.1441   23.8891 C   0  0  0  0  0  0
  -17.6480  -30.6586   24.0556 C   0  0  0  0  0  0
  -25.9058  -34.9446   23.5100 C   0  0  0  0  0  0
  -16.5363  -29.9100   23.6311 C   0  0  0  0  0  0
  -16.7268  -28.6509   23.0342 C   0  0  0  0  0  0
  -26.4481  -31.6583   25.0747 C   0  0  0  0  0  0
  -25.3687  -31.3789   26.1475 C   0  0  0  0  0  0
  -27.0297  -30.2969   24.6241 C   0  0  0  0  0  0
  -27.6037  -32.4325   25.7518 C   0  0  0  0  0  0
  -27.5567  -37.1786   24.8450 C   0  0  0  0  0  0
  -21.4190  -29.3048   22.3686 N   0  0  0  0  0  0
  -26.4264  -37.3773   23.9413 N   0  0  0  0  0  0
  -24.6853  -31.0647   22.0991 N   0  0  0  0  0  0
  -23.4202  -28.8167   23.3007 O   0  0  0  0  0  0
  -28.3720  -26.5314   20.1102 O   0  0  0  0  0  0
  -26.5640  -34.8913   22.4681 O   0  0  0  0  0  0
  -23.5420  -32.1451   23.7358 O   0  0  0  0  0  0
  -30.1018  -17.9290   20.4357 C   0  0  0  0  0  0
  -28.1673  -19.3588   20.7969 C   0  0  0  0  0  0
  -28.2065  -17.0899   21.6965 C   0  0  0  0  0  0
  -29.4720  -19.2312   20.2693 C   0  0  0  0  0  0
  -29.4669  -16.8349   21.1189 C   0  0  0  0  0  0
  -27.5616  -18.3261   21.5321 C   0  0  0  0  0  0
  -30.0750  -20.3586   19.4173 C   0  0  0  0  0  0
  -29.2660  -22.5978   20.3978 C   0  0  0  0  0  0
  -30.6024  -24.6745   21.0167 C   0  0  0  0  0  0
  -28.1960  -25.0754   20.2896 C   0  0  0  0  0  0
  -29.4681  -24.1472   20.1211 C   0  0  2  0  0  0
  -29.9598  -15.4820   21.3495 N   0  0  0  0  0  0
  -29.9030  -21.7256   19.5599 N   0  0  0  0  0  0
  -28.5904  -22.2586   21.3721 O   0  0  0  0  0  0
  -26.3329  -18.5152   22.0697 F   0  0  0  0  0  0
  -31.0602  -19.9377   18.1352 S   0  0  0  0  0  0
  -31.4883  -12.5213   19.1374 H   0  0  0  0  0  0
  -30.4067  -11.3653   19.8580 H   0  0  0  0  0  0
  -29.7678  -11.7645   17.4741 H   0  0  0  0  0  0
  -29.6549  -13.4861   17.7591 H   0  0  0  0  0  0
  -27.8691  -11.2917   18.8605 H   0  0  0  0  0  0
  -27.3780  -12.5860   17.8005 H   0  0  0  0  0  0
  -27.7069  -14.2476   19.5655 H   0  0  0  0  0  0
  -28.7091  -11.9581   21.3273 H   0  0  0  0  0  0
  -28.4312  -13.5741   21.8839 H   0  0  0  0  0  0
  -25.2759   -9.5667   22.4773 H   0  0  0  0  0  0
  -24.0001   -7.4624   22.7476 H   0  0  0  0  0  0
  -21.0855   -8.8802   19.8933 H   0  0  0  0  0  0
  -22.3745  -10.9687   19.6172 H   0  0  0  0  0  0
  -21.2002   -7.6152   23.9735 H   0  0  0  0  0  0
  -21.1473   -6.0517   25.9081 H   0  0  0  0  0  0
  -22.0602   -2.7623   23.2851 H   0  0  0  0  0  0
  -22.4091  -11.9865   22.4745 H   0  0  0  0  0  0
  -21.1119  -13.1273   22.2601 H   0  0  0  0  0  0
  -24.6786  -15.8503   20.5169 H   0  0  0  0  0  0
  -26.2851  -15.6131   20.0557 H   0  0  0  0  0  0
  -26.7189  -32.5442   23.1117 H   0  0  0  0  0  0
  -24.9982  -33.9710   25.0343 H   0  0  0  0  0  0
  -22.7099  -31.3066   21.4048 H   0  0  0  0  0  0
  -23.3729  -35.9661   23.3283 H   0  0  0  0  0  0
  -24.3600  -36.8963   22.2051 H   0  0  0  0  0  0
  -23.7275  -37.6517   23.6682 H   0  0  0  0  0  0
  -26.0927  -31.5639   20.6141 H   0  0  0  0  0  0
  -26.8375  -30.8433   22.0086 H   0  0  0  0  0  0
  -28.1214  -29.0130   21.1620 H   0  0  0  0  0  0
  -25.9722  -25.9543   18.9811 H   0  0  0  0  0  0
  -23.9663  -27.3060   19.0295 H   0  0  0  0  0  0
  -23.7686  -30.6092   19.4128 H   0  0  0  0  0  0
  -22.7508  -29.2655   19.8430 H   0  0  0  0  0  0
  -25.1258  -36.1899   25.0812 H   0  0  0  0  0  0
  -20.9927  -28.3261   24.1420 H   0  0  0  0  0  0
  -20.5682  -26.2300   23.3597 H   0  0  0  0  0  0
  -21.6640  -26.7464   22.1184 H   0  0  0  0  0  0
  -19.6914  -25.6302   21.1221 H   0  0  0  0  0  0
  -19.6662  -27.3193   20.6712 H   0  0  0  0  0  0
  -17.4177  -26.6641   21.4035 H   0  0  0  0  0  0
  -18.0355  -26.0036   22.8999 H   0  0  0  0  0  0
  -19.7965  -30.7228   24.2275 H   0  0  0  0  0  0
  -17.5058  -31.6263   24.5173 H   0  0  0  0  0  0
  -15.5376  -30.3010   23.7641 H   0  0  0  0  0  0
  -15.8662  -28.0840   22.7052 H   0  0  0  0  0  0
  -24.5863  -30.7111   25.7864 H   0  0  0  0  0  0
  -24.8862  -32.2981   26.4806 H   0  0  0  0  0  0
  -25.7991  -30.9066   27.0312 H   0  0  0  0  0  0
  -26.2886  -29.6748   24.1202 H   0  0  0  0  0  0
  -27.3880  -29.7209   25.4785 H   0  0  0  0  0  0
  -27.8816  -30.4213   23.9552 H   0  0  0  0  0  0
  -27.2653  -33.3660   26.2024 H   0  0  0  0  0  0
  -28.3883  -32.6824   25.0373 H   0  0  0  0  0  0
  -28.0641  -31.8481   26.5489 H   0  0  0  0  0  0
  -28.2535  -38.0124   24.7520 H   0  0  0  0  0  0
  -28.1106  -36.2650   24.6216 H   0  0  0  0  0  0
  -27.2309  -37.1380   25.8860 H   0  0  0  0  0  0
  -20.9373  -29.8818   21.6935 H   0  0  0  0  0  0
  -26.0129  -38.2834   24.1449 H   0  0  0  0  0  0
  -31.0801  -17.7524   20.0129 H   0  0  0  0  0  0
  -27.5839  -20.2493   20.6296 H   0  0  0  0  0  0
  -27.6958  -16.3214   22.2581 H   0  0  0  0  0  0
  -31.5135  -24.0877   20.8974 H   0  0  0  0  0  0
  -30.3188  -24.6420   22.0695 H   0  0  0  0  0  0
  -30.8472  -25.7084   20.7685 H   0  0  0  0  0  0
  -27.7954  -24.9347   21.2940 H   0  0  0  0  0  0
  -27.4487  -24.6788   19.6075 H   0  0  0  0  0  0
  -29.7936  -24.2449   19.0850 H   0  0  0  0  0  0
  -29.3416  -14.9644   21.9561 H   0  0  0  0  0  0
  -30.4176  -22.2160   18.8457 H   0  0  0  0  0  0
  1 25  1  0  0  0
  1 30  2  0  0  0
  1 82  1  0  0  0
  2  3  1  0  0  0
  2 25  1  0  0  0
  2 87  1  0  0  0
  2 88  1  0  0  0
  3  4  1  0  0  0
  3 89  1  0  0  0
  3 90  1  0  0  0
  4  5  1  0  0  0
  4 91  1  0  0  0
  4 92  1  0  0  0
  5  6  1  0  0  0
  5 26  1  0  0  0
  5 93  1  0  0  0
  6 25  1  0  0  0
  6 94  1  0  0  0
  6 95  1  0  0  0
  7  8  2  0  0  0
  7 26  1  0  0  0
  7 29  1  0  0  0
  8  9  1  0  0  0
  8 22  1  0  0  0
  9 10  1  0  0  0
  9 27  2  0  0  0
 10 11  2  0  0  0
 10 15  1  0  0  0
 11 12  1  0  0  0
 11 96  1  0  0  0
 12 13  2  0  0  0
 12 97  1  0  0  0
 13 14  1  0  0  0
 13 31  1  0  0  0
 14 15  2  0  0  0
 14 98  1  0  0  0
 15 99  1  0  0  0
 16 17  2  0  0  0
 16 21  1  0  0  0
 16 31  1  0  0  0
 17 18  1  0  0  0
 17100  1  0  0  0
 18 19  2  0  0  0
 18101  1  0  0  0
 19 20  1  0  0  0
 19 24  1  0  0  0
 20 21  2  0  0  0
 20102  1  0  0  0
 21 23  1  0  0  0
 22 28  1  0  0  0
 22 32  2  0  0  0
 26 27  1  0  0  0
 28103  1  0  0  0
 28104  1  0  0  0
 29105  1  0  0  0
 29106  1  0  0  0
 33 34  1  0  0  0
 33 66  1  0  0  0
 33 70  2  0  0  0
 34 36  1  0  0  0
 34 59  1  0  0  0
 34107  1  0  0  0
 35 44  2  0  0  0
 35 45  1  0  0  0
 35 68  1  0  0  0
 36 56  1  0  0  0
 36108  1  0  0  0
 37 39  1  0  0  0
 37 47  1  0  0  0
 37 66  1  0  0  0
 37109  1  0  0  0
 38 43  2  0  0  0
 38 46  1  0  0  0
 38 47  1  0  0  0
 39 64  1  0  0  0
 39 67  2  0  0  0
 40 52  1  0  0  0
 40 53  2  0  0  0
 40 58  1  0  0  0
 41110  1  0  0  0
 41111  1  0  0  0
 41112  1  0  0  0
 41 48  1  0  0  0
 42 43  1  0  0  0
 42 66  1  0  0  0
 42113  1  0  0  0
 42114  1  0  0  0
 43 44  1  0  0  0
 44115  1  0  0  0
 45 46  2  0  0  0
 45116  1  0  0  0
 46117  1  0  0  0
 47118  1  0  0  0
 47119  1  0  0  0
 48 56  1  0  0  0
 48 65  1  0  0  0
 48120  1  0  0  0
 49 50  1  0  0  0
 49 53  1  0  0  0
 49 64  1  0  0  0
 49121  1  0  0  0
 50 51  1  0  0  0
 50122  1  0  0  0
 50123  1  0  0  0
 51 52  1  0  0  0
 51124  1  0  0  0
 51125  1  0  0  0
 52126  1  0  0  0
 52127  1  0  0  0
 53 54  1  0  0  0
 54 55  2  0  0  0
 54128  1  0  0  0
 55 57  1  0  0  0
 55129  1  0  0  0
 56 69  2  0  0  0
 57 58  2  0  0  0
 57130  1  0  0  0
 58131  1  0  0  0
 59 60  1  0  0  0
 59 61  1  0  0  0
 59 62  1  0  0  0
 60132  1  0  0  0
 60133  1  0  0  0
 60134  1  0  0  0
 61135  1  0  0  0
 61136  1  0  0  0
 61137  1  0  0  0
 62138  1  0  0  0
 62139  1  0  0  0
 62140  1  0  0  0
 63 65  1  0  0  0
 63141  1  0  0  0
 63142  1  0  0  0
 63143  1  0  0  0
 64144  1  0  0  0
 65145  1  0  0  0
 68 80  1  0  0  0
 71 74  2  0  0  0
 71 75  1  0  0  0
 71146  1  0  0  0
 72 74  1  0  0  0
 72 76  2  0  0  0
 72147  1  0  0  0
 73 75  2  0  0  0
 73 76  1  0  0  0
 73148  1  0  0  0
 74 77  1  0  0  0
 75 82  1  0  0  0
 76 85  1  0  0  0
 77 83  1  0  0  0
 77 86  2  0  0  0
 78 81  1  0  0  0
 78 83  1  0  0  0
 78 84  2  0  0  0
 79149  1  0  0  0
 79150  1  0  0  0
 79151  1  0  0  0
 79 81  1  0  0  0
 80 81  1  0  0  0
 80152  1  0  0  0
 80153  1  0  0  0
 81154  1  0  0  0
 82155  1  0  0  0
 83156  1  0  0  0
M  ISO  4   1 100  68 101  80 101  82 100
M  END
> <chiral flag>
0

> <version>
0

> <s_m_source_file>
/data/baiqing/PycharmProjects/Reinvent-master-3.2/result/LINK_invent/BTK/process_docking_weight1_custom_product_contain_oxygen_bond_distance_aromatic_linkinvent_7_9_3/rearranged_h_0066.sdf

> <i_m_source_file_index>
84

> <r_mmod_Potential_Energy-OPLS-2005>
4.98727321624756

> <r_mmod_Stretch_Energy-OPLS-2005>
79.8497695922852

> <r_mmod_Bend_Energy-OPLS-2005>
196.680267333984

> <r_mmod_Torsional_Energy-OPLS-2005>
249.721313476562

> <r_mmod_Improper_Torsional_Energy-OPLS-2005>
5.81681203842163

> <r_mmod_Van_der_Waal_Energy-OPLS-2005>
147.100326538086

> <r_mmod_Electrostatic_Energy-OPLS-2005>
-467.800231933594

> <r_mmod_Solvation_Energy-OPLS-2005>
-241.634735107422

> <b_mmod_Minimization_Converged-OPLS-2005>
0

> <r_mmod_RMS_Derivative-OPLS-2005>
2.64933109283447

$$$$
85
                    3D
 Structure written by MMmdl.
163172  0  0  1  0            999 V2000
  -30.5322  -15.0202   20.4267 C   0  0  0  0  0  0
  -30.4407  -12.6415   19.5034 C   0  0  0  0  0  0
  -29.5225  -12.5357   18.2631 C   0  0  0  0  0  0
  -28.0607  -12.3041   18.6886 C   0  0  0  0  0  0
  -27.6248  -13.2531   19.8343 C   0  0  2  0  0  0
  -28.6672  -13.3245   20.9702 C   0  0  0  0  0  0
  -25.2444  -13.8216   20.5737 C   0  0  0  0  0  0
  -24.1768  -13.0430   20.9246 C   0  0  0  0  0  0
  -24.6394  -11.6922   20.8760 C   0  0  0  0  0  0
  -23.9079  -10.4291   21.0411 C   0  0  0  0  0  0
  -24.3622   -9.4204   21.9192 C   0  0  0  0  0  0
  -23.6295   -8.2240   22.0754 C   0  0  0  0  0  0
  -22.4280   -8.0278   21.3547 C   0  0  0  0  0  0
  -21.9922   -9.0250   20.4644 C   0  0  0  0  0  0
  -22.7251  -10.2129   20.3058 C   0  0  0  0  0  0
  -21.6858   -6.0733   22.5277 C   0  0  0  0  0  0
  -21.4012   -6.5639   23.8206 C   0  0  0  0  0  0
  -21.3659   -5.6793   24.9171 C   0  0  0  0  0  0
  -21.6044   -4.3054   24.7224 C   0  0  0  0  0  0
  -21.8821   -3.8146   23.4346 C   0  0  0  0  0  0
  -21.9191   -4.6960   22.3403 C   0  0  0  0  0  0
  -22.7789  -13.5203   21.1891 C   0  0  0  0  0  0
  -22.1663   -4.2143   21.0981 F   0  0  0  0  0  0
  -21.5626   -3.4540   25.7739 F   0  0  0  0  0  0
  -29.9308  -13.7569   20.3591 N   0  0  0  0  0  0
  -26.2870  -12.9458   20.3257 N   0  0  0  0  0  0
  -25.9327  -11.6584   20.5751 N   0  0  0  0  0  0
  -22.0445  -12.8181   22.0440 N   0  0  0  0  0  0
  -25.4107  -15.1945   20.4159 N   0  0  0  0  0  0
  -31.7466  -15.0467   20.1920 O   0  0  0  0  0  0
  -21.6644   -6.8877   21.4240 O   0  0  0  0  0  0
  -22.3471  -14.5510   20.6736 O   0  0  0  0  0  0
  -24.6482  -31.8400   23.1858 C   0  0  0  0  0  0
  -25.9229  -32.4674   23.8266 C   0  0  1  0  0  0
  -27.2026  -27.0691   20.1723 C   0  0  0  0  0  0
  -25.5966  -33.8485   24.2169 N   0  0  0  0  0  0
  -23.4544  -30.4606   21.5321 C   0  0  2  0  0  0
  -24.9047  -28.8835   20.1111 C   0  0  0  0  0  0
  -22.7594  -29.4522   22.4834 C   0  0  0  0  0  0
  -18.0307  -28.1398   22.8478 C   0  0  0  0  0  0
  -24.1495  -36.7254   23.2647 C   0  0  0  0  0  0
  -26.0165  -30.6913   21.3993 C   0  0  0  0  0  0
  -26.0812  -29.2953   20.7493 C   0  0  0  0  0  0
  -27.2288  -28.4045   20.7673 C   0  0  0  0  0  0
  -26.0240  -26.8138   19.4390 C   0  0  0  0  0  0
  -24.8934  -27.6575   19.4366 C   0  0  0  0  0  0
  -23.6851  -29.7936   20.1509 C   0  0  0  0  0  0
  -25.4126  -36.3015   24.0309 C   0  0  1  0  0  0
  -20.5933  -28.3719   23.1227 C   0  0  2  0  0  0
  -20.6805  -26.9419   22.5400 C   0  0  0  0  0  0
  -19.5776  -26.6375   21.5222 C   0  0  0  0  0  0
  -18.1949  -26.7941   22.1615 C   0  0  0  0  0  0
  -19.1569  -28.8878   23.2849 C   0  0  0  0  0  0
  -18.9482  -30.1479   23.8864 C   0  0  0  0  0  0
  -17.6478  -30.6596   24.0551 C   0  0  0  0  0  0
  -25.9071  -34.9393   23.5047 C   0  0  0  0  0  0
  -16.5369  -29.9087   23.6331 C   0  0  0  0  0  0
  -16.7291  -28.6504   23.0356 C   0  0  0  0  0  0
  -26.4526  -31.6567   25.0732 C   0  0  0  0  0  0
  -25.3684  -31.3781   26.1404 C   0  0  0  0  0  0
  -27.0405  -30.2963   24.6357 C   0  0  0  0  0  0
  -27.6052  -32.4345   25.7518 C   0  0  0  0  0  0
  -27.5565  -37.1782   24.8460 C   0  0  0  0  0  0
  -21.4278  -29.3057   22.3601 N   0  0  0  0  0  0
  -26.4270  -37.3742   23.9411 N   0  0  0  0  0  0
  -24.7271  -31.0208   22.0929 N   0  0  0  0  0  0
  -23.4223  -28.8057   23.2981 O   0  0  0  0  0  0
  -28.2402  -26.0414   20.1995 O   0  0  0  0  0  0
  -26.5666  -34.8892   22.4626 O   0  0  0  0  0  0
  -23.5575  -32.1297   23.7024 O   0  0  0  0  0  0
  -31.7599  -19.3880   21.4366 C   0  0  0  0  0  0
  -31.3758  -18.0643   21.1452 C   0  0  0  0  0  0
  -29.2575  -18.9829   20.4321 C   0  0  0  0  0  0
  -30.9329  -20.5323   21.2673 C   0  0  0  0  0  0
  -29.6175  -20.4316   20.6941 C   0  0  0  0  0  0
  -30.0960  -17.7497   20.6561 C   0  0  0  0  0  0
  -31.4983  -21.8062   21.8337 C   0  0  0  0  0  0
  -26.4332  -22.4822   20.7740 C   0  0  0  0  0  0
  -26.6547  -23.9127   20.2291 C   0  0  0  0  0  0
  -27.3658  -21.4148   20.1641 C   0  0  0  0  0  0
  -29.1051  -23.2027   20.1838 C   0  0  0  0  0  0
  -28.0508  -24.4920   20.5539 C   0  0  1  0  0  0
  -33.3708  -23.4166   21.6913 C   0  0  0  0  0  0
  -28.7661  -21.6771   20.4848 N   0  0  0  0  0  0
  -29.7606  -16.2363   20.5047 N   0  0  0  0  0  0
  -32.6610  -22.2049   21.3035 N   0  0  0  0  0  0
  -30.9353  -22.4158   22.7471 O   0  0  0  0  0  0
  -31.4697  -12.8120   19.1836 H   0  0  0  0  0  0
  -30.4533  -11.7033   20.0607 H   0  0  0  0  0  0
  -29.8559  -11.7269   17.6107 H   0  0  0  0  0  0
  -29.5922  -13.4531   17.6773 H   0  0  0  0  0  0
  -27.9781  -11.2685   19.0212 H   0  0  0  0  0  0
  -27.3925  -12.4046   17.8332 H   0  0  0  0  0  0
  -27.5743  -14.2451   19.3832 H   0  0  0  0  0  0
  -28.7770  -12.3620   21.4716 H   0  0  0  0  0  0
  -28.3536  -14.0393   21.7323 H   0  0  0  0  0  0
  -25.2763   -9.5677   22.4772 H   0  0  0  0  0  0
  -23.9995   -7.4634   22.7479 H   0  0  0  0  0  0
  -21.0852   -8.8777   19.8949 H   0  0  0  0  0  0
  -22.3716  -10.9669   19.6164 H   0  0  0  0  0  0
  -21.2010   -7.6149   23.9708 H   0  0  0  0  0  0
  -21.1477   -6.0526   25.9072 H   0  0  0  0  0  0
  -22.0601   -2.7607   23.2852 H   0  0  0  0  0  0
  -22.4069  -11.9838   22.4816 H   0  0  0  0  0  0
  -21.1058  -13.1186   22.2649 H   0  0  0  0  0  0
  -24.6412  -15.8451   20.5303 H   0  0  0  0  0  0
  -26.2509  -15.6365   20.0669 H   0  0  0  0  0  0
  -26.7297  -32.5252   23.0986 H   0  0  0  0  0  0
  -25.0122  -33.9609   25.0327 H   0  0  0  0  0  0
  -22.7604  -31.2899   21.3754 H   0  0  0  0  0  0
  -23.3754  -35.9588   23.3282 H   0  0  0  0  0  0
  -24.3588  -36.8909   22.2067 H   0  0  0  0  0  0
  -23.7254  -37.6444   23.6702 H   0  0  0  0  0  0
  -26.1815  -31.4370   20.6200 H   0  0  0  0  0  0
  -26.8854  -30.7439   22.0431 H   0  0  0  0  0  0
  -28.1203  -28.7156   21.2913 H   0  0  0  0  0  0
  -25.9449  -25.9188   18.8458 H   0  0  0  0  0  0
  -24.0124  -27.3529   18.8899 H   0  0  0  0  0  0
  -23.8256  -30.5695   19.3974 H   0  0  0  0  0  0
  -22.7974  -29.2425   19.8347 H   0  0  0  0  0  0
  -25.1321  -36.1815   25.0800 H   0  0  0  0  0  0
  -21.0028  -28.3289   24.1348 H   0  0  0  0  0  0
  -20.5720  -26.2331   23.3620 H   0  0  0  0  0  0
  -21.6664  -26.7435   22.1185 H   0  0  0  0  0  0
  -19.6936  -25.6284   21.1260 H   0  0  0  0  0  0
  -19.6712  -27.3179   20.6755 H   0  0  0  0  0  0
  -17.4231  -26.6700   21.4001 H   0  0  0  0  0  0
  -18.0303  -26.0096   22.9017 H   0  0  0  0  0  0
  -19.7958  -30.7313   24.2210 H   0  0  0  0  0  0
  -17.5024  -31.6266   24.5171 H   0  0  0  0  0  0
  -15.5366  -30.2977   23.7693 H   0  0  0  0  0  0
  -15.8685  -28.0815   22.7097 H   0  0  0  0  0  0
  -24.5904  -30.7075   25.7738 H   0  0  0  0  0  0
  -24.8821  -32.2968   26.4695 H   0  0  0  0  0  0
  -25.7938  -30.9062   27.0270 H   0  0  0  0  0  0
  -26.3044  -29.6678   24.1332 H   0  0  0  0  0  0
  -27.3989  -29.7263   25.4944 H   0  0  0  0  0  0
  -27.8961  -30.4223   23.9718 H   0  0  0  0  0  0
  -27.2661  -33.3710   26.1962 H   0  0  0  0  0  0
  -28.3926  -32.6794   25.0376 H   0  0  0  0  0  0
  -28.0642  -31.8552   26.5531 H   0  0  0  0  0  0
  -28.2565  -38.0098   24.7514 H   0  0  0  0  0  0
  -28.1071  -36.2619   24.6267 H   0  0  0  0  0  0
  -27.2281  -37.1411   25.8865 H   0  0  0  0  0  0
  -20.9483  -29.8782   21.6799 H   0  0  0  0  0  0
  -26.0112  -38.2798   24.1427 H   0  0  0  0  0  0
  -32.7404  -19.5195   21.8744 H   0  0  0  0  0  0
  -32.0850  -17.2787   21.3617 H   0  0  0  0  0  0
  -28.2737  -18.7894   20.0338 H   0  0  0  0  0  0
  -25.4022  -22.1905   20.5663 H   0  0  0  0  0  0
  -26.5275  -22.4781   21.8613 H   0  0  0  0  0  0
  -25.8796  -24.5416   20.6647 H   0  0  0  0  0  0
  -26.5039  -23.8918   19.1502 H   0  0  0  0  0  0
  -27.2407  -21.3738   19.0801 H   0  0  0  0  0  0
  -27.0498  -20.4483   20.5533 H   0  0  0  0  0  0
  -30.0746  -23.4768   20.5855 H   0  0  0  0  0  0
  -29.2585  -23.2419   19.1057 H   0  0  0  0  0  0
  -28.0810  -24.5293   21.6434 H   0  0  0  0  0  0
  -34.3123  -23.4950   21.1469 H   0  0  0  0  0  0
  -33.5960  -23.4157   22.7589 H   0  0  0  0  0  0
  -32.7747  -24.3023   21.4682 H   0  0  0  0  0  0
  -28.7699  -16.0463   20.4942 H   0  0  0  0  0  0
  -33.0614  -21.6360   20.5692 H   0  0  0  0  0  0
  1 25  1  0  0  0
  1 30  2  0  0  0
  1 85  1  0  0  0
  2  3  1  0  0  0
  2 25  1  0  0  0
  2 88  1  0  0  0
  2 89  1  0  0  0
  3  4  1  0  0  0
  3 90  1  0  0  0
  3 91  1  0  0  0
  4  5  1  0  0  0
  4 92  1  0  0  0
  4 93  1  0  0  0
  5  6  1  0  0  0
  5 26  1  0  0  0
  5 94  1  0  0  0
  6 25  1  0  0  0
  6 95  1  0  0  0
  6 96  1  0  0  0
  7  8  2  0  0  0
  7 26  1  0  0  0
  7 29  1  0  0  0
  8  9  1  0  0  0
  8 22  1  0  0  0
  9 10  1  0  0  0
  9 27  2  0  0  0
 10 11  2  0  0  0
 10 15  1  0  0  0
 11 12  1  0  0  0
 11 97  1  0  0  0
 12 13  2  0  0  0
 12 98  1  0  0  0
 13 14  1  0  0  0
 13 31  1  0  0  0
 14 15  2  0  0  0
 14 99  1  0  0  0
 15100  1  0  0  0
 16 17  2  0  0  0
 16 21  1  0  0  0
 16 31  1  0  0  0
 17 18  1  0  0  0
 17101  1  0  0  0
 18 19  2  0  0  0
 18102  1  0  0  0
 19 20  1  0  0  0
 19 24  1  0  0  0
 20 21  2  0  0  0
 20103  1  0  0  0
 21 23  1  0  0  0
 22 28  1  0  0  0
 22 32  2  0  0  0
 26 27  1  0  0  0
 28104  1  0  0  0
 28105  1  0  0  0
 29106  1  0  0  0
 29107  1  0  0  0
 33 34  1  0  0  0
 33 66  1  0  0  0
 33 70  2  0  0  0
 34 36  1  0  0  0
 34 59  1  0  0  0
 34108  1  0  0  0
 35 44  2  0  0  0
 35 45  1  0  0  0
 35 68  1  0  0  0
 36 56  1  0  0  0
 36109  1  0  0  0
 37 39  1  0  0  0
 37 47  1  0  0  0
 37 66  1  0  0  0
 37110  1  0  0  0
 38 43  2  0  0  0
 38 46  1  0  0  0
 38 47  1  0  0  0
 39 64  1  0  0  0
 39 67  2  0  0  0
 40 52  1  0  0  0
 40 53  2  0  0  0
 40 58  1  0  0  0
 41111  1  0  0  0
 41112  1  0  0  0
 41113  1  0  0  0
 41 48  1  0  0  0
 42 43  1  0  0  0
 42 66  1  0  0  0
 42114  1  0  0  0
 42115  1  0  0  0
 43 44  1  0  0  0
 44116  1  0  0  0
 45 46  2  0  0  0
 45117  1  0  0  0
 46118  1  0  0  0
 47119  1  0  0  0
 47120  1  0  0  0
 48 56  1  0  0  0
 48 65  1  0  0  0
 48121  1  0  0  0
 49 50  1  0  0  0
 49 53  1  0  0  0
 49 64  1  0  0  0
 49122  1  0  0  0
 50 51  1  0  0  0
 50123  1  0  0  0
 50124  1  0  0  0
 51 52  1  0  0  0
 51125  1  0  0  0
 51126  1  0  0  0
 52127  1  0  0  0
 52128  1  0  0  0
 53 54  1  0  0  0
 54 55  2  0  0  0
 54129  1  0  0  0
 55 57  1  0  0  0
 55130  1  0  0  0
 56 69  2  0  0  0
 57 58  2  0  0  0
 57131  1  0  0  0
 58132  1  0  0  0
 59 60  1  0  0  0
 59 61  1  0  0  0
 59 62  1  0  0  0
 60133  1  0  0  0
 60134  1  0  0  0
 60135  1  0  0  0
 61136  1  0  0  0
 61137  1  0  0  0
 61138  1  0  0  0
 62139  1  0  0  0
 62140  1  0  0  0
 62141  1  0  0  0
 63 65  1  0  0  0
 63142  1  0  0  0
 63143  1  0  0  0
 63144  1  0  0  0
 64145  1  0  0  0
 65146  1  0  0  0
 68 82  1  0  0  0
 71 72  2  0  0  0
 71 74  1  0  0  0
 71147  1  0  0  0
 72 76  1  0  0  0
 72148  1  0  0  0
 73 75  1  0  0  0
 73 76  2  0  0  0
 73149  1  0  0  0
 74 75  2  0  0  0
 74 77  1  0  0  0
 75 84  1  0  0  0
 76 85  1  0  0  0
 77 86  1  0  0  0
 77 87  2  0  0  0
 78 79  1  0  0  0
 78 80  1  0  0  0
 78150  1  0  0  0
 78151  1  0  0  0
 79 82  1  0  0  0
 79152  1  0  0  0
 79153  1  0  0  0
 80 84  1  0  0  0
 80154  1  0  0  0
 80155  1  0  0  0
 81 82  1  0  0  0
 81 84  1  0  0  0
 81156  1  0  0  0
 81157  1  0  0  0
 82158  1  0  0  0
 83 86  1  0  0  0
 83159  1  0  0  0
 83160  1  0  0  0
 83161  1  0  0  0
 85162  1  0  0  0
 86163  1  0  0  0
M  ISO  4   1 100  68 101  82 101  85 100
M  END
> <chiral flag>
0

> <version>
0

> <s_m_source_file>
/data/baiqing/PycharmProjects/Reinvent-master-3.2/result/LINK_invent/BTK/process_docking_weight1_custom_product_contain_oxygen_bond_distance_aromatic_linkinvent_7_9_3/rearranged_h_0066.sdf

> <i_m_source_file_index>
85

> <r_mmod_Potential_Energy-OPLS-2005>
756.736267089844

> <r_mmod_Stretch_Energy-OPLS-2005>
338.546142578125

> <r_mmod_Bend_Energy-OPLS-2005>
305.370483398438

> <r_mmod_Torsional_Energy-OPLS-2005>
280.008239746094

> <r_mmod_Improper_Torsional_Energy-OPLS-2005>
6.88065052032471

> <r_mmod_Van_der_Waal_Energy-OPLS-2005>
152.141738891602

> <r_mmod_Electrostatic_Energy-OPLS-2005>
-317.797668457031

> <r_mmod_Solvation_Energy-OPLS-2005>
-257.635681152344

> <b_mmod_Minimization_Converged-OPLS-2005>
0

> <r_mmod_RMS_Derivative-OPLS-2005>
1.76773118972778

$$$$
86
                    3D
 Structure written by MMmdl.
157166  0  0  1  0            999 V2000
  -30.5839  -14.7207   20.4520 C   0  0  0  0  0  0
  -30.4472  -12.4386   19.4557 C   0  0  0  0  0  0
  -29.5163  -12.5343   18.2244 C   0  0  0  0  0  0
  -28.0385  -12.3663   18.6332 C   0  0  0  0  0  0
  -27.6529  -13.2339   19.8617 C   0  0  2  0  0  0
  -28.6982  -13.1072   20.9912 C   0  0  0  0  0  0
  -25.2521  -13.8223   20.5680 C   0  0  0  0  0  0
  -24.1818  -13.0456   20.9217 C   0  0  0  0  0  0
  -24.6409  -11.6936   20.8759 C   0  0  0  0  0  0
  -23.9074  -10.4319   21.0421 C   0  0  0  0  0  0
  -24.3645   -9.4205   21.9176 C   0  0  0  0  0  0
  -23.6317   -8.2243   22.0742 C   0  0  0  0  0  0
  -22.4282   -8.0297   21.3551 C   0  0  0  0  0  0
  -21.9925   -9.0253   20.4630 C   0  0  0  0  0  0
  -22.7262  -10.2118   20.3040 C   0  0  0  0  0  0
  -21.6842   -6.0758   22.5287 C   0  0  0  0  0  0
  -21.3976   -6.5624   23.8232 C   0  0  0  0  0  0
  -21.3671   -5.6775   24.9193 C   0  0  0  0  0  0
  -21.6093   -4.3051   24.7234 C   0  0  0  0  0  0
  -21.8801   -3.8132   23.4337 C   0  0  0  0  0  0
  -21.9182   -4.6975   22.3400 C   0  0  0  0  0  0
  -22.7820  -13.5221   21.1900 C   0  0  0  0  0  0
  -22.1660   -4.2147   21.0995 F   0  0  0  0  0  0
  -21.5683   -3.4538   25.7745 F   0  0  0  0  0  0
  -30.0119  -13.4697   20.4263 N   0  0  0  0  0  0
  -26.2979  -12.9452   20.3296 N   0  0  0  0  0  0
  -25.9341  -11.6592   20.5702 N   0  0  0  0  0  0
  -22.0445  -12.8195   22.0434 N   0  0  0  0  0  0
  -25.4208  -15.1970   20.4125 N   0  0  0  0  0  0
  -31.7400  -14.8948   20.0548 O   0  0  0  0  0  0
  -21.6648   -6.8892   21.4246 O   0  0  0  0  0  0
  -22.3487  -14.5546   20.6765 O   0  0  0  0  0  0
  -24.6295  -31.8554   23.1952 C   0  0  0  0  0  0
  -25.9141  -32.4755   23.8326 C   0  0  1  0  0  0
  -27.2421  -27.2972   20.0928 C   0  0  0  0  0  0
  -25.5932  -33.8549   24.2236 N   0  0  0  0  0  0
  -23.4267  -30.4728   21.5344 C   0  0  2  0  0  0
  -24.8760  -28.9192   20.1005 C   0  0  0  0  0  0
  -22.7498  -29.4619   22.4899 C   0  0  0  0  0  0
  -18.0295  -28.1391   22.8504 C   0  0  0  0  0  0
  -24.1480  -36.7266   23.2630 C   0  0  0  0  0  0
  -25.9675  -30.7727   21.3720 C   0  0  0  0  0  0
  -26.0416  -29.3962   20.7145 C   0  0  0  0  0  0
  -27.2189  -28.5884   20.7126 C   0  0  0  0  0  0
  -26.0553  -26.8711   19.4617 C   0  0  0  0  0  0
  -24.8864  -27.6626   19.4673 C   0  0  0  0  0  0
  -23.6408  -29.7973   20.1531 C   0  0  0  0  0  0
  -25.4111  -36.3059   24.0327 C   0  0  1  0  0  0
  -20.5901  -28.3696   23.1272 C   0  0  2  0  0  0
  -20.6770  -26.9431   22.5405 C   0  0  0  0  0  0
  -19.5751  -26.6398   21.5208 C   0  0  0  0  0  0
  -18.1925  -26.7943   22.1618 C   0  0  0  0  0  0
  -19.1543  -28.8861   23.2894 C   0  0  0  0  0  0
  -18.9468  -30.1454   23.8929 C   0  0  0  0  0  0
  -17.6461  -30.6586   24.0570 C   0  0  0  0  0  0
  -25.9076  -34.9443   23.5097 C   0  0  0  0  0  0
  -16.5350  -29.9086   23.6323 C   0  0  0  0  0  0
  -16.7283  -28.6490   23.0371 C   0  0  0  0  0  0
  -26.4500  -31.6583   25.0709 C   0  0  0  0  0  0
  -25.3714  -31.3713   26.1411 C   0  0  0  0  0  0
  -27.0334  -30.3007   24.6191 C   0  0  0  0  0  0
  -27.6072  -32.4306   25.7484 C   0  0  0  0  0  0
  -27.5607  -37.1739   24.8421 C   0  0  0  0  0  0
  -21.4203  -29.3037   22.3630 N   0  0  0  0  0  0
  -26.4245  -37.3802   23.9477 N   0  0  0  0  0  0
  -24.6926  -31.0519   22.0920 N   0  0  0  0  0  0
  -23.4187  -28.8173   23.3028 O   0  0  0  0  0  0
  -28.3675  -26.4570   20.1780 O   0  0  0  0  0  0
  -26.5662  -34.8933   22.4670 O   0  0  0  0  0  0
  -23.5441  -32.1368   23.7236 O   0  0  0  0  0  0
  -30.0861  -19.3690   19.3731 C   0  0  0  0  0  0
  -30.3495  -17.9677   19.5979 C   0  0  0  0  0  0
  -28.5168  -19.3633   21.1781 C   0  0  0  0  0  0
  -27.2327  -23.1138   19.1330 C   0  0  0  0  0  0
  -28.7746  -17.9755   21.4130 C   0  0  0  0  0  0
  -28.4147  -23.8100   19.5246 C   0  0  0  0  0  0
  -29.1349  -20.1083   20.1425 C   0  0  0  0  0  0
  -29.6826  -17.2162   20.6134 C   0  0  0  0  0  0
  -27.4038  -21.7649   19.3082 C   0  0  0  0  0  0
  -29.2520  -22.7693   19.9646 C   0  0  0  0  0  0
  -28.0232  -17.2936   22.5451 C   0  0  0  0  0  0
  -28.6532  -25.3573   19.2269 C   0  0  0  0  0  0
  -28.6607  -21.4768   19.8361 N   0  0  0  0  0  0
  -29.7560  -15.7527   20.8399 N   0  0  0  0  0  0
  -26.5350  -20.7629   18.9834 O   0  0  0  0  0  0
  -30.5357  -22.8589   20.4204 O   0  0  0  0  0  0
  -31.4882  -12.5724   19.1585 H   0  0  0  0  0  0
  -30.3855  -11.4430   19.9000 H   0  0  0  0  0  0
  -29.7981  -11.7787   17.4870 H   0  0  0  0  0  0
  -29.6501  -13.5006   17.7345 H   0  0  0  0  0  0
  -27.8728  -11.3133   18.8604 H   0  0  0  0  0  0
  -27.3881  -12.6031   17.7895 H   0  0  0  0  0  0
  -27.6660  -14.2685   19.5197 H   0  0  0  0  0  0
  -28.7204  -12.0834   21.3724 H   0  0  0  0  0  0
  -28.4283  -13.7411   21.8358 H   0  0  0  0  0  0
  -25.2783   -9.5685   22.4751 H   0  0  0  0  0  0
  -24.0036   -7.4626   22.7448 H   0  0  0  0  0  0
  -21.0874   -8.8756   19.8940 H   0  0  0  0  0  0
  -22.3729  -10.9663   19.6135 H   0  0  0  0  0  0
  -21.1909   -7.6118   23.9720 H   0  0  0  0  0  0
  -21.1544   -6.0511   25.9102 H   0  0  0  0  0  0
  -22.0570   -2.7589   23.2840 H   0  0  0  0  0  0
  -22.4018  -11.9822   22.4811 H   0  0  0  0  0  0
  -21.1044  -13.1202   22.2656 H   0  0  0  0  0  0
  -24.6509  -15.8484   20.5145 H   0  0  0  0  0  0
  -26.2628  -15.6320   20.0578 H   0  0  0  0  0  0
  -26.7220  -32.5401   23.1064 H   0  0  0  0  0  0
  -25.0040  -33.9699   25.0344 H   0  0  0  0  0  0
  -22.7256  -31.2956   21.3833 H   0  0  0  0  0  0
  -23.3796  -35.9530   23.3129 H   0  0  0  0  0  0
  -24.3635  -36.9051   22.2088 H   0  0  0  0  0  0
  -23.7125  -37.6373   23.6744 H   0  0  0  0  0  0
  -26.1072  -31.5341   20.6026 H   0  0  0  0  0  0
  -26.8490  -30.8243   22.0023 H   0  0  0  0  0  0
  -28.1085  -28.9412   21.2129 H   0  0  0  0  0  0
  -26.0063  -25.8999   18.9904 H   0  0  0  0  0  0
  -23.9927  -27.2905   18.9804 H   0  0  0  0  0  0
  -23.7478  -30.5647   19.3877 H   0  0  0  0  0  0
  -22.7653  -29.2132   19.8618 H   0  0  0  0  0  0
  -25.1267  -36.1868   25.0811 H   0  0  0  0  0  0
  -21.0039  -28.3261   24.1386 H   0  0  0  0  0  0
  -20.5613  -26.2336   23.3612 H   0  0  0  0  0  0
  -21.6626  -26.7414   22.1212 H   0  0  0  0  0  0
  -19.6887  -25.6286   21.1257 H   0  0  0  0  0  0
  -19.6675  -27.3190   20.6726 H   0  0  0  0  0  0
  -17.4199  -26.6697   21.4017 H   0  0  0  0  0  0
  -18.0335  -26.0065   22.9008 H   0  0  0  0  0  0
  -19.7941  -30.7265   24.2308 H   0  0  0  0  0  0
  -17.5014  -31.6268   24.5154 H   0  0  0  0  0  0
  -15.5349  -30.3007   23.7620 H   0  0  0  0  0  0
  -15.8674  -28.0807   22.7112 H   0  0  0  0  0  0
  -24.5903  -30.7069   25.7678 H   0  0  0  0  0  0
  -24.8877  -32.2867   26.4851 H   0  0  0  0  0  0
  -25.8008  -30.8846   27.0179 H   0  0  0  0  0  0
  -26.2891  -29.6770   24.1227 H   0  0  0  0  0  0
  -27.4016  -29.7283   25.4713 H   0  0  0  0  0  0
  -27.8784  -30.4280   23.9423 H   0  0  0  0  0  0
  -27.2730  -33.3639   26.2050 H   0  0  0  0  0  0
  -28.3912  -32.6828   25.0313 H   0  0  0  0  0  0
  -28.0729  -31.8432   26.5412 H   0  0  0  0  0  0
  -28.2430  -38.0226   24.7778 H   0  0  0  0  0  0
  -28.1307  -36.2794   24.5834 H   0  0  0  0  0  0
  -27.2403  -37.0870   25.8821 H   0  0  0  0  0  0
  -20.9363  -29.8793   21.6862 H   0  0  0  0  0  0
  -26.0099  -38.2822   24.1658 H   0  0  0  0  0  0
  -30.5903  -19.8656   18.5563 H   0  0  0  0  0  0
  -31.0441  -17.4660   18.9377 H   0  0  0  0  0  0
  -27.7748  -19.8749   21.7747 H   0  0  0  0  0  0
  -26.3584  -23.5705   18.6888 H   0  0  0  0  0  0
  -27.3513  -17.9851   23.0510 H   0  0  0  0  0  0
  -28.7246  -16.9216   23.2895 H   0  0  0  0  0  0
  -27.4248  -16.4619   22.1771 H   0  0  0  0  0  0
  -28.1906  -25.6049   18.2688 H   0  0  0  0  0  0
  -29.7175  -25.4427   19.0100 H   0  0  0  0  0  0
  -28.9386  -15.3962   21.3074 H   0  0  0  0  0  0
  -25.8387  -21.1361   18.4506 H   0  0  0  0  0  0
  -30.7786  -23.7781   20.4513 H   0  0  0  0  0  0
  1 25  1  0  0  0
  1 30  2  0  0  0
  1 84  1  0  0  0
  2  3  1  0  0  0
  2 25  1  0  0  0
  2 87  1  0  0  0
  2 88  1  0  0  0
  3  4  1  0  0  0
  3 89  1  0  0  0
  3 90  1  0  0  0
  4  5  1  0  0  0
  4 91  1  0  0  0
  4 92  1  0  0  0
  5  6  1  0  0  0
  5 26  1  0  0  0
  5 93  1  0  0  0
  6 25  1  0  0  0
  6 94  1  0  0  0
  6 95  1  0  0  0
  7  8  2  0  0  0
  7 26  1  0  0  0
  7 29  1  0  0  0
  8  9  1  0  0  0
  8 22  1  0  0  0
  9 10  1  0  0  0
  9 27  2  0  0  0
 10 11  2  0  0  0
 10 15  1  0  0  0
 11 12  1  0  0  0
 11 96  1  0  0  0
 12 13  2  0  0  0
 12 97  1  0  0  0
 13 14  1  0  0  0
 13 31  1  0  0  0
 14 15  2  0  0  0
 14 98  1  0  0  0
 15 99  1  0  0  0
 16 17  2  0  0  0
 16 21  1  0  0  0
 16 31  1  0  0  0
 17 18  1  0  0  0
 17100  1  0  0  0
 18 19  2  0  0  0
 18101  1  0  0  0
 19 20  1  0  0  0
 19 24  1  0  0  0
 20 21  2  0  0  0
 20102  1  0  0  0
 21 23  1  0  0  0
 22 28  1  0  0  0
 22 32  2  0  0  0
 26 27  1  0  0  0
 28103  1  0  0  0
 28104  1  0  0  0
 29105  1  0  0  0
 29106  1  0  0  0
 33 34  1  0  0  0
 33 66  1  0  0  0
 33 70  2  0  0  0
 34 36  1  0  0  0
 34 59  1  0  0  0
 34107  1  0  0  0
 35 44  2  0  0  0
 35 45  1  0  0  0
 35 68  1  0  0  0
 36 56  1  0  0  0
 36108  1  0  0  0
 37 39  1  0  0  0
 37 47  1  0  0  0
 37 66  1  0  0  0
 37109  1  0  0  0
 38 43  2  0  0  0
 38 46  1  0  0  0
 38 47  1  0  0  0
 39 64  1  0  0  0
 39 67  2  0  0  0
 40 52  1  0  0  0
 40 53  2  0  0  0
 40 58  1  0  0  0
 41110  1  0  0  0
 41111  1  0  0  0
 41112  1  0  0  0
 41 48  1  0  0  0
 42 43  1  0  0  0
 42 66  1  0  0  0
 42113  1  0  0  0
 42114  1  0  0  0
 43 44  1  0  0  0
 44115  1  0  0  0
 45 46  2  0  0  0
 45116  1  0  0  0
 46117  1  0  0  0
 47118  1  0  0  0
 47119  1  0  0  0
 48 56  1  0  0  0
 48 65  1  0  0  0
 48120  1  0  0  0
 49 50  1  0  0  0
 49 53  1  0  0  0
 49 64  1  0  0  0
 49121  1  0  0  0
 50 51  1  0  0  0
 50122  1  0  0  0
 50123  1  0  0  0
 51 52  1  0  0  0
 51124  1  0  0  0
 51125  1  0  0  0
 52126  1  0  0  0
 52127  1  0  0  0
 53 54  1  0  0  0
 54 55  2  0  0  0
 54128  1  0  0  0
 55 57  1  0  0  0
 55129  1  0  0  0
 56 69  2  0  0  0
 57 58  2  0  0  0
 57130  1  0  0  0
 58131  1  0  0  0
 59 60  1  0  0  0
 59 61  1  0  0  0
 59 62  1  0  0  0
 60132  1  0  0  0
 60133  1  0  0  0
 60134  1  0  0  0
 61135  1  0  0  0
 61136  1  0  0  0
 61137  1  0  0  0
 62138  1  0  0  0
 62139  1  0  0  0
 62140  1  0  0  0
 63 65  1  0  0  0
 63141  1  0  0  0
 63142  1  0  0  0
 63143  1  0  0  0
 64144  1  0  0  0
 65145  1  0  0  0
 68 82  1  0  0  0
 71 72  2  0  0  0
 71 77  1  0  0  0
 71146  1  0  0  0
 72 78  1  0  0  0
 72147  1  0  0  0
 73 75  1  0  0  0
 73 77  2  0  0  0
 73148  1  0  0  0
 74 76  1  0  0  0
 74 79  2  0  0  0
 74149  1  0  0  0
 75 78  2  0  0  0
 75 81  1  0  0  0
 76 80  2  0  0  0
 76 82  1  0  0  0
 77 83  1  0  0  0
 78 84  1  0  0  0
 79 83  1  0  0  0
 79 85  1  0  0  0
 80 83  1  0  0  0
 80 86  1  0  0  0
 81150  1  0  0  0
 81151  1  0  0  0
 81152  1  0  0  0
 82153  1  0  0  0
 82154  1  0  0  0
 84155  1  0  0  0
 85156  1  0  0  0
 86157  1  0  0  0
M  ISO  4   1 100  68 101  82 101  84 100
M  END
> <chiral flag>
0

> <version>
0

> <s_m_source_file>
/data/baiqing/PycharmProjects/Reinvent-master-3.2/result/LINK_invent/BTK/process_docking_weight1_custom_product_contain_oxygen_bond_distance_aromatic_linkinvent_7_9_3/rearranged_h_0066.sdf

> <i_m_source_file_index>
86

> <r_mmod_Potential_Energy-OPLS-2005>
141.218811035156

> <r_mmod_Stretch_Energy-OPLS-2005>
100.441703796387

> <r_mmod_Bend_Energy-OPLS-2005>
181.134963989258

> <r_mmod_Torsional_Energy-OPLS-2005>
249.827499389648

> <r_mmod_Improper_Torsional_Energy-OPLS-2005>
6.25873994827271

> <r_mmod_Van_der_Waal_Energy-OPLS-2005>
125.488494873047

> <r_mmod_Electrostatic_Energy-OPLS-2005>
-355.916137695312

> <r_mmod_Solvation_Energy-OPLS-2005>
-236.348968505859

> <b_mmod_Minimization_Converged-OPLS-2005>
0

> <r_mmod_RMS_Derivative-OPLS-2005>
5.34301948547363

$$$$
87
                    3D
 Structure written by MMmdl.
158167  0  0  1  0            999 V2000
  -30.6689  -14.6640   20.4314 C   0  0  0  0  0  0
  -30.4475  -12.3992   19.4476 C   0  0  0  0  0  0
  -29.5142  -12.5021   18.2195 C   0  0  0  0  0  0
  -28.0408  -12.3347   18.6377 C   0  0  0  0  0  0
  -27.6572  -13.2259   19.8476 C   0  0  2  0  0  0
  -28.7123  -13.1403   20.9759 C   0  0  0  0  0  0
  -25.2602  -13.8200   20.5705 C   0  0  0  0  0  0
  -24.1852  -13.0457   20.9189 C   0  0  0  0  0  0
  -24.6434  -11.6943   20.8727 C   0  0  0  0  0  0
  -23.9086  -10.4312   21.0400 C   0  0  0  0  0  0
  -24.3654   -9.4227   21.9184 C   0  0  0  0  0  0
  -23.6336   -8.2251   22.0748 C   0  0  0  0  0  0
  -22.4299   -8.0302   21.3551 C   0  0  0  0  0  0
  -21.9941   -9.0254   20.4636 C   0  0  0  0  0  0
  -22.7253  -10.2143   20.3045 C   0  0  0  0  0  0
  -21.6846   -6.0769   22.5300 C   0  0  0  0  0  0
  -21.3995   -6.5657   23.8238 C   0  0  0  0  0  0
  -21.3663   -5.6797   24.9190 C   0  0  0  0  0  0
  -21.6052   -4.3055   24.7231 C   0  0  0  0  0  0
  -21.8814   -3.8162   23.4337 C   0  0  0  0  0  0
  -21.9190   -4.6996   22.3411 C   0  0  0  0  0  0
  -22.7863  -13.5248   21.1846 C   0  0  0  0  0  0
  -22.1668   -4.2185   21.0983 F   0  0  0  0  0  0
  -21.5648   -3.4541   25.7730 F   0  0  0  0  0  0
  -30.0325  -13.4493   20.4000 N   0  0  0  0  0  0
  -26.3057  -12.9411   20.3280 N   0  0  0  0  0  0
  -25.9361  -11.6555   20.5707 N   0  0  0  0  0  0
  -22.0470  -12.8256   22.0399 N   0  0  0  0  0  0
  -25.4216  -15.1939   20.4263 N   0  0  0  0  0  0
  -31.8576  -14.7761   20.1231 O   0  0  0  0  0  0
  -21.6648   -6.8908   21.4256 O   0  0  0  0  0  0
  -22.3563  -14.5571   20.6701 O   0  0  0  0  0  0
  -24.6264  -31.8629   23.2047 C   0  0  0  0  0  0
  -25.9106  -32.4791   23.8383 C   0  0  1  0  0  0
  -27.2175  -27.3048   20.0965 C   0  0  0  0  0  0
  -25.5928  -33.8588   24.2297 N   0  0  0  0  0  0
  -23.4189  -30.4913   21.5491 C   0  0  2  0  0  0
  -24.8649  -28.9549   20.1102 C   0  0  0  0  0  0
  -22.7474  -29.4651   22.4955 C   0  0  0  0  0  0
  -18.0291  -28.1377   22.8499 C   0  0  0  0  0  0
  -24.1489  -36.7290   23.2630 C   0  0  0  0  0  0
  -25.9661  -30.7912   21.3804 C   0  0  0  0  0  0
  -26.0413  -29.4190   20.7140 C   0  0  0  0  0  0
  -27.2188  -28.6055   20.6988 C   0  0  0  0  0  0
  -26.0052  -26.9081   19.4759 C   0  0  0  0  0  0
  -24.8498  -27.7062   19.4807 C   0  0  0  0  0  0
  -23.6308  -29.8324   20.1643 C   0  0  0  0  0  0
  -25.4113  -36.3069   24.0329 C   0  0  1  0  0  0
  -20.5896  -28.3672   23.1295 C   0  0  2  0  0  0
  -20.6763  -26.9406   22.5410 C   0  0  0  0  0  0
  -19.5739  -26.6385   21.5210 C   0  0  0  0  0  0
  -18.1918  -26.7922   22.1620 C   0  0  0  0  0  0
  -19.1538  -28.8841   23.2890 C   0  0  0  0  0  0
  -18.9453  -30.1454   23.8896 C   0  0  0  0  0  0
  -17.6441  -30.6578   24.0566 C   0  0  0  0  0  0
  -25.9064  -34.9448   23.5108 C   0  0  0  0  0  0
  -16.5338  -29.9075   23.6334 C   0  0  0  0  0  0
  -16.7265  -28.6492   23.0357 C   0  0  0  0  0  0
  -26.4477  -31.6576   25.0742 C   0  0  0  0  0  0
  -25.3713  -31.3731   26.1476 C   0  0  0  0  0  0
  -27.0269  -30.2980   24.6200 C   0  0  0  0  0  0
  -27.6073  -32.4269   25.7489 C   0  0  0  0  0  0
  -27.5588  -37.1782   24.8443 C   0  0  0  0  0  0
  -21.4183  -29.3040   22.3684 N   0  0  0  0  0  0
  -26.4271  -37.3784   23.9428 N   0  0  0  0  0  0
  -24.6893  -31.0643   22.1008 N   0  0  0  0  0  0
  -23.4203  -28.8194   23.3023 O   0  0  0  0  0  0
  -28.3233  -26.4223   20.1153 O   0  0  0  0  0  0
  -26.5621  -34.8910   22.4669 O   0  0  0  0  0  0
  -23.5417  -32.1402   23.7389 O   0  0  0  0  0  0
  -31.2502  -17.9316   20.3262 C   0  0  0  0  0  0
  -30.3451  -23.8469   19.3503 C   0  0  0  0  0  0
  -28.9055  -19.3692   19.9574 C   0  0  0  0  0  0
  -31.2987  -19.3666   20.2123 C   0  0  0  0  0  0
  -29.0581  -23.8215   19.9478 C   0  0  0  0  0  0
  -30.0938  -20.1537   20.0399 C   0  0  0  0  0  0
  -30.0364  -17.1929   20.3363 C   0  0  0  0  0  0
  -28.8693  -17.9579   20.1211 C   0  0  0  0  0  0
  -30.8489  -22.5726   19.3045 C   0  0  0  0  0  0
  -28.9014  -22.4850   20.3034 C   0  0  0  0  0  0
  -33.7214  -19.4398   19.6091 C   0  0  0  0  0  0
  -32.6460  -19.9641   20.2242 C   0  0  0  0  0  0
  -27.9949  -24.9758   19.9832 C   0  0  0  0  0  0
  -29.9839  -21.6396   19.9120 N   0  0  0  0  0  0
  -29.8626  -15.7577   20.5859 N   0  0  0  0  0  0
  -32.0103  -22.2241   18.6940 O   0  0  0  0  0  0
  -27.8049  -21.9465   20.9081 O   0  0  0  0  0  0
  -27.6753  -17.3176   20.0701 F   0  0  0  0  0  0
  -31.4880  -12.5151   19.1398 H   0  0  0  0  0  0
  -30.3854  -11.4124   19.9081 H   0  0  0  0  0  0
  -29.7863  -11.7453   17.4801 H   0  0  0  0  0  0
  -29.6457  -13.4698   17.7302 H   0  0  0  0  0  0
  -27.8839  -11.2825   18.8853 H   0  0  0  0  0  0
  -27.3841  -12.5475   17.7950 H   0  0  0  0  0  0
  -27.6564  -14.2496   19.4743 H   0  0  0  0  0  0
  -28.7197  -12.1483   21.4261 H   0  0  0  0  0  0
  -28.4634  -13.8316   21.7797 H   0  0  0  0  0  0
  -25.2797   -9.5712   22.4765 H   0  0  0  0  0  0
  -24.0052   -7.4640   22.7475 H   0  0  0  0  0  0
  -21.0866   -8.8763   19.8946 H   0  0  0  0  0  0
  -22.3707  -10.9689   19.6165 H   0  0  0  0  0  0
  -21.1954   -7.6165   23.9761 H   0  0  0  0  0  0
  -21.1499   -6.0510   25.9100 H   0  0  0  0  0  0
  -22.0586   -2.7625   23.2804 H   0  0  0  0  0  0
  -22.4051  -11.9899   22.4770 H   0  0  0  0  0  0
  -21.1097  -13.1323   22.2617 H   0  0  0  0  0  0
  -24.6442  -15.8284   20.5717 H   0  0  0  0  0  0
  -26.2752  -15.6757   20.1689 H   0  0  0  0  0  0
  -26.7193  -32.5466   23.1152 H   0  0  0  0  0  0
  -25.0046  -33.9760   25.0415 H   0  0  0  0  0  0
  -22.7115  -31.3118   21.4108 H   0  0  0  0  0  0
  -23.3751  -35.9615   23.3223 H   0  0  0  0  0  0
  -24.3601  -36.8977   22.2059 H   0  0  0  0  0  0
  -23.7230  -37.6473   23.6684 H   0  0  0  0  0  0
  -26.0999  -31.5639   20.6222 H   0  0  0  0  0  0
  -26.8449  -30.8408   22.0110 H   0  0  0  0  0  0
  -28.1155  -28.9586   21.1896 H   0  0  0  0  0  0
  -25.8907  -25.9627   18.9765 H   0  0  0  0  0  0
  -23.9502  -27.3466   18.9968 H   0  0  0  0  0  0
  -23.7347  -30.6071   19.4042 H   0  0  0  0  0  0
  -22.7554  -29.2501   19.8720 H   0  0  0  0  0  0
  -25.1301  -36.1892   25.0823 H   0  0  0  0  0  0
  -21.0006  -28.3211   24.1406 H   0  0  0  0  0  0
  -20.5619  -26.2294   23.3603 H   0  0  0  0  0  0
  -21.6630  -26.7395   22.1218 H   0  0  0  0  0  0
  -19.6879  -25.6287   21.1251 H   0  0  0  0  0  0
  -19.6690  -27.3192   20.6737 H   0  0  0  0  0  0
  -17.4207  -26.6698   21.4007 H   0  0  0  0  0  0
  -18.0294  -26.0053   22.8994 H   0  0  0  0  0  0
  -19.7931  -30.7284   24.2245 H   0  0  0  0  0  0
  -17.4997  -31.6262   24.5163 H   0  0  0  0  0  0
  -15.5337  -30.2973   23.7656 H   0  0  0  0  0  0
  -15.8658  -28.0812   22.7069 H   0  0  0  0  0  0
  -24.5909  -30.7053   25.7807 H   0  0  0  0  0  0
  -24.8877  -32.2906   26.4850 H   0  0  0  0  0  0
  -25.8049  -30.8945   27.0275 H   0  0  0  0  0  0
  -26.2818  -29.6766   24.1230 H   0  0  0  0  0  0
  -27.3933  -29.7221   25.4704 H   0  0  0  0  0  0
  -27.8716  -30.4210   23.9425 H   0  0  0  0  0  0
  -27.2741  -33.3606   26.2029 H   0  0  0  0  0  0
  -28.3899  -32.6758   25.0305 H   0  0  0  0  0  0
  -28.0705  -31.8389   26.5426 H   0  0  0  0  0  0
  -28.2545  -38.0136   24.7564 H   0  0  0  0  0  0
  -28.1152  -36.2681   24.6151 H   0  0  0  0  0  0
  -27.2336  -37.1271   25.8849 H   0  0  0  0  0  0
  -20.9323  -29.8802   21.6952 H   0  0  0  0  0  0
  -26.0133  -38.2844   24.1476 H   0  0  0  0  0  0
  -32.1791  -17.3933   20.4319 H   0  0  0  0  0  0
  -30.8196  -24.7089   18.9049 H   0  0  0  0  0  0
  -27.9652  -19.8546   19.7604 H   0  0  0  0  0  0
  -34.6796  -19.9368   19.6546 H   0  0  0  0  0  0
  -33.6604  -18.5206   19.0404 H   0  0  0  0  0  0
  -32.7628  -20.8873   20.7750 H   0  0  0  0  0  0
  -27.2420  -24.7216   20.7303 H   0  0  0  0  0  0
  -27.5322  -24.8210   19.0101 H   0  0  0  0  0  0
  -28.9043  -15.5008   20.7657 H   0  0  0  0  0  0
  -32.5364  -23.0150   18.6271 H   0  0  0  0  0  0
  -27.0755  -22.5382   20.7612 H   0  0  0  0  0  0
  1 25  1  0  0  0
  1 30  2  0  0  0
  1 85  1  0  0  0
  2  3  1  0  0  0
  2 25  1  0  0  0
  2 89  1  0  0  0
  2 90  1  0  0  0
  3  4  1  0  0  0
  3 91  1  0  0  0
  3 92  1  0  0  0
  4  5  1  0  0  0
  4 93  1  0  0  0
  4 94  1  0  0  0
  5  6  1  0  0  0
  5 26  1  0  0  0
  5 95  1  0  0  0
  6 25  1  0  0  0
  6 96  1  0  0  0
  6 97  1  0  0  0
  7  8  2  0  0  0
  7 26  1  0  0  0
  7 29  1  0  0  0
  8  9  1  0  0  0
  8 22  1  0  0  0
  9 10  1  0  0  0
  9 27  2  0  0  0
 10 11  2  0  0  0
 10 15  1  0  0  0
 11 12  1  0  0  0
 11 98  1  0  0  0
 12 13  2  0  0  0
 12 99  1  0  0  0
 13 14  1  0  0  0
 13 31  1  0  0  0
 14 15  2  0  0  0
 14100  1  0  0  0
 15101  1  0  0  0
 16 17  2  0  0  0
 16 21  1  0  0  0
 16 31  1  0  0  0
 17 18  1  0  0  0
 17102  1  0  0  0
 18 19  2  0  0  0
 18103  1  0  0  0
 19 20  1  0  0  0
 19 24  1  0  0  0
 20 21  2  0  0  0
 20104  1  0  0  0
 21 23  1  0  0  0
 22 28  1  0  0  0
 22 32  2  0  0  0
 26 27  1  0  0  0
 28105  1  0  0  0
 28106  1  0  0  0
 29107  1  0  0  0
 29108  1  0  0  0
 33 34  1  0  0  0
 33 66  1  0  0  0
 33 70  2  0  0  0
 34 36  1  0  0  0
 34 59  1  0  0  0
 34109  1  0  0  0
 35 44  2  0  0  0
 35 45  1  0  0  0
 35 68  1  0  0  0
 36 56  1  0  0  0
 36110  1  0  0  0
 37 39  1  0  0  0
 37 47  1  0  0  0
 37 66  1  0  0  0
 37111  1  0  0  0
 38 43  2  0  0  0
 38 46  1  0  0  0
 38 47  1  0  0  0
 39 64  1  0  0  0
 39 67  2  0  0  0
 40 52  1  0  0  0
 40 53  2  0  0  0
 40 58  1  0  0  0
 41112  1  0  0  0
 41113  1  0  0  0
 41114  1  0  0  0
 41 48  1  0  0  0
 42 43  1  0  0  0
 42 66  1  0  0  0
 42115  1  0  0  0
 42116  1  0  0  0
 43 44  1  0  0  0
 44117  1  0  0  0
 45 46  2  0  0  0
 45118  1  0  0  0
 46119  1  0  0  0
 47120  1  0  0  0
 47121  1  0  0  0
 48 56  1  0  0  0
 48 65  1  0  0  0
 48122  1  0  0  0
 49 50  1  0  0  0
 49 53  1  0  0  0
 49 64  1  0  0  0
 49123  1  0  0  0
 50 51  1  0  0  0
 50124  1  0  0  0
 50125  1  0  0  0
 51 52  1  0  0  0
 51126  1  0  0  0
 51127  1  0  0  0
 52128  1  0  0  0
 52129  1  0  0  0
 53 54  1  0  0  0
 54 55  2  0  0  0
 54130  1  0  0  0
 55 57  1  0  0  0
 55131  1  0  0  0
 56 69  2  0  0  0
 57 58  2  0  0  0
 57132  1  0  0  0
 58133  1  0  0  0
 59 60  1  0  0  0
 59 61  1  0  0  0
 59 62  1  0  0  0
 60134  1  0  0  0
 60135  1  0  0  0
 60136  1  0  0  0
 61137  1  0  0  0
 61138  1  0  0  0
 61139  1  0  0  0
 62140  1  0  0  0
 62141  1  0  0  0
 62142  1  0  0  0
 63 65  1  0  0  0
 63143  1  0  0  0
 63144  1  0  0  0
 63145  1  0  0  0
 64146  1  0  0  0
 65147  1  0  0  0
 68 83  1  0  0  0
 71 74  2  0  0  0
 71 77  1  0  0  0
 71148  1  0  0  0
 72 75  1  0  0  0
 72 79  2  0  0  0
 72149  1  0  0  0
 73 76  2  0  0  0
 73 78  1  0  0  0
 73150  1  0  0  0
 74 76  1  0  0  0
 74 82  1  0  0  0
 75 80  2  0  0  0
 75 83  1  0  0  0
 76 84  1  0  0  0
 77 78  2  0  0  0
 77 85  1  0  0  0
 78 88  1  0  0  0
 79 84  1  0  0  0
 79 86  1  0  0  0
 80 84  1  0  0  0
 80 87  1  0  0  0
 81 82  2  0  0  0
 81151  1  0  0  0
 81152  1  0  0  0
 82153  1  0  0  0
 83154  1  0  0  0
 83155  1  0  0  0
 85156  1  0  0  0
 86157  1  0  0  0
 87158  1  0  0  0
M  ISO  4   1 100  68 101  83 101  85 100
M  END
> <chiral flag>
0

> <version>
0

> <s_m_source_file>
/data/baiqing/PycharmProjects/Reinvent-master-3.2/result/LINK_invent/BTK/process_docking_weight1_custom_product_contain_oxygen_bond_distance_aromatic_linkinvent_7_9_3/rearranged_h_0066.sdf

> <i_m_source_file_index>
87

> <r_mmod_Potential_Energy-OPLS-2005>
123.275688171387

> <r_mmod_Stretch_Energy-OPLS-2005>
96.3364334106445

> <r_mmod_Bend_Energy-OPLS-2005>
170.238693237305

> <r_mmod_Torsional_Energy-OPLS-2005>
249.462249755859

> <r_mmod_Improper_Torsional_Energy-OPLS-2005>
7.49998474121094

> <r_mmod_Van_der_Waal_Energy-OPLS-2005>
159.720932006836

> <r_mmod_Electrostatic_Energy-OPLS-2005>
-397.142822265625

> <r_mmod_Solvation_Energy-OPLS-2005>
-222.574920654297

> <b_mmod_Minimization_Converged-OPLS-2005>
0

> <r_mmod_RMS_Derivative-OPLS-2005>
5.32141351699829

$$$$
88
                    3D
 Structure written by MMmdl.
153161  0  0  1  0            999 V2000
  -30.6087  -14.6572   20.4693 C   0  0  0  0  0  0
  -30.4451  -12.3914   19.4571 C   0  0  0  0  0  0
  -29.5191  -12.4869   18.2239 C   0  0  0  0  0  0
  -28.0353  -12.3501   18.6226 C   0  0  0  0  0  0
  -27.6547  -13.2170   19.8542 C   0  0  2  0  0  0
  -28.6980  -13.0775   20.9859 C   0  0  0  0  0  0
  -25.2604  -13.8174   20.5703 C   0  0  0  0  0  0
  -24.1858  -13.0443   20.9187 C   0  0  0  0  0  0
  -24.6421  -11.6905   20.8745 C   0  0  0  0  0  0
  -23.9087  -10.4292   21.0403 C   0  0  0  0  0  0
  -24.3631   -9.4213   21.9189 C   0  0  0  0  0  0
  -23.6314   -8.2241   22.0747 C   0  0  0  0  0  0
  -22.4290   -8.0291   21.3554 C   0  0  0  0  0  0
  -21.9918   -9.0252   20.4652 C   0  0  0  0  0  0
  -22.7238  -10.2134   20.3079 C   0  0  0  0  0  0
  -21.6868   -6.0724   22.5269 C   0  0  0  0  0  0
  -21.4011   -6.5621   23.8190 C   0  0  0  0  0  0
  -21.3672   -5.6789   24.9151 C   0  0  0  0  0  0
  -21.6037   -4.3049   24.7203 C   0  0  0  0  0  0
  -21.8840   -3.8132   23.4331 C   0  0  0  0  0  0
  -21.9185   -4.6950   22.3387 C   0  0  0  0  0  0
  -22.7903  -13.5272   21.1865 C   0  0  0  0  0  0
  -22.1691   -4.2152   21.0967 F   0  0  0  0  0  0
  -21.5612   -3.4530   25.7716 F   0  0  0  0  0  0
  -30.0140  -13.4217   20.4236 N   0  0  0  0  0  0
  -26.3013  -12.9353   20.3257 N   0  0  0  0  0  0
  -25.9334  -11.6500   20.5675 N   0  0  0  0  0  0
  -22.0524  -12.8269   22.0400 N   0  0  0  0  0  0
  -25.4343  -15.1891   20.4195 N   0  0  0  0  0  0
  -31.7737  -14.8197   20.0972 O   0  0  0  0  0  0
  -21.6665   -6.8885   21.4247 O   0  0  0  0  0  0
  -22.3614  -14.5584   20.6702 O   0  0  0  0  0  0
  -24.6218  -31.8596   23.2020 C   0  0  0  0  0  0
  -25.9081  -32.4767   23.8336 C   0  0  1  0  0  0
  -27.2156  -27.3247   20.1173 C   0  0  0  0  0  0
  -25.5916  -33.8566   24.2266 N   0  0  0  0  0  0
  -23.4148  -30.4847   21.5428 C   0  0  2  0  0  0
  -24.8622  -28.9462   20.1073 C   0  0  0  0  0  0
  -22.7436  -29.4640   22.4912 C   0  0  0  0  0  0
  -18.0258  -28.1378   22.8466 C   0  0  0  0  0  0
  -24.1500  -36.7315   23.2619 C   0  0  0  0  0  0
  -25.9568  -30.7966   21.3717 C   0  0  0  0  0  0
  -26.0285  -29.4224   20.7168 C   0  0  0  0  0  0
  -27.2089  -28.6209   20.7167 C   0  0  0  0  0  0
  -26.0331  -26.9125   19.4628 C   0  0  0  0  0  0
  -24.8673  -27.6991   19.4671 C   0  0  0  0  0  0
  -23.6273  -29.8223   20.1562 C   0  0  0  0  0  0
  -25.4096  -36.3061   24.0322 C   0  0  1  0  0  0
  -20.5866  -28.3681   23.1276 C   0  0  2  0  0  0
  -20.6763  -26.9397   22.5397 C   0  0  0  0  0  0
  -19.5755  -26.6378   21.5184 C   0  0  0  0  0  0
  -18.1924  -26.7920   22.1594 C   0  0  0  0  0  0
  -19.1512  -28.8834   23.2880 C   0  0  0  0  0  0
  -18.9438  -30.1432   23.8901 C   0  0  0  0  0  0
  -17.6450  -30.6575   24.0548 C   0  0  0  0  0  0
  -25.9040  -34.9434   23.5092 C   0  0  0  0  0  0
  -16.5332  -29.9077   23.6319 C   0  0  0  0  0  0
  -16.7245  -28.6498   23.0327 C   0  0  0  0  0  0
  -26.4491  -31.6558   25.0689 C   0  0  0  0  0  0
  -25.3758  -31.3698   26.1434 C   0  0  0  0  0  0
  -27.0299  -30.2967   24.6137 C   0  0  0  0  0  0
  -27.6040  -32.4289   25.7486 C   0  0  0  0  0  0
  -27.5585  -37.1770   24.8416 C   0  0  0  0  0  0
  -21.4142  -29.3051   22.3677 N   0  0  0  0  0  0
  -26.4263  -37.3761   23.9424 N   0  0  0  0  0  0
  -24.6829  -31.0623   22.0967 N   0  0  0  0  0  0
  -23.4179  -28.8122   23.2937 O   0  0  0  0  0  0
  -28.3318  -26.4779   20.1434 O   0  0  0  0  0  0
  -26.5593  -34.8901   22.4651 O   0  0  0  0  0  0
  -23.5383  -32.1390   23.7355 O   0  0  0  0  0  0
  -30.7712  -17.8402   19.7522 C   0  0  0  0  0  0
  -28.7773  -17.9797   21.0773 C   0  0  0  0  0  0
  -29.6060  -20.0536   19.9793 C   0  0  0  0  0  0
  -29.8127  -17.1560   20.5442 C   0  0  0  0  0  0
  -30.6676  -19.2390   19.4772 C   0  0  0  0  0  0
  -28.6732  -19.3815   20.8152 C   0  0  0  0  0  0
  -29.4233  -21.5126   19.4913 C   0  0  0  0  0  0
  -30.5681  -24.3757   20.7364 C   0  0  0  0  0  0
  -28.1249  -25.0304   20.4197 C   0  0  0  0  0  0
  -29.2748  -24.0112   19.9937 C   0  0  2  0  0  0
  -29.7801  -15.7059   20.7953 N   0  0  0  0  0  0
  -29.0442  -22.5454   20.3044 N   0  0  0  0  0  0
  -31.5831  -24.6605   20.0688 O   0  5  0  0  0  0
  -29.6652  -21.7499   18.3037 O   0  0  0  0  0  0
  -30.5891  -24.2870   21.9823 O   0  0  0  0  0  0
  -31.6249  -19.7862   18.6851 F   0  0  0  0  0  0
  -27.6306  -20.0646   21.3481 F   0  0  0  0  0  0
  -31.4865  -12.5158   19.1576 H   0  0  0  0  0  0
  -30.3843  -11.4001   19.9067 H   0  0  0  0  0  0
  -29.7737  -11.7115   17.4993 H   0  0  0  0  0  0
  -29.6867  -13.4358   17.7132 H   0  0  0  0  0  0
  -27.8471  -11.2969   18.8344 H   0  0  0  0  0  0
  -27.4006  -12.6057   17.7735 H   0  0  0  0  0  0
  -27.6740  -14.2498   19.5097 H   0  0  0  0  0  0
  -28.7086  -12.0602   21.3779 H   0  0  0  0  0  0
  -28.4433  -13.7172   21.8318 H   0  0  0  0  0  0
  -25.2761   -9.5669   22.4759 H   0  0  0  0  0  0
  -23.9984   -7.4639   22.7470 H   0  0  0  0  0  0
  -21.0832   -8.8813   19.8980 H   0  0  0  0  0  0
  -22.3714  -10.9687   19.6203 H   0  0  0  0  0  0
  -21.2059   -7.6136   23.9707 H   0  0  0  0  0  0
  -21.1474   -6.0504   25.9058 H   0  0  0  0  0  0
  -22.0617   -2.7592   23.2829 H   0  0  0  0  0  0
  -22.4144  -11.9949   22.4815 H   0  0  0  0  0  0
  -21.1153  -13.1352   22.2621 H   0  0  0  0  0  0
  -24.6684  -15.8413   20.5448 H   0  0  0  0  0  0
  -26.2742  -15.6248   20.0639 H   0  0  0  0  0  0
  -26.7155  -32.5460   23.1081 H   0  0  0  0  0  0
  -25.0058  -33.9705   25.0417 H   0  0  0  0  0  0
  -22.7087  -31.3062   21.3997 H   0  0  0  0  0  0
  -23.3750  -35.9650   23.3169 H   0  0  0  0  0  0
  -24.3623  -36.9039   22.2058 H   0  0  0  0  0  0
  -23.7258  -37.6483   23.6720 H   0  0  0  0  0  0
  -26.0824  -31.5591   20.6007 H   0  0  0  0  0  0
  -26.8402  -30.8478   21.9967 H   0  0  0  0  0  0
  -28.1057  -28.9753   21.2035 H   0  0  0  0  0  0
  -25.9877  -25.9808   18.9226 H   0  0  0  0  0  0
  -23.9813  -27.3416   18.9614 H   0  0  0  0  0  0
  -23.7337  -30.5992   19.3983 H   0  0  0  0  0  0
  -22.7501  -29.2448   19.8561 H   0  0  0  0  0  0
  -25.1265  -36.1875   25.0807 H   0  0  0  0  0  0
  -20.9976  -28.3238   24.1392 H   0  0  0  0  0  0
  -20.5627  -26.2259   23.3572 H   0  0  0  0  0  0
  -21.6635  -26.7396   22.1212 H   0  0  0  0  0  0
  -19.6911  -25.6290   21.1206 H   0  0  0  0  0  0
  -19.6713  -27.3187   20.6719 H   0  0  0  0  0  0
  -17.4175  -26.6596   21.4025 H   0  0  0  0  0  0
  -18.0369  -26.0087   22.9028 H   0  0  0  0  0  0
  -19.7914  -30.7236   24.2307 H   0  0  0  0  0  0
  -17.4989  -31.6261   24.5134 H   0  0  0  0  0  0
  -15.5332  -30.2963   23.7684 H   0  0  0  0  0  0
  -15.8638  -28.0823   22.7063 H   0  0  0  0  0  0
  -24.5971  -30.6979   25.7812 H   0  0  0  0  0  0
  -24.8930  -32.2869   26.4830 H   0  0  0  0  0  0
  -25.8150  -30.8943   27.0222 H   0  0  0  0  0  0
  -26.2852  -29.6727   24.1199 H   0  0  0  0  0  0
  -27.3988  -29.7199   25.4632 H   0  0  0  0  0  0
  -27.8733  -30.4162   23.9332 H   0  0  0  0  0  0
  -27.2633  -33.3599   26.2019 H   0  0  0  0  0  0
  -28.3919  -32.6821   25.0386 H   0  0  0  0  0  0
  -28.0632  -31.8440   26.5455 H   0  0  0  0  0  0
  -28.2477  -38.0188   24.7603 H   0  0  0  0  0  0
  -28.1218  -36.2729   24.6060 H   0  0  0  0  0  0
  -27.2333  -37.1177   25.8816 H   0  0  0  0  0  0
  -20.9263  -29.8845   21.6989 H   0  0  0  0  0  0
  -26.0119  -38.2799   24.1533 H   0  0  0  0  0  0
  -31.5997  -17.3060   19.3117 H   0  0  0  0  0  0
  -28.0094  -17.5312   21.6904 H   0  0  0  0  0  0
  -27.2057  -24.6582   19.9719 H   0  0  0  0  0  0
  -27.9558  -24.9427   21.4933 H   0  0  0  0  0  0
  -29.4420  -24.1487   18.9240 H   0  0  0  0  0  0
  -28.9024  -15.3812   21.1691 H   0  0  0  0  0  0
  -28.9008  -22.3271   21.2809 H   0  0  0  0  0  0
  1 25  1  0  0  0
  1 30  2  0  0  0
  1 81  1  0  0  0
  2  3  1  0  0  0
  2 25  1  0  0  0
  2 88  1  0  0  0
  2 89  1  0  0  0
  3  4  1  0  0  0
  3 90  1  0  0  0
  3 91  1  0  0  0
  4  5  1  0  0  0
  4 92  1  0  0  0
  4 93  1  0  0  0
  5  6  1  0  0  0
  5 26  1  0  0  0
  5 94  1  0  0  0
  6 25  1  0  0  0
  6 95  1  0  0  0
  6 96  1  0  0  0
  7  8  2  0  0  0
  7 26  1  0  0  0
  7 29  1  0  0  0
  8  9  1  0  0  0
  8 22  1  0  0  0
  9 10  1  0  0  0
  9 27  2  0  0  0
 10 11  2  0  0  0
 10 15  1  0  0  0
 11 12  1  0  0  0
 11 97  1  0  0  0
 12 13  2  0  0  0
 12 98  1  0  0  0
 13 14  1  0  0  0
 13 31  1  0  0  0
 14 15  2  0  0  0
 14 99  1  0  0  0
 15100  1  0  0  0
 16 17  2  0  0  0
 16 21  1  0  0  0
 16 31  1  0  0  0
 17 18  1  0  0  0
 17101  1  0  0  0
 18 19  2  0  0  0
 18102  1  0  0  0
 19 20  1  0  0  0
 19 24  1  0  0  0
 20 21  2  0  0  0
 20103  1  0  0  0
 21 23  1  0  0  0
 22 28  1  0  0  0
 22 32  2  0  0  0
 26 27  1  0  0  0
 28104  1  0  0  0
 28105  1  0  0  0
 29106  1  0  0  0
 29107  1  0  0  0
 33 34  1  0  0  0
 33 66  1  0  0  0
 33 70  2  0  0  0
 34 36  1  0  0  0
 34 59  1  0  0  0
 34108  1  0  0  0
 35 44  2  0  0  0
 35 45  1  0  0  0
 35 68  1  0  0  0
 36 56  1  0  0  0
 36109  1  0  0  0
 37 39  1  0  0  0
 37 47  1  0  0  0
 37 66  1  0  0  0
 37110  1  0  0  0
 38 43  2  0  0  0
 38 46  1  0  0  0
 38 47  1  0  0  0
 39 64  1  0  0  0
 39 67  2  0  0  0
 40 52  1  0  0  0
 40 53  2  0  0  0
 40 58  1  0  0  0
 41111  1  0  0  0
 41112  1  0  0  0
 41113  1  0  0  0
 41 48  1  0  0  0
 42 43  1  0  0  0
 42 66  1  0  0  0
 42114  1  0  0  0
 42115  1  0  0  0
 43 44  1  0  0  0
 44116  1  0  0  0
 45 46  2  0  0  0
 45117  1  0  0  0
 46118  1  0  0  0
 47119  1  0  0  0
 47120  1  0  0  0
 48 56  1  0  0  0
 48 65  1  0  0  0
 48121  1  0  0  0
 49 50  1  0  0  0
 49 53  1  0  0  0
 49 64  1  0  0  0
 49122  1  0  0  0
 50 51  1  0  0  0
 50123  1  0  0  0
 50124  1  0  0  0
 51 52  1  0  0  0
 51125  1  0  0  0
 51126  1  0  0  0
 52127  1  0  0  0
 52128  1  0  0  0
 53 54  1  0  0  0
 54 55  2  0  0  0
 54129  1  0  0  0
 55 57  1  0  0  0
 55130  1  0  0  0
 56 69  2  0  0  0
 57 58  2  0  0  0
 57131  1  0  0  0
 58132  1  0  0  0
 59 60  1  0  0  0
 59 61  1  0  0  0
 59 62  1  0  0  0
 60133  1  0  0  0
 60134  1  0  0  0
 60135  1  0  0  0
 61136  1  0  0  0
 61137  1  0  0  0
 61138  1  0  0  0
 62139  1  0  0  0
 62140  1  0  0  0
 62141  1  0  0  0
 63 65  1  0  0  0
 63142  1  0  0  0
 63143  1  0  0  0
 63144  1  0  0  0
 64145  1  0  0  0
 65146  1  0  0  0
 68 79  1  0  0  0
 71 74  2  0  0  0
 71 75  1  0  0  0
 71147  1  0  0  0
 72 74  1  0  0  0
 72 76  2  0  0  0
 72148  1  0  0  0
 73 75  2  0  0  0
 73 76  1  0  0  0
 73 77  1  0  0  0
 74 81  1  0  0  0
 75 86  1  0  0  0
 76 87  1  0  0  0
 77 82  1  0  0  0
 77 84  2  0  0  0
 78 80  1  0  0  0
 78 83  1  0  0  0
 78 85  2  0  0  0
 79149  1  0  0  0
 79150  1  0  0  0
 79 80  1  0  0  0
 80 82  1  0  0  0
 80151  1  0  0  0
 81152  1  0  0  0
 82153  1  0  0  0
M  CHG  1  83  -1
M  ISO  4   1 100  68 101  79 101  81 100
M  END
> <chiral flag>
0

> <version>
0

> <s_m_source_file>
/data/baiqing/PycharmProjects/Reinvent-master-3.2/result/LINK_invent/BTK/process_docking_weight1_custom_product_contain_oxygen_bond_distance_aromatic_linkinvent_7_9_3/rearranged_h_0066.sdf

> <i_m_source_file_index>
88

> <r_mmod_Potential_Energy-OPLS-2005>
-297.619110107422

> <r_mmod_Stretch_Energy-OPLS-2005>
83.2441482543945

> <r_mmod_Bend_Energy-OPLS-2005>
146.103759765625

> <r_mmod_Torsional_Energy-OPLS-2005>
221.830459594727

> <r_mmod_Improper_Torsional_Energy-OPLS-2005>
6.57806158065796

> <r_mmod_Van_der_Waal_Energy-OPLS-2005>
144.43603515625

> <r_mmod_Electrostatic_Energy-OPLS-2005>
-412.115936279297

> <r_mmod_Solvation_Energy-OPLS-2005>
-538.394226074219

> <b_mmod_Minimization_Converged-OPLS-2005>
0

> <r_mmod_RMS_Derivative-OPLS-2005>
4.60479259490967

$$$$
89
                    3D
 Structure written by MMmdl.
165174  0  0  1  0            999 V2000
  -30.6710  -14.6769   20.4646 C   0  0  0  0  0  0
  -30.4269  -12.4108   19.4422 C   0  0  0  0  0  0
  -29.4912  -12.4901   18.2185 C   0  0  0  0  0  0
  -28.0232  -12.3384   18.6469 C   0  0  0  0  0  0
  -27.6469  -13.2238   19.8602 C   0  0  2  0  0  0
  -28.7012  -13.1208   20.9812 C   0  0  0  0  0  0
  -25.2550  -13.8182   20.5803 C   0  0  0  0  0  0
  -24.1864  -13.0420   20.9303 C   0  0  0  0  0  0
  -24.6463  -11.6914   20.8853 C   0  0  0  0  0  0
  -23.9124  -10.4286   21.0464 C   0  0  0  0  0  0
  -24.3634   -9.4186   21.9229 C   0  0  0  0  0  0
  -23.6332   -8.2203   22.0733 C   0  0  0  0  0  0
  -22.4329   -8.0252   21.3510 C   0  0  0  0  0  0
  -21.9976   -9.0250   20.4625 C   0  0  0  0  0  0
  -22.7307  -10.2140   20.3109 C   0  0  0  0  0  0
  -21.6843   -6.0747   22.5283 C   0  0  0  0  0  0
  -21.3984   -6.5643   23.8201 C   0  0  0  0  0  0
  -21.3673   -5.6789   24.9163 C   0  0  0  0  0  0
  -21.6098   -4.3055   24.7237 C   0  0  0  0  0  0
  -21.8829   -3.8174   23.4330 C   0  0  0  0  0  0
  -21.9199   -4.6989   22.3391 C   0  0  0  0  0  0
  -22.7850  -13.5138   21.1945 C   0  0  0  0  0  0
  -22.1687   -4.2161   21.1001 F   0  0  0  0  0  0
  -21.5616   -3.4559   25.7771 F   0  0  0  0  0  0
  -30.0071  -13.4666   20.3944 N   0  0  0  0  0  0
  -26.2981  -12.9399   20.3409 N   0  0  0  0  0  0
  -25.9396  -11.6527   20.5814 N   0  0  0  0  0  0
  -22.0474  -12.8079   22.0425 N   0  0  0  0  0  0
  -25.4345  -15.1899   20.4236 N   0  0  0  0  0  0
  -31.8044  -14.7895   19.9906 O   0  0  0  0  0  0
  -21.6639   -6.8913   21.4265 O   0  0  0  0  0  0
  -22.3550  -14.5485   20.6861 O   0  0  0  0  0  0
  -24.6229  -31.8626   23.2051 C   0  0  0  0  0  0
  -25.9096  -32.4778   23.8353 C   0  0  1  0  0  0
  -27.2254  -27.3569   20.0877 C   0  0  0  0  0  0
  -25.5870  -33.8554   24.2242 N   0  0  0  0  0  0
  -23.4085  -30.4874   21.5516 C   0  0  2  0  0  0
  -24.8548  -28.9574   20.1053 C   0  0  0  0  0  0
  -22.7422  -29.4641   22.5041 C   0  0  0  0  0  0
  -18.0254  -28.1361   22.8499 C   0  0  0  0  0  0
  -24.1466  -36.7271   23.2640 C   0  0  0  0  0  0
  -25.9514  -30.8054   21.3752 C   0  0  0  0  0  0
  -26.0236  -29.4435   20.7030 C   0  0  0  0  0  0
  -27.2093  -28.6537   20.6858 C   0  0  0  0  0  0
  -26.0255  -26.9143   19.5055 C   0  0  0  0  0  0
  -24.8562  -27.6944   19.4988 C   0  0  0  0  0  0
  -23.6121  -29.8200   20.1689 C   0  0  0  0  0  0
  -25.4100  -36.3064   24.0313 C   0  0  1  0  0  0
  -20.5855  -28.3647   23.1316 C   0  0  2  0  0  0
  -20.6754  -26.9380   22.5425 C   0  0  0  0  0  0
  -19.5725  -26.6365   21.5217 C   0  0  0  0  0  0
  -18.1898  -26.7904   22.1623 C   0  0  0  0  0  0
  -19.1511  -28.8835   23.2881 C   0  0  0  0  0  0
  -18.9436  -30.1458   23.8873 C   0  0  0  0  0  0
  -17.6440  -30.6589   24.0554 C   0  0  0  0  0  0
  -25.9055  -34.9432   23.5096 C   0  0  0  0  0  0
  -16.5331  -29.9083   23.6333 C   0  0  0  0  0  0
  -16.7251  -28.6491   23.0376 C   0  0  0  0  0  0
  -26.4485  -31.6587   25.0727 C   0  0  0  0  0  0
  -25.3722  -31.3681   26.1452 C   0  0  0  0  0  0
  -27.0341  -30.3001   24.6243 C   0  0  0  0  0  0
  -27.5987  -32.4375   25.7509 C   0  0  0  0  0  0
  -27.5566  -37.1768   24.8450 C   0  0  0  0  0  0
  -21.4160  -29.3000   22.3730 N   0  0  0  0  0  0
  -26.4277  -37.3771   23.9423 N   0  0  0  0  0  0
  -24.6778  -31.0701   22.0979 N   0  0  0  0  0  0
  -23.4182  -28.8210   23.3105 O   0  0  0  0  0  0
  -28.3537  -26.5350   20.1748 O   0  0  0  0  0  0
  -26.5682  -34.8896   22.4695 O   0  0  0  0  0  0
  -23.5421  -32.1405   23.7400 O   0  0  0  0  0  0
  -29.0537  -18.7404   18.6918 C   0  0  0  0  0  0
  -29.7557  -18.2995   21.2967 C   0  0  0  0  0  0
  -29.4199  -17.4176   19.1101 C   0  0  0  0  0  0
  -28.9911  -19.9000   19.5352 C   0  0  0  0  0  0
  -29.7689  -17.1269   20.4690 C   0  0  0  0  0  0
  -29.3946  -19.6164   20.8694 C   0  0  0  0  0  0
  -27.6136  -21.3054   18.0185 C   0  0  0  0  0  0
  -31.2208  -15.6172   23.2012 C   0  0  0  0  0  0
  -30.0974  -15.7403   22.4590 C   0  0  0  0  0  0
  -26.4643  -22.2873   18.1234 C   0  0  0  0  0  0
  -27.0298  -23.6953   18.1400 C   0  0  0  0  0  0
  -28.8035  -22.6023   19.7011 C   0  0  0  0  0  0
  -27.8919  -23.9187   19.4092 C   0  0  1  0  0  0
  -29.3383  -16.3444   18.0354 C   0  0  0  0  0  0
  -28.6351  -25.3455   19.3438 C   0  0  0  0  0  0
  -28.4592  -21.2338   19.0834 N   0  0  0  0  0  0
  -30.0592  -15.7737   21.0535 N   0  0  0  0  0  0
  -27.7420  -20.6977   16.9534 O   0  0  0  0  0  0
  -29.4010  -20.5922   21.8087 F   0  0  0  0  0  0
  -31.4616  -12.5111   19.1145 H   0  0  0  0  0  0
  -30.3611  -11.4273   19.9135 H   0  0  0  0  0  0
  -29.7390  -11.7139   17.4950 H   0  0  0  0  0  0
  -29.6286  -13.4404   17.7016 H   0  0  0  0  0  0
  -27.8698  -11.2916   18.9012 H   0  0  0  0  0  0
  -27.3600  -12.5444   17.8106 H   0  0  0  0  0  0
  -27.6507  -14.2488   19.5023 H   0  0  0  0  0  0
  -28.7203  -12.1163   21.4013 H   0  0  0  0  0  0
  -28.4460  -13.7864   21.8058 H   0  0  0  0  0  0
  -25.2723   -9.5646   22.4866 H   0  0  0  0  0  0
  -24.0061   -7.4550   22.7418 H   0  0  0  0  0  0
  -21.0915   -8.8758   19.8851 H   0  0  0  0  0  0
  -22.3771  -10.9699   19.6245 H   0  0  0  0  0  0
  -21.1955   -7.6127   23.9705 H   0  0  0  0  0  0
  -21.1487   -6.0516   25.9060 H   0  0  0  0  0  0
  -22.0621   -2.7651   23.2832 H   0  0  0  0  0  0
  -22.4033  -11.9688   22.4792 H   0  0  0  0  0  0
  -21.1040  -13.1048   22.2554 H   0  0  0  0  0  0
  -24.6863  -15.8601   20.5470 H   0  0  0  0  0  0
  -26.2997  -15.6206   20.1255 H   0  0  0  0  0  0
  -26.7167  -32.5447   23.1085 H   0  0  0  0  0  0
  -24.9875  -33.9719   25.0301 H   0  0  0  0  0  0
  -22.6978  -31.3042   21.4128 H   0  0  0  0  0  0
  -23.3757  -35.9579   23.3286 H   0  0  0  0  0  0
  -24.3562  -36.8951   22.2066 H   0  0  0  0  0  0
  -23.7205  -37.6426   23.6742 H   0  0  0  0  0  0
  -26.1019  -31.5853   20.6279 H   0  0  0  0  0  0
  -26.8199  -30.8266   22.0209 H   0  0  0  0  0  0
  -28.1046  -29.0310   21.1554 H   0  0  0  0  0  0
  -25.9542  -25.9307   19.1146 H   0  0  0  0  0  0
  -23.9549  -27.3038   19.0450 H   0  0  0  0  0  0
  -23.6860  -30.5845   19.3963 H   0  0  0  0  0  0
  -22.7423  -29.2205   19.8986 H   0  0  0  0  0  0
  -25.1296  -36.1873   25.0814 H   0  0  0  0  0  0
  -20.9911  -28.3222   24.1453 H   0  0  0  0  0  0
  -20.5664  -26.2254   23.3619 H   0  0  0  0  0  0
  -21.6627  -26.7420   22.1233 H   0  0  0  0  0  0
  -19.6896  -25.6275   21.1261 H   0  0  0  0  0  0
  -19.6683  -27.3180   20.6752 H   0  0  0  0  0  0
  -17.4185  -26.6668   21.4029 H   0  0  0  0  0  0
  -18.0287  -26.0045   22.9011 H   0  0  0  0  0  0
  -19.7916  -30.7264   24.2237 H   0  0  0  0  0  0
  -17.5004  -31.6284   24.5120 H   0  0  0  0  0  0
  -15.5338  -30.2979   23.7667 H   0  0  0  0  0  0
  -15.8662  -28.0804   22.7124 H   0  0  0  0  0  0
  -24.5838  -30.7148   25.7727 H   0  0  0  0  0  0
  -24.9015  -32.2841   26.5011 H   0  0  0  0  0  0
  -25.8049  -30.8698   27.0136 H   0  0  0  0  0  0
  -26.2953  -29.6743   24.1250 H   0  0  0  0  0  0
  -27.3955  -29.7275   25.4790 H   0  0  0  0  0  0
  -27.8846  -30.4236   23.9539 H   0  0  0  0  0  0
  -27.2513  -33.3619   26.2119 H   0  0  0  0  0  0
  -28.3748  -32.7055   25.0337 H   0  0  0  0  0  0
  -28.0728  -31.8530   26.5396 H   0  0  0  0  0  0
  -28.2529  -38.0111   24.7578 H   0  0  0  0  0  0
  -28.1110  -36.2641   24.6195 H   0  0  0  0  0  0
  -27.2295  -37.1326   25.8851 H   0  0  0  0  0  0
  -20.9367  -29.8653   21.6874 H   0  0  0  0  0  0
  -26.0120  -38.2826   24.1502 H   0  0  0  0  0  0
  -28.7903  -18.8186   17.6528 H   0  0  0  0  0  0
  -30.0231  -18.2255   22.3399 H   0  0  0  0  0  0
  -31.1877  -15.5786   24.2821 H   0  0  0  0  0  0
  -32.2027  -15.5534   22.7484 H   0  0  0  0  0  0
  -29.1184  -15.8202   22.9089 H   0  0  0  0  0  0
  -25.9013  -22.0845   19.0345 H   0  0  0  0  0  0
  -25.7763  -22.1578   17.2850 H   0  0  0  0  0  0
  -26.1787  -24.3538   18.0428 H   0  0  0  0  0  0
  -27.6165  -23.8556   17.2363 H   0  0  0  0  0  0
  -28.8359  -22.5257   20.7860 H   0  0  0  0  0  0
  -29.8268  -22.8185   19.3932 H   0  0  0  0  0  0
  -27.2104  -23.9842   20.2607 H   0  0  0  0  0  0
  -29.2559  -16.7877   17.0437 H   0  0  0  0  0  0
  -28.4484  -15.7379   18.1767 H   0  0  0  0  0  0
  -30.2230  -15.7155   18.0115 H   0  0  0  0  0  0
  -28.7301  -25.6820   18.3094 H   0  0  0  0  0  0
  -29.6672  -25.1346   19.6295 H   0  0  0  0  0  0
  1 25  1  0  0  0
  1 30  2  0  0  0
  1 87  1  0  0  0
  2  3  1  0  0  0
  2 25  1  0  0  0
  2 90  1  0  0  0
  2 91  1  0  0  0
  3  4  1  0  0  0
  3 92  1  0  0  0
  3 93  1  0  0  0
  4  5  1  0  0  0
  4 94  1  0  0  0
  4 95  1  0  0  0
  5  6  1  0  0  0
  5 26  1  0  0  0
  5 96  1  0  0  0
  6 25  1  0  0  0
  6 97  1  0  0  0
  6 98  1  0  0  0
  7  8  2  0  0  0
  7 26  1  0  0  0
  7 29  1  0  0  0
  8  9  1  0  0  0
  8 22  1  0  0  0
  9 10  1  0  0  0
  9 27  2  0  0  0
 10 11  2  0  0  0
 10 15  1  0  0  0
 11 12  1  0  0  0
 11 99  1  0  0  0
 12 13  2  0  0  0
 12100  1  0  0  0
 13 14  1  0  0  0
 13 31  1  0  0  0
 14 15  2  0  0  0
 14101  1  0  0  0
 15102  1  0  0  0
 16 17  2  0  0  0
 16 21  1  0  0  0
 16 31  1  0  0  0
 17 18  1  0  0  0
 17103  1  0  0  0
 18 19  2  0  0  0
 18104  1  0  0  0
 19 20  1  0  0  0
 19 24  1  0  0  0
 20 21  2  0  0  0
 20105  1  0  0  0
 21 23  1  0  0  0
 22 28  1  0  0  0
 22 32  2  0  0  0
 26 27  1  0  0  0
 28106  1  0  0  0
 28107  1  0  0  0
 29108  1  0  0  0
 29109  1  0  0  0
 33 34  1  0  0  0
 33 66  1  0  0  0
 33 70  2  0  0  0
 34 36  1  0  0  0
 34 59  1  0  0  0
 34110  1  0  0  0
 35 44  2  0  0  0
 35 45  1  0  0  0
 35 68  1  0  0  0
 36 56  1  0  0  0
 36111  1  0  0  0
 37 39  1  0  0  0
 37 47  1  0  0  0
 37 66  1  0  0  0
 37112  1  0  0  0
 38 43  2  0  0  0
 38 46  1  0  0  0
 38 47  1  0  0  0
 39 64  1  0  0  0
 39 67  2  0  0  0
 40 52  1  0  0  0
 40 53  2  0  0  0
 40 58  1  0  0  0
 41113  1  0  0  0
 41114  1  0  0  0
 41115  1  0  0  0
 41 48  1  0  0  0
 42 43  1  0  0  0
 42 66  1  0  0  0
 42116  1  0  0  0
 42117  1  0  0  0
 43 44  1  0  0  0
 44118  1  0  0  0
 45 46  2  0  0  0
 45119  1  0  0  0
 46120  1  0  0  0
 47121  1  0  0  0
 47122  1  0  0  0
 48 56  1  0  0  0
 48 65  1  0  0  0
 48123  1  0  0  0
 49 50  1  0  0  0
 49 53  1  0  0  0
 49 64  1  0  0  0
 49124  1  0  0  0
 50 51  1  0  0  0
 50125  1  0  0  0
 50126  1  0  0  0
 51 52  1  0  0  0
 51127  1  0  0  0
 51128  1  0  0  0
 52129  1  0  0  0
 52130  1  0  0  0
 53 54  1  0  0  0
 54 55  2  0  0  0
 54131  1  0  0  0
 55 57  1  0  0  0
 55132  1  0  0  0
 56 69  2  0  0  0
 57 58  2  0  0  0
 57133  1  0  0  0
 58134  1  0  0  0
 59 60  1  0  0  0
 59 61  1  0  0  0
 59 62  1  0  0  0
 60135  1  0  0  0
 60136  1  0  0  0
 60137  1  0  0  0
 61138  1  0  0  0
 61139  1  0  0  0
 61140  1  0  0  0
 62141  1  0  0  0
 62142  1  0  0  0
 62143  1  0  0  0
 63 65  1  0  0  0
 63144  1  0  0  0
 63145  1  0  0  0
 63146  1  0  0  0
 64147  1  0  0  0
 65148  1  0  0  0
 68 85  1  0  0  0
 71 73  2  0  0  0
 71 74  1  0  0  0
 71149  1  0  0  0
 72 75  2  0  0  0
 72 76  1  0  0  0
 72150  1  0  0  0
 73 75  1  0  0  0
 73 84  1  0  0  0
 74 76  2  0  0  0
 74 86  1  0  0  0
 75 87  1  0  0  0
 76 89  1  0  0  0
 77 80  1  0  0  0
 77 86  1  0  0  0
 77 88  2  0  0  0
 78 79  2  0  0  0
 78151  1  0  0  0
 78152  1  0  0  0
 79 87  1  0  0  0
 79153  1  0  0  0
 80 81  1  0  0  0
 80154  1  0  0  0
 80155  1  0  0  0
 81 83  1  0  0  0
 81156  1  0  0  0
 81157  1  0  0  0
 82 83  1  0  0  0
 82 86  1  0  0  0
 82158  1  0  0  0
 82159  1  0  0  0
 83 85  1  0  0  0
 83160  1  0  0  0
 84161  1  0  0  0
 84162  1  0  0  0
 84163  1  0  0  0
 85164  1  0  0  0
 85165  1  0  0  0
M  ISO  4   1 100  68 101  85 101  87 100
M  END
> <chiral flag>
0

> <version>
0

> <s_m_source_file>
/data/baiqing/PycharmProjects/Reinvent-master-3.2/result/LINK_invent/BTK/process_docking_weight1_custom_product_contain_oxygen_bond_distance_aromatic_linkinvent_7_9_3/rearranged_h_0066.sdf

> <i_m_source_file_index>
89

> <r_mmod_Potential_Energy-OPLS-2005>
489.451904296875

> <r_mmod_Stretch_Energy-OPLS-2005>
125.617668151855

> <r_mmod_Bend_Energy-OPLS-2005>
215.596725463867

> <r_mmod_Torsional_Energy-OPLS-2005>
402.447814941406

> <r_mmod_Improper_Torsional_Energy-OPLS-2005>
4.13199234008789

> <r_mmod_Van_der_Waal_Energy-OPLS-2005>
183.245697021484

> <r_mmod_Electrostatic_Energy-OPLS-2005>
-293.249603271484

> <r_mmod_Solvation_Energy-OPLS-2005>
-197.931304931641

> <b_mmod_Minimization_Converged-OPLS-2005>
0

> <r_mmod_RMS_Derivative-OPLS-2005>
7.05723667144775

$$$$
90
                    3D
 Structure written by MMmdl.
156165  0  0  1  0            999 V2000
  -30.5444  -14.9664   20.4724 C   0  0  0  0  0  0
  -30.4373  -12.6032   19.5206 C   0  0  0  0  0  0
  -29.5302  -12.5558   18.2663 C   0  0  0  0  0  0
  -28.0593  -12.3309   18.6628 C   0  0  0  0  0  0
  -27.6304  -13.2495   19.8347 C   0  0  2  0  0  0
  -28.6608  -13.2513   20.9789 C   0  0  0  0  0  0
  -25.2460  -13.8213   20.5674 C   0  0  0  0  0  0
  -24.1773  -13.0433   20.9177 C   0  0  0  0  0  0
  -24.6385  -11.6916   20.8684 C   0  0  0  0  0  0
  -23.9060  -10.4287   21.0360 C   0  0  0  0  0  0
  -24.3614   -9.4213   21.9148 C   0  0  0  0  0  0
  -23.6295   -8.2242   22.0743 C   0  0  0  0  0  0
  -22.4278   -8.0265   21.3536 C   0  0  0  0  0  0
  -21.9899   -9.0230   20.4638 C   0  0  0  0  0  0
  -22.7220  -10.2111   20.3028 C   0  0  0  0  0  0
  -21.6861   -6.0715   22.5276 C   0  0  0  0  0  0
  -21.4017   -6.5627   23.8206 C   0  0  0  0  0  0
  -21.3665   -5.6784   24.9171 C   0  0  0  0  0  0
  -21.6045   -4.3044   24.7226 C   0  0  0  0  0  0
  -21.8820   -3.8129   23.4350 C   0  0  0  0  0  0
  -21.9195   -4.6939   22.3401 C   0  0  0  0  0  0
  -22.7799  -13.5200   21.1872 C   0  0  0  0  0  0
  -22.1663   -4.2120   21.0979 F   0  0  0  0  0  0
  -21.5633   -3.4533   25.7744 F   0  0  0  0  0  0
  -29.9503  -13.6947   20.4244 N   0  0  0  0  0  0
  -26.2875  -12.9438   20.3161 N   0  0  0  0  0  0
  -25.9314  -11.6564   20.5640 N   0  0  0  0  0  0
  -22.0478  -12.8180   22.0440 N   0  0  0  0  0  0
  -25.4131  -15.1948   20.4191 N   0  0  0  0  0  0
  -31.6981  -15.0299   20.0314 O   0  0  0  0  0  0
  -21.6652   -6.8858   21.4236 O   0  0  0  0  0  0
  -22.3461  -14.5498   20.6725 O   0  0  0  0  0  0
  -24.6453  -31.8418   23.1864 C   0  0  0  0  0  0
  -25.9216  -32.4680   23.8260 C   0  0  1  0  0  0
  -27.2177  -27.1184   20.1527 C   0  0  0  0  0  0
  -25.5957  -33.8484   24.2177 N   0  0  0  0  0  0
  -23.4494  -30.4604   21.5322 C   0  0  2  0  0  0
  -24.8990  -28.8836   20.1072 C   0  0  0  0  0  0
  -22.7574  -29.4541   22.4857 C   0  0  0  0  0  0
  -18.0303  -28.1395   22.8484 C   0  0  0  0  0  0
  -24.1496  -36.7250   23.2646 C   0  0  0  0  0  0
  -26.0060  -30.7091   21.3885 C   0  0  0  0  0  0
  -26.0754  -29.3192   20.7300 C   0  0  0  0  0  0
  -27.2334  -28.4523   20.7363 C   0  0  0  0  0  0
  -26.0182  -26.7927   19.4813 C   0  0  0  0  0  0
  -24.8846  -27.6354   19.4669 C   0  0  0  0  0  0
  -23.6763  -29.7878   20.1517 C   0  0  0  0  0  0
  -25.4129  -36.3024   24.0318 C   0  0  1  0  0  0
  -20.5918  -28.3727   23.1232 C   0  0  2  0  0  0
  -20.6789  -26.9427   22.5407 C   0  0  0  0  0  0
  -19.5763  -26.6382   21.5217 C   0  0  0  0  0  0
  -18.1942  -26.7937   22.1624 C   0  0  0  0  0  0
  -19.1558  -28.8877   23.2851 C   0  0  0  0  0  0
  -18.9474  -30.1474   23.8881 C   0  0  0  0  0  0
  -17.6471  -30.6595   24.0560 C   0  0  0  0  0  0
  -25.9081  -34.9401   23.5058 C   0  0  0  0  0  0
  -16.5365  -29.9088   23.6335 C   0  0  0  0  0  0
  -16.7287  -28.6499   23.0367 C   0  0  0  0  0  0
  -26.4533  -31.6559   25.0712 C   0  0  0  0  0  0
  -25.3711  -31.3745   26.1401 C   0  0  0  0  0  0
  -27.0402  -30.2951   24.6312 C   0  0  0  0  0  0
  -27.6064  -32.4329   25.7493 C   0  0  0  0  0  0
  -27.5577  -37.1784   24.8465 C   0  0  0  0  0  0
  -21.4261  -29.3045   22.3599 N   0  0  0  0  0  0
  -26.4288  -37.3740   23.9412 N   0  0  0  0  0  0
  -24.7197  -31.0262   22.0903 N   0  0  0  0  0  0
  -23.4211  -28.8095   23.3018 O   0  0  0  0  0  0
  -28.2664  -26.1253   20.2483 O   0  0  0  0  0  0
  -26.5667  -34.8901   22.4640 O   0  0  0  0  0  0
  -23.5566  -32.1294   23.7082 O   0  0  0  0  0  0
  -31.4889  -18.1140   21.4425 C   0  0  0  0  0  0
  -31.6086  -17.6549   22.7683 C   0  0  0  0  0  0
  -29.6778  -16.2028   22.4273 C   0  0  0  0  0  0
  -29.8801  -16.3336   21.0323 C   0  0  0  0  0  0
  -30.3195  -17.7541   20.7344 C   0  0  0  0  0  0
  -30.6238  -16.7943   23.2902 C   0  0  0  0  0  0
  -28.2020  -19.2251   20.2376 C   0  0  0  0  0  0
  -27.7244  -20.7259   20.2266 C   0  0  0  0  0  0
  -30.0289  -20.5232   20.5640 C   0  0  0  0  0  0
  -28.9603  -21.6486   20.0484 C   0  0  2  0  0  0
  -28.9512  -23.2820   20.5521 C   0  0  0  0  0  0
  -28.0569  -24.5983   19.9614 C   0  0  0  0  0  0
  -29.5293  -19.0605   20.4465 N   0  0  0  0  0  0
  -27.4031  -18.3002   20.0637 O   0  0  0  0  0  0
  -30.6392  -16.4652   24.6029 F   0  0  0  0  0  0
  -31.4765  -12.7440   19.2195 H   0  0  0  0  0  0
  -30.4174  -11.6425   20.0381 H   0  0  0  0  0  0
  -29.8615  -11.7685   17.5879 H   0  0  0  0  0  0
  -29.6215  -13.4931   17.7149 H   0  0  0  0  0  0
  -27.9511  -11.2854   18.9530 H   0  0  0  0  0  0
  -27.4049  -12.4775   17.8025 H   0  0  0  0  0  0
  -27.6013  -14.2607   19.4276 H   0  0  0  0  0  0
  -28.7473  -12.2607   21.4284 H   0  0  0  0  0  0
  -28.2994  -13.9010   21.7677 H   0  0  0  0  0  0
  -25.2753   -9.5707   22.4722 H   0  0  0  0  0  0
  -24.0006   -7.4642   22.7471 H   0  0  0  0  0  0
  -21.0825   -8.8733   19.8957 H   0  0  0  0  0  0
  -22.3651  -10.9637   19.6139 H   0  0  0  0  0  0
  -21.2012   -7.6140   23.9702 H   0  0  0  0  0  0
  -21.1493   -6.0519   25.9075 H   0  0  0  0  0  0
  -22.0596   -2.7591   23.2860 H   0  0  0  0  0  0
  -22.4124  -11.9850   22.4823 H   0  0  0  0  0  0
  -21.1089  -13.1176   22.2651 H   0  0  0  0  0  0
  -24.6498  -15.8485   20.5527 H   0  0  0  0  0  0
  -26.2756  -15.6532   20.1481 H   0  0  0  0  0  0
  -26.7287  -32.5278   23.0991 H   0  0  0  0  0  0
  -25.0088  -33.9591   25.0313 H   0  0  0  0  0  0
  -22.7534  -31.2877   21.3769 H   0  0  0  0  0  0
  -23.3762  -35.9577   23.3289 H   0  0  0  0  0  0
  -24.3587  -36.8897   22.2064 H   0  0  0  0  0  0
  -23.7240  -37.6438   23.6691 H   0  0  0  0  0  0
  -26.1646  -31.4625   20.6159 H   0  0  0  0  0  0
  -26.8756  -30.7588   22.0316 H   0  0  0  0  0  0
  -28.1275  -28.7783   21.2483 H   0  0  0  0  0  0
  -25.9240  -25.8413   18.9792 H   0  0  0  0  0  0
  -23.9881  -27.3007   18.9630 H   0  0  0  0  0  0
  -23.8136  -30.5620   19.3962 H   0  0  0  0  0  0
  -22.7904  -29.2319   19.8410 H   0  0  0  0  0  0
  -25.1320  -36.1852   25.0809 H   0  0  0  0  0  0
  -21.0008  -28.3317   24.1354 H   0  0  0  0  0  0
  -20.5676  -26.2344   23.3629 H   0  0  0  0  0  0
  -21.6652  -26.7433   22.1202 H   0  0  0  0  0  0
  -19.6922  -25.6282   21.1266 H   0  0  0  0  0  0
  -19.6702  -27.3178   20.6732 H   0  0  0  0  0  0
  -17.4216  -26.6686   21.4024 H   0  0  0  0  0  0
  -18.0343  -26.0082   22.9018 H   0  0  0  0  0  0
  -19.7949  -30.7290   24.2249 H   0  0  0  0  0  0
  -17.5025  -31.6275   24.5159 H   0  0  0  0  0  0
  -15.5361  -30.2987   23.7666 H   0  0  0  0  0  0
  -15.8686  -28.0806   22.7110 H   0  0  0  0  0  0
  -24.5909  -30.7075   25.7714 H   0  0  0  0  0  0
  -24.8879  -32.2923   26.4765 H   0  0  0  0  0  0
  -25.7995  -30.8957   27.0218 H   0  0  0  0  0  0
  -26.3019  -29.6666   24.1316 H   0  0  0  0  0  0
  -27.3998  -29.7268   25.4901 H   0  0  0  0  0  0
  -27.8942  -30.4180   23.9645 H   0  0  0  0  0  0
  -27.2659  -33.3657   26.2001 H   0  0  0  0  0  0
  -28.3907  -32.6839   25.0338 H   0  0  0  0  0  0
  -28.0696  -31.8494   26.5460 H   0  0  0  0  0  0
  -28.2582  -38.0091   24.7522 H   0  0  0  0  0  0
  -28.1082  -36.2623   24.6283 H   0  0  0  0  0  0
  -27.2299  -37.1421   25.8866 H   0  0  0  0  0  0
  -20.9479  -29.8747   21.6761 H   0  0  0  0  0  0
  -26.0153  -38.2808   24.1408 H   0  0  0  0  0  0
  -32.0730  -18.9857   21.1842 H   0  0  0  0  0  0
  -32.3747  -18.0555   23.4165 H   0  0  0  0  0  0
  -29.1629  -15.3660   22.8641 H   0  0  0  0  0  0
  -27.2356  -20.9324   21.1787 H   0  0  0  0  0  0
  -26.9927  -20.8903   19.4356 H   0  0  0  0  0  0
  -30.2514  -20.7110   21.6159 H   0  0  0  0  0  0
  -30.9700  -20.6385   20.0252 H   0  0  0  0  0  0
  -29.1218  -21.7072   18.9710 H   0  0  0  0  0  0
  -29.9899  -23.5997   20.4572 H   0  0  0  0  0  0
  -28.7821  -23.2657   21.6292 H   0  0  0  0  0  0
  -27.0270  -24.3716   20.2370 H   0  0  0  0  0  0
  -28.0783  -24.5169   18.8739 H   0  0  0  0  0  0
  1 25  1  0  0  0
  1 30  2  0  0  0
  1 74  1  0  0  0
  2  3  1  0  0  0
  2 25  1  0  0  0
  2 86  1  0  0  0
  2 87  1  0  0  0
  3  4  1  0  0  0
  3 88  1  0  0  0
  3 89  1  0  0  0
  4  5  1  0  0  0
  4 90  1  0  0  0
  4 91  1  0  0  0
  5  6  1  0  0  0
  5 26  1  0  0  0
  5 92  1  0  0  0
  6 25  1  0  0  0
  6 93  1  0  0  0
  6 94  1  0  0  0
  7  8  2  0  0  0
  7 26  1  0  0  0
  7 29  1  0  0  0
  8  9  1  0  0  0
  8 22  1  0  0  0
  9 10  1  0  0  0
  9 27  2  0  0  0
 10 11  2  0  0  0
 10 15  1  0  0  0
 11 12  1  0  0  0
 11 95  1  0  0  0
 12 13  2  0  0  0
 12 96  1  0  0  0
 13 14  1  0  0  0
 13 31  1  0  0  0
 14 15  2  0  0  0
 14 97  1  0  0  0
 15 98  1  0  0  0
 16 17  2  0  0  0
 16 21  1  0  0  0
 16 31  1  0  0  0
 17 18  1  0  0  0
 17 99  1  0  0  0
 18 19  2  0  0  0
 18100  1  0  0  0
 19 20  1  0  0  0
 19 24  1  0  0  0
 20 21  2  0  0  0
 20101  1  0  0  0
 21 23  1  0  0  0
 22 28  1  0  0  0
 22 32  2  0  0  0
 26 27  1  0  0  0
 28102  1  0  0  0
 28103  1  0  0  0
 29104  1  0  0  0
 29105  1  0  0  0
 33 34  1  0  0  0
 33 66  1  0  0  0
 33 70  2  0  0  0
 34 36  1  0  0  0
 34 59  1  0  0  0
 34106  1  0  0  0
 35 44  2  0  0  0
 35 45  1  0  0  0
 35 68  1  0  0  0
 36 56  1  0  0  0
 36107  1  0  0  0
 37 39  1  0  0  0
 37 47  1  0  0  0
 37 66  1  0  0  0
 37108  1  0  0  0
 38 43  2  0  0  0
 38 46  1  0  0  0
 38 47  1  0  0  0
 39 64  1  0  0  0
 39 67  2  0  0  0
 40 52  1  0  0  0
 40 53  2  0  0  0
 40 58  1  0  0  0
 41109  1  0  0  0
 41110  1  0  0  0
 41111  1  0  0  0
 41 48  1  0  0  0
 42 43  1  0  0  0
 42 66  1  0  0  0
 42112  1  0  0  0
 42113  1  0  0  0
 43 44  1  0  0  0
 44114  1  0  0  0
 45 46  2  0  0  0
 45115  1  0  0  0
 46116  1  0  0  0
 47117  1  0  0  0
 47118  1  0  0  0
 48 56  1  0  0  0
 48 65  1  0  0  0
 48119  1  0  0  0
 49 50  1  0  0  0
 49 53  1  0  0  0
 49 64  1  0  0  0
 49120  1  0  0  0
 50 51  1  0  0  0
 50121  1  0  0  0
 50122  1  0  0  0
 51 52  1  0  0  0
 51123  1  0  0  0
 51124  1  0  0  0
 52125  1  0  0  0
 52126  1  0  0  0
 53 54  1  0  0  0
 54 55  2  0  0  0
 54127  1  0  0  0
 55 57  1  0  0  0
 55128  1  0  0  0
 56 69  2  0  0  0
 57 58  2  0  0  0
 57129  1  0  0  0
 58130  1  0  0  0
 59 60  1  0  0  0
 59 61  1  0  0  0
 59 62  1  0  0  0
 60131  1  0  0  0
 60132  1  0  0  0
 60133  1  0  0  0
 61134  1  0  0  0
 61135  1  0  0  0
 61136  1  0  0  0
 62137  1  0  0  0
 62138  1  0  0  0
 62139  1  0  0  0
 63 65  1  0  0  0
 63140  1  0  0  0
 63141  1  0  0  0
 63142  1  0  0  0
 64143  1  0  0  0
 65144  1  0  0  0
 68 82  1  0  0  0
 71 72  2  0  0  0
 71 75  1  0  0  0
 71145  1  0  0  0
 72 76  1  0  0  0
 72146  1  0  0  0
 73 74  1  0  0  0
 73 76  2  0  0  0
 73147  1  0  0  0
 74 75  2  0  0  0
 75 83  1  0  0  0
 76 85  1  0  0  0
 77 78  1  0  0  0
 77 83  1  0  0  0
 77 84  2  0  0  0
 78 80  1  0  0  0
 78148  1  0  0  0
 78149  1  0  0  0
 79 80  1  0  0  0
 79 83  1  0  0  0
 79150  1  0  0  0
 79151  1  0  0  0
 80 81  1  0  0  0
 80152  1  0  0  0
 81 82  1  0  0  0
 81153  1  0  0  0
 81154  1  0  0  0
 82155  1  0  0  0
 82156  1  0  0  0
M  ISO  4   1 100  68 101  74 100  82 101
M  END
> <chiral flag>
0

> <version>
0

> <s_m_source_file>
/data/baiqing/PycharmProjects/Reinvent-master-3.2/result/LINK_invent/BTK/process_docking_weight1_custom_product_contain_oxygen_bond_distance_aromatic_linkinvent_7_9_3/rearranged_h_0066.sdf

> <i_m_source_file_index>
90

> <r_mmod_Potential_Energy-OPLS-2005>
962.847839355469

> <r_mmod_Stretch_Energy-OPLS-2005>
291.655548095703

> <r_mmod_Bend_Energy-OPLS-2005>
338.476837158203

> <r_mmod_Torsional_Energy-OPLS-2005>
454.870056152344

> <r_mmod_Improper_Torsional_Energy-OPLS-2005>
33.9966011047363

> <r_mmod_Van_der_Waal_Energy-OPLS-2005>
134.865539550781

> <r_mmod_Electrostatic_Energy-OPLS-2005>
-295.843658447266

> <r_mmod_Solvation_Energy-OPLS-2005>
-197.114334106445

> <b_mmod_Minimization_Converged-OPLS-2005>
0

> <r_mmod_RMS_Derivative-OPLS-2005>
1.33640599250793

$$$$
91
                    3D
 Structure written by MMmdl.
155163  0  0  1  0            999 V2000
  -30.5215  -15.0441   20.4099 C   0  0  0  0  0  0
  -30.4392  -12.6564   19.4997 C   0  0  0  0  0  0
  -29.5225  -12.5400   18.2594 C   0  0  0  0  0  0
  -28.0607  -12.3074   18.6839 C   0  0  0  0  0  0
  -27.6222  -13.2560   19.8294 C   0  0  2  0  0  0
  -28.6655  -13.3354   20.9634 C   0  0  0  0  0  0
  -25.2432  -13.8224   20.5719 C   0  0  0  0  0  0
  -24.1764  -13.0435   20.9238 C   0  0  0  0  0  0
  -24.6395  -11.6925   20.8757 C   0  0  0  0  0  0
  -23.9082  -10.4291   21.0408 C   0  0  0  0  0  0
  -24.3628   -9.4205   21.9188 C   0  0  0  0  0  0
  -23.6299   -8.2242   22.0757 C   0  0  0  0  0  0
  -22.4281   -8.0281   21.3544 C   0  0  0  0  0  0
  -21.9920   -9.0255   20.4645 C   0  0  0  0  0  0
  -22.7253  -10.2131   20.3055 C   0  0  0  0  0  0
  -21.6854   -6.0735   22.5278 C   0  0  0  0  0  0
  -21.4015   -6.5640   23.8212 C   0  0  0  0  0  0
  -21.3659   -5.6793   24.9174 C   0  0  0  0  0  0
  -21.6044   -4.3056   24.7225 C   0  0  0  0  0  0
  -21.8818   -3.8145   23.4347 C   0  0  0  0  0  0
  -21.9193   -4.6962   22.3401 C   0  0  0  0  0  0
  -22.7781  -13.5199   21.1888 C   0  0  0  0  0  0
  -22.1661   -4.2147   21.0979 F   0  0  0  0  0  0
  -21.5628   -3.4539   25.7738 F   0  0  0  0  0  0
  -29.9247  -13.7760   20.3480 N   0  0  0  0  0  0
  -26.2856  -12.9469   20.3225 N   0  0  0  0  0  0
  -25.9329  -11.6591   20.5734 N   0  0  0  0  0  0
  -22.0437  -12.8181   22.0442 N   0  0  0  0  0  0
  -25.4072  -15.1955   20.4139 N   0  0  0  0  0  0
  -31.7390  -15.0655   20.1914 O   0  0  0  0  0  0
  -21.6643   -6.8879   21.4242 O   0  0  0  0  0  0
  -22.3461  -14.5502   20.6733 O   0  0  0  0  0  0
  -24.6512  -31.8377   23.1824 C   0  0  0  0  0  0
  -25.9249  -32.4663   23.8239 C   0  0  1  0  0  0
  -27.2140  -27.0636   20.1610 C   0  0  0  0  0  0
  -25.5968  -33.8470   24.2154 N   0  0  0  0  0  0
  -23.4587  -30.4562   21.5294 C   0  0  2  0  0  0
  -24.9081  -28.8712   20.1130 C   0  0  0  0  0  0
  -22.7608  -29.4520   22.4827 C   0  0  0  0  0  0
  -18.0316  -28.1410   22.8479 C   0  0  0  0  0  0
  -24.1487  -36.7239   23.2643 C   0  0  0  0  0  0
  -26.0207  -30.6885   21.3925 C   0  0  0  0  0  0
  -26.0898  -29.2919   20.7365 C   0  0  0  0  0  0
  -27.2432  -28.4071   20.7402 C   0  0  0  0  0  0
  -26.0042  -26.7673   19.4933 C   0  0  0  0  0  0
  -24.8823  -27.6242   19.4748 C   0  0  0  0  0  0
  -23.6901  -29.7837   20.1505 C   0  0  0  0  0  0
  -25.4123  -36.3013   24.0312 C   0  0  1  0  0  0
  -20.5935  -28.3743   23.1216 C   0  0  2  0  0  0
  -20.6800  -26.9438   22.5402 C   0  0  0  0  0  0
  -19.5770  -26.6388   21.5216 C   0  0  0  0  0  0
  -18.1952  -26.7950   22.1624 C   0  0  0  0  0  0
  -19.1576  -28.8895   23.2840 C   0  0  0  0  0  0
  -18.9487  -30.1489   23.8869 C   0  0  0  0  0  0
  -17.6481  -30.6601   24.0562 C   0  0  0  0  0  0
  -25.9085  -34.9392   23.5047 C   0  0  0  0  0  0
  -16.5373  -29.9092   23.6342 C   0  0  0  0  0  0
  -16.7300  -28.6513   23.0361 C   0  0  0  0  0  0
  -26.4543  -31.6556   25.0710 C   0  0  0  0  0  0
  -25.3702  -31.3773   26.1387 C   0  0  0  0  0  0
  -27.0417  -30.2942   24.6348 C   0  0  0  0  0  0
  -27.6061  -32.4332   25.7504 C   0  0  0  0  0  0
  -27.5572  -37.1777   24.8465 C   0  0  0  0  0  0
  -21.4293  -29.3056   22.3577 N   0  0  0  0  0  0
  -26.4280  -37.3734   23.9413 N   0  0  0  0  0  0
  -24.7307  -31.0176   22.0887 N   0  0  0  0  0  0
  -23.4218  -28.8070   23.3006 O   0  0  0  0  0  0
  -28.2411  -26.0256   20.2124 O   0  0  0  0  0  0
  -26.5672  -34.8901   22.4626 O   0  0  0  0  0  0
  -23.5613  -32.1275   23.7005 O   0  0  0  0  0  0
  -31.7201  -19.4353   21.3951 C   0  0  0  0  0  0
  -31.3480  -18.1128   21.0828 C   0  0  0  0  0  0
  -29.2246  -19.0232   20.3772 C   0  0  0  0  0  0
  -30.8834  -20.5775   21.2537 C   0  0  0  0  0  0
  -30.0687  -17.7885   20.6015 C   0  0  0  0  0  0
  -29.5827  -20.4761   20.6456 C   0  0  0  0  0  0
  -31.4456  -21.7903   21.9051 C   0  0  0  0  0  0
  -28.9650  -23.1808   20.2074 C   0  0  0  0  0  0
  -27.2426  -21.4903   20.5262 C   0  0  0  0  0  0
  -27.8761  -24.4758   20.2604 C   0  0  0  0  0  0
  -32.5671  -22.2608   21.3345 N   0  0  0  0  0  0
  -29.7459  -16.2653   20.4598 N   0  0  0  0  0  0
  -28.6791  -21.7666   20.4586 N   0  0  0  0  0  0
  -30.0977  -23.5004   19.8392 O   0  0  0  0  0  0
  -30.8305  -22.4466   23.3060 S   0  0  0  0  0  0
  -31.4684  -12.8269   19.1805 H   0  0  0  0  0  0
  -30.4539  -11.7209   20.0610 H   0  0  0  0  0  0
  -29.8592  -11.7290   17.6120 H   0  0  0  0  0  0
  -29.5906  -13.4541   17.6674 H   0  0  0  0  0  0
  -27.9766  -11.2713   19.0140 H   0  0  0  0  0  0
  -27.3939  -12.4093   17.8269 H   0  0  0  0  0  0
  -27.5675  -14.2460   19.3757 H   0  0  0  0  0  0
  -28.7806  -12.3731   21.4644 H   0  0  0  0  0  0
  -28.3495  -14.0493   21.7257 H   0  0  0  0  0  0
  -25.2772   -9.5679   22.4765 H   0  0  0  0  0  0
  -24.0003   -7.4632   22.7480 H   0  0  0  0  0  0
  -21.0850   -8.8775   19.8949 H   0  0  0  0  0  0
  -22.3714  -10.9670   19.6162 H   0  0  0  0  0  0
  -21.2010   -7.6149   23.9713 H   0  0  0  0  0  0
  -21.1481   -6.0525   25.9076 H   0  0  0  0  0  0
  -22.0598   -2.7609   23.2848 H   0  0  0  0  0  0
  -22.4068  -11.9848   22.4827 H   0  0  0  0  0  0
  -21.1050  -13.1190   22.2652 H   0  0  0  0  0  0
  -24.6338  -15.8428   20.5212 H   0  0  0  0  0  0
  -26.2446  -15.6380   20.0596 H   0  0  0  0  0  0
  -26.7319  -32.5241   23.0967 H   0  0  0  0  0  0
  -25.0094  -33.9567   25.0290 H   0  0  0  0  0  0
  -22.7658  -31.2848   21.3702 H   0  0  0  0  0  0
  -23.3760  -35.9558   23.3281 H   0  0  0  0  0  0
  -24.3577  -36.8895   22.2063 H   0  0  0  0  0  0
  -23.7231  -37.6422   23.6698 H   0  0  0  0  0  0
  -26.1860  -31.4372   20.6164 H   0  0  0  0  0  0
  -26.8878  -30.7407   22.0391 H   0  0  0  0  0  0
  -28.1406  -28.7265   21.2514 H   0  0  0  0  0  0
  -25.8841  -25.8256   18.9830 H   0  0  0  0  0  0
  -23.9834  -27.2984   18.9695 H   0  0  0  0  0  0
  -23.8382  -30.5569   19.3956 H   0  0  0  0  0  0
  -22.8024  -29.2331   19.8342 H   0  0  0  0  0  0
  -25.1314  -36.1826   25.0803 H   0  0  0  0  0  0
  -21.0035  -28.3341   24.1334 H   0  0  0  0  0  0
  -20.5695  -26.2359   23.3631 H   0  0  0  0  0  0
  -21.6664  -26.7433   22.1198 H   0  0  0  0  0  0
  -19.6924  -25.6289   21.1268 H   0  0  0  0  0  0
  -19.6707  -27.3183   20.6732 H   0  0  0  0  0  0
  -17.4223  -26.6702   21.4026 H   0  0  0  0  0  0
  -18.0340  -26.0100   22.9027 H   0  0  0  0  0  0
  -19.7960  -30.7320   24.2222 H   0  0  0  0  0  0
  -17.5031  -31.6275   24.5175 H   0  0  0  0  0  0
  -15.5372  -30.2984   23.7682 H   0  0  0  0  0  0
  -15.8702  -28.0822   22.7089 H   0  0  0  0  0  0
  -24.5909  -30.7083   25.7719 H   0  0  0  0  0  0
  -24.8854  -32.2960   26.4700 H   0  0  0  0  0  0
  -25.7969  -30.9035   27.0237 H   0  0  0  0  0  0
  -26.3053  -29.6650   24.1338 H   0  0  0  0  0  0
  -27.3984  -29.7261   25.4951 H   0  0  0  0  0  0
  -27.8979  -30.4160   23.9712 H   0  0  0  0  0  0
  -27.2657  -33.3676   26.1978 H   0  0  0  0  0  0
  -28.3933  -32.6816   25.0374 H   0  0  0  0  0  0
  -28.0658  -31.8514   26.5504 H   0  0  0  0  0  0
  -28.2575  -38.0088   24.7525 H   0  0  0  0  0  0
  -28.1082  -36.2618   24.6274 H   0  0  0  0  0  0
  -27.2295  -37.1403   25.8869 H   0  0  0  0  0  0
  -20.9516  -29.8765   21.6742 H   0  0  0  0  0  0
  -26.0135  -38.2794   24.1428 H   0  0  0  0  0  0
  -32.6971  -19.5641   21.8419 H   0  0  0  0  0  0
  -32.0656  -17.3327   21.2924 H   0  0  0  0  0  0
  -28.2363  -18.8391   19.9838 H   0  0  0  0  0  0
  -27.0271  -20.4835   20.8787 H   0  0  0  0  0  0
  -26.7831  -21.6027   19.5432 H   0  0  0  0  0  0
  -26.7340  -22.1546   21.2248 H   0  0  0  0  0  0
  -27.2776  -24.3463   21.1614 H   0  0  0  0  0  0
  -27.2071  -24.2666   19.4289 H   0  0  0  0  0  0
  -32.9154  -21.8264   20.4913 H   0  0  0  0  0  0
  -33.0210  -23.0746   21.7227 H   0  0  0  0  0  0
  -28.7571  -16.0699   20.4327 H   0  0  0  0  0  0
  1 25  1  0  0  0
  1 30  2  0  0  0
  1 82  1  0  0  0
  2  3  1  0  0  0
  2 25  1  0  0  0
  2 86  1  0  0  0
  2 87  1  0  0  0
  3  4  1  0  0  0
  3 88  1  0  0  0
  3 89  1  0  0  0
  4  5  1  0  0  0
  4 90  1  0  0  0
  4 91  1  0  0  0
  5  6  1  0  0  0
  5 26  1  0  0  0
  5 92  1  0  0  0
  6 25  1  0  0  0
  6 93  1  0  0  0
  6 94  1  0  0  0
  7  8  2  0  0  0
  7 26  1  0  0  0
  7 29  1  0  0  0
  8  9  1  0  0  0
  8 22  1  0  0  0
  9 10  1  0  0  0
  9 27  2  0  0  0
 10 11  2  0  0  0
 10 15  1  0  0  0
 11 12  1  0  0  0
 11 95  1  0  0  0
 12 13  2  0  0  0
 12 96  1  0  0  0
 13 14  1  0  0  0
 13 31  1  0  0  0
 14 15  2  0  0  0
 14 97  1  0  0  0
 15 98  1  0  0  0
 16 17  2  0  0  0
 16 21  1  0  0  0
 16 31  1  0  0  0
 17 18  1  0  0  0
 17 99  1  0  0  0
 18 19  2  0  0  0
 18100  1  0  0  0
 19 20  1  0  0  0
 19 24  1  0  0  0
 20 21  2  0  0  0
 20101  1  0  0  0
 21 23  1  0  0  0
 22 28  1  0  0  0
 22 32  2  0  0  0
 26 27  1  0  0  0
 28102  1  0  0  0
 28103  1  0  0  0
 29104  1  0  0  0
 29105  1  0  0  0
 33 34  1  0  0  0
 33 66  1  0  0  0
 33 70  2  0  0  0
 34 36  1  0  0  0
 34 59  1  0  0  0
 34106  1  0  0  0
 35 44  2  0  0  0
 35 45  1  0  0  0
 35 68  1  0  0  0
 36 56  1  0  0  0
 36107  1  0  0  0
 37 39  1  0  0  0
 37 47  1  0  0  0
 37 66  1  0  0  0
 37108  1  0  0  0
 38 43  2  0  0  0
 38 46  1  0  0  0
 38 47  1  0  0  0
 39 64  1  0  0  0
 39 67  2  0  0  0
 40 52  1  0  0  0
 40 53  2  0  0  0
 40 58  1  0  0  0
 41109  1  0  0  0
 41110  1  0  0  0
 41111  1  0  0  0
 41 48  1  0  0  0
 42 43  1  0  0  0
 42 66  1  0  0  0
 42112  1  0  0  0
 42113  1  0  0  0
 43 44  1  0  0  0
 44114  1  0  0  0
 45 46  2  0  0  0
 45115  1  0  0  0
 46116  1  0  0  0
 47117  1  0  0  0
 47118  1  0  0  0
 48 56  1  0  0  0
 48 65  1  0  0  0
 48119  1  0  0  0
 49 50  1  0  0  0
 49 53  1  0  0  0
 49 64  1  0  0  0
 49120  1  0  0  0
 50 51  1  0  0  0
 50121  1  0  0  0
 50122  1  0  0  0
 51 52  1  0  0  0
 51123  1  0  0  0
 51124  1  0  0  0
 52125  1  0  0  0
 52126  1  0  0  0
 53 54  1  0  0  0
 54 55  2  0  0  0
 54127  1  0  0  0
 55 57  1  0  0  0
 55128  1  0  0  0
 56 69  2  0  0  0
 57 58  2  0  0  0
 57129  1  0  0  0
 58130  1  0  0  0
 59 60  1  0  0  0
 59 61  1  0  0  0
 59 62  1  0  0  0
 60131  1  0  0  0
 60132  1  0  0  0
 60133  1  0  0  0
 61134  1  0  0  0
 61135  1  0  0  0
 61136  1  0  0  0
 62137  1  0  0  0
 62138  1  0  0  0
 62139  1  0  0  0
 63 65  1  0  0  0
 63140  1  0  0  0
 63141  1  0  0  0
 63142  1  0  0  0
 64143  1  0  0  0
 65144  1  0  0  0
 68 80  1  0  0  0
 71 72  2  0  0  0
 71 74  1  0  0  0
 71145  1  0  0  0
 72 75  1  0  0  0
 72146  1  0  0  0
 73 75  2  0  0  0
 73 76  1  0  0  0
 73147  1  0  0  0
 74 76  2  0  0  0
 74 77  1  0  0  0
 75 82  1  0  0  0
 76 83  1  0  0  0
 77 81  1  0  0  0
 77 85  2  0  0  0
 78 80  1  0  0  0
 78 83  1  0  0  0
 78 84  2  0  0  0
 79 83  1  0  0  0
 79148  1  0  0  0
 79149  1  0  0  0
 79150  1  0  0  0
 80151  1  0  0  0
 80152  1  0  0  0
 81153  1  0  0  0
 81154  1  0  0  0
 82155  1  0  0  0
M  ISO  4   1 100  68 101  80 101  82 100
M  END
> <chiral flag>
0

> <version>
0

> <s_m_source_file>
/data/baiqing/PycharmProjects/Reinvent-master-3.2/result/LINK_invent/BTK/process_docking_weight1_custom_product_contain_oxygen_bond_distance_aromatic_linkinvent_7_9_3/rearranged_h_0066.sdf

> <i_m_source_file_index>
91

> <r_mmod_Potential_Energy-OPLS-2005>
709.826843261719

> <r_mmod_Stretch_Energy-OPLS-2005>
366.739349365234

> <r_mmod_Bend_Energy-OPLS-2005>
283.975616455078

> <r_mmod_Torsional_Energy-OPLS-2005>
288.493713378906

> <r_mmod_Improper_Torsional_Energy-OPLS-2005>
7.83333158493042

> <r_mmod_Van_der_Waal_Energy-OPLS-2005>
145.430236816406

> <r_mmod_Electrostatic_Energy-OPLS-2005>
-396.356109619141

> <r_mmod_Solvation_Energy-OPLS-2005>
-251.32844543457

> <b_mmod_Minimization_Converged-OPLS-2005>
0

> <r_mmod_RMS_Derivative-OPLS-2005>
0.651237189769745

$$$$
92
                    3D
 Structure written by MMmdl.
156165  0  0  1  0            999 V2000
  -30.6021  -14.6968   20.4846 C   0  0  0  0  0  0
  -30.4445  -12.4241   19.4654 C   0  0  0  0  0  0
  -29.5130  -12.5013   18.2346 C   0  0  0  0  0  0
  -28.0361  -12.3393   18.6452 C   0  0  0  0  0  0
  -27.6525  -13.2220   19.8624 C   0  0  2  0  0  0
  -28.6974  -13.1027   20.9947 C   0  0  0  0  0  0
  -25.2555  -13.8182   20.5691 C   0  0  0  0  0  0
  -24.1820  -13.0445   20.9187 C   0  0  0  0  0  0
  -24.6399  -11.6915   20.8741 C   0  0  0  0  0  0
  -23.9067  -10.4292   21.0408 C   0  0  0  0  0  0
  -24.3615   -9.4213   21.9186 C   0  0  0  0  0  0
  -23.6289   -8.2247   22.0755 C   0  0  0  0  0  0
  -22.4274   -8.0283   21.3542 C   0  0  0  0  0  0
  -21.9910   -9.0260   20.4652 C   0  0  0  0  0  0
  -22.7240  -10.2142   20.3062 C   0  0  0  0  0  0
  -21.6855   -6.0737   22.5279 C   0  0  0  0  0  0
  -21.4017   -6.5639   23.8212 C   0  0  0  0  0  0
  -21.3661   -5.6794   24.9173 C   0  0  0  0  0  0
  -21.6044   -4.3054   24.7228 C   0  0  0  0  0  0
  -21.8819   -3.8148   23.4343 C   0  0  0  0  0  0
  -21.9193   -4.6965   22.3404 C   0  0  0  0  0  0
  -22.7840  -13.5242   21.1853 C   0  0  0  0  0  0
  -22.1660   -4.2148   21.0978 F   0  0  0  0  0  0
  -21.5628   -3.4542   25.7736 F   0  0  0  0  0  0
  -30.0081  -13.4579   20.4289 N   0  0  0  0  0  0
  -26.2990  -12.9375   20.3325 N   0  0  0  0  0  0
  -25.9329  -11.6524   20.5765 N   0  0  0  0  0  0
  -22.0476  -12.8242   22.0408 N   0  0  0  0  0  0
  -25.4267  -15.1904   20.4118 N   0  0  0  0  0  0
  -31.7702  -14.8558   20.1165 O   0  0  0  0  0  0
  -21.6640   -6.8884   21.4240 O   0  0  0  0  0  0
  -22.3533  -14.5552   20.6700 O   0  0  0  0  0  0
  -24.6294  -31.8579   23.2007 C   0  0  0  0  0  0
  -25.9129  -32.4771   23.8348 C   0  0  1  0  0  0
  -27.2247  -27.2897   20.1175 C   0  0  0  0  0  0
  -25.5932  -33.8570   24.2272 N   0  0  0  0  0  0
  -23.4240  -30.4818   21.5447 C   0  0  2  0  0  0
  -24.8712  -28.9355   20.1111 C   0  0  0  0  0  0
  -22.7494  -29.4612   22.4927 C   0  0  0  0  0  0
  -18.0291  -28.1380   22.8483 C   0  0  0  0  0  0
  -24.1488  -36.7291   23.2636 C   0  0  0  0  0  0
  -25.9692  -30.7793   21.3772 C   0  0  0  0  0  0
  -26.0428  -29.4052   20.7173 C   0  0  0  0  0  0
  -27.2216  -28.5949   20.7096 C   0  0  0  0  0  0
  -26.0244  -26.8841   19.4857 C   0  0  0  0  0  0
  -24.8653  -27.6817   19.4855 C   0  0  0  0  0  0
  -23.6401  -29.8180   20.1605 C   0  0  0  0  0  0
  -25.4112  -36.3079   24.0326 C   0  0  1  0  0  0
  -20.5893  -28.3690   23.1277 C   0  0  2  0  0  0
  -20.6779  -26.9412   22.5406 C   0  0  0  0  0  0
  -19.5752  -26.6380   21.5212 C   0  0  0  0  0  0
  -18.1934  -26.7926   22.1627 C   0  0  0  0  0  0
  -19.1544  -28.8854   23.2874 C   0  0  0  0  0  0
  -18.9464  -30.1455   23.8889 C   0  0  0  0  0  0
  -17.6465  -30.6583   24.0560 C   0  0  0  0  0  0
  -25.9054  -34.9448   23.5100 C   0  0  0  0  0  0
  -16.5357  -29.9078   23.6329 C   0  0  0  0  0  0
  -16.7276  -28.6495   23.0350 C   0  0  0  0  0  0
  -26.4498  -31.6584   25.0725 C   0  0  0  0  0  0
  -25.3725  -31.3728   26.1447 C   0  0  0  0  0  0
  -27.0344  -30.3005   24.6194 C   0  0  0  0  0  0
  -27.6052  -32.4322   25.7498 C   0  0  0  0  0  0
  -27.5579  -37.1799   24.8461 C   0  0  0  0  0  0
  -21.4204  -29.3042   22.3669 N   0  0  0  0  0  0
  -26.4288  -37.3777   23.9410 N   0  0  0  0  0  0
  -24.6930  -31.0570   22.0971 N   0  0  0  0  0  0
  -23.4203  -28.8148   23.3014 O   0  0  0  0  0  0
  -28.3336  -26.4135   20.1715 O   0  0  0  0  0  0
  -26.5624  -34.8919   22.4668 O   0  0  0  0  0  0
  -23.5451  -32.1386   23.7325 O   0  0  0  0  0  0
  -29.8316  -19.5090   21.6221 C   0  0  0  0  0  0
  -29.9898  -18.0893   21.7125 C   0  0  0  0  0  0
  -29.4089  -19.3204   19.3160 C   0  0  0  0  0  0
  -29.5253  -17.8841   19.3699 C   0  0  0  0  0  0
  -29.5208  -20.2179   20.4228 C   0  0  0  0  0  0
  -29.8493  -17.2149   20.6006 C   0  0  0  0  0  0
  -29.1803  -22.5903   19.2458 C   0  0  0  0  0  0
  -29.0403  -22.7199   21.2593 C   0  0  0  0  0  0
  -29.2915  -17.1355   18.0951 C   0  0  0  0  0  0
  -29.2432  -23.8431   20.1837 C   0  0  0  0  0  0
  -28.2817  -17.7217   17.1136 C   0  0  0  0  0  0
  -28.1024  -24.9479   19.9551 C   0  0  0  0  0  0
  -29.3400  -21.6902   20.3275 N   0  0  0  0  0  0
  -29.7856  -15.7531   20.8327 N   0  0  0  0  0  0
  -29.0586  -22.3910   18.0526 O   0  0  0  0  0  0
  -28.7555  -22.6708   22.4398 O   0  0  0  0  0  0
  -29.8358  -16.0704   17.8022 O   0  0  0  0  0  0
  -31.4834  -12.5617   19.1593 H   0  0  0  0  0  0
  -30.3965  -11.4349   19.9244 H   0  0  0  0  0  0
  -29.7823  -11.7339   17.5084 H   0  0  0  0  0  0
  -29.6495  -13.4567   17.7293 H   0  0  0  0  0  0
  -27.8772  -11.2874   18.8880 H   0  0  0  0  0  0
  -27.3827  -12.5573   17.7997 H   0  0  0  0  0  0
  -27.6645  -14.2518   19.5056 H   0  0  0  0  0  0
  -28.7202  -12.0863   21.3907 H   0  0  0  0  0  0
  -28.4358  -13.7438   21.8373 H   0  0  0  0  0  0
  -25.2759   -9.5684   22.4765 H   0  0  0  0  0  0
  -23.9995   -7.4642   22.7480 H   0  0  0  0  0  0
  -21.0837   -8.8789   19.8962 H   0  0  0  0  0  0
  -22.3698  -10.9681   19.6174 H   0  0  0  0  0  0
  -21.2008   -7.6149   23.9714 H   0  0  0  0  0  0
  -21.1482   -6.0524   25.9076 H   0  0  0  0  0  0
  -22.0595   -2.7610   23.2849 H   0  0  0  0  0  0
  -22.4088  -11.9903   22.4790 H   0  0  0  0  0  0
  -21.1100  -13.1280   22.2631 H   0  0  0  0  0  0
  -24.6589  -15.8426   20.5257 H   0  0  0  0  0  0
  -26.2778  -15.6328   20.0921 H   0  0  0  0  0  0
  -26.7194  -32.5431   23.1093 H   0  0  0  0  0  0
  -25.0073  -33.9707   25.0413 H   0  0  0  0  0  0
  -22.7188  -31.3030   21.4010 H   0  0  0  0  0  0
  -23.3752  -35.9622   23.3297 H   0  0  0  0  0  0
  -24.3581  -36.8915   22.2052 H   0  0  0  0  0  0
  -23.7241  -37.6490   23.6664 H   0  0  0  0  0  0
  -26.1055  -31.5420   20.6097 H   0  0  0  0  0  0
  -26.8479  -30.8273   22.0086 H   0  0  0  0  0  0
  -28.1188  -28.9514   21.1963 H   0  0  0  0  0  0
  -25.9398  -25.9304   18.9907 H   0  0  0  0  0  0
  -23.9683  -27.3164   19.0048 H   0  0  0  0  0  0
  -23.7612  -30.5945   19.4042 H   0  0  0  0  0  0
  -22.7595  -29.2491   19.8570 H   0  0  0  0  0  0
  -25.1293  -36.1926   25.0819 H   0  0  0  0  0  0
  -20.9981  -28.3262   24.1400 H   0  0  0  0  0  0
  -20.5681  -26.2299   23.3602 H   0  0  0  0  0  0
  -21.6645  -26.7438   22.1201 H   0  0  0  0  0  0
  -19.6915  -25.6290   21.1241 H   0  0  0  0  0  0
  -19.6687  -27.3185   20.6738 H   0  0  0  0  0  0
  -17.4201  -26.6664   21.4032 H   0  0  0  0  0  0
  -18.0341  -26.0067   22.9024 H   0  0  0  0  0  0
  -19.7939  -30.7275   24.2253 H   0  0  0  0  0  0
  -17.5017  -31.6263   24.5158 H   0  0  0  0  0  0
  -15.5357  -30.2979   23.7654 H   0  0  0  0  0  0
  -15.8676  -28.0814   22.7072 H   0  0  0  0  0  0
  -24.5900  -30.7077   25.7776 H   0  0  0  0  0  0
  -24.8917  -32.2898   26.4868 H   0  0  0  0  0  0
  -25.8045  -30.8906   27.0227 H   0  0  0  0  0  0
  -26.2925  -29.6756   24.1208 H   0  0  0  0  0  0
  -27.4024  -29.7261   25.4707 H   0  0  0  0  0  0
  -27.8804  -30.4289   23.9437 H   0  0  0  0  0  0
  -27.2660  -33.3623   26.2073 H   0  0  0  0  0  0
  -28.3866  -32.6885   25.0330 H   0  0  0  0  0  0
  -28.0718  -31.8450   26.5418 H   0  0  0  0  0  0
  -28.2588  -38.0105   24.7527 H   0  0  0  0  0  0
  -28.1087  -36.2641   24.6266 H   0  0  0  0  0  0
  -27.2303  -37.1417   25.8864 H   0  0  0  0  0  0
  -20.9383  -29.8768   21.6885 H   0  0  0  0  0  0
  -26.0168  -38.2849   24.1419 H   0  0  0  0  0  0
  -29.9483  -20.0736   22.5361 H   0  0  0  0  0  0
  -30.1915  -17.6668   22.6871 H   0  0  0  0  0  0
  -29.1900  -19.7737   18.3612 H   0  0  0  0  0  0
  -30.2389  -24.2828   20.2040 H   0  0  0  0  0  0
  -27.4120  -18.1065   17.6455 H   0  0  0  0  0  0
  -27.9443  -16.9558   16.4158 H   0  0  0  0  0  0
  -28.7331  -18.5305   16.5406 H   0  0  0  0  0  0
  -27.2345  -24.6683   20.5545 H   0  0  0  0  0  0
  -27.7803  -24.8540   18.9176 H   0  0  0  0  0  0
  -28.9082  -15.4380   21.2190 H   0  0  0  0  0  0
  1 25  1  0  0  0
  1 30  2  0  0  0
  1 84  1  0  0  0
  2  3  1  0  0  0
  2 25  1  0  0  0
  2 88  1  0  0  0
  2 89  1  0  0  0
  3  4  1  0  0  0
  3 90  1  0  0  0
  3 91  1  0  0  0
  4  5  1  0  0  0
  4 92  1  0  0  0
  4 93  1  0  0  0
  5  6  1  0  0  0
  5 26  1  0  0  0
  5 94  1  0  0  0
  6 25  1  0  0  0
  6 95  1  0  0  0
  6 96  1  0  0  0
  7  8  2  0  0  0
  7 26  1  0  0  0
  7 29  1  0  0  0
  8  9  1  0  0  0
  8 22  1  0  0  0
  9 10  1  0  0  0
  9 27  2  0  0  0
 10 11  2  0  0  0
 10 15  1  0  0  0
 11 12  1  0  0  0
 11 97  1  0  0  0
 12 13  2  0  0  0
 12 98  1  0  0  0
 13 14  1  0  0  0
 13 31  1  0  0  0
 14 15  2  0  0  0
 14 99  1  0  0  0
 15100  1  0  0  0
 16 17  2  0  0  0
 16 21  1  0  0  0
 16 31  1  0  0  0
 17 18  1  0  0  0
 17101  1  0  0  0
 18 19  2  0  0  0
 18102  1  0  0  0
 19 20  1  0  0  0
 19 24  1  0  0  0
 20 21  2  0  0  0
 20103  1  0  0  0
 21 23  1  0  0  0
 22 28  1  0  0  0
 22 32  2  0  0  0
 26 27  1  0  0  0
 28104  1  0  0  0
 28105  1  0  0  0
 29106  1  0  0  0
 29107  1  0  0  0
 33 34  1  0  0  0
 33 66  1  0  0  0
 33 70  2  0  0  0
 34 36  1  0  0  0
 34 59  1  0  0  0
 34108  1  0  0  0
 35 44  2  0  0  0
 35 45  1  0  0  0
 35 68  1  0  0  0
 36 56  1  0  0  0
 36109  1  0  0  0
 37 39  1  0  0  0
 37 47  1  0  0  0
 37 66  1  0  0  0
 37110  1  0  0  0
 38 43  2  0  0  0
 38 46  1  0  0  0
 38 47  1  0  0  0
 39 64  1  0  0  0
 39 67  2  0  0  0
 40 52  1  0  0  0
 40 53  2  0  0  0
 40 58  1  0  0  0
 41111  1  0  0  0
 41112  1  0  0  0
 41113  1  0  0  0
 41 48  1  0  0  0
 42 43  1  0  0  0
 42 66  1  0  0  0
 42114  1  0  0  0
 42115  1  0  0  0
 43 44  1  0  0  0
 44116  1  0  0  0
 45 46  2  0  0  0
 45117  1  0  0  0
 46118  1  0  0  0
 47119  1  0  0  0
 47120  1  0  0  0
 48 56  1  0  0  0
 48 65  1  0  0  0
 48121  1  0  0  0
 49 50  1  0  0  0
 49 53  1  0  0  0
 49 64  1  0  0  0
 49122  1  0  0  0
 50 51  1  0  0  0
 50123  1  0  0  0
 50124  1  0  0  0
 51 52  1  0  0  0
 51125  1  0  0  0
 51126  1  0  0  0
 52127  1  0  0  0
 52128  1  0  0  0
 53 54  1  0  0  0
 54 55  2  0  0  0
 54129  1  0  0  0
 55 57  1  0  0  0
 55130  1  0  0  0
 56 69  2  0  0  0
 57 58  2  0  0  0
 57131  1  0  0  0
 58132  1  0  0  0
 59 60  1  0  0  0
 59 61  1  0  0  0
 59 62  1  0  0  0
 60133  1  0  0  0
 60134  1  0  0  0
 60135  1  0  0  0
 61136  1  0  0  0
 61137  1  0  0  0
 61138  1  0  0  0
 62139  1  0  0  0
 62140  1  0  0  0
 62141  1  0  0  0
 63 65  1  0  0  0
 63142  1  0  0  0
 63143  1  0  0  0
 63144  1  0  0  0
 64145  1  0  0  0
 65146  1  0  0  0
 68 82  1  0  0  0
 71 72  2  0  0  0
 71 75  1  0  0  0
 71147  1  0  0  0
 72 76  1  0  0  0
 72148  1  0  0  0
 73 74  1  0  0  0
 73 75  2  0  0  0
 73149  1  0  0  0
 74 76  2  0  0  0
 74 79  1  0  0  0
 75 83  1  0  0  0
 76 84  1  0  0  0
 77 80  1  0  0  0
 77 83  1  0  0  0
 77 85  2  0  0  0
 78 80  1  0  0  0
 78 83  1  0  0  0
 78 86  2  0  0  0
 79 81  1  0  0  0
 79 87  2  0  0  0
 80 82  1  0  0  0
 80150  1  0  0  0
 81151  1  0  0  0
 81152  1  0  0  0
 81153  1  0  0  0
 82154  1  0  0  0
 82155  1  0  0  0
 84156  1  0  0  0
M  ISO  4   1 100  68 101  82 101  84 100
M  END
> <chiral flag>
0

> <version>
0

> <s_m_source_file>
/data/baiqing/PycharmProjects/Reinvent-master-3.2/result/LINK_invent/BTK/process_docking_weight1_custom_product_contain_oxygen_bond_distance_aromatic_linkinvent_7_9_3/rearranged_h_0066.sdf

> <i_m_source_file_index>
92

> <r_mmod_Potential_Energy-OPLS-2005>
62.1718978881836

> <r_mmod_Stretch_Energy-OPLS-2005>
101.654335021973

> <r_mmod_Bend_Energy-OPLS-2005>
169.329055786133

> <r_mmod_Torsional_Energy-OPLS-2005>
261.880218505859

> <r_mmod_Improper_Torsional_Energy-OPLS-2005>
5.36777448654175

> <r_mmod_Van_der_Waal_Energy-OPLS-2005>
138.296569824219

> <r_mmod_Electrostatic_Energy-OPLS-2005>
-431.707733154297

> <r_mmod_Solvation_Energy-OPLS-2005>
-248.914916992188

> <b_mmod_Minimization_Converged-OPLS-2005>
0

> <r_mmod_RMS_Derivative-OPLS-2005>
1.32364284992218

$$$$
93
                    3D
 Structure written by MMmdl.
166175  0  0  1  0            999 V2000
  -30.5771  -14.6699   20.4191 C   0  0  0  0  0  0
  -30.4578  -12.3938   19.4439 C   0  0  0  0  0  0
  -29.5107  -12.4917   18.2220 C   0  0  0  0  0  0
  -28.0327  -12.3077   18.6345 C   0  0  0  0  0  0
  -27.6490  -13.1690   19.8635 C   0  0  2  0  0  0
  -28.7127  -13.0252   20.9794 C   0  0  0  0  0  0
  -25.2620  -13.8002   20.5747 C   0  0  0  0  0  0
  -24.1812  -13.0351   20.9165 C   0  0  0  0  0  0
  -24.6327  -11.6804   20.8742 C   0  0  0  0  0  0
  -23.8989  -10.4234   21.0423 C   0  0  0  0  0  0
  -24.3564   -9.4160   21.9194 C   0  0  0  0  0  0
  -23.6252   -8.2194   22.0750 C   0  0  0  0  0  0
  -22.4238   -8.0243   21.3537 C   0  0  0  0  0  0
  -21.9860   -9.0213   20.4645 C   0  0  0  0  0  0
  -22.7175  -10.2093   20.3060 C   0  0  0  0  0  0
  -21.6829   -6.0717   22.5279 C   0  0  0  0  0  0
  -21.3998   -6.5626   23.8210 C   0  0  0  0  0  0
  -21.3651   -5.6784   24.9175 C   0  0  0  0  0  0
  -21.6047   -4.3048   24.7230 C   0  0  0  0  0  0
  -21.8821   -3.8136   23.4351 C   0  0  0  0  0  0
  -21.9182   -4.6950   22.3406 C   0  0  0  0  0  0
  -22.7858  -13.5214   21.1831 C   0  0  0  0  0  0
  -22.1655   -4.2140   21.0984 F   0  0  0  0  0  0
  -21.5634   -3.4532   25.7742 F   0  0  0  0  0  0
  -30.0247  -13.4073   20.4253 N   0  0  0  0  0  0
  -26.2980  -12.9067   20.3389 N   0  0  0  0  0  0
  -25.9242  -11.6281   20.5790 N   0  0  0  0  0  0
  -22.0487  -12.8227   22.0397 N   0  0  0  0  0  0
  -25.4477  -15.1712   20.4324 N   0  0  0  0  0  0
  -31.7860  -14.8124   20.1942 O   0  0  0  0  0  0
  -21.6607   -6.8846   21.4234 O   0  0  0  0  0  0
  -22.3563  -14.5530   20.6682 O   0  0  0  0  0  0
  -24.6220  -31.8626   23.2046 C   0  0  0  0  0  0
  -25.9082  -32.4797   23.8367 C   0  0  1  0  0  0
  -27.2408  -27.3630   20.1107 C   0  0  0  0  0  0
  -25.5909  -33.8594   24.2295 N   0  0  0  0  0  0
  -23.4144  -30.4848   21.5466 C   0  0  2  0  0  0
  -24.8636  -28.9429   20.1145 C   0  0  0  0  0  0
  -22.7450  -29.4639   22.4964 C   0  0  0  0  0  0
  -18.0279  -28.1380   22.8491 C   0  0  0  0  0  0
  -24.1482  -36.7291   23.2640 C   0  0  0  0  0  0
  -25.9513  -30.8069   21.3692 C   0  0  0  0  0  0
  -26.0293  -29.4374   20.7123 C   0  0  0  0  0  0
  -27.2195  -28.6590   20.7001 C   0  0  0  0  0  0
  -26.0501  -26.9082   19.4949 C   0  0  0  0  0  0
  -24.8735  -27.6810   19.4997 C   0  0  0  0  0  0
  -23.6271  -29.8153   20.1633 C   0  0  0  0  0  0
  -25.4106  -36.3093   24.0338 C   0  0  1  0  0  0
  -20.5876  -28.3677   23.1299 C   0  0  2  0  0  0
  -20.6765  -26.9403   22.5418 C   0  0  0  0  0  0
  -19.5743  -26.6377   21.5218 C   0  0  0  0  0  0
  -18.1921  -26.7927   22.1623 C   0  0  0  0  0  0
  -19.1533  -28.8844   23.2891 C   0  0  0  0  0  0
  -18.9459  -30.1447   23.8906 C   0  0  0  0  0  0
  -17.6463  -30.6586   24.0564 C   0  0  0  0  0  0
  -25.9044  -34.9462   23.5118 C   0  0  0  0  0  0
  -16.5352  -29.9089   23.6332 C   0  0  0  0  0  0
  -16.7268  -28.6503   23.0358 C   0  0  0  0  0  0
  -26.4481  -31.6600   25.0722 C   0  0  0  0  0  0
  -25.3732  -31.3735   26.1465 C   0  0  0  0  0  0
  -27.0319  -30.3032   24.6146 C   0  0  0  0  0  0
  -27.6047  -32.4335   25.7484 C   0  0  0  0  0  0
  -27.5581  -37.1789   24.8464 C   0  0  0  0  0  0
  -21.4170  -29.3040   22.3703 N   0  0  0  0  0  0
  -26.4285  -37.3787   23.9422 N   0  0  0  0  0  0
  -24.6811  -31.0669   22.0979 N   0  0  0  0  0  0
  -23.4187  -28.8186   23.3040 O   0  0  0  0  0  0
  -28.3876  -26.5638   20.1593 O   0  0  0  0  0  0
  -26.5611  -34.8925   22.4684 O   0  0  0  0  0  0
  -23.5391  -32.1407   23.7396 O   0  0  0  0  0  0
  -30.9625  -18.0899   19.6345 C   0  0  0  0  0  0
  -29.3343  -18.2553   21.3967 C   0  0  0  0  0  0
  -31.0279  -19.5126   19.5811 C   0  0  0  0  0  0
  -29.3905  -19.6729   21.3350 C   0  0  0  0  0  0
  -30.0664  -17.4205   20.5052 C   0  0  0  0  0  0
  -30.2066  -20.3502   20.3951 C   0  0  0  0  0  0
  -31.0886  -22.6199   19.7195 C   0  0  0  0  0  0
  -28.9906  -22.6469   20.6517 C   0  0  0  0  0  0
  -30.6664  -24.1021   19.6767 C   0  0  1  0  0  0
  -29.3873  -24.1611   20.5358 C   0  0  1  0  0  0
  -31.5011  -26.5255   20.1100 C   0  0  0  0  0  0
  -28.1817  -16.7520   18.4769 C   0  0  0  0  0  0
  -31.8180  -25.0250   20.1490 C   0  0  0  0  0  0
  -28.2302  -25.1134   20.0254 C   0  0  0  0  0  0
  -29.6010  -15.9340   20.2547 C   0  0  1  0  0  0
  -30.1501  -21.8129   20.2602 N   0  0  0  0  0  0
  -32.2008  -22.2666   19.3136 O   0  0  0  0  0  0
  -29.1525  -15.8271   18.9658 O   0  0  0  0  0  0
  -28.5486  -15.7539   21.0926 F   0  0  0  0  0  0
  -31.4930  -12.5428   19.1316 H   0  0  0  0  0  0
  -30.4201  -11.3959   19.8833 H   0  0  0  0  0  0
  -29.7840  -11.7426   17.4781 H   0  0  0  0  0  0
  -29.6354  -13.4602   17.7350 H   0  0  0  0  0  0
  -27.8817  -11.2526   18.8657 H   0  0  0  0  0  0
  -27.3732  -12.5320   17.7954 H   0  0  0  0  0  0
  -27.6245  -14.1850   19.5008 H   0  0  0  0  0  0
  -28.7470  -11.9912   21.3260 H   0  0  0  0  0  0
  -28.4603  -13.6021   21.8683 H   0  0  0  0  0  0
  -25.2709   -9.5636   22.4765 H   0  0  0  0  0  0
  -23.9962   -7.4574   22.7453 H   0  0  0  0  0  0
  -21.0794   -8.8724   19.8950 H   0  0  0  0  0  0
  -22.3637  -10.9634   19.6170 H   0  0  0  0  0  0
  -21.1988   -7.6134   23.9714 H   0  0  0  0  0  0
  -21.1472   -6.0516   25.9079 H   0  0  0  0  0  0
  -22.0614   -2.7601   23.2851 H   0  0  0  0  0  0
  -22.4084  -11.9872   22.4763 H   0  0  0  0  0  0
  -21.1119  -13.1280   22.2620 H   0  0  0  0  0  0
  -24.7149  -15.8446   20.6232 H   0  0  0  0  0  0
  -26.3641  -15.5895   20.3285 H   0  0  0  0  0  0
  -26.7152  -32.5482   23.1123 H   0  0  0  0  0  0
  -25.0057  -33.9748   25.0441 H   0  0  0  0  0  0
  -22.7065  -31.3036   21.4025 H   0  0  0  0  0  0
  -23.3758  -35.9608   23.3291 H   0  0  0  0  0  0
  -24.3579  -36.8920   22.2057 H   0  0  0  0  0  0
  -23.7212  -37.6481   23.6664 H   0  0  0  0  0  0
  -26.0762  -31.5721   20.6018 H   0  0  0  0  0  0
  -26.8340  -30.8567   21.9949 H   0  0  0  0  0  0
  -28.1163  -29.0370   21.1710 H   0  0  0  0  0  0
  -26.0045  -25.9439   19.0108 H   0  0  0  0  0  0
  -23.9790  -27.2933   19.0316 H   0  0  0  0  0  0
  -23.7381  -30.5887   19.4026 H   0  0  0  0  0  0
  -22.7500  -29.2369   19.8664 H   0  0  0  0  0  0
  -25.1282  -36.1948   25.0828 H   0  0  0  0  0  0
  -20.9963  -28.3243   24.1422 H   0  0  0  0  0  0
  -20.5658  -26.2288   23.3616 H   0  0  0  0  0  0
  -21.6636  -26.7430   22.1216 H   0  0  0  0  0  0
  -19.6905  -25.6288   21.1246 H   0  0  0  0  0  0
  -19.6687  -27.3188   20.6749 H   0  0  0  0  0  0
  -17.4194  -26.6685   21.4018 H   0  0  0  0  0  0
  -18.0312  -26.0061   22.9009 H   0  0  0  0  0  0
  -19.7939  -30.7257   24.2273 H   0  0  0  0  0  0
  -17.5024  -31.6272   24.5160 H   0  0  0  0  0  0
  -15.5355  -30.2998   23.7655 H   0  0  0  0  0  0
  -15.8664  -28.0825   22.7079 H   0  0  0  0  0  0
  -24.5893  -30.7095   25.7805 H   0  0  0  0  0  0
  -24.8937  -32.2903   26.4906 H   0  0  0  0  0  0
  -25.8067  -30.8904   27.0231 H   0  0  0  0  0  0
  -26.2876  -29.6788   24.1186 H   0  0  0  0  0  0
  -27.4059  -29.7279   25.4626 H   0  0  0  0  0  0
  -27.8727  -30.4338   23.9329 H   0  0  0  0  0  0
  -27.2659  -33.3635   26.2061 H   0  0  0  0  0  0
  -28.3849  -32.6898   25.0305 H   0  0  0  0  0  0
  -28.0723  -31.8465   26.5401 H   0  0  0  0  0  0
  -28.2589  -38.0098   24.7539 H   0  0  0  0  0  0
  -28.1088  -36.2633   24.6249 H   0  0  0  0  0  0
  -27.2308  -37.1390   25.8868 H   0  0  0  0  0  0
  -20.9340  -29.8767   21.6924 H   0  0  0  0  0  0
  -26.0172  -38.2859   24.1448 H   0  0  0  0  0  0
  -31.5228  -17.5112   18.9133 H   0  0  0  0  0  0
  -28.6201  -17.8206   22.0813 H   0  0  0  0  0  0
  -31.6762  -19.9430   18.8327 H   0  0  0  0  0  0
  -28.7506  -20.2311   22.0028 H   0  0  0  0  0  0
  -28.1632  -22.4126   19.9801 H   0  0  0  0  0  0
  -28.6599  -22.4239   21.6659 H   0  0  0  0  0  0
  -30.4196  -24.3261   18.6383 H   0  0  0  0  0  0
  -29.6636  -24.4915   21.5383 H   0  0  0  0  0  0
  -32.3998  -27.1151   20.2937 H   0  0  0  0  0  0
  -30.7780  -26.7984   20.8779 H   0  0  0  0  0  0
  -31.1007  -26.8246   19.1406 H   0  0  0  0  0  0
  -27.8122  -16.4053   17.5116 H   0  0  0  0  0  0
  -28.5910  -17.7496   18.3214 H   0  0  0  0  0  0
  -27.3263  -16.8333   19.1467 H   0  0  0  0  0  0
  -32.6906  -24.8526   19.5164 H   0  0  0  0  0  0
  -32.1258  -24.7491   21.1591 H   0  0  0  0  0  0
  -27.3388  -24.8273   20.5863 H   0  0  0  0  0  0
  -28.0226  -24.8803   18.9802 H   0  0  0  0  0  0
  1 25  1  0  0  0
  1 30  2  0  0  0
  1 85  1  0  0  0
  2  3  1  0  0  0
  2 25  1  0  0  0
  2 90  1  0  0  0
  2 91  1  0  0  0
  3  4  1  0  0  0
  3 92  1  0  0  0
  3 93  1  0  0  0
  4  5  1  0  0  0
  4 94  1  0  0  0
  4 95  1  0  0  0
  5  6  1  0  0  0
  5 26  1  0  0  0
  5 96  1  0  0  0
  6 25  1  0  0  0
  6 97  1  0  0  0
  6 98  1  0  0  0
  7  8  2  0  0  0
  7 26  1  0  0  0
  7 29  1  0  0  0
  8  9  1  0  0  0
  8 22  1  0  0  0
  9 10  1  0  0  0
  9 27  2  0  0  0
 10 11  2  0  0  0
 10 15  1  0  0  0
 11 12  1  0  0  0
 11 99  1  0  0  0
 12 13  2  0  0  0
 12100  1  0  0  0
 13 14  1  0  0  0
 13 31  1  0  0  0
 14 15  2  0  0  0
 14101  1  0  0  0
 15102  1  0  0  0
 16 17  2  0  0  0
 16 21  1  0  0  0
 16 31  1  0  0  0
 17 18  1  0  0  0
 17103  1  0  0  0
 18 19  2  0  0  0
 18104  1  0  0  0
 19 20  1  0  0  0
 19 24  1  0  0  0
 20 21  2  0  0  0
 20105  1  0  0  0
 21 23  1  0  0  0
 22 28  1  0  0  0
 22 32  2  0  0  0
 26 27  1  0  0  0
 28106  1  0  0  0
 28107  1  0  0  0
 29108  1  0  0  0
 29109  1  0  0  0
 33 34  1  0  0  0
 33 66  1  0  0  0
 33 70  2  0  0  0
 34 36  1  0  0  0
 34 59  1  0  0  0
 34110  1  0  0  0
 35 44  2  0  0  0
 35 45  1  0  0  0
 35 68  1  0  0  0
 36 56  1  0  0  0
 36111  1  0  0  0
 37 39  1  0  0  0
 37 47  1  0  0  0
 37 66  1  0  0  0
 37112  1  0  0  0
 38 43  2  0  0  0
 38 46  1  0  0  0
 38 47  1  0  0  0
 39 64  1  0  0  0
 39 67  2  0  0  0
 40 52  1  0  0  0
 40 53  2  0  0  0
 40 58  1  0  0  0
 41113  1  0  0  0
 41114  1  0  0  0
 41115  1  0  0  0
 41 48  1  0  0  0
 42 43  1  0  0  0
 42 66  1  0  0  0
 42116  1  0  0  0
 42117  1  0  0  0
 43 44  1  0  0  0
 44118  1  0  0  0
 45 46  2  0  0  0
 45119  1  0  0  0
 46120  1  0  0  0
 47121  1  0  0  0
 47122  1  0  0  0
 48 56  1  0  0  0
 48 65  1  0  0  0
 48123  1  0  0  0
 49 50  1  0  0  0
 49 53  1  0  0  0
 49 64  1  0  0  0
 49124  1  0  0  0
 50 51  1  0  0  0
 50125  1  0  0  0
 50126  1  0  0  0
 51 52  1  0  0  0
 51127  1  0  0  0
 51128  1  0  0  0
 52129  1  0  0  0
 52130  1  0  0  0
 53 54  1  0  0  0
 54 55  2  0  0  0
 54131  1  0  0  0
 55 57  1  0  0  0
 55132  1  0  0  0
 56 69  2  0  0  0
 57 58  2  0  0  0
 57133  1  0  0  0
 58134  1  0  0  0
 59 60  1  0  0  0
 59 61  1  0  0  0
 59 62  1  0  0  0
 60135  1  0  0  0
 60136  1  0  0  0
 60137  1  0  0  0
 61138  1  0  0  0
 61139  1  0  0  0
 61140  1  0  0  0
 62141  1  0  0  0
 62142  1  0  0  0
 62143  1  0  0  0
 63 65  1  0  0  0
 63144  1  0  0  0
 63145  1  0  0  0
 63146  1  0  0  0
 64147  1  0  0  0
 65148  1  0  0  0
 68 84  1  0  0  0
 71 73  2  0  0  0
 71 75  1  0  0  0
 71149  1  0  0  0
 72 74  1  0  0  0
 72 75  2  0  0  0
 72150  1  0  0  0
 73 76  1  0  0  0
 73151  1  0  0  0
 74 76  2  0  0  0
 74152  1  0  0  0
 75 85  1  0  0  0
 76 86  1  0  0  0
 77 79  1  0  0  0
 77 86  1  0  0  0
 77 87  2  0  0  0
 78 80  1  0  0  0
 78 86  1  0  0  0
 78153  1  0  0  0
 78154  1  0  0  0
 79 80  1  0  0  0
 79 83  1  0  0  0
 79155  1  0  0  0
 80 84  1  0  0  0
 80156  1  0  0  0
 81 83  1  0  0  0
 81157  1  0  0  0
 81158  1  0  0  0
 81159  1  0  0  0
 82 88  1  0  0  0
 82160  1  0  0  0
 82161  1  0  0  0
 82162  1  0  0  0
 83163  1  0  0  0
 83164  1  0  0  0
 84165  1  0  0  0
 84166  1  0  0  0
 85 88  1  0  0  0
 85 89  1  0  0  0
M  ISO  4   1 100  68 101  84 101  85 100
M  END
> <chiral flag>
0

> <version>
0

> <s_m_source_file>
/data/baiqing/PycharmProjects/Reinvent-master-3.2/result/LINK_invent/BTK/process_docking_weight1_custom_product_contain_oxygen_bond_distance_aromatic_linkinvent_7_9_3/rearranged_h_0066.sdf

> <i_m_source_file_index>
93

> <r_mmod_Potential_Energy-OPLS-2005>
387.785949707031

> <r_mmod_Stretch_Energy-OPLS-2005>
77.7597808837891

> <r_mmod_Bend_Energy-OPLS-2005>
162.878158569336

> <r_mmod_Torsional_Energy-OPLS-2005>
284.063842773438

> <r_mmod_Improper_Torsional_Energy-OPLS-2005>
14.8528060913086

> <r_mmod_Van_der_Waal_Energy-OPLS-2005>
161.163146972656

> <r_mmod_Electrostatic_Energy-OPLS-2005>
-166.586944580078

> <r_mmod_Solvation_Energy-OPLS-2005>
-195.143569946289

> <b_mmod_Minimization_Converged-OPLS-2005>
0

> <r_mmod_RMS_Derivative-OPLS-2005>
0.744814932346344

$$$$
94
                    3D
 Structure written by MMmdl.
170179  0  0  1  0            999 V2000
  -30.5784  -14.6787   20.4138 C   0  0  0  0  0  0
  -30.4310  -12.3794   19.4816 C   0  0  0  0  0  0
  -29.5188  -12.4290   18.2348 C   0  0  0  0  0  0
  -28.0221  -12.3514   18.6193 C   0  0  0  0  0  0
  -27.6412  -13.2262   19.8486 C   0  0  2  0  0  0
  -28.6834  -13.1024   20.9848 C   0  0  0  0  0  0
  -25.2434  -13.8203   20.5598 C   0  0  0  0  0  0
  -24.1758  -13.0459   20.9231 C   0  0  0  0  0  0
  -24.6402  -11.6936   20.8786 C   0  0  0  0  0  0
  -23.9090  -10.4312   21.0430 C   0  0  0  0  0  0
  -24.3653   -9.4262   21.9225 C   0  0  0  0  0  0
  -23.6352   -8.2291   22.0792 C   0  0  0  0  0  0
  -22.4326   -8.0317   21.3593 C   0  0  0  0  0  0
  -21.9944   -9.0281   20.4695 C   0  0  0  0  0  0
  -22.7267  -10.2152   20.3108 C   0  0  0  0  0  0
  -21.6895   -6.0767   22.5296 C   0  0  0  0  0  0
  -21.4029   -6.5657   23.8231 C   0  0  0  0  0  0
  -21.3667   -5.6792   24.9164 C   0  0  0  0  0  0
  -21.6077   -4.3059   24.7212 C   0  0  0  0  0  0
  -21.8826   -3.8172   23.4322 C   0  0  0  0  0  0
  -21.9199   -4.6995   22.3383 C   0  0  0  0  0  0
  -22.7744  -13.5225   21.1862 C   0  0  0  0  0  0
  -22.1668   -4.2197   21.0958 F   0  0  0  0  0  0
  -21.5623   -3.4556   25.7727 F   0  0  0  0  0  0
  -29.9909  -13.4417   20.4105 N   0  0  0  0  0  0
  -26.2912  -12.9414   20.3255 N   0  0  0  0  0  0
  -25.9325  -11.6569   20.5802 N   0  0  0  0  0  0
  -22.0332  -12.8291   22.0442 N   0  0  0  0  0  0
  -25.3925  -15.1941   20.3864 N   0  0  0  0  0  0
  -31.7651  -14.8055   20.1135 O   0  0  0  0  0  0
  -21.6707   -6.8916   21.4268 O   0  0  0  0  0  0
  -22.3461  -14.5529   20.6663 O   0  0  0  0  0  0
  -24.6242  -31.8603   23.2009 C   0  0  0  0  0  0
  -25.9112  -32.4769   23.8320 C   0  0  1  0  0  0
  -27.2425  -27.3410   20.1441 C   0  0  0  0  0  0
  -25.5947  -33.8570   24.2236 N   0  0  0  0  0  0
  -23.4181  -30.4830   21.5392 C   0  0  2  0  0  0
  -24.8735  -28.9294   20.1187 C   0  0  0  0  0  0
  -22.7468  -29.4648   22.4909 C   0  0  0  0  0  0
  -18.0297  -28.1403   22.8492 C   0  0  0  0  0  0
  -24.1499  -36.7286   23.2638 C   0  0  0  0  0  0
  -25.9572  -30.8000   21.3714 C   0  0  0  0  0  0
  -26.0370  -29.4252   20.7227 C   0  0  0  0  0  0
  -27.2275  -28.6431   20.7238 C   0  0  0  0  0  0
  -26.0605  -26.8802   19.5325 C   0  0  0  0  0  0
  -24.8855  -27.6589   19.5170 C   0  0  0  0  0  0
  -23.6386  -29.8067   20.1591 C   0  0  0  0  0  0
  -25.4122  -36.3056   24.0310 C   0  0  1  0  0  0
  -20.5896  -28.3704   23.1275 C   0  0  2  0  0  0
  -20.6787  -26.9424   22.5408 C   0  0  0  0  0  0
  -19.5755  -26.6381   21.5221 C   0  0  0  0  0  0
  -18.1933  -26.7948   22.1624 C   0  0  0  0  0  0
  -19.1555  -28.8860   23.2884 C   0  0  0  0  0  0
  -18.9485  -30.1457   23.8908 C   0  0  0  0  0  0
  -17.6489  -30.6602   24.0568 C   0  0  0  0  0  0
  -25.9064  -34.9441   23.5047 C   0  0  0  0  0  0
  -16.5373  -29.9107   23.6338 C   0  0  0  0  0  0
  -16.7286  -28.6524   23.0357 C   0  0  0  0  0  0
  -26.4532  -31.6595   25.0684 C   0  0  0  0  0  0
  -25.3780  -31.3751   26.1412 C   0  0  0  0  0  0
  -27.0357  -30.2999   24.6148 C   0  0  0  0  0  0
  -27.6048  -32.4363   25.7492 C   0  0  0  0  0  0
  -27.5575  -37.1790   24.8460 C   0  0  0  0  0  0
  -21.4185  -29.3062   22.3665 N   0  0  0  0  0  0
  -26.4291  -37.3755   23.9397 N   0  0  0  0  0  0
  -24.6834  -31.0652   22.0932 N   0  0  0  0  0  0
  -23.4212  -28.8195   23.2979 O   0  0  0  0  0  0
  -28.3711  -26.5203   20.1044 O   0  0  0  0  0  0
  -26.5639  -34.8917   22.4619 O   0  0  0  0  0  0
  -23.5411  -32.1400   23.7360 O   0  0  0  0  0  0
  -30.4210  -19.0514   21.0339 C   0  0  0  0  0  0
  -30.4669  -20.4445   21.3400 C   0  0  0  0  0  0
  -28.3831  -20.7937   20.2441 C   0  0  0  0  0  0
  -29.3631  -18.4814   20.2966 C   0  0  0  0  0  0
  -28.3188  -19.3989   19.9299 C   0  0  0  0  0  0
  -29.4610  -21.3929   20.9439 C   0  0  0  0  0  0
  -30.2636  -23.3603   22.2613 C   0  0  0  0  0  0
  -29.8196  -24.6329   22.9790 C   0  0  0  0  0  0
  -29.5644  -25.7617   21.9901 C   0  0  0  0  0  0
  -28.7064  -23.8955   20.4353 C   0  0  0  0  0  0
  -28.4495  -25.3719   21.0233 C   0  0  2  0  0  0
  -27.0913  -18.9437   19.1486 C   0  0  0  0  0  0
  -31.4313  -16.8563   17.9912 C   0  0  0  0  0  0
  -29.0568  -16.2142   17.2901 C   0  0  0  0  0  0
  -29.4407  -17.0044   19.7185 C   0  0  1  0  0  0
  -29.9290  -17.0579   18.2338 C   0  0  0  0  0  0
  -29.4806  -22.8597   21.2573 N   0  0  0  0  0  0
  -29.7167  -15.7491   20.5447 N   0  0  0  0  0  0
  -31.3316  -22.8755   22.6420 O   0  0  0  0  0  0
  -31.4774  -12.4838   19.1870 H   0  0  0  0  0  0
  -30.3499  -11.4082   19.9702 H   0  0  0  0  0  0
  -29.7685  -11.6077   17.5612 H   0  0  0  0  0  0
  -29.7356  -13.3311   17.6717 H   0  0  0  0  0  0
  -27.7978  -11.3050   18.8282 H   0  0  0  0  0  0
  -27.3996  -12.6176   17.7621 H   0  0  0  0  0  0
  -27.6432  -14.2599   19.5065 H   0  0  0  0  0  0
  -28.6983  -12.0858   21.3818 H   0  0  0  0  0  0
  -28.4326  -13.7500   21.8271 H   0  0  0  0  0  0
  -25.2799   -9.5806   22.4777 H   0  0  0  0  0  0
  -24.0151   -7.4701   22.7488 H   0  0  0  0  0  0
  -21.0902   -8.8807   19.8968 H   0  0  0  0  0  0
  -22.3776  -10.9704   19.6222 H   0  0  0  0  0  0
  -21.2033   -7.6170   23.9786 H   0  0  0  0  0  0
  -21.1468   -6.0476   25.9078 H   0  0  0  0  0  0
  -22.0588   -2.7656   23.2795 H   0  0  0  0  0  0
  -22.3921  -12.0018   22.4982 H   0  0  0  0  0  0
  -21.0920  -13.1333   22.2537 H   0  0  0  0  0  0
  -24.5845  -15.8000   20.4739 H   0  0  0  0  0  0
  -26.1856  -15.6611   19.9675 H   0  0  0  0  0  0
  -26.7192  -32.5478   23.1091 H   0  0  0  0  0  0
  -25.0096  -33.9702   25.0379 H   0  0  0  0  0  0
  -22.7110  -31.3039   21.3887 H   0  0  0  0  0  0
  -23.3748  -35.9635   23.3294 H   0  0  0  0  0  0
  -24.3586  -36.8921   22.2055 H   0  0  0  0  0  0
  -23.7293  -37.6489   23.6693 H   0  0  0  0  0  0
  -26.0882  -31.5619   20.6028 H   0  0  0  0  0  0
  -26.8373  -30.8533   22.0014 H   0  0  0  0  0  0
  -28.1251  -29.0243   21.1896 H   0  0  0  0  0  0
  -26.0512  -25.9018   19.0753 H   0  0  0  0  0  0
  -23.9911  -27.2674   19.0526 H   0  0  0  0  0  0
  -23.7660  -30.5798   19.4004 H   0  0  0  0  0  0
  -22.7615  -29.2346   19.8494 H   0  0  0  0  0  0
  -25.1320  -36.1864   25.0806 H   0  0  0  0  0  0
  -21.0008  -28.3290   24.1386 H   0  0  0  0  0  0
  -20.5696  -26.2318   23.3613 H   0  0  0  0  0  0
  -21.6650  -26.7453   22.1185 H   0  0  0  0  0  0
  -19.6908  -25.6283   21.1258 H   0  0  0  0  0  0
  -19.6691  -27.3188   20.6750 H   0  0  0  0  0  0
  -17.4199  -26.6719   21.4021 H   0  0  0  0  0  0
  -18.0319  -26.0089   22.9018 H   0  0  0  0  0  0
  -19.7958  -30.7278   24.2282 H   0  0  0  0  0  0
  -17.5043  -31.6295   24.5160 H   0  0  0  0  0  0
  -15.5373  -30.3024   23.7647 H   0  0  0  0  0  0
  -15.8685  -28.0849   22.7069 H   0  0  0  0  0  0
  -24.5947  -30.7118   25.7752 H   0  0  0  0  0  0
  -24.9014  -32.2937   26.4835 H   0  0  0  0  0  0
  -25.8111  -30.8929   27.0187 H   0  0  0  0  0  0
  -26.2904  -29.6757   24.1211 H   0  0  0  0  0  0
  -27.4073  -29.7253   25.4651 H   0  0  0  0  0  0
  -27.8784  -30.4229   23.9339 H   0  0  0  0  0  0
  -27.2579  -33.3627   26.2095 H   0  0  0  0  0  0
  -28.3877  -32.7011   25.0370 H   0  0  0  0  0  0
  -28.0739  -31.8517   26.5420 H   0  0  0  0  0  0
  -28.2570  -38.0105   24.7492 H   0  0  0  0  0  0
  -28.1084  -36.2622   24.6295 H   0  0  0  0  0  0
  -27.2286  -37.1453   25.8863 H   0  0  0  0  0  0
  -20.9364  -29.8791   21.6886 H   0  0  0  0  0  0
  -26.0146  -38.2812   24.1421 H   0  0  0  0  0  0
  -31.2481  -18.4177   21.3254 H   0  0  0  0  0  0
  -31.3530  -20.7402   21.8772 H   0  0  0  0  0  0
  -27.5557  -21.4111   19.9295 H   0  0  0  0  0  0
  -30.5896  -24.9366   23.6916 H   0  0  0  0  0  0
  -28.9263  -24.4098   23.5637 H   0  0  0  0  0  0
  -30.4810  -25.9796   21.4374 H   0  0  0  0  0  0
  -29.3003  -26.6726   22.5274 H   0  0  0  0  0  0
  -29.2551  -23.9986   19.4997 H   0  0  0  0  0  0
  -27.7349  -23.4984   20.1538 H   0  0  0  0  0  0
  -27.5228  -25.3247   21.5984 H   0  0  0  0  0  0
  -26.3208  -19.7153   19.1307 H   0  0  0  0  0  0
  -26.6332  -18.0613   19.5927 H   0  0  0  0  0  0
  -27.3525  -18.7240   18.1132 H   0  0  0  0  0  0
  -31.7650  -17.3665   17.0863 H   0  0  0  0  0  0
  -31.6836  -15.8075   17.8586 H   0  0  0  0  0  0
  -32.0184  -17.2595   18.8157 H   0  0  0  0  0  0
  -29.5031  -16.1160   16.2999 H   0  0  0  0  0  0
  -28.0728  -16.6651   17.1564 H   0  0  0  0  0  0
  -28.8825  -15.2270   17.7029 H   0  0  0  0  0  0
  -28.3834  -16.7915   19.6028 H   0  0  0  0  0  0
  -29.7519  -18.0798   17.8943 H   0  0  0  0  0  0
  -28.8739  -15.4505   21.0116 H   0  0  0  0  0  0
  1 25  1  0  0  0
  1 30  2  0  0  0
  1 88  1  0  0  0
  2  3  1  0  0  0
  2 25  1  0  0  0
  2 90  1  0  0  0
  2 91  1  0  0  0
  3  4  1  0  0  0
  3 92  1  0  0  0
  3 93  1  0  0  0
  4  5  1  0  0  0
  4 94  1  0  0  0
  4 95  1  0  0  0
  5  6  1  0  0  0
  5 26  1  0  0  0
  5 96  1  0  0  0
  6 25  1  0  0  0
  6 97  1  0  0  0
  6 98  1  0  0  0
  7  8  2  0  0  0
  7 26  1  0  0  0
  7 29  1  0  0  0
  8  9  1  0  0  0
  8 22  1  0  0  0
  9 10  1  0  0  0
  9 27  2  0  0  0
 10 11  2  0  0  0
 10 15  1  0  0  0
 11 12  1  0  0  0
 11 99  1  0  0  0
 12 13  2  0  0  0
 12100  1  0  0  0
 13 14  1  0  0  0
 13 31  1  0  0  0
 14 15  2  0  0  0
 14101  1  0  0  0
 15102  1  0  0  0
 16 17  2  0  0  0
 16 21  1  0  0  0
 16 31  1  0  0  0
 17 18  1  0  0  0
 17103  1  0  0  0
 18 19  2  0  0  0
 18104  1  0  0  0
 19 20  1  0  0  0
 19 24  1  0  0  0
 20 21  2  0  0  0
 20105  1  0  0  0
 21 23  1  0  0  0
 22 28  1  0  0  0
 22 32  2  0  0  0
 26 27  1  0  0  0
 28106  1  0  0  0
 28107  1  0  0  0
 29108  1  0  0  0
 29109  1  0  0  0
 33 34  1  0  0  0
 33 66  1  0  0  0
 33 70  2  0  0  0
 34 36  1  0  0  0
 34 59  1  0  0  0
 34110  1  0  0  0
 35 44  2  0  0  0
 35 45  1  0  0  0
 35 68  1  0  0  0
 36 56  1  0  0  0
 36111  1  0  0  0
 37 39  1  0  0  0
 37 47  1  0  0  0
 37 66  1  0  0  0
 37112  1  0  0  0
 38 43  2  0  0  0
 38 46  1  0  0  0
 38 47  1  0  0  0
 39 64  1  0  0  0
 39 67  2  0  0  0
 40 52  1  0  0  0
 40 53  2  0  0  0
 40 58  1  0  0  0
 41113  1  0  0  0
 41114  1  0  0  0
 41115  1  0  0  0
 41 48  1  0  0  0
 42 43  1  0  0  0
 42 66  1  0  0  0
 42116  1  0  0  0
 42117  1  0  0  0
 43 44  1  0  0  0
 44118  1  0  0  0
 45 46  2  0  0  0
 45119  1  0  0  0
 46120  1  0  0  0
 47121  1  0  0  0
 47122  1  0  0  0
 48 56  1  0  0  0
 48 65  1  0  0  0
 48123  1  0  0  0
 49 50  1  0  0  0
 49 53  1  0  0  0
 49 64  1  0  0  0
 49124  1  0  0  0
 50 51  1  0  0  0
 50125  1  0  0  0
 50126  1  0  0  0
 51 52  1  0  0  0
 51127  1  0  0  0
 51128  1  0  0  0
 52129  1  0  0  0
 52130  1  0  0  0
 53 54  1  0  0  0
 54 55  2  0  0  0
 54131  1  0  0  0
 55 57  1  0  0  0
 55132  1  0  0  0
 56 69  2  0  0  0
 57 58  2  0  0  0
 57133  1  0  0  0
 58134  1  0  0  0
 59 60  1  0  0  0
 59 61  1  0  0  0
 59 62  1  0  0  0
 60135  1  0  0  0
 60136  1  0  0  0
 60137  1  0  0  0
 61138  1  0  0  0
 61139  1  0  0  0
 61140  1  0  0  0
 62141  1  0  0  0
 62142  1  0  0  0
 62143  1  0  0  0
 63 65  1  0  0  0
 63144  1  0  0  0
 63145  1  0  0  0
 63146  1  0  0  0
 64147  1  0  0  0
 65148  1  0  0  0
 68 81  1  0  0  0
 71 72  2  0  0  0
 71 74  1  0  0  0
 71149  1  0  0  0
 72 76  1  0  0  0
 72150  1  0  0  0
 73 75  1  0  0  0
 73 76  2  0  0  0
 73151  1  0  0  0
 74 75  2  0  0  0
 74 85  1  0  0  0
 75 82  1  0  0  0
 76 87  1  0  0  0
 77 78  1  0  0  0
 77 87  1  0  0  0
 77 89  2  0  0  0
 78 79  1  0  0  0
 78152  1  0  0  0
 78153  1  0  0  0
 79 81  1  0  0  0
 79154  1  0  0  0
 79155  1  0  0  0
 80 81  1  0  0  0
 80 87  1  0  0  0
 80156  1  0  0  0
 80157  1  0  0  0
 81158  1  0  0  0
 82159  1  0  0  0
 82160  1  0  0  0
 82161  1  0  0  0
 83162  1  0  0  0
 83163  1  0  0  0
 83164  1  0  0  0
 83 86  1  0  0  0
 84 86  1  0  0  0
 84165  1  0  0  0
 84166  1  0  0  0
 84167  1  0  0  0
 85 86  1  0  0  0
 85 88  1  0  0  0
 85168  1  0  0  0
 86169  1  0  0  0
 88170  1  0  0  0
M  ISO  4   1 100  68 101  81 101  88 100
M  END
> <chiral flag>
0

> <version>
0

> <s_m_source_file>
/data/baiqing/PycharmProjects/Reinvent-master-3.2/result/LINK_invent/BTK/process_docking_weight1_custom_product_contain_oxygen_bond_distance_aromatic_linkinvent_7_9_3/rearranged_h_0066.sdf

> <i_m_source_file_index>
94

> <r_mmod_Potential_Energy-OPLS-2005>
221.428512573242

> <r_mmod_Stretch_Energy-OPLS-2005>
106.849685668945

> <r_mmod_Bend_Energy-OPLS-2005>
201.071868896484

> <r_mmod_Torsional_Energy-OPLS-2005>
345.189514160156

> <r_mmod_Improper_Torsional_Energy-OPLS-2005>
9.32196617126465

> <r_mmod_Van_der_Waal_Energy-OPLS-2005>
154.720520019531

> <r_mmod_Electrostatic_Energy-OPLS-2005>
-431.3603515625

> <r_mmod_Solvation_Energy-OPLS-2005>
-218.425750732422

> <b_mmod_Minimization_Converged-OPLS-2005>
0

> <r_mmod_RMS_Derivative-OPLS-2005>
4.33177804946899

$$$$
