0
                    3D
 Structure written by MMmdl.
157165  0  0  1  0            999 V2000
  -30.7055  -14.4307   20.6302 C   0  0  0  0  0  0
  -30.4328  -12.3021   19.4043 C   0  0  0  0  0  0
  -29.4929  -12.5146   18.1988 C   0  0  0  0  0  0
  -28.0157  -12.3707   18.6152 C   0  0  0  0  0  0
  -27.6697  -13.1966   19.8815 C   0  0  2  0  0  0
  -28.7087  -12.9300   20.9932 C   0  0  0  0  0  0
  -25.2629  -13.8147   20.5671 C   0  0  0  0  0  0
  -24.1865  -13.0441   20.9170 C   0  0  0  0  0  0
  -24.6401  -11.6901   20.8742 C   0  0  0  0  0  0
  -23.9058  -10.4294   21.0414 C   0  0  0  0  0  0
  -24.3609   -9.4209   21.9192 C   0  0  0  0  0  0
  -23.6287   -8.2244   22.0756 C   0  0  0  0  0  0
  -22.4272   -8.0283   21.3539 C   0  0  0  0  0  0
  -21.9904   -9.0262   20.4647 C   0  0  0  0  0  0
  -22.7230  -10.2143   20.3062 C   0  0  0  0  0  0
  -21.6849   -6.0746   22.5281 C   0  0  0  0  0  0
  -21.4011   -6.5649   23.8218 C   0  0  0  0  0  0
  -21.3658   -5.6796   24.9179 C   0  0  0  0  0  0
  -21.6042   -4.3058   24.7228 C   0  0  0  0  0  0
  -21.8819   -3.8154   23.4345 C   0  0  0  0  0  0
  -21.9195   -4.6974   22.3400 C   0  0  0  0  0  0
  -22.7888  -13.5249   21.1845 C   0  0  0  0  0  0
  -22.1663   -4.2160   21.0974 F   0  0  0  0  0  0
  -21.5631   -3.4537   25.7741 F   0  0  0  0  0  0
  -30.0491  -13.2506   20.4600 N   0  0  0  0  0  0
  -26.3067  -12.9301   20.3392 N   0  0  0  0  0  0
  -25.9321  -11.6469   20.5766 N   0  0  0  0  0  0
  -22.0521  -12.8249   22.0405 N   0  0  0  0  0  0
  -25.4381  -15.1854   20.4058 N   0  0  0  0  0  0
  -31.7657  -14.7008   20.0572 O   0  0  0  0  0  0
  -21.6630   -6.8882   21.4238 O   0  0  0  0  0  0
  -22.3575  -14.5567   20.6707 O   0  0  0  0  0  0
  -24.6118  -31.8684   23.2111 C   0  0  0  0  0  0
  -25.9023  -32.4828   23.8407 C   0  0  1  0  0  0
  -27.2428  -27.4588   20.0915 C   0  0  0  0  0  0
  -25.5883  -33.8623   24.2339 N   0  0  0  0  0  0
  -23.4006  -30.4889   21.5505 C   0  0  2  0  0  0
  -24.8506  -28.9542   20.1180 C   0  0  0  0  0  0
  -22.7405  -29.4638   22.5001 C   0  0  0  0  0  0
  -18.0268  -28.1361   22.8477 C   0  0  0  0  0  0
  -24.1490  -36.7320   23.2642 C   0  0  0  0  0  0
  -25.9264  -30.8403   21.3605 C   0  0  0  0  0  0
  -26.0087  -29.4748   20.7107 C   0  0  0  0  0  0
  -27.2101  -28.7335   20.6963 C   0  0  0  0  0  0
  -26.0726  -26.9430   19.4984 C   0  0  0  0  0  0
  -24.8754  -27.6842   19.5124 C   0  0  0  0  0  0
  -23.6112  -29.8183   20.1664 C   0  0  0  0  0  0
  -25.4112  -36.3114   24.0346 C   0  0  1  0  0  0
  -20.5852  -28.3640   23.1321 C   0  0  2  0  0  0
  -20.6755  -26.9379   22.5412 C   0  0  0  0  0  0
  -19.5745  -26.6369   21.5198 C   0  0  0  0  0  0
  -18.1922  -26.7905   22.1607 C   0  0  0  0  0  0
  -19.1517  -28.8821   23.2885 C   0  0  0  0  0  0
  -18.9450  -30.1429   23.8894 C   0  0  0  0  0  0
  -17.6452  -30.6568   24.0559 C   0  0  0  0  0  0
  -25.9027  -34.9479   23.5134 C   0  0  0  0  0  0
  -16.5342  -29.9074   23.6321 C   0  0  0  0  0  0
  -16.7259  -28.6490   23.0331 C   0  0  0  0  0  0
  -26.4475  -31.6602   25.0722 C   0  0  0  0  0  0
  -25.3756  -31.3692   26.1477 C   0  0  0  0  0  0
  -27.0294  -30.3056   24.6052 C   0  0  0  0  0  0
  -27.6055  -32.4313   25.7487 C   0  0  0  0  0  0
  -27.5584  -37.1817   24.8473 C   0  0  0  0  0  0
  -21.4134  -29.3018   22.3750 N   0  0  0  0  0  0
  -26.4301  -37.3790   23.9409 N   0  0  0  0  0  0
  -24.6644  -31.0795   22.0999 N   0  0  0  0  0  0
  -23.4183  -28.8175   23.3038 O   0  0  0  0  0  0
  -28.4008  -26.7212   20.0590 O   0  0  0  0  0  0
  -26.5582  -34.8926   22.4692 O   0  0  0  0  0  0
  -23.5315  -32.1441   23.7511 O   0  0  0  0  0  0
  -30.5889  -18.9547   20.7400 C   0  0  0  0  0  0
  -30.7850  -17.5547   20.7001 C   0  0  0  0  0  0
  -28.8439  -18.6543   22.4005 C   0  0  0  0  0  0
  -29.0325  -17.2571   22.3663 C   0  0  0  0  0  0
  -29.6086  -19.5182   21.5915 C   0  0  0  0  0  0
  -30.0036  -16.6892   21.5063 C   0  0  0  0  0  0
  -29.8462  -21.9952   21.1187 C   0  0  0  0  0  0
  -28.1627  -16.3809   23.2541 C   0  0  0  0  0  0
  -29.2806  -23.3408   21.6009 C   0  0  0  0  0  0
  -29.1750  -24.4402   20.5195 C   0  0  0  0  0  0
  -28.4670  -25.7002   21.0553 C   0  0  0  0  0  0
  -29.3182  -20.9097   21.7141 N   0  0  0  0  0  0
  -30.1039  -15.2644   21.4952 N   0  0  0  0  0  0
  -30.7282  -21.9642   20.2583 O   0  0  0  0  0  0
  -31.4742  -12.4204   19.0977 H   0  0  0  0  0  0
  -30.3502  -11.2805   19.7773 H   0  0  0  0  0  0
  -29.7276  -11.7963   17.4120 H   0  0  0  0  0  0
  -29.6581  -13.5040   17.7693 H   0  0  0  0  0  0
  -27.8271  -11.3133   18.8042 H   0  0  0  0  0  0
  -27.3604  -12.6529   17.7906 H   0  0  0  0  0  0
  -27.7298  -14.2508   19.6100 H   0  0  0  0  0  0
  -28.6812  -11.8798   21.2862 H   0  0  0  0  0  0
  -28.4482  -13.4779   21.8990 H   0  0  0  0  0  0
  -25.2758   -9.5690   22.4761 H   0  0  0  0  0  0
  -24.0013   -7.4629   22.7466 H   0  0  0  0  0  0
  -21.0845   -8.8777   19.8939 H   0  0  0  0  0  0
  -22.3694  -10.9688   19.6173 H   0  0  0  0  0  0
  -21.1993   -7.6156   23.9728 H   0  0  0  0  0  0
  -21.1480   -6.0522   25.9085 H   0  0  0  0  0  0
  -22.0598   -2.7616   23.2839 H   0  0  0  0  0  0
  -22.4120  -11.9896   22.4788 H   0  0  0  0  0  0
  -21.1139  -13.1285   22.2612 H   0  0  0  0  0  0
  -24.6721  -15.8430   20.4990 H   0  0  0  0  0  0
  -26.2964  -15.6205   20.0914 H   0  0  0  0  0  0
  -26.7097  -32.5556   23.1180 H   0  0  0  0  0  0
  -25.0070  -33.9798   25.0507 H   0  0  0  0  0  0
  -22.6873  -31.3033   21.4100 H   0  0  0  0  0  0
  -23.3731  -35.9669   23.3322 H   0  0  0  0  0  0
  -24.3592  -36.8912   22.2052 H   0  0  0  0  0  0
  -23.7261  -37.6542   23.6634 H   0  0  0  0  0  0
  -26.0325  -31.6057   20.5907 H   0  0  0  0  0  0
  -26.8165  -30.8990   21.9743 H   0  0  0  0  0  0
  -28.1063  -29.1307   21.1518 H   0  0  0  0  0  0
  -26.0909  -25.9699   19.0272 H   0  0  0  0  0  0
  -23.9848  -27.2753   19.0550 H   0  0  0  0  0  0
  -23.7216  -30.5925   19.4054 H   0  0  0  0  0  0
  -22.7370  -29.2370   19.8685 H   0  0  0  0  0  0
  -25.1279  -36.1990   25.0837 H   0  0  0  0  0  0
  -20.9938  -28.3191   24.1443 H   0  0  0  0  0  0
  -20.5651  -26.2246   23.3590 H   0  0  0  0  0  0
  -21.6633  -26.7426   22.1215 H   0  0  0  0  0  0
  -19.6911  -25.6286   21.1215 H   0  0  0  0  0  0
  -19.6691  -27.3186   20.6732 H   0  0  0  0  0  0
  -17.4196  -26.6641   21.4005 H   0  0  0  0  0  0
  -18.0323  -26.0042   22.9000 H   0  0  0  0  0  0
  -19.7933  -30.7222   24.2274 H   0  0  0  0  0  0
  -17.5020  -31.6254   24.5147 H   0  0  0  0  0  0
  -15.5348  -30.2969   23.7653 H   0  0  0  0  0  0
  -15.8656  -28.0819   22.7036 H   0  0  0  0  0  0
  -24.5930  -30.7038   25.7823 H   0  0  0  0  0  0
  -24.8952  -32.2840   26.4948 H   0  0  0  0  0  0
  -25.8130  -30.8854   27.0224 H   0  0  0  0  0  0
  -26.2818  -29.6821   24.1135 H   0  0  0  0  0  0
  -27.4123  -29.7280   25.4477 H   0  0  0  0  0  0
  -27.8623  -30.4394   23.9149 H   0  0  0  0  0  0
  -27.2678  -33.3600   26.2103 H   0  0  0  0  0  0
  -28.3848  -32.6905   25.0306 H   0  0  0  0  0  0
  -28.0738  -31.8417   26.5377 H   0  0  0  0  0  0
  -28.2611  -38.0102   24.7486 H   0  0  0  0  0  0
  -28.1062  -36.2628   24.6321 H   0  0  0  0  0  0
  -27.2299  -37.1504   25.8877 H   0  0  0  0  0  0
  -20.9289  -29.8771   21.7001 H   0  0  0  0  0  0
  -26.0186  -38.2871   24.1382 H   0  0  0  0  0  0
  -31.2032  -19.5741   20.1041 H   0  0  0  0  0  0
  -31.5399  -17.1672   20.0315 H   0  0  0  0  0  0
  -28.0927  -19.0686   23.0594 H   0  0  0  0  0  0
  -27.5978  -16.9759   23.9709 H   0  0  0  0  0  0
  -28.7692  -15.6759   23.8238 H   0  0  0  0  0  0
  -27.4504  -15.8195   22.6488 H   0  0  0  0  0  0
  -29.9038  -23.6953   22.4230 H   0  0  0  0  0  0
  -28.2892  -23.1705   22.0232 H   0  0  0  0  0  0
  -28.6295  -24.0575   19.6570 H   0  0  0  0  0  0
  -30.1723  -24.7050   20.1650 H   0  0  0  0  0  0
  -27.4752  -25.4283   21.4235 H   0  0  0  0  0  0
  -29.0138  -26.0986   21.9114 H   0  0  0  0  0  0
  -28.5893  -21.1296   22.3793 H   0  0  0  0  0  0
  -29.3875  -14.8015   22.0313 H   0  0  0  0  0  0
  1 25  1  0  0  0
  1 30  2  0  0  0
  1 83  1  0  0  0
  2  3  1  0  0  0
  2 25  1  0  0  0
  2 85  1  0  0  0
  2 86  1  0  0  0
  3  4  1  0  0  0
  3 87  1  0  0  0
  3 88  1  0  0  0
  4  5  1  0  0  0
  4 89  1  0  0  0
  4 90  1  0  0  0
  5  6  1  0  0  0
  5 26  1  0  0  0
  5 91  1  0  0  0
  6 25  1  0  0  0
  6 92  1  0  0  0
  6 93  1  0  0  0
  7  8  2  0  0  0
  7 26  1  0  0  0
  7 29  1  0  0  0
  8  9  1  0  0  0
  8 22  1  0  0  0
  9 10  1  0  0  0
  9 27  2  0  0  0
 10 11  2  0  0  0
 10 15  1  0  0  0
 11 12  1  0  0  0
 11 94  1  0  0  0
 12 13  2  0  0  0
 12 95  1  0  0  0
 13 14  1  0  0  0
 13 31  1  0  0  0
 14 15  2  0  0  0
 14 96  1  0  0  0
 15 97  1  0  0  0
 16 17  2  0  0  0
 16 21  1  0  0  0
 16 31  1  0  0  0
 17 18  1  0  0  0
 17 98  1  0  0  0
 18 19  2  0  0  0
 18 99  1  0  0  0
 19 20  1  0  0  0
 19 24  1  0  0  0
 20 21  2  0  0  0
 20100  1  0  0  0
 21 23  1  0  0  0
 22 28  1  0  0  0
 22 32  2  0  0  0
 26 27  1  0  0  0
 28101  1  0  0  0
 28102  1  0  0  0
 29103  1  0  0  0
 29104  1  0  0  0
 33 34  1  0  0  0
 33 66  1  0  0  0
 33 70  2  0  0  0
 34 36  1  0  0  0
 34 59  1  0  0  0
 34105  1  0  0  0
 35 44  2  0  0  0
 35 45  1  0  0  0
 35 68  1  0  0  0
 36 56  1  0  0  0
 36106  1  0  0  0
 37 39  1  0  0  0
 37 47  1  0  0  0
 37 66  1  0  0  0
 37107  1  0  0  0
 38 43  2  0  0  0
 38 46  1  0  0  0
 38 47  1  0  0  0
 39 64  1  0  0  0
 39 67  2  0  0  0
 40 52  1  0  0  0
 40 53  2  0  0  0
 40 58  1  0  0  0
 41108  1  0  0  0
 41109  1  0  0  0
 41110  1  0  0  0
 41 48  1  0  0  0
 42 43  1  0  0  0
 42 66  1  0  0  0
 42111  1  0  0  0
 42112  1  0  0  0
 43 44  1  0  0  0
 44113  1  0  0  0
 45 46  2  0  0  0
 45114  1  0  0  0
 46115  1  0  0  0
 47116  1  0  0  0
 47117  1  0  0  0
 48 56  1  0  0  0
 48 65  1  0  0  0
 48118  1  0  0  0
 49 50  1  0  0  0
 49 53  1  0  0  0
 49 64  1  0  0  0
 49119  1  0  0  0
 50 51  1  0  0  0
 50120  1  0  0  0
 50121  1  0  0  0
 51 52  1  0  0  0
 51122  1  0  0  0
 51123  1  0  0  0
 52124  1  0  0  0
 52125  1  0  0  0
 53 54  1  0  0  0
 54 55  2  0  0  0
 54126  1  0  0  0
 55 57  1  0  0  0
 55127  1  0  0  0
 56 69  2  0  0  0
 57 58  2  0  0  0
 57128  1  0  0  0
 58129  1  0  0  0
 59 60  1  0  0  0
 59 61  1  0  0  0
 59 62  1  0  0  0
 60130  1  0  0  0
 60131  1  0  0  0
 60132  1  0  0  0
 61133  1  0  0  0
 61134  1  0  0  0
 61135  1  0  0  0
 62136  1  0  0  0
 62137  1  0  0  0
 62138  1  0  0  0
 63 65  1  0  0  0
 63139  1  0  0  0
 63140  1  0  0  0
 63141  1  0  0  0
 64142  1  0  0  0
 65143  1  0  0  0
 68 81  1  0  0  0
 71 72  2  0  0  0
 71 75  1  0  0  0
 71144  1  0  0  0
 72 76  1  0  0  0
 72145  1  0  0  0
 73 74  1  0  0  0
 73 75  2  0  0  0
 73146  1  0  0  0
 74 76  2  0  0  0
 74 78  1  0  0  0
 75 82  1  0  0  0
 76 83  1  0  0  0
 77 79  1  0  0  0
 77 82  1  0  0  0
 77 84  2  0  0  0
 78147  1  0  0  0
 78148  1  0  0  0
 78149  1  0  0  0
 79 80  1  0  0  0
 79150  1  0  0  0
 79151  1  0  0  0
 80 81  1  0  0  0
 80152  1  0  0  0
 80153  1  0  0  0
 81154  1  0  0  0
 81155  1  0  0  0
 82156  1  0  0  0
 83157  1  0  0  0
M  ISO  4   1 100  68 101  81 101  83 100
M  END
> <chiral flag>
0

> <version>
0

> <s_m_source_file>
/data/baiqing/PycharmProjects/Reinvent-master-3.2/result/LINK_invent/BTK/process_docking_weight1_custom_product_contain_oxygen_bond_distance_aromatic_linkinvent_7_9_3/rearranged_h_0140.sdf

> <i_m_source_file_index>
1

> <r_mmod_Potential_Energy-OPLS-2005>
-134.291076660156

> <r_mmod_Stretch_Energy-OPLS-2005>
35.2629165649414

> <r_mmod_Bend_Energy-OPLS-2005>
110.055206298828

> <r_mmod_Torsional_Energy-OPLS-2005>
241.514938354492

> <r_mmod_Improper_Torsional_Energy-OPLS-2005>
3.20406198501587

> <r_mmod_Van_der_Waal_Energy-OPLS-2005>
153.153839111328

> <r_mmod_Electrostatic_Energy-OPLS-2005>
-455.531127929688

> <r_mmod_Solvation_Energy-OPLS-2005>
-230.141021728516

> <b_mmod_Minimization_Converged-OPLS-2005>
0

> <r_mmod_RMS_Derivative-OPLS-2005>
1.63275563716888

$$$$
1
                    3D
 Structure written by MMmdl.
168177  0  0  1  0            999 V2000
  -30.7029  -14.5082   20.5215 C   0  0  0  0  0  0
  -30.4137  -12.3140   19.4432 C   0  0  0  0  0  0
  -29.4951  -12.4951   18.2170 C   0  0  0  0  0  0
  -28.0166  -12.3585   18.6277 C   0  0  0  0  0  0
  -27.6562  -13.2161   19.8710 C   0  0  2  0  0  0
  -28.6989  -13.0439   21.0000 C   0  0  0  0  0  0
  -25.2557  -13.8181   20.5689 C   0  0  0  0  0  0
  -24.1821  -13.0445   20.9184 C   0  0  0  0  0  0
  -24.6391  -11.6917   20.8742 C   0  0  0  0  0  0
  -23.9063  -10.4297   21.0405 C   0  0  0  0  0  0
  -24.3613   -9.4211   21.9183 C   0  0  0  0  0  0
  -23.6291   -8.2244   22.0754 C   0  0  0  0  0  0
  -22.4273   -8.0283   21.3544 C   0  0  0  0  0  0
  -21.9908   -9.0255   20.4644 C   0  0  0  0  0  0
  -22.7234  -10.2134   20.3053 C   0  0  0  0  0  0
  -21.6853   -6.0734   22.5278 C   0  0  0  0  0  0
  -21.4013   -6.5638   23.8211 C   0  0  0  0  0  0
  -21.3658   -5.6791   24.9173 C   0  0  0  0  0  0
  -21.6046   -4.3054   24.7225 C   0  0  0  0  0  0
  -21.8820   -3.8145   23.4345 C   0  0  0  0  0  0
  -21.9193   -4.6962   22.3401 C   0  0  0  0  0  0
  -22.7841  -13.5232   21.1848 C   0  0  0  0  0  0
  -22.1662   -4.2147   21.0980 F   0  0  0  0  0  0
  -21.5629   -3.4540   25.7738 F   0  0  0  0  0  0
  -30.0256  -13.3303   20.4366 N   0  0  0  0  0  0
  -26.2999  -12.9369   20.3362 N   0  0  0  0  0  0
  -25.9323  -11.6521   20.5779 N   0  0  0  0  0  0
  -22.0486  -12.8222   22.0402 N   0  0  0  0  0  0
  -25.4267  -15.1903   20.4102 N   0  0  0  0  0  0
  -31.8572  -14.6310   20.1042 O   0  0  0  0  0  0
  -21.6639   -6.8879   21.4240 O   0  0  0  0  0  0
  -22.3526  -14.5541   20.6704 O   0  0  0  0  0  0
  -24.6176  -31.8662   23.2081 C   0  0  0  0  0  0
  -25.9059  -32.4810   23.8388 C   0  0  1  0  0  0
  -27.2266  -27.3968   20.1030 C   0  0  0  0  0  0
  -25.5904  -33.8609   24.2321 N   0  0  0  0  0  0
  -23.4068  -30.4905   21.5498 C   0  0  2  0  0  0
  -24.8519  -28.9552   20.1115 C   0  0  0  0  0  0
  -22.7431  -29.4653   22.4979 C   0  0  0  0  0  0
  -18.0276  -28.1382   22.8494 C   0  0  0  0  0  0
  -24.1480  -36.7308   23.2640 C   0  0  0  0  0  0
  -25.9393  -30.8210   21.3664 C   0  0  0  0  0  0
  -26.0145  -29.4532   20.7123 C   0  0  0  0  0  0
  -27.2037  -28.6818   20.7042 C   0  0  0  0  0  0
  -26.0440  -26.9308   19.4808 C   0  0  0  0  0  0
  -24.8638  -27.6964   19.4904 C   0  0  0  0  0  0
  -23.6158  -29.8254   20.1637 C   0  0  0  0  0  0
  -25.4102  -36.3106   24.0340 C   0  0  1  0  0  0
  -20.5871  -28.3676   23.1313 C   0  0  2  0  0  0
  -20.6765  -26.9410   22.5420 C   0  0  0  0  0  0
  -19.5744  -26.6391   21.5217 C   0  0  0  0  0  0
  -18.1919  -26.7929   22.1623 C   0  0  0  0  0  0
  -19.1526  -28.8844   23.2899 C   0  0  0  0  0  0
  -18.9453  -30.1446   23.8916 C   0  0  0  0  0  0
  -17.6456  -30.6588   24.0571 C   0  0  0  0  0  0
  -25.9040  -34.9469   23.5131 C   0  0  0  0  0  0
  -16.5346  -29.9095   23.6325 C   0  0  0  0  0  0
  -16.7264  -28.6508   23.0354 C   0  0  0  0  0  0
  -26.4472  -31.6591   25.0726 C   0  0  0  0  0  0
  -25.3729  -31.3707   26.1472 C   0  0  0  0  0  0
  -27.0293  -30.3024   24.6116 C   0  0  0  0  0  0
  -27.6065  -32.4297   25.7477 C   0  0  0  0  0  0
  -27.5577  -37.1805   24.8464 C   0  0  0  0  0  0
  -21.4154  -29.3038   22.3718 N   0  0  0  0  0  0
  -26.4287  -37.3791   23.9413 N   0  0  0  0  0  0
  -24.6729  -31.0740   22.0994 N   0  0  0  0  0  0
  -23.4189  -28.8197   23.3032 O   0  0  0  0  0  0
  -28.3805  -26.6283   20.1489 O   0  0  0  0  0  0
  -26.5612  -34.8922   22.4700 O   0  0  0  0  0  0
  -23.5364  -32.1433   23.7460 O   0  0  0  0  0  0
  -29.2048  -19.2713   23.2793 C   0  0  0  0  0  0
  -28.8753  -20.4518   22.5944 C   0  0  0  0  0  0
  -29.6439  -18.1441   22.5679 C   0  0  0  0  0  0
  -29.3269  -19.3525   20.4505 C   0  0  0  0  0  0
  -28.9375  -20.5248   21.1853 C   0  0  0  0  0  0
  -29.7371  -18.1720   21.1623 C   0  0  0  0  0  0
  -29.3644  -24.3853   20.6303 C   0  0  0  0  0  0
  -28.0947  -19.6966   18.1310 C   0  0  0  0  0  0
  -28.6277  -18.2945   18.1291 C   0  0  0  0  0  0
  -29.3358  -19.3657   18.9400 C   0  0  0  0  0  0
  -31.0446  -22.4862   20.8175 C   0  0  0  0  0  0
  -29.9129  -22.9192   18.6447 C   0  0  0  0  0  0
  -28.5507  -21.8894   20.5444 C   0  0  0  0  0  0
  -30.4291  -16.9684   20.4865 C   0  0  0  0  0  0
  -28.2504  -25.1985   19.9203 C   0  0  0  0  0  0
  -29.6965  -22.9137   20.1766 C   0  0  0  0  0  0
  -29.9880  -15.6052   20.8584 N   0  0  0  0  0  0
  -29.9824  -24.9064   21.5661 O   0  0  0  0  0  0
  -31.4610  -12.3911   19.1460 H   0  0  0  0  0  0
  -30.2983  -11.3143   19.8649 H   0  0  0  0  0  0
  -29.7387  -11.7587   17.4500 H   0  0  0  0  0  0
  -29.6640  -13.4745   17.7666 H   0  0  0  0  0  0
  -27.8310  -11.3047   18.8387 H   0  0  0  0  0  0
  -27.3670  -12.6184   17.7909 H   0  0  0  0  0  0
  -27.6866  -14.2568   19.5482 H   0  0  0  0  0  0
  -28.6764  -12.0251   21.3903 H   0  0  0  0  0  0
  -28.4699  -13.6938   21.8459 H   0  0  0  0  0  0
  -25.2757   -9.5689   22.4758 H   0  0  0  0  0  0
  -24.0001   -7.4638   22.7475 H   0  0  0  0  0  0
  -21.0839   -8.8771   19.8949 H   0  0  0  0  0  0
  -22.3692  -10.9673   19.6162 H   0  0  0  0  0  0
  -21.2006   -7.6146   23.9714 H   0  0  0  0  0  0
  -21.1480   -6.0521   25.9076 H   0  0  0  0  0  0
  -22.0600   -2.7608   23.2847 H   0  0  0  0  0  0
  -22.4103  -11.9874   22.4774 H   0  0  0  0  0  0
  -21.1105  -13.1244   22.2617 H   0  0  0  0  0  0
  -24.6611  -15.8457   20.5225 H   0  0  0  0  0  0
  -26.2814  -15.6317   20.0957 H   0  0  0  0  0  0
  -26.7132  -32.5508   23.1154 H   0  0  0  0  0  0
  -25.0017  -33.9759   25.0439 H   0  0  0  0  0  0
  -22.6966  -31.3083   21.4110 H   0  0  0  0  0  0
  -23.3746  -35.9635   23.3289 H   0  0  0  0  0  0
  -24.3573  -36.8940   22.2056 H   0  0  0  0  0  0
  -23.7219  -37.6502   23.6664 H   0  0  0  0  0  0
  -26.0556  -31.5845   20.5962 H   0  0  0  0  0  0
  -26.8263  -30.8743   21.9860 H   0  0  0  0  0  0
  -28.0979  -29.0580   21.1814 H   0  0  0  0  0  0
  -26.0079  -25.9738   18.9813 H   0  0  0  0  0  0
  -23.9717  -27.3119   19.0151 H   0  0  0  0  0  0
  -23.7248  -30.6009   19.4048 H   0  0  0  0  0  0
  -22.7387  -29.2467   19.8687 H   0  0  0  0  0  0
  -25.1274  -36.1972   25.0833 H   0  0  0  0  0  0
  -20.9959  -28.3253   24.1438 H   0  0  0  0  0  0
  -20.5665  -26.2288   23.3611 H   0  0  0  0  0  0
  -21.6635  -26.7451   22.1216 H   0  0  0  0  0  0
  -19.6906  -25.6307   21.1233 H   0  0  0  0  0  0
  -19.6684  -27.3214   20.6756 H   0  0  0  0  0  0
  -17.4192  -26.6685   21.4021 H   0  0  0  0  0  0
  -18.0311  -26.0065   22.9013 H   0  0  0  0  0  0
  -19.7930  -30.7252   24.2301 H   0  0  0  0  0  0
  -17.5013  -31.6270   24.5175 H   0  0  0  0  0  0
  -15.5348  -30.3007   23.7635 H   0  0  0  0  0  0
  -15.8660  -28.0833   22.7069 H   0  0  0  0  0  0
  -24.5905  -30.7058   25.7797 H   0  0  0  0  0  0
  -24.8921  -32.2866   26.4920 H   0  0  0  0  0  0
  -25.8075  -30.8868   27.0229 H   0  0  0  0  0  0
  -26.2837  -29.6787   24.1172 H   0  0  0  0  0  0
  -27.4048  -29.7262   25.4581 H   0  0  0  0  0  0
  -27.8681  -30.4322   23.9274 H   0  0  0  0  0  0
  -27.2726  -33.3620   26.2040 H   0  0  0  0  0  0
  -28.3881  -32.6809   25.0295 H   0  0  0  0  0  0
  -28.0715  -31.8414   26.5395 H   0  0  0  0  0  0
  -28.2603  -38.0094   24.7512 H   0  0  0  0  0  0
  -28.1064  -36.2629   24.6286 H   0  0  0  0  0  0
  -27.2298  -37.1460   25.8867 H   0  0  0  0  0  0
  -20.9322  -29.8753   21.6930 H   0  0  0  0  0  0
  -26.0178  -38.2870   24.1417 H   0  0  0  0  0  0
  -29.1519  -19.2417   24.3588 H   0  0  0  0  0  0
  -28.5712  -21.3166   23.1691 H   0  0  0  0  0  0
  -29.9532  -17.2628   23.1132 H   0  0  0  0  0  0
  -27.1519  -19.8475   18.6538 H   0  0  0  0  0  0
  -28.2226  -20.2750   17.2181 H   0  0  0  0  0  0
  -29.1052  -17.9512   17.2134 H   0  0  0  0  0  0
  -28.0463  -17.5446   18.6629 H   0  0  0  0  0  0
  -30.3006  -19.7012   18.5645 H   0  0  0  0  0  0
  -31.8409  -23.1975   20.5930 H   0  0  0  0  0  0
  -31.3797  -21.5155   20.4511 H   0  0  0  0  0  0
  -30.9690  -22.4155   21.9035 H   0  0  0  0  0  0
  -30.5931  -23.7145   18.3353 H   0  0  0  0  0  0
  -28.9816  -23.0523   18.0938 H   0  0  0  0  0  0
  -30.3494  -21.9837   18.2998 H   0  0  0  0  0  0
  -27.8744  -22.3721   21.2522 H   0  0  0  0  0  0
  -27.9061  -21.7257   19.6861 H   0  0  0  0  0  0
  -31.4827  -17.0678   20.7540 H   0  0  0  0  0  0
  -30.4226  -17.0396   19.4020 H   0  0  0  0  0  0
  -27.3037  -24.8292   20.3148 H   0  0  0  0  0  0
  -28.2612  -25.0081   18.8484 H   0  0  0  0  0  0
  -29.0365  -15.4801   21.1664 H   0  0  0  0  0  0
  1 25  1  0  0  0
  1 30  2  0  0  0
  1 87  1  0  0  0
  2  3  1  0  0  0
  2 25  1  0  0  0
  2 89  1  0  0  0
  2 90  1  0  0  0
  3  4  1  0  0  0
  3 91  1  0  0  0
  3 92  1  0  0  0
  4  5  1  0  0  0
  4 93  1  0  0  0
  4 94  1  0  0  0
  5  6  1  0  0  0
  5 26  1  0  0  0
  5 95  1  0  0  0
  6 25  1  0  0  0
  6 96  1  0  0  0
  6 97  1  0  0  0
  7  8  2  0  0  0
  7 26  1  0  0  0
  7 29  1  0  0  0
  8  9  1  0  0  0
  8 22  1  0  0  0
  9 10  1  0  0  0
  9 27  2  0  0  0
 10 11  2  0  0  0
 10 15  1  0  0  0
 11 12  1  0  0  0
 11 98  1  0  0  0
 12 13  2  0  0  0
 12 99  1  0  0  0
 13 14  1  0  0  0
 13 31  1  0  0  0
 14 15  2  0  0  0
 14100  1  0  0  0
 15101  1  0  0  0
 16 17  2  0  0  0
 16 21  1  0  0  0
 16 31  1  0  0  0
 17 18  1  0  0  0
 17102  1  0  0  0
 18 19  2  0  0  0
 18103  1  0  0  0
 19 20  1  0  0  0
 19 24  1  0  0  0
 20 21  2  0  0  0
 20104  1  0  0  0
 21 23  1  0  0  0
 22 28  1  0  0  0
 22 32  2  0  0  0
 26 27  1  0  0  0
 28105  1  0  0  0
 28106  1  0  0  0
 29107  1  0  0  0
 29108  1  0  0  0
 33 34  1  0  0  0
 33 66  1  0  0  0
 33 70  2  0  0  0
 34 36  1  0  0  0
 34 59  1  0  0  0
 34109  1  0  0  0
 35 44  2  0  0  0
 35 45  1  0  0  0
 35 68  1  0  0  0
 36 56  1  0  0  0
 36110  1  0  0  0
 37 39  1  0  0  0
 37 47  1  0  0  0
 37 66  1  0  0  0
 37111  1  0  0  0
 38 43  2  0  0  0
 38 46  1  0  0  0
 38 47  1  0  0  0
 39 64  1  0  0  0
 39 67  2  0  0  0
 40 52  1  0  0  0
 40 53  2  0  0  0
 40 58  1  0  0  0
 41112  1  0  0  0
 41113  1  0  0  0
 41114  1  0  0  0
 41 48  1  0  0  0
 42 43  1  0  0  0
 42 66  1  0  0  0
 42115  1  0  0  0
 42116  1  0  0  0
 43 44  1  0  0  0
 44117  1  0  0  0
 45 46  2  0  0  0
 45118  1  0  0  0
 46119  1  0  0  0
 47120  1  0  0  0
 47121  1  0  0  0
 48 56  1  0  0  0
 48 65  1  0  0  0
 48122  1  0  0  0
 49 50  1  0  0  0
 49 53  1  0  0  0
 49 64  1  0  0  0
 49123  1  0  0  0
 50 51  1  0  0  0
 50124  1  0  0  0
 50125  1  0  0  0
 51 52  1  0  0  0
 51126  1  0  0  0
 51127  1  0  0  0
 52128  1  0  0  0
 52129  1  0  0  0
 53 54  1  0  0  0
 54 55  2  0  0  0
 54130  1  0  0  0
 55 57  1  0  0  0
 55131  1  0  0  0
 56 69  2  0  0  0
 57 58  2  0  0  0
 57132  1  0  0  0
 58133  1  0  0  0
 59 60  1  0  0  0
 59 61  1  0  0  0
 59 62  1  0  0  0
 60134  1  0  0  0
 60135  1  0  0  0
 60136  1  0  0  0
 61137  1  0  0  0
 61138  1  0  0  0
 61139  1  0  0  0
 62140  1  0  0  0
 62141  1  0  0  0
 62142  1  0  0  0
 63 65  1  0  0  0
 63143  1  0  0  0
 63144  1  0  0  0
 63145  1  0  0  0
 64146  1  0  0  0
 65147  1  0  0  0
 68 85  1  0  0  0
 71 72  2  0  0  0
 71 73  1  0  0  0
 71148  1  0  0  0
 72 75  1  0  0  0
 72149  1  0  0  0
 73 76  2  0  0  0
 73150  1  0  0  0
 74 75  2  0  0  0
 74 76  1  0  0  0
 74 80  1  0  0  0
 75 83  1  0  0  0
 76 84  1  0  0  0
 77 85  1  0  0  0
 77 86  1  0  0  0
 77 88  2  0  0  0
 78 79  1  0  0  0
 78 80  1  0  0  0
 78151  1  0  0  0
 78152  1  0  0  0
 79 80  1  0  0  0
 79153  1  0  0  0
 79154  1  0  0  0
 80155  1  0  0  0
 81156  1  0  0  0
 81157  1  0  0  0
 81158  1  0  0  0
 81 86  1  0  0  0
 82 86  1  0  0  0
 82159  1  0  0  0
 82160  1  0  0  0
 82161  1  0  0  0
 83 86  1  0  0  0
 83162  1  0  0  0
 83163  1  0  0  0
 84 87  1  0  0  0
 84164  1  0  0  0
 84165  1  0  0  0
 85166  1  0  0  0
 85167  1  0  0  0
 87168  1  0  0  0
M  ISO  4   1 100  68 101  85 101  87 100
M  END
> <chiral flag>
0

> <version>
0

> <s_m_source_file>
/data/baiqing/PycharmProjects/Reinvent-master-3.2/result/LINK_invent/BTK/process_docking_weight1_custom_product_contain_oxygen_bond_distance_aromatic_linkinvent_7_9_3/rearranged_h_0140.sdf

> <i_m_source_file_index>
2

> <r_mmod_Potential_Energy-OPLS-2005>
5.98671913146973

> <r_mmod_Stretch_Energy-OPLS-2005>
55.9606323242188

> <r_mmod_Bend_Energy-OPLS-2005>
113.251350402832

> <r_mmod_Torsional_Energy-OPLS-2005>
248.107131958008

> <r_mmod_Improper_Torsional_Energy-OPLS-2005>
6.40944814682007

> <r_mmod_Van_der_Waal_Energy-OPLS-2005>
159.582748413086

> <r_mmod_Electrostatic_Energy-OPLS-2005>
-378.432708740234

> <r_mmod_Solvation_Energy-OPLS-2005>
-220.029525756836

> <b_mmod_Minimization_Converged-OPLS-2005>
0

> <r_mmod_RMS_Derivative-OPLS-2005>
0.687824368476868

$$$$
2
                    3D
 Structure written by MMmdl.
168176  0  0  1  0            999 V2000
  -30.5353  -14.7354   20.4720 C   0  0  0  0  0  0
  -30.4630  -12.4548   19.4468 C   0  0  0  0  0  0
  -29.5165  -12.4888   18.2239 C   0  0  0  0  0  0
  -28.0404  -12.2986   18.6460 C   0  0  0  0  0  0
  -27.6440  -13.2016   19.8424 C   0  0  2  0  0  0
  -28.6911  -13.0877   20.9682 C   0  0  0  0  0  0
  -25.2564  -13.8125   20.5675 C   0  0  0  0  0  0
  -24.1808  -13.0436   20.9209 C   0  0  0  0  0  0
  -24.6352  -11.6895   20.8761 C   0  0  0  0  0  0
  -23.9039  -10.4293   21.0442 C   0  0  0  0  0  0
  -24.3600   -9.4206   21.9215 C   0  0  0  0  0  0
  -23.6287   -8.2242   22.0761 C   0  0  0  0  0  0
  -22.4267   -8.0284   21.3555 C   0  0  0  0  0  0
  -21.9912   -9.0248   20.4655 C   0  0  0  0  0  0
  -22.7236  -10.2136   20.3073 C   0  0  0  0  0  0
  -21.6843   -6.0755   22.5290 C   0  0  0  0  0  0
  -21.4001   -6.5652   23.8226 C   0  0  0  0  0  0
  -21.3656   -5.6796   24.9188 C   0  0  0  0  0  0
  -21.6037   -4.3055   24.7210 C   0  0  0  0  0  0
  -21.8825   -3.8170   23.4333 C   0  0  0  0  0  0
  -21.9184   -4.6999   22.3407 C   0  0  0  0  0  0
  -22.7843  -13.5259   21.1880 C   0  0  0  0  0  0
  -22.1658   -4.2191   21.0969 F   0  0  0  0  0  0
  -21.5635   -3.4525   25.7722 F   0  0  0  0  0  0
  -29.9869  -13.4780   20.3974 N   0  0  0  0  0  0
  -26.2936  -12.9264   20.3230 N   0  0  0  0  0  0
  -25.9259  -11.6466   20.5738 N   0  0  0  0  0  0
  -22.0448  -12.8255   22.0412 N   0  0  0  0  0  0
  -25.4317  -15.1854   20.4108 N   0  0  0  0  0  0
  -31.7348  -14.9154   20.2332 O   0  0  0  0  0  0
  -21.6624   -6.8885   21.4254 O   0  0  0  0  0  0
  -22.3578  -14.5583   20.6742 O   0  0  0  0  0  0
  -24.6273  -31.8512   23.1869 C   0  0  0  0  0  0
  -25.9142  -32.4691   23.8206 C   0  0  1  0  0  0
  -27.2495  -27.2791   20.1227 C   0  0  0  0  0  0
  -25.5954  -33.8482   24.2135 N   0  0  0  0  0  0
  -23.4224  -30.4755   21.5176 C   0  0  2  0  0  0
  -24.8810  -28.9094   20.1008 C   0  0  0  0  0  0
  -22.7478  -29.4627   22.4736 C   0  0  0  0  0  0
  -18.0313  -28.1390   22.8471 C   0  0  0  0  0  0
  -24.1517  -36.7274   23.2658 C   0  0  0  0  0  0
  -25.9690  -30.7693   21.3644 C   0  0  0  0  0  0
  -26.0468  -29.3909   20.7111 C   0  0  0  0  0  0
  -27.2276  -28.5870   20.7056 C   0  0  0  0  0  0
  -26.0558  -26.8443   19.5030 C   0  0  0  0  0  0
  -24.8927  -27.6467   19.4866 C   0  0  0  0  0  0
  -23.6488  -29.7966   20.1363 C   0  0  0  0  0  0
  -25.4130  -36.2986   24.0305 C   0  0  1  0  0  0
  -20.5924  -28.3722   23.1189 C   0  0  2  0  0  0
  -20.6793  -26.9421   22.5359 C   0  0  0  0  0  0
  -19.5780  -26.6359   21.5190 C   0  0  0  0  0  0
  -18.1965  -26.7938   22.1595 C   0  0  0  0  0  0
  -19.1572  -28.8867   23.2863 C   0  0  0  0  0  0
  -18.9534  -30.1455   23.8918 C   0  0  0  0  0  0
  -17.6531  -30.6589   24.0616 C   0  0  0  0  0  0
  -25.9063  -34.9384   23.5006 C   0  0  0  0  0  0
  -16.5421  -29.9088   23.6356 C   0  0  0  0  0  0
  -16.7311  -28.6507   23.0344 C   0  0  0  0  0  0
  -26.4539  -31.6534   25.0591 C   0  0  0  0  0  0
  -25.3776  -31.3679   26.1299 C   0  0  0  0  0  0
  -27.0415  -30.2953   24.6084 C   0  0  0  0  0  0
  -27.6055  -32.4310   25.7388 C   0  0  0  0  0  0
  -27.5559  -37.1766   24.8478 C   0  0  0  0  0  0
  -21.4171  -29.3080   22.3550 N   0  0  0  0  0  0
  -26.4285  -37.3686   23.9419 N   0  0  0  0  0  0
  -24.6896  -31.0523   22.0792 N   0  0  0  0  0  0
  -23.4230  -28.8145   23.2791 O   0  0  0  0  0  0
  -28.4040  -26.4723   20.1870 O   0  0  0  0  0  0
  -26.5643  -34.8900   22.4584 O   0  0  0  0  0  0
  -23.5407  -32.1332   23.7182 O   0  0  0  0  0  0
  -28.8724  -19.7190   22.0815 C   0  0  0  0  0  0
  -28.8460  -18.5583   22.8751 C   0  0  0  0  0  0
  -29.5717  -18.3619   20.1945 C   0  0  0  0  0  0
  -29.2261  -19.6833   20.7157 C   0  0  0  0  0  0
  -29.1541  -17.2857   22.3481 C   0  0  0  0  0  0
  -29.5597  -17.1397   20.9934 C   0  0  0  0  0  0
  -28.9229  -16.0811   23.2510 C   0  0  0  0  0  0
  -29.9866  -20.9871   18.6344 C   0  0  0  0  0  0
  -27.6159  -21.0378   19.3255 C   0  0  0  0  0  0
  -27.0806  -23.5152   21.2559 C   0  0  0  0  0  0
  -29.1799  -24.4985   22.1165 C   0  0  0  0  0  0
  -29.4142  -22.4636   20.6224 C   0  0  0  0  0  0
  -28.5229  -25.0330   19.7685 C   0  0  0  0  0  0
  -29.0546  -21.0434   19.8699 C   0  0  0  0  0  0
  -28.5348  -23.8408   20.8668 C   0  0  0  0  0  0
  -29.6100  -15.7661   20.4540 N   0  0  0  0  0  0
  -31.4904  -12.6472   19.1306 H   0  0  0  0  0  0
  -30.4721  -11.4718   19.9189 H   0  0  0  0  0  0
  -29.8038  -11.7142   17.5112 H   0  0  0  0  0  0
  -29.6283  -13.4403   17.7037 H   0  0  0  0  0  0
  -27.9111  -11.2492   18.9191 H   0  0  0  0  0  0
  -27.3800  -12.4727   17.7963 H   0  0  0  0  0  0
  -27.6412  -14.2227   19.4619 H   0  0  0  0  0  0
  -28.7379  -12.0636   21.3435 H   0  0  0  0  0  0
  -28.4215  -13.7042   21.8237 H   0  0  0  0  0  0
  -25.2740   -9.5697   22.4793 H   0  0  0  0  0  0
  -24.0005   -7.4638   22.7461 H   0  0  0  0  0  0
  -21.0855   -8.8773   19.8945 H   0  0  0  0  0  0
  -22.3706  -10.9681   19.6179 H   0  0  0  0  0  0
  -21.1980   -7.6156   23.9753 H   0  0  0  0  0  0
  -21.1476   -6.0509   25.9086 H   0  0  0  0  0  0
  -22.0606   -2.7635   23.2813 H   0  0  0  0  0  0
  -22.3991  -11.9863   22.4760 H   0  0  0  0  0  0
  -21.1093  -13.1369   22.2621 H   0  0  0  0  0  0
  -24.6692  -15.8415   20.5277 H   0  0  0  0  0  0
  -26.2749  -15.6314   20.0755 H   0  0  0  0  0  0
  -26.7164  -32.5413   23.0905 H   0  0  0  0  0  0
  -25.0131  -33.9607   25.0288 H   0  0  0  0  0  0
  -22.7226  -31.3005   21.3546 H   0  0  0  0  0  0
  -23.3715  -35.9664   23.3294 H   0  0  0  0  0  0
  -24.3640  -36.8925   22.2082 H   0  0  0  0  0  0
  -23.7311  -37.6474   23.6718 H   0  0  0  0  0  0
  -26.1100  -31.5241   20.5903 H   0  0  0  0  0  0
  -26.8483  -30.8201   21.9950 H   0  0  0  0  0  0
  -28.1261  -28.9507   21.1838 H   0  0  0  0  0  0
  -25.9970  -25.8681   19.0500 H   0  0  0  0  0  0
  -23.9987  -27.2652   19.0122 H   0  0  0  0  0  0
  -23.7869  -30.5711   19.3818 H   0  0  0  0  0  0
  -22.7698  -29.2329   19.8109 H   0  0  0  0  0  0
  -25.1279  -36.1776   25.0772 H   0  0  0  0  0  0
  -21.0121  -28.3361   24.1258 H   0  0  0  0  0  0
  -20.5688  -26.2354   23.3565 H   0  0  0  0  0  0
  -21.6665  -26.7385   22.1197 H   0  0  0  0  0  0
  -19.6965  -25.6253   21.1233 H   0  0  0  0  0  0
  -19.6751  -27.3188   20.6748 H   0  0  0  0  0  0
  -17.4210  -26.6711   21.4003 H   0  0  0  0  0  0
  -18.0419  -26.0061   22.8975 H   0  0  0  0  0  0
  -19.8017  -30.7276   24.2285 H   0  0  0  0  0  0
  -17.5104  -31.6296   24.5161 H   0  0  0  0  0  0
  -15.5448  -30.3051   23.7610 H   0  0  0  0  0  0
  -15.8704  -28.0877   22.6997 H   0  0  0  0  0  0
  -24.5989  -30.6987   25.7613 H   0  0  0  0  0  0
  -24.8966  -32.2861   26.4673 H   0  0  0  0  0  0
  -25.8119  -30.8875   27.0088 H   0  0  0  0  0  0
  -26.2962  -29.6622   24.1245 H   0  0  0  0  0  0
  -27.4258  -29.7256   25.4571 H   0  0  0  0  0  0
  -27.8773  -30.4180   23.9187 H   0  0  0  0  0  0
  -27.2612  -33.3638   26.1846 H   0  0  0  0  0  0
  -28.3937  -32.6826   25.0285 H   0  0  0  0  0  0
  -28.0655  -31.8526   26.5396 H   0  0  0  0  0  0
  -28.2480  -38.0136   24.7474 H   0  0  0  0  0  0
  -28.1082  -36.2622   24.6277 H   0  0  0  0  0  0
  -27.2303  -37.1398   25.8890 H   0  0  0  0  0  0
  -20.9309  -29.8862   21.6842 H   0  0  0  0  0  0
  -26.0110  -38.2717   24.1458 H   0  0  0  0  0  0
  -28.5489  -20.6445   22.5344 H   0  0  0  0  0  0
  -28.5168  -18.6477   23.9030 H   0  0  0  0  0  0
  -29.7728  -18.2617   19.1394 H   0  0  0  0  0  0
  -28.7915  -16.3751   24.2937 H   0  0  0  0  0  0
  -29.7534  -15.3775   23.2155 H   0  0  0  0  0  0
  -28.0078  -15.5760   22.9428 H   0  0  0  0  0  0
  -29.7334  -20.1717   17.9568 H   0  0  0  0  0  0
  -31.0337  -20.8608   18.9146 H   0  0  0  0  0  0
  -29.9176  -21.9038   18.0475 H   0  0  0  0  0  0
  -27.4580  -20.1899   18.6555 H   0  0  0  0  0  0
  -27.3898  -21.9347   18.7487 H   0  0  0  0  0  0
  -26.8858  -20.9392   20.1316 H   0  0  0  0  0  0
  -27.0265  -22.6935   21.9721 H   0  0  0  0  0  0
  -26.4853  -23.2471   20.3855 H   0  0  0  0  0  0
  -26.5870  -24.3732   21.7109 H   0  0  0  0  0  0
  -29.1599  -23.8420   22.9874 H   0  0  0  0  0  0
  -28.6622  -25.4109   22.4156 H   0  0  0  0  0  0
  -30.2221  -24.7651   21.9332 H   0  0  0  0  0  0
  -30.3673  -22.8081   20.2205 H   0  0  0  0  0  0
  -29.7407  -22.1584   21.6134 H   0  0  0  0  0  0
  -27.8447  -24.7936   18.9507 H   0  0  0  0  0  0
  -29.5056  -25.0020   19.2930 H   0  0  0  0  0  0
  -28.6867  -15.3720   20.3704 H   0  0  0  0  0  0
  1 25  1  0  0  0
  1 30  2  0  0  0
  1 86  1  0  0  0
  2  3  1  0  0  0
  2 25  1  0  0  0
  2 87  1  0  0  0
  2 88  1  0  0  0
  3  4  1  0  0  0
  3 89  1  0  0  0
  3 90  1  0  0  0
  4  5  1  0  0  0
  4 91  1  0  0  0
  4 92  1  0  0  0
  5  6  1  0  0  0
  5 26  1  0  0  0
  5 93  1  0  0  0
  6 25  1  0  0  0
  6 94  1  0  0  0
  6 95  1  0  0  0
  7  8  2  0  0  0
  7 26  1  0  0  0
  7 29  1  0  0  0
  8  9  1  0  0  0
  8 22  1  0  0  0
  9 10  1  0  0  0
  9 27  2  0  0  0
 10 11  2  0  0  0
 10 15  1  0  0  0
 11 12  1  0  0  0
 11 96  1  0  0  0
 12 13  2  0  0  0
 12 97  1  0  0  0
 13 14  1  0  0  0
 13 31  1  0  0  0
 14 15  2  0  0  0
 14 98  1  0  0  0
 15 99  1  0  0  0
 16 17  2  0  0  0
 16 21  1  0  0  0
 16 31  1  0  0  0
 17 18  1  0  0  0
 17100  1  0  0  0
 18 19  2  0  0  0
 18101  1  0  0  0
 19 20  1  0  0  0
 19 24  1  0  0  0
 20 21  2  0  0  0
 20102  1  0  0  0
 21 23  1  0  0  0
 22 28  1  0  0  0
 22 32  2  0  0  0
 26 27  1  0  0  0
 28103  1  0  0  0
 28104  1  0  0  0
 29105  1  0  0  0
 29106  1  0  0  0
 33 34  1  0  0  0
 33 66  1  0  0  0
 33 70  2  0  0  0
 34 36  1  0  0  0
 34 59  1  0  0  0
 34107  1  0  0  0
 35 44  2  0  0  0
 35 45  1  0  0  0
 35 68  1  0  0  0
 36 56  1  0  0  0
 36108  1  0  0  0
 37 39  1  0  0  0
 37 47  1  0  0  0
 37 66  1  0  0  0
 37109  1  0  0  0
 38 43  2  0  0  0
 38 46  1  0  0  0
 38 47  1  0  0  0
 39 64  1  0  0  0
 39 67  2  0  0  0
 40 52  1  0  0  0
 40 53  2  0  0  0
 40 58  1  0  0  0
 41110  1  0  0  0
 41111  1  0  0  0
 41112  1  0  0  0
 41 48  1  0  0  0
 42 43  1  0  0  0
 42 66  1  0  0  0
 42113  1  0  0  0
 42114  1  0  0  0
 43 44  1  0  0  0
 44115  1  0  0  0
 45 46  2  0  0  0
 45116  1  0  0  0
 46117  1  0  0  0
 47118  1  0  0  0
 47119  1  0  0  0
 48 56  1  0  0  0
 48 65  1  0  0  0
 48120  1  0  0  0
 49 50  1  0  0  0
 49 53  1  0  0  0
 49 64  1  0  0  0
 49121  1  0  0  0
 50 51  1  0  0  0
 50122  1  0  0  0
 50123  1  0  0  0
 51 52  1  0  0  0
 51124  1  0  0  0
 51125  1  0  0  0
 52126  1  0  0  0
 52127  1  0  0  0
 53 54  1  0  0  0
 54 55  2  0  0  0
 54128  1  0  0  0
 55 57  1  0  0  0
 55129  1  0  0  0
 56 69  2  0  0  0
 57 58  2  0  0  0
 57130  1  0  0  0
 58131  1  0  0  0
 59 60  1  0  0  0
 59 61  1  0  0  0
 59 62  1  0  0  0
 60132  1  0  0  0
 60133  1  0  0  0
 60134  1  0  0  0
 61135  1  0  0  0
 61136  1  0  0  0
 61137  1  0  0  0
 62138  1  0  0  0
 62139  1  0  0  0
 62140  1  0  0  0
 63 65  1  0  0  0
 63141  1  0  0  0
 63142  1  0  0  0
 63143  1  0  0  0
 64144  1  0  0  0
 65145  1  0  0  0
 68 83  1  0  0  0
 71 72  2  0  0  0
 71 74  1  0  0  0
 71146  1  0  0  0
 72 75  1  0  0  0
 72147  1  0  0  0
 73 74  2  0  0  0
 73 76  1  0  0  0
 73148  1  0  0  0
 74 84  1  0  0  0
 75 76  2  0  0  0
 75 77  1  0  0  0
 76 86  1  0  0  0
 77149  1  0  0  0
 77150  1  0  0  0
 77151  1  0  0  0
 78152  1  0  0  0
 78153  1  0  0  0
 78154  1  0  0  0
 78 84  1  0  0  0
 79 84  1  0  0  0
 79155  1  0  0  0
 79156  1  0  0  0
 79157  1  0  0  0
 80158  1  0  0  0
 80159  1  0  0  0
 80160  1  0  0  0
 80 85  1  0  0  0
 81 85  1  0  0  0
 81161  1  0  0  0
 81162  1  0  0  0
 81163  1  0  0  0
 82 84  1  0  0  0
 82 85  1  0  0  0
 82164  1  0  0  0
 82165  1  0  0  0
 83 85  1  0  0  0
 83166  1  0  0  0
 83167  1  0  0  0
 86168  1  0  0  0
M  ISO  4   1 100  68 101  83 101  86 100
M  END
> <chiral flag>
0

> <version>
0

> <s_m_source_file>
/data/baiqing/PycharmProjects/Reinvent-master-3.2/result/LINK_invent/BTK/process_docking_weight1_custom_product_contain_oxygen_bond_distance_aromatic_linkinvent_7_9_3/rearranged_h_0140.sdf

> <i_m_source_file_index>
3

> <r_mmod_Potential_Energy-OPLS-2005>
282.653747558594

> <r_mmod_Stretch_Energy-OPLS-2005>
138.975662231445

> <r_mmod_Bend_Energy-OPLS-2005>
229.246276855469

> <r_mmod_Torsional_Energy-OPLS-2005>
284.162689208984

> <r_mmod_Improper_Torsional_Energy-OPLS-2005>
14.9992961883545

> <r_mmod_Van_der_Waal_Energy-OPLS-2005>
138.375885009766

> <r_mmod_Electrostatic_Energy-OPLS-2005>
-413.621917724609

> <r_mmod_Solvation_Energy-OPLS-2005>
-189.954925537109

> <b_mmod_Minimization_Converged-OPLS-2005>
0

> <r_mmod_RMS_Derivative-OPLS-2005>
5.93713426589966

$$$$
3
                    3D
 Structure written by MMmdl.
162170  0  0  1  0            999 V2000
  -30.7402  -14.4399   20.6012 C   0  0  0  0  0  0
  -30.4162  -12.2985   19.4181 C   0  0  0  0  0  0
  -29.4900  -12.5031   18.2034 C   0  0  0  0  0  0
  -28.0127  -12.3653   18.6178 C   0  0  0  0  0  0
  -27.6617  -13.2078   19.8736 C   0  0  2  0  0  0
  -28.7037  -12.9930   20.9953 C   0  0  0  0  0  0
  -25.2585  -13.8167   20.5674 C   0  0  0  0  0  0
  -24.1838  -13.0441   20.9172 C   0  0  0  0  0  0
  -24.6392  -11.6908   20.8730 C   0  0  0  0  0  0
  -23.9058  -10.4293   21.0400 C   0  0  0  0  0  0
  -24.3610   -9.4209   21.9179 C   0  0  0  0  0  0
  -23.6288   -8.2245   22.0752 C   0  0  0  0  0  0
  -22.4271   -8.0280   21.3542 C   0  0  0  0  0  0
  -21.9904   -9.0250   20.4643 C   0  0  0  0  0  0
  -22.7231  -10.2130   20.3049 C   0  0  0  0  0  0
  -21.6852   -6.0733   22.5276 C   0  0  0  0  0  0
  -21.4015   -6.5638   23.8209 C   0  0  0  0  0  0
  -21.3658   -5.6790   24.9171 C   0  0  0  0  0  0
  -21.6045   -4.3052   24.7223 C   0  0  0  0  0  0
  -21.8820   -3.8145   23.4344 C   0  0  0  0  0  0
  -21.9195   -4.6962   22.3401 C   0  0  0  0  0  0
  -22.7858  -13.5238   21.1836 C   0  0  0  0  0  0
  -22.1661   -4.2147   21.0978 F   0  0  0  0  0  0
  -21.5629   -3.4538   25.7736 F   0  0  0  0  0  0
  -30.0376  -13.2848   20.4427 N   0  0  0  0  0  0
  -26.3025  -12.9340   20.3363 N   0  0  0  0  0  0
  -25.9322  -11.6498   20.5765 N   0  0  0  0  0  0
  -22.0501  -12.8228   22.0393 N   0  0  0  0  0  0
  -25.4308  -15.1885   20.4073 N   0  0  0  0  0  0
  -31.8429  -14.6173   20.0765 O   0  0  0  0  0  0
  -21.6638   -6.8875   21.4237 O   0  0  0  0  0  0
  -22.3542  -14.5547   20.6687 O   0  0  0  0  0  0
  -24.6151  -31.8691   23.2126 C   0  0  0  0  0  0
  -25.9046  -32.4830   23.8411 C   0  0  1  0  0  0
  -27.2241  -27.4263   20.0889 C   0  0  0  0  0  0
  -25.5905  -33.8627   24.2341 N   0  0  0  0  0  0
  -23.4025  -30.4973   21.5536 C   0  0  2  0  0  0
  -24.8462  -28.9732   20.1104 C   0  0  0  0  0  0
  -22.7423  -29.4672   22.4986 C   0  0  0  0  0  0
  -18.0281  -28.1378   22.8489 C   0  0  0  0  0  0
  -24.1484  -36.7304   23.2640 C   0  0  0  0  0  0
  -25.9356  -30.8317   21.3702 C   0  0  0  0  0  0
  -26.0104  -29.4699   20.7098 C   0  0  0  0  0  0
  -27.2020  -28.7045   20.6969 C   0  0  0  0  0  0
  -26.0390  -26.9648   19.4619 C   0  0  0  0  0  0
  -24.8567  -27.7201   19.4825 C   0  0  0  0  0  0
  -23.6090  -29.8386   20.1657 C   0  0  0  0  0  0
  -25.4105  -36.3113   24.0343 C   0  0  1  0  0  0
  -20.5872  -28.3659   23.1313 C   0  0  2  0  0  0
  -20.6767  -26.9394   22.5414 C   0  0  0  0  0  0
  -19.5745  -26.6380   21.5214 C   0  0  0  0  0  0
  -18.1922  -26.7925   22.1620 C   0  0  0  0  0  0
  -19.1531  -28.8834   23.2899 C   0  0  0  0  0  0
  -18.9460  -30.1439   23.8912 C   0  0  0  0  0  0
  -17.6462  -30.6581   24.0567 C   0  0  0  0  0  0
  -25.9036  -34.9478   23.5137 C   0  0  0  0  0  0
  -16.5351  -29.9081   23.6335 C   0  0  0  0  0  0
  -16.7270  -28.6499   23.0352 C   0  0  0  0  0  0
  -26.4466  -31.6608   25.0740 C   0  0  0  0  0  0
  -25.3725  -31.3722   26.1485 C   0  0  0  0  0  0
  -27.0303  -30.3054   24.6113 C   0  0  0  0  0  0
  -27.6040  -32.4327   25.7501 C   0  0  0  0  0  0
  -27.5582  -37.1804   24.8467 C   0  0  0  0  0  0
  -21.4149  -29.3034   22.3724 N   0  0  0  0  0  0
  -26.4292  -37.3797   23.9416 N   0  0  0  0  0  0
  -24.6696  -31.0796   22.1031 N   0  0  0  0  0  0
  -23.4202  -28.8206   23.3016 O   0  0  0  0  0  0
  -28.3722  -26.6486   20.1380 O   0  0  0  0  0  0
  -26.5593  -34.8925   22.4696 O   0  0  0  0  0  0
  -23.5338  -32.1438   23.7516 O   0  0  0  0  0  0
  -31.9294  -17.0179   21.8263 C   0  0  0  0  0  0
  -32.3509  -18.3348   22.0665 C   0  0  0  0  0  0
  -29.6775  -17.8417   21.4223 C   0  0  0  0  0  0
  -30.0844  -19.1931   21.6370 C   0  0  0  0  0  0
  -30.5840  -16.7569   21.4917 C   0  0  0  0  0  0
  -31.4476  -19.4098   21.9821 C   0  0  0  0  0  0
  -27.8845  -20.0019   20.6052 C   0  0  0  0  0  0
  -28.4592  -20.5218   22.9838 C   0  0  0  0  0  0
  -28.6890  -22.8479   20.6765 C   0  0  0  0  0  0
  -29.2382  -24.2977   20.5933 C   0  0  0  0  0  0
  -29.6776  -21.7367   21.1236 C   0  0  0  0  0  0
  -28.1566  -25.2299   20.0045 C   0  0  0  0  0  0
  -29.0492  -20.3597   21.5690 C   0  0  0  0  0  0
  -30.1098  -15.4267   21.2690 N   0  0  0  0  0  0
  -31.9273  -20.6413   22.2690 F   0  0  0  0  0  0
  -31.4614  -12.3823   19.1147 H   0  0  0  0  0  0
  -30.3075  -11.2884   19.8164 H   0  0  0  0  0  0
  -29.7274  -11.7788   17.4231 H   0  0  0  0  0  0
  -29.6609  -13.4895   17.7689 H   0  0  0  0  0  0
  -27.8219  -11.3095   18.8147 H   0  0  0  0  0  0
  -27.3619  -12.6389   17.7867 H   0  0  0  0  0  0
  -27.7062  -14.2552   19.5742 H   0  0  0  0  0  0
  -28.6755  -11.9600   21.3448 H   0  0  0  0  0  0
  -28.4639  -13.6000   21.8690 H   0  0  0  0  0  0
  -25.2758   -9.5690   22.4746 H   0  0  0  0  0  0
  -24.0002   -7.4640   22.7471 H   0  0  0  0  0  0
  -21.0839   -8.8763   19.8945 H   0  0  0  0  0  0
  -22.3690  -10.9663   19.6153 H   0  0  0  0  0  0
  -21.2003   -7.6144   23.9713 H   0  0  0  0  0  0
  -21.1477   -6.0518   25.9073 H   0  0  0  0  0  0
  -22.0602   -2.7607   23.2844 H   0  0  0  0  0  0
  -22.4113  -11.9886   22.4778 H   0  0  0  0  0  0
  -21.1117  -13.1245   22.2597 H   0  0  0  0  0  0
  -24.6639  -15.8441   20.5096 H   0  0  0  0  0  0
  -26.2828  -15.6251   20.0788 H   0  0  0  0  0  0
  -26.7114  -32.5539   23.1170 H   0  0  0  0  0  0
  -25.0075  -33.9793   25.0497 H   0  0  0  0  0  0
  -22.6913  -31.3151   21.4189 H   0  0  0  0  0  0
  -23.3756  -35.9629   23.3310 H   0  0  0  0  0  0
  -24.3578  -36.8905   22.2053 H   0  0  0  0  0  0
  -23.7222  -37.6507   23.6642 H   0  0  0  0  0  0
  -26.0560  -31.6013   20.6066 H   0  0  0  0  0  0
  -26.8212  -30.8769   21.9920 H   0  0  0  0  0  0
  -28.0964  -29.0800   21.1738 H   0  0  0  0  0  0
  -25.9962  -26.0142   18.9515 H   0  0  0  0  0  0
  -23.9651  -27.3355   19.0070 H   0  0  0  0  0  0
  -23.7156  -30.6172   19.4094 H   0  0  0  0  0  0
  -22.7325  -29.2602   19.8680 H   0  0  0  0  0  0
  -25.1278  -36.1983   25.0837 H   0  0  0  0  0  0
  -20.9964  -28.3215   24.1434 H   0  0  0  0  0  0
  -20.5672  -26.2266   23.3599 H   0  0  0  0  0  0
  -21.6635  -26.7432   22.1204 H   0  0  0  0  0  0
  -19.6907  -25.6299   21.1226 H   0  0  0  0  0  0
  -19.6690  -27.3206   20.6758 H   0  0  0  0  0  0
  -17.4196  -26.6692   21.4013 H   0  0  0  0  0  0
  -18.0307  -26.0056   22.9004 H   0  0  0  0  0  0
  -19.7939  -30.7246   24.2285 H   0  0  0  0  0  0
  -17.5024  -31.6268   24.5155 H   0  0  0  0  0  0
  -15.5354  -30.2990   23.7655 H   0  0  0  0  0  0
  -15.8668  -28.0824   22.7065 H   0  0  0  0  0  0
  -24.5904  -30.7059   25.7825 H   0  0  0  0  0  0
  -24.8910  -32.2886   26.4912 H   0  0  0  0  0  0
  -25.8070  -30.8910   27.0256 H   0  0  0  0  0  0
  -26.2856  -29.6824   24.1144 H   0  0  0  0  0  0
  -27.4068  -29.7274   25.4564 H   0  0  0  0  0  0
  -27.8692  -30.4392   23.9276 H   0  0  0  0  0  0
  -27.2661  -33.3622   26.2092 H   0  0  0  0  0  0
  -28.3840  -32.6892   25.0323 H   0  0  0  0  0  0
  -28.0715  -31.8446   26.5406 H   0  0  0  0  0  0
  -28.2600  -38.0102   24.7517 H   0  0  0  0  0  0
  -28.1079  -36.2633   24.6288 H   0  0  0  0  0  0
  -27.2303  -37.1444   25.8872 H   0  0  0  0  0  0
  -20.9305  -29.8771   21.6964 H   0  0  0  0  0  0
  -26.0187  -38.2879   24.1419 H   0  0  0  0  0  0
  -32.6487  -16.2166   21.9157 H   0  0  0  0  0  0
  -33.3802  -18.5263   22.3318 H   0  0  0  0  0  0
  -28.6520  -17.6024   21.1958 H   0  0  0  0  0  0
  -27.3063  -19.1431   20.9411 H   0  0  0  0  0  0
  -28.2485  -19.7940   19.5986 H   0  0  0  0  0  0
  -27.1427  -20.7950   20.5288 H   0  0  0  0  0  0
  -27.9979  -19.5961   23.3297 H   0  0  0  0  0  0
  -27.6946  -21.2969   23.0257 H   0  0  0  0  0  0
  -29.2305  -20.7861   23.7080 H   0  0  0  0  0  0
  -28.2875  -22.5822   19.6980 H   0  0  0  0  0  0
  -27.8381  -22.8621   21.3578 H   0  0  0  0  0  0
  -30.1411  -24.3385   19.9828 H   0  0  0  0  0  0
  -29.5148  -24.6385   21.5917 H   0  0  0  0  0  0
  -30.2664  -22.1503   21.9415 H   0  0  0  0  0  0
  -30.3752  -21.5670   20.3021 H   0  0  0  0  0  0
  -27.2290  -24.9628   20.5146 H   0  0  0  0  0  0
  -28.0239  -24.9912   18.9477 H   0  0  0  0  0  0
  -29.1577  -15.2275   21.5368 H   0  0  0  0  0  0
  1 25  1  0  0  0
  1 30  2  0  0  0
  1 84  1  0  0  0
  2  3  1  0  0  0
  2 25  1  0  0  0
  2 86  1  0  0  0
  2 87  1  0  0  0
  3  4  1  0  0  0
  3 88  1  0  0  0
  3 89  1  0  0  0
  4  5  1  0  0  0
  4 90  1  0  0  0
  4 91  1  0  0  0
  5  6  1  0  0  0
  5 26  1  0  0  0
  5 92  1  0  0  0
  6 25  1  0  0  0
  6 93  1  0  0  0
  6 94  1  0  0  0
  7  8  2  0  0  0
  7 26  1  0  0  0
  7 29  1  0  0  0
  8  9  1  0  0  0
  8 22  1  0  0  0
  9 10  1  0  0  0
  9 27  2  0  0  0
 10 11  2  0  0  0
 10 15  1  0  0  0
 11 12  1  0  0  0
 11 95  1  0  0  0
 12 13  2  0  0  0
 12 96  1  0  0  0
 13 14  1  0  0  0
 13 31  1  0  0  0
 14 15  2  0  0  0
 14 97  1  0  0  0
 15 98  1  0  0  0
 16 17  2  0  0  0
 16 21  1  0  0  0
 16 31  1  0  0  0
 17 18  1  0  0  0
 17 99  1  0  0  0
 18 19  2  0  0  0
 18100  1  0  0  0
 19 20  1  0  0  0
 19 24  1  0  0  0
 20 21  2  0  0  0
 20101  1  0  0  0
 21 23  1  0  0  0
 22 28  1  0  0  0
 22 32  2  0  0  0
 26 27  1  0  0  0
 28102  1  0  0  0
 28103  1  0  0  0
 29104  1  0  0  0
 29105  1  0  0  0
 33 34  1  0  0  0
 33 66  1  0  0  0
 33 70  2  0  0  0
 34 36  1  0  0  0
 34 59  1  0  0  0
 34106  1  0  0  0
 35 44  2  0  0  0
 35 45  1  0  0  0
 35 68  1  0  0  0
 36 56  1  0  0  0
 36107  1  0  0  0
 37 39  1  0  0  0
 37 47  1  0  0  0
 37 66  1  0  0  0
 37108  1  0  0  0
 38 43  2  0  0  0
 38 46  1  0  0  0
 38 47  1  0  0  0
 39 64  1  0  0  0
 39 67  2  0  0  0
 40 52  1  0  0  0
 40 53  2  0  0  0
 40 58  1  0  0  0
 41109  1  0  0  0
 41110  1  0  0  0
 41111  1  0  0  0
 41 48  1  0  0  0
 42 43  1  0  0  0
 42 66  1  0  0  0
 42112  1  0  0  0
 42113  1  0  0  0
 43 44  1  0  0  0
 44114  1  0  0  0
 45 46  2  0  0  0
 45115  1  0  0  0
 46116  1  0  0  0
 47117  1  0  0  0
 47118  1  0  0  0
 48 56  1  0  0  0
 48 65  1  0  0  0
 48119  1  0  0  0
 49 50  1  0  0  0
 49 53  1  0  0  0
 49 64  1  0  0  0
 49120  1  0  0  0
 50 51  1  0  0  0
 50121  1  0  0  0
 50122  1  0  0  0
 51 52  1  0  0  0
 51123  1  0  0  0
 51124  1  0  0  0
 52125  1  0  0  0
 52126  1  0  0  0
 53 54  1  0  0  0
 54 55  2  0  0  0
 54127  1  0  0  0
 55 57  1  0  0  0
 55128  1  0  0  0
 56 69  2  0  0  0
 57 58  2  0  0  0
 57129  1  0  0  0
 58130  1  0  0  0
 59 60  1  0  0  0
 59 61  1  0  0  0
 59 62  1  0  0  0
 60131  1  0  0  0
 60132  1  0  0  0
 60133  1  0  0  0
 61134  1  0  0  0
 61135  1  0  0  0
 61136  1  0  0  0
 62137  1  0  0  0
 62138  1  0  0  0
 62139  1  0  0  0
 63 65  1  0  0  0
 63140  1  0  0  0
 63141  1  0  0  0
 63142  1  0  0  0
 64143  1  0  0  0
 65144  1  0  0  0
 68 82  1  0  0  0
 71 72  2  0  0  0
 71 75  1  0  0  0
 71145  1  0  0  0
 72 76  1  0  0  0
 72146  1  0  0  0
 73 74  1  0  0  0
 73 75  2  0  0  0
 73147  1  0  0  0
 74 76  2  0  0  0
 74 83  1  0  0  0
 75 84  1  0  0  0
 76 85  1  0  0  0
 77148  1  0  0  0
 77149  1  0  0  0
 77150  1  0  0  0
 77 83  1  0  0  0
 78 83  1  0  0  0
 78151  1  0  0  0
 78152  1  0  0  0
 78153  1  0  0  0
 79 80  1  0  0  0
 79 81  1  0  0  0
 79154  1  0  0  0
 79155  1  0  0  0
 80 82  1  0  0  0
 80156  1  0  0  0
 80157  1  0  0  0
 81 83  1  0  0  0
 81158  1  0  0  0
 81159  1  0  0  0
 82160  1  0  0  0
 82161  1  0  0  0
 84162  1  0  0  0
M  ISO  4   1 100  68 101  82 101  84 100
M  END
> <chiral flag>
0

> <version>
0

> <s_m_source_file>
/data/baiqing/PycharmProjects/Reinvent-master-3.2/result/LINK_invent/BTK/process_docking_weight1_custom_product_contain_oxygen_bond_distance_aromatic_linkinvent_7_9_3/rearranged_h_0140.sdf

> <i_m_source_file_index>
4

> <r_mmod_Potential_Energy-OPLS-2005>
-2.17302894592285

> <r_mmod_Stretch_Energy-OPLS-2005>
45.0093383789062

> <r_mmod_Bend_Energy-OPLS-2005>
106.414276123047

> <r_mmod_Torsional_Energy-OPLS-2005>
222.562927246094

> <r_mmod_Improper_Torsional_Energy-OPLS-2005>
2.95240592956543

> <r_mmod_Van_der_Waal_Energy-OPLS-2005>
180.932174682617

> <r_mmod_Electrostatic_Energy-OPLS-2005>
-380.44580078125

> <r_mmod_Solvation_Energy-OPLS-2005>
-193.25260925293

> <b_mmod_Minimization_Converged-OPLS-2005>
0

> <r_mmod_RMS_Derivative-OPLS-2005>
0.845040619373322

$$$$
4
                    3D
 Structure written by MMmdl.
174182  0  0  1  0            999 V2000
  -30.6639  -14.7094   20.3992 C   0  0  0  0  0  0
  -30.4084  -12.4297   19.4628 C   0  0  0  0  0  0
  -29.5029  -12.4995   18.2187 C   0  0  0  0  0  0
  -28.0281  -12.3266   18.6327 C   0  0  0  0  0  0
  -27.6312  -13.2386   19.8289 C   0  0  2  0  0  0
  -28.6783  -13.2081   20.9630 C   0  0  0  0  0  0
  -25.2444  -13.8209   20.5660 C   0  0  0  0  0  0
  -24.1769  -13.0436   20.9200 C   0  0  0  0  0  0
  -24.6370  -11.6912   20.8707 C   0  0  0  0  0  0
  -23.9042  -10.4295   21.0394 C   0  0  0  0  0  0
  -24.3605   -9.4222   21.9167 C   0  0  0  0  0  0
  -23.6297   -8.2246   22.0742 C   0  0  0  0  0  0
  -22.4282   -8.0273   21.3533 C   0  0  0  0  0  0
  -21.9905   -9.0245   20.4641 C   0  0  0  0  0  0
  -22.7211  -10.2132   20.3043 C   0  0  0  0  0  0
  -21.6851   -6.0735   22.5273 C   0  0  0  0  0  0
  -21.4036   -6.5638   23.8210 C   0  0  0  0  0  0
  -21.3645   -5.6778   24.9162 C   0  0  0  0  0  0
  -21.6049   -4.3046   24.7200 C   0  0  0  0  0  0
  -21.8807   -3.8143   23.4317 C   0  0  0  0  0  0
  -21.9193   -4.6975   22.3379 C   0  0  0  0  0  0
  -22.7776  -13.5224   21.1843 C   0  0  0  0  0  0
  -22.1655   -4.2159   21.0954 F   0  0  0  0  0  0
  -21.5629   -3.4518   25.7715 F   0  0  0  0  0  0
  -29.9752  -13.5227   20.3572 N   0  0  0  0  0  0
  -26.2878  -12.9442   20.3162 N   0  0  0  0  0  0
  -25.9312  -11.6587   20.5695 N   0  0  0  0  0  0
  -22.0405  -12.8248   22.0423 N   0  0  0  0  0  0
  -25.4090  -15.1932   20.4072 N   0  0  0  0  0  0
  -31.8802  -14.6604   20.2888 O   0  0  0  0  0  0
  -21.6643   -6.8884   21.4237 O   0  0  0  0  0  0
  -22.3469  -14.5500   20.6660 O   0  0  0  0  0  0
  -24.6272  -31.8613   23.2036 C   0  0  0  0  0  0
  -25.9129  -32.4773   23.8347 C   0  0  1  0  0  0
  -27.1906  -27.2915   20.1077 C   0  0  0  0  0  0
  -25.5933  -33.8576   24.2261 N   0  0  0  0  0  0
  -23.4187  -30.4941   21.5459 C   0  0  2  0  0  0
  -24.8569  -28.9536   20.1050 C   0  0  0  0  0  0
  -22.7473  -29.4681   22.4905 C   0  0  0  0  0  0
  -18.0281  -28.1388   22.8495 C   0  0  0  0  0  0
  -24.1497  -36.7284   23.2642 C   0  0  0  0  0  0
  -25.9658  -30.7819   21.3836 C   0  0  0  0  0  0
  -26.0310  -29.4138   20.7139 C   0  0  0  0  0  0
  -27.2051  -28.5971   20.7018 C   0  0  0  0  0  0
  -25.9910  -26.8958   19.4772 C   0  0  0  0  0  0
  -24.8424  -27.7031   19.4763 C   0  0  0  0  0  0
  -23.6292  -29.8393   20.1577 C   0  0  0  0  0  0
  -25.4132  -36.3073   24.0312 C   0  0  1  0  0  0
  -20.5898  -28.3714   23.1266 C   0  0  2  0  0  0
  -20.6783  -26.9438   22.5407 C   0  0  0  0  0  0
  -19.5750  -26.6394   21.5216 C   0  0  0  0  0  0
  -18.1925  -26.7935   22.1618 C   0  0  0  0  0  0
  -19.1541  -28.8854   23.2876 C   0  0  0  0  0  0
  -18.9467  -30.1450   23.8911 C   0  0  0  0  0  0
  -17.6474  -30.6601   24.0566 C   0  0  0  0  0  0
  -25.9077  -34.9450   23.5085 C   0  0  0  0  0  0
  -16.5357  -29.9109   23.6325 C   0  0  0  0  0  0
  -16.7271  -28.6511   23.0366 C   0  0  0  0  0  0
  -26.4495  -31.6595   25.0729 C   0  0  0  0  0  0
  -25.3710  -31.3764   26.1442 C   0  0  0  0  0  0
  -27.0326  -30.2989   24.6245 C   0  0  0  0  0  0
  -27.6030  -32.4367   25.7490 C   0  0  0  0  0  0
  -27.5594  -37.1804   24.8466 C   0  0  0  0  0  0
  -21.4191  -29.3067   22.3643 N   0  0  0  0  0  0
  -26.4298  -37.3785   23.9409 N   0  0  0  0  0  0
  -24.6888  -31.0647   22.0984 N   0  0  0  0  0  0
  -23.4195  -28.8209   23.2975 O   0  0  0  0  0  0
  -28.2775  -26.3975   20.1463 O   0  0  0  0  0  0
  -26.5657  -34.8931   22.4661 O   0  0  0  0  0  0
  -23.5431  -32.1409   23.7381 O   0  0  0  0  0  0
  -30.8826  -20.1520   19.5944 C   0  0  0  0  0  0
  -31.8690  -19.1797   19.4206 C   0  0  0  0  0  0
  -29.3307  -18.3916   20.1873 C   0  0  0  0  0  0
  -29.5622  -19.8069   19.9095 C   0  0  0  0  0  0
  -31.6030  -17.8020   19.5593 C   0  0  0  0  0  0
  -30.3297  -17.3368   20.0466 C   0  0  0  0  0  0
  -32.7452  -16.9334   19.0607 C   0  0  0  0  0  0
  -25.8296  -21.2452   19.7627 C   0  0  0  0  0  0
  -29.4046  -21.7560   22.0723 C   0  0  0  0  0  0
  -28.4509  -21.3791   18.3011 C   0  0  0  0  0  0
  -29.9321  -24.4859   21.5873 C   0  0  0  0  0  0
  -30.1086  -23.9578   19.1877 C   0  0  0  0  0  0
  -27.0770  -20.4004   20.1191 C   0  0  0  0  0  0
  -27.9798  -24.9269   20.1346 C   0  0  0  0  0  0
  -28.7165  -22.2978   20.7898 C   0  0  2  0  0  0
  -28.4906  -20.9965   19.8000 C   0  0  1  0  0  0
  -29.1566  -23.8598   20.3972 C   0  0  0  0  0  0
  -29.9564  -15.9092   20.3285 N   0  0  0  0  0  0
  -31.4573  -12.5089   19.1768 H   0  0  0  0  0  0
  -30.3052  -11.4630   19.9582 H   0  0  0  0  0  0
  -29.7945  -11.7329   17.4968 H   0  0  0  0  0  0
  -29.6337  -13.4609   17.7159 H   0  0  0  0  0  0
  -27.8834  -11.2804   18.9023 H   0  0  0  0  0  0
  -27.3727  -12.5074   17.7802 H   0  0  0  0  0  0
  -27.6203  -14.2552   19.4343 H   0  0  0  0  0  0
  -28.7031  -12.2327   21.4502 H   0  0  0  0  0  0
  -28.4274  -13.9381   21.7372 H   0  0  0  0  0  0
  -25.2773   -9.5725   22.4715 H   0  0  0  0  0  0
  -24.0027   -7.4643   22.7452 H   0  0  0  0  0  0
  -21.0843   -8.8744   19.8938 H   0  0  0  0  0  0
  -22.3667  -10.9654   19.6138 H   0  0  0  0  0  0
  -21.2058   -7.6154   23.9723 H   0  0  0  0  0  0
  -21.1472   -6.0502   25.9064 H   0  0  0  0  0  0
  -22.0612   -2.7614   23.2788 H   0  0  0  0  0  0
  -22.4051  -11.9984   22.4927 H   0  0  0  0  0  0
  -21.0985  -13.1239   22.2520 H   0  0  0  0  0  0
  -24.6322  -15.8342   20.5197 H   0  0  0  0  0  0
  -26.2522  -15.6392   20.0728 H   0  0  0  0  0  0
  -26.7172  -32.5424   23.1066 H   0  0  0  0  0  0
  -25.0039  -33.9712   25.0372 H   0  0  0  0  0  0
  -22.7125  -31.3169   21.4130 H   0  0  0  0  0  0
  -23.3776  -35.9605   23.3287 H   0  0  0  0  0  0
  -24.3589  -36.8926   22.2066 H   0  0  0  0  0  0
  -23.7229  -37.6464   23.6682 H   0  0  0  0  0  0
  -26.1206  -31.5541   20.6297 H   0  0  0  0  0  0
  -26.8359  -30.8084   22.0271 H   0  0  0  0  0  0
  -28.1069  -28.9472   21.1828 H   0  0  0  0  0  0
  -25.8975  -25.9433   18.9804 H   0  0  0  0  0  0
  -23.9441  -27.3500   18.9901 H   0  0  0  0  0  0
  -23.7518  -30.6212   19.4070 H   0  0  0  0  0  0
  -22.7431  -29.2777   19.8539 H   0  0  0  0  0  0
  -25.1320  -36.1916   25.0801 H   0  0  0  0  0  0
  -20.9991  -28.3312   24.1385 H   0  0  0  0  0  0
  -20.5708  -26.2340   23.3619 H   0  0  0  0  0  0
  -21.6651  -26.7498   22.1193 H   0  0  0  0  0  0
  -19.6935  -25.6305   21.1247 H   0  0  0  0  0  0
  -19.6677  -27.3207   20.6743 H   0  0  0  0  0  0
  -17.4212  -26.6691   21.4004 H   0  0  0  0  0  0
  -18.0316  -26.0074   22.9003 H   0  0  0  0  0  0
  -19.7940  -30.7239   24.2323 H   0  0  0  0  0  0
  -17.5036  -31.6289   24.5155 H   0  0  0  0  0  0
  -15.5363  -30.3015   23.7658 H   0  0  0  0  0  0
  -15.8660  -28.0827   22.7110 H   0  0  0  0  0  0
  -24.5853  -30.7146   25.7770 H   0  0  0  0  0  0
  -24.8938  -32.2949   26.4883 H   0  0  0  0  0  0
  -25.8008  -30.8913   27.0217 H   0  0  0  0  0  0
  -26.2899  -29.6752   24.1246 H   0  0  0  0  0  0
  -27.3927  -29.7251   25.4800 H   0  0  0  0  0  0
  -27.8835  -30.4219   23.9535 H   0  0  0  0  0  0
  -27.2590  -33.3662   26.2065 H   0  0  0  0  0  0
  -28.3829  -32.6964   25.0309 H   0  0  0  0  0  0
  -28.0721  -31.8511   26.5413 H   0  0  0  0  0  0
  -28.2610  -38.0104   24.7521 H   0  0  0  0  0  0
  -28.1068  -36.2629   24.6267 H   0  0  0  0  0  0
  -27.2302  -37.1452   25.8863 H   0  0  0  0  0  0
  -20.9359  -29.8766   21.6840 H   0  0  0  0  0  0
  -26.0167  -38.2853   24.1400 H   0  0  0  0  0  0
  -31.1407  -21.1813   19.4074 H   0  0  0  0  0  0
  -32.8442  -19.5178   19.0959 H   0  0  0  0  0  0
  -28.3428  -18.0805   20.4858 H   0  0  0  0  0  0
  -33.4414  -17.5032   18.4415 H   0  0  0  0  0  0
  -32.3776  -16.1336   18.4192 H   0  0  0  0  0  0
  -33.3320  -16.5411   19.8904 H   0  0  0  0  0  0
  -24.9261  -20.7263   20.0863 H   0  0  0  0  0  0
  -25.7250  -21.3896   18.6883 H   0  0  0  0  0  0
  -25.8205  -22.2298   20.2277 H   0  0  0  0  0  0
  -29.0539  -20.7524   22.3133 H   0  0  0  0  0  0
  -29.1679  -22.3446   22.9580 H   0  0  0  0  0  0
  -30.4877  -21.6969   21.9656 H   0  0  0  0  0  0
  -28.0889  -20.5372   17.7087 H   0  0  0  0  0  0
  -29.4329  -21.6182   17.8936 H   0  0  0  0  0  0
  -27.7959  -22.2256   18.1009 H   0  0  0  0  0  0
  -30.2231  -25.5196   21.3938 H   0  0  0  0  0  0
  -30.8581  -23.9539   21.8103 H   0  0  0  0  0  0
  -29.3179  -24.5098   22.4878 H   0  0  0  0  0  0
  -30.4970  -24.9728   19.0875 H   0  0  0  0  0  0
  -29.6023  -23.7591   18.2461 H   0  0  0  0  0  0
  -30.9701  -23.2995   19.2704 H   0  0  0  0  0  0
  -26.9420  -19.4672   19.5714 H   0  0  0  0  0  0
  -27.0332  -20.1304   21.1758 H   0  0  0  0  0  0
  -27.1984  -24.7582   20.8789 H   0  0  0  0  0  0
  -27.5398  -24.6648   19.1731 H   0  0  0  0  0  0
  -27.7199  -22.4969   21.1737 H   0  0  0  0  0  0
  -28.9696  -15.7704   20.4750 H   0  0  0  0  0  0
  1 25  1  0  0  0
  1 30  2  0  0  0
  1 88  1  0  0  0
  2  3  1  0  0  0
  2 25  1  0  0  0
  2 89  1  0  0  0
  2 90  1  0  0  0
  3  4  1  0  0  0
  3 91  1  0  0  0
  3 92  1  0  0  0
  4  5  1  0  0  0
  4 93  1  0  0  0
  4 94  1  0  0  0
  5  6  1  0  0  0
  5 26  1  0  0  0
  5 95  1  0  0  0
  6 25  1  0  0  0
  6 96  1  0  0  0
  6 97  1  0  0  0
  7  8  2  0  0  0
  7 26  1  0  0  0
  7 29  1  0  0  0
  8  9  1  0  0  0
  8 22  1  0  0  0
  9 10  1  0  0  0
  9 27  2  0  0  0
 10 11  2  0  0  0
 10 15  1  0  0  0
 11 12  1  0  0  0
 11 98  1  0  0  0
 12 13  2  0  0  0
 12 99  1  0  0  0
 13 14  1  0  0  0
 13 31  1  0  0  0
 14 15  2  0  0  0
 14100  1  0  0  0
 15101  1  0  0  0
 16 17  2  0  0  0
 16 21  1  0  0  0
 16 31  1  0  0  0
 17 18  1  0  0  0
 17102  1  0  0  0
 18 19  2  0  0  0
 18103  1  0  0  0
 19 20  1  0  0  0
 19 24  1  0  0  0
 20 21  2  0  0  0
 20104  1  0  0  0
 21 23  1  0  0  0
 22 28  1  0  0  0
 22 32  2  0  0  0
 26 27  1  0  0  0
 28105  1  0  0  0
 28106  1  0  0  0
 29107  1  0  0  0
 29108  1  0  0  0
 33 34  1  0  0  0
 33 66  1  0  0  0
 33 70  2  0  0  0
 34 36  1  0  0  0
 34 59  1  0  0  0
 34109  1  0  0  0
 35 44  2  0  0  0
 35 45  1  0  0  0
 35 68  1  0  0  0
 36 56  1  0  0  0
 36110  1  0  0  0
 37 39  1  0  0  0
 37 47  1  0  0  0
 37 66  1  0  0  0
 37111  1  0  0  0
 38 43  2  0  0  0
 38 46  1  0  0  0
 38 47  1  0  0  0
 39 64  1  0  0  0
 39 67  2  0  0  0
 40 52  1  0  0  0
 40 53  2  0  0  0
 40 58  1  0  0  0
 41112  1  0  0  0
 41113  1  0  0  0
 41114  1  0  0  0
 41 48  1  0  0  0
 42 43  1  0  0  0
 42 66  1  0  0  0
 42115  1  0  0  0
 42116  1  0  0  0
 43 44  1  0  0  0
 44117  1  0  0  0
 45 46  2  0  0  0
 45118  1  0  0  0
 46119  1  0  0  0
 47120  1  0  0  0
 47121  1  0  0  0
 48 56  1  0  0  0
 48 65  1  0  0  0
 48122  1  0  0  0
 49 50  1  0  0  0
 49 53  1  0  0  0
 49 64  1  0  0  0
 49123  1  0  0  0
 50 51  1  0  0  0
 50124  1  0  0  0
 50125  1  0  0  0
 51 52  1  0  0  0
 51126  1  0  0  0
 51127  1  0  0  0
 52128  1  0  0  0
 52129  1  0  0  0
 53 54  1  0  0  0
 54 55  2  0  0  0
 54130  1  0  0  0
 55 57  1  0  0  0
 55131  1  0  0  0
 56 69  2  0  0  0
 57 58  2  0  0  0
 57132  1  0  0  0
 58133  1  0  0  0
 59 60  1  0  0  0
 59 61  1  0  0  0
 59 62  1  0  0  0
 60134  1  0  0  0
 60135  1  0  0  0
 60136  1  0  0  0
 61137  1  0  0  0
 61138  1  0  0  0
 61139  1  0  0  0
 62140  1  0  0  0
 62141  1  0  0  0
 62142  1  0  0  0
 63 65  1  0  0  0
 63143  1  0  0  0
 63144  1  0  0  0
 63145  1  0  0  0
 64146  1  0  0  0
 65147  1  0  0  0
 68 84  1  0  0  0
 71 72  2  0  0  0
 71 74  1  0  0  0
 71148  1  0  0  0
 72 75  1  0  0  0
 72149  1  0  0  0
 73 74  2  0  0  0
 73 76  1  0  0  0
 73150  1  0  0  0
 74 86  1  0  0  0
 75 76  2  0  0  0
 75 77  1  0  0  0
 76 88  1  0  0  0
 77151  1  0  0  0
 77152  1  0  0  0
 77153  1  0  0  0
 78 83  1  0  0  0
 78154  1  0  0  0
 78155  1  0  0  0
 78156  1  0  0  0
 79157  1  0  0  0
 79158  1  0  0  0
 79159  1  0  0  0
 79 85  1  0  0  0
 80160  1  0  0  0
 80161  1  0  0  0
 80162  1  0  0  0
 80 86  1  0  0  0
 81163  1  0  0  0
 81164  1  0  0  0
 81165  1  0  0  0
 81 87  1  0  0  0
 82 87  1  0  0  0
 82166  1  0  0  0
 82167  1  0  0  0
 82168  1  0  0  0
 83 86  1  0  0  0
 83169  1  0  0  0
 83170  1  0  0  0
 84 87  1  0  0  0
 84171  1  0  0  0
 84172  1  0  0  0
 85 86  1  0  0  0
 85 87  1  0  0  0
 85173  1  0  0  0
 88174  1  0  0  0
M  ISO  4   1 100  68 101  84 101  88 100
M  END
> <chiral flag>
0

> <version>
0

> <s_m_source_file>
/data/baiqing/PycharmProjects/Reinvent-master-3.2/result/LINK_invent/BTK/process_docking_weight1_custom_product_contain_oxygen_bond_distance_aromatic_linkinvent_7_9_3/rearranged_h_0140.sdf

> <i_m_source_file_index>
5

> <r_mmod_Potential_Energy-OPLS-2005>
336.37841796875

> <r_mmod_Stretch_Energy-OPLS-2005>
151.259979248047

> <r_mmod_Bend_Energy-OPLS-2005>
229.639724731445

> <r_mmod_Torsional_Energy-OPLS-2005>
282.837951660156

> <r_mmod_Improper_Torsional_Energy-OPLS-2005>
5.88979864120483

> <r_mmod_Van_der_Waal_Energy-OPLS-2005>
185.037719726562

> <r_mmod_Electrostatic_Energy-OPLS-2005>
-419.730407714844

> <r_mmod_Solvation_Energy-OPLS-2005>
-182.363525390625

> <b_mmod_Minimization_Converged-OPLS-2005>
0

> <r_mmod_RMS_Derivative-OPLS-2005>
4.07741022109985

$$$$
5
                    3D
 Structure written by MMmdl.
175183  0  0  1  0            999 V2000
  -30.5773  -14.5857   20.5445 C   0  0  0  0  0  0
  -30.4509  -12.3667   19.4194 C   0  0  0  0  0  0
  -29.4998  -12.5061   18.2052 C   0  0  0  0  0  0
  -28.0202  -12.3445   18.6145 C   0  0  0  0  0  0
  -27.6516  -13.1858   19.8634 C   0  0  2  0  0  0
  -28.7004  -12.9741   20.9829 C   0  0  0  0  0  0
  -25.2597  -13.8134   20.5601 C   0  0  0  0  0  0
  -24.1823  -13.0472   20.9163 C   0  0  0  0  0  0
  -24.6334  -11.6914   20.8754 C   0  0  0  0  0  0
  -23.8968  -10.4313   21.0417 C   0  0  0  0  0  0
  -24.3538   -9.4235   21.9185 C   0  0  0  0  0  0
  -23.6225   -8.2265   22.0760 C   0  0  0  0  0  0
  -22.4234   -8.0255   21.3512 C   0  0  0  0  0  0
  -21.9832   -9.0247   20.4643 C   0  0  0  0  0  0
  -22.7141  -10.2154   20.3065 C   0  0  0  0  0  0
  -21.6838   -6.0694   22.5242 C   0  0  0  0  0  0
  -21.4024   -6.5625   23.8175 C   0  0  0  0  0  0
  -21.3667   -5.6798   24.9148 C   0  0  0  0  0  0
  -21.6040   -4.3055   24.7215 C   0  0  0  0  0  0
  -21.8819   -3.8116   23.4354 C   0  0  0  0  0  0
  -21.9204   -4.6915   22.3399 C   0  0  0  0  0  0
  -22.7866  -13.5300   21.1802 C   0  0  0  0  0  0
  -22.1652   -4.2092   21.0969 F   0  0  0  0  0  0
  -21.5623   -3.4550   25.7734 F   0  0  0  0  0  0
  -30.0216  -13.3443   20.4309 N   0  0  0  0  0  0
  -26.2943  -12.9221   20.3256 N   0  0  0  0  0  0
  -25.9245  -11.6433   20.5796 N   0  0  0  0  0  0
  -22.0469  -12.8340   22.0354 N   0  0  0  0  0  0
  -25.4458  -15.1837   20.3958 N   0  0  0  0  0  0
  -31.7349  -14.8442   20.1962 O   0  0  0  0  0  0
  -21.6638   -6.8829   21.4194 O   0  0  0  0  0  0
  -22.3560  -14.5574   20.6588 O   0  0  0  0  0  0
  -24.6214  -31.8617   23.2000 C   0  0  0  0  0  0
  -25.9066  -32.4783   23.8347 C   0  0  1  0  0  0
  -27.2496  -27.3509   20.1435 C   0  0  0  0  0  0
  -25.5900  -33.8571   24.2282 N   0  0  0  0  0  0
  -23.4171  -30.4767   21.5426 C   0  0  2  0  0  0
  -24.8676  -28.9190   20.1247 C   0  0  0  0  0  0
  -22.7457  -29.4608   22.4973 C   0  0  0  0  0  0
  -18.0278  -28.1390   22.8490 C   0  0  0  0  0  0
  -24.1487  -36.7297   23.2645 C   0  0  0  0  0  0
  -25.9499  -30.8006   21.3654 C   0  0  0  0  0  0
  -26.0291  -29.4244   20.7222 C   0  0  0  0  0  0
  -27.2210  -28.6517   20.7174 C   0  0  0  0  0  0
  -26.0673  -26.8704   19.5404 C   0  0  0  0  0  0
  -24.8861  -27.6456   19.5234 C   0  0  0  0  0  0
  -23.6318  -29.7952   20.1642 C   0  0  0  0  0  0
  -25.4112  -36.3084   24.0341 C   0  0  1  0  0  0
  -20.5881  -28.3685   23.1307 C   0  0  2  0  0  0
  -20.6775  -26.9412   22.5415 C   0  0  0  0  0  0
  -19.5739  -26.6390   21.5218 C   0  0  0  0  0  0
  -18.1921  -26.7932   22.1626 C   0  0  0  0  0  0
  -19.1534  -28.8851   23.2891 C   0  0  0  0  0  0
  -18.9451  -30.1463   23.8900 C   0  0  0  0  0  0
  -17.6453  -30.6596   24.0565 C   0  0  0  0  0  0
  -25.9043  -34.9459   23.5121 C   0  0  0  0  0  0
  -16.5340  -29.9096   23.6330 C   0  0  0  0  0  0
  -16.7269  -28.6509   23.0349 C   0  0  0  0  0  0
  -26.4466  -31.6591   25.0705 C   0  0  0  0  0  0
  -25.3705  -31.3747   26.1446 C   0  0  0  0  0  0
  -27.0296  -30.3017   24.6136 C   0  0  0  0  0  0
  -27.6051  -32.4314   25.7445 C   0  0  0  0  0  0
  -27.5584  -37.1793   24.8459 C   0  0  0  0  0  0
  -21.4179  -29.3040   22.3700 N   0  0  0  0  0  0
  -26.4290  -37.3777   23.9412 N   0  0  0  0  0  0
  -24.6817  -31.0630   22.0947 N   0  0  0  0  0  0
  -23.4175  -28.8181   23.3074 O   0  0  0  0  0  0
  -28.4342  -26.6192   20.1021 O   0  0  0  0  0  0
  -26.5624  -34.8923   22.4688 O   0  0  0  0  0  0
  -23.5389  -32.1387   23.7344 O   0  0  0  0  0  0
  -28.6031  -16.8859   22.4342 C   0  0  0  0  0  0
  -29.9824  -18.0647   20.8275 C   0  0  0  0  0  0
  -28.1378  -18.1040   22.9557 C   0  0  0  0  0  0
  -28.5621  -19.3381   22.3869 C   0  0  0  0  0  0
  -29.5091  -16.8264   21.3632 C   0  0  0  0  0  0
  -29.5158  -19.3324   21.3210 C   0  0  0  0  0  0
  -27.1515  -18.0346   24.1156 C   0  0  0  0  0  0
  -26.5792  -20.9396   22.3929 C   0  0  0  0  0  0
  -29.0243  -24.0040   18.3804 C   0  0  0  0  0  0
  -30.7928  -25.3603   19.4930 C   0  0  0  0  0  0
  -30.4741  -23.2563   21.9615 C   0  0  0  0  0  0
  -31.6323  -22.6480   19.8492 C   0  0  0  0  0  0
  -27.9826  -20.6312   22.9578 C   0  0  0  0  0  0
  -28.5167  -25.2156   20.5324 C   0  0  0  0  0  0
  -29.4038  -21.6611   20.2957 C   0  0  0  0  0  0
  -29.6283  -24.3607   19.7560 C   0  0  0  0  0  0
  -30.2362  -23.0069   20.4533 C   0  0  0  0  0  0
  -29.6173  -15.5199   20.7767 N   0  0  0  0  0  0
  -30.1167  -20.4965   20.8258 O   0  0  0  0  0  0
  -31.4876  -12.5270   19.1130 H   0  0  0  0  0  0
  -30.4071  -11.3571   19.8306 H   0  0  0  0  0  0
  -29.7512  -11.7745   17.4359 H   0  0  0  0  0  0
  -29.6377  -13.4897   17.7519 H   0  0  0  0  0  0
  -27.8343  -11.2872   18.8072 H   0  0  0  0  0  0
  -27.3686  -12.6107   17.7805 H   0  0  0  0  0  0
  -27.6791  -14.2244   19.5395 H   0  0  0  0  0  0
  -28.7102  -11.9345   21.3052 H   0  0  0  0  0  0
  -28.4515  -13.5471   21.8796 H   0  0  0  0  0  0
  -25.2693   -9.5756   22.4757 H   0  0  0  0  0  0
  -23.9922   -7.4709   22.7550 H   0  0  0  0  0  0
  -21.0726   -8.8777   19.9011 H   0  0  0  0  0  0
  -22.3539  -10.9691   19.6198 H   0  0  0  0  0  0
  -21.2038   -7.6143   23.9660 H   0  0  0  0  0  0
  -21.1460   -6.0531   25.9041 H   0  0  0  0  0  0
  -22.0599   -2.7568   23.2879 H   0  0  0  0  0  0
  -22.3987  -11.9962   22.4738 H   0  0  0  0  0  0
  -21.1131  -13.1466   22.2621 H   0  0  0  0  0  0
  -24.6987  -15.8588   20.5067 H   0  0  0  0  0  0
  -26.2985  -15.5961   20.0333 H   0  0  0  0  0  0
  -26.7148  -32.5481   23.1124 H   0  0  0  0  0  0
  -25.0031  -33.9721   25.0417 H   0  0  0  0  0  0
  -22.7098  -31.2951   21.3925 H   0  0  0  0  0  0
  -23.3740  -35.9638   23.3317 H   0  0  0  0  0  0
  -24.3554  -36.8890   22.2048 H   0  0  0  0  0  0
  -23.7250  -37.6514   23.6644 H   0  0  0  0  0  0
  -26.0711  -31.5550   20.5881 H   0  0  0  0  0  0
  -26.8356  -30.8580   21.9867 H   0  0  0  0  0  0
  -28.1223  -29.0417   21.1697 H   0  0  0  0  0  0
  -26.0595  -25.8976   19.0699 H   0  0  0  0  0  0
  -23.9962  -27.2482   19.0520 H   0  0  0  0  0  0
  -23.7448  -30.5628   19.3975 H   0  0  0  0  0  0
  -22.7547  -29.2167   19.8674 H   0  0  0  0  0  0
  -25.1287  -36.1955   25.0834 H   0  0  0  0  0  0
  -20.9961  -28.3256   24.1431 H   0  0  0  0  0  0
  -20.5666  -26.2304   23.3616 H   0  0  0  0  0  0
  -21.6646  -26.7408   22.1230 H   0  0  0  0  0  0
  -19.6906  -25.6298   21.1246 H   0  0  0  0  0  0
  -19.6696  -27.3205   20.6747 H   0  0  0  0  0  0
  -17.4200  -26.6687   21.4021 H   0  0  0  0  0  0
  -18.0289  -26.0060   22.9002 H   0  0  0  0  0  0
  -19.7941  -30.7265   24.2275 H   0  0  0  0  0  0
  -17.5007  -31.6271   24.5188 H   0  0  0  0  0  0
  -15.5337  -30.2994   23.7640 H   0  0  0  0  0  0
  -15.8678  -28.0818   22.7058 H   0  0  0  0  0  0
  -24.5870  -30.7102   25.7789 H   0  0  0  0  0  0
  -24.8897  -32.2920   26.4855 H   0  0  0  0  0  0
  -25.8024  -30.8939   27.0234 H   0  0  0  0  0  0
  -26.2858  -29.6769   24.1169 H   0  0  0  0  0  0
  -27.4021  -29.7266   25.4630 H   0  0  0  0  0  0
  -27.8715  -30.4317   23.9325 H   0  0  0  0  0  0
  -27.2697  -33.3627   26.2025 H   0  0  0  0  0  0
  -28.3836  -32.6858   25.0235 H   0  0  0  0  0  0
  -28.0747  -31.8426   26.5337 H   0  0  0  0  0  0
  -28.2621  -38.0072   24.7478 H   0  0  0  0  0  0
  -28.1058  -36.2596   24.6316 H   0  0  0  0  0  0
  -27.2295  -37.1479   25.8861 H   0  0  0  0  0  0
  -20.9378  -29.8733   21.6878 H   0  0  0  0  0  0
  -26.0183  -38.2864   24.1381 H   0  0  0  0  0  0
  -28.2037  -15.9646   22.8371 H   0  0  0  0  0  0
  -30.6704  -18.0440   19.9945 H   0  0  0  0  0  0
  -27.1343  -17.0419   24.5662 H   0  0  0  0  0  0
  -26.1370  -18.2419   23.7752 H   0  0  0  0  0  0
  -27.4050  -18.7186   24.9266 H   0  0  0  0  0  0
  -26.1897  -21.8776   22.7877 H   0  0  0  0  0  0
  -25.8596  -20.1602   22.6333 H   0  0  0  0  0  0
  -26.5726  -21.0161   21.3081 H   0  0  0  0  0  0
  -28.6690  -24.8964   17.8650 H   0  0  0  0  0  0
  -28.1643  -23.3385   18.4765 H   0  0  0  0  0  0
  -29.7508  -23.5204   17.7274 H   0  0  0  0  0  0
  -30.4609  -26.2743   19.0039 H   0  0  0  0  0  0
  -31.5458  -24.9681   18.8125 H   0  0  0  0  0  0
  -31.2889  -25.6536   20.4200 H   0  0  0  0  0  0
  -30.9559  -22.3989   22.4357 H   0  0  0  0  0  0
  -29.5436  -23.4373   22.4992 H   0  0  0  0  0  0
  -31.1217  -24.1123   22.1421 H   0  0  0  0  0  0
  -32.0574  -21.7314   20.2597 H   0  0  0  0  0  0
  -32.3918  -23.4020   20.0516 H   0  0  0  0  0  0
  -31.5792  -22.5003   18.7716 H   0  0  0  0  0  0
  -28.6706  -21.4501   22.7919 H   0  0  0  0  0  0
  -27.9340  -20.5895   24.0429 H   0  0  0  0  0  0
  -28.7710  -25.2823   21.5892 H   0  0  0  0  0  0
  -27.5477  -24.7173   20.5030 H   0  0  0  0  0  0
  -29.2420  -21.4442   19.2399 H   0  0  0  0  0  0
  -28.4149  -21.8072   20.6998 H   0  0  0  0  0  0
  -28.7544  -15.0091   20.8786 H   0  0  0  0  0  0
  1 25  1  0  0  0
  1 30  2  0  0  0
  1 88  1  0  0  0
  2  3  1  0  0  0
  2 25  1  0  0  0
  2 90  1  0  0  0
  2 91  1  0  0  0
  3  4  1  0  0  0
  3 92  1  0  0  0
  3 93  1  0  0  0
  4  5  1  0  0  0
  4 94  1  0  0  0
  4 95  1  0  0  0
  5  6  1  0  0  0
  5 26  1  0  0  0
  5 96  1  0  0  0
  6 25  1  0  0  0
  6 97  1  0  0  0
  6 98  1  0  0  0
  7  8  2  0  0  0
  7 26  1  0  0  0
  7 29  1  0  0  0
  8  9  1  0  0  0
  8 22  1  0  0  0
  9 10  1  0  0  0
  9 27  2  0  0  0
 10 11  2  0  0  0
 10 15  1  0  0  0
 11 12  1  0  0  0
 11 99  1  0  0  0
 12 13  2  0  0  0
 12100  1  0  0  0
 13 14  1  0  0  0
 13 31  1  0  0  0
 14 15  2  0  0  0
 14101  1  0  0  0
 15102  1  0  0  0
 16 17  2  0  0  0
 16 21  1  0  0  0
 16 31  1  0  0  0
 17 18  1  0  0  0
 17103  1  0  0  0
 18 19  2  0  0  0
 18104  1  0  0  0
 19 20  1  0  0  0
 19 24  1  0  0  0
 20 21  2  0  0  0
 20105  1  0  0  0
 21 23  1  0  0  0
 22 28  1  0  0  0
 22 32  2  0  0  0
 26 27  1  0  0  0
 28106  1  0  0  0
 28107  1  0  0  0
 29108  1  0  0  0
 29109  1  0  0  0
 33 34  1  0  0  0
 33 66  1  0  0  0
 33 70  2  0  0  0
 34 36  1  0  0  0
 34 59  1  0  0  0
 34110  1  0  0  0
 35 44  2  0  0  0
 35 45  1  0  0  0
 35 68  1  0  0  0
 36 56  1  0  0  0
 36111  1  0  0  0
 37 39  1  0  0  0
 37 47  1  0  0  0
 37 66  1  0  0  0
 37112  1  0  0  0
 38 43  2  0  0  0
 38 46  1  0  0  0
 38 47  1  0  0  0
 39 64  1  0  0  0
 39 67  2  0  0  0
 40 52  1  0  0  0
 40 53  2  0  0  0
 40 58  1  0  0  0
 41113  1  0  0  0
 41114  1  0  0  0
 41115  1  0  0  0
 41 48  1  0  0  0
 42 43  1  0  0  0
 42 66  1  0  0  0
 42116  1  0  0  0
 42117  1  0  0  0
 43 44  1  0  0  0
 44118  1  0  0  0
 45 46  2  0  0  0
 45119  1  0  0  0
 46120  1  0  0  0
 47121  1  0  0  0
 47122  1  0  0  0
 48 56  1  0  0  0
 48 65  1  0  0  0
 48123  1  0  0  0
 49 50  1  0  0  0
 49 53  1  0  0  0
 49 64  1  0  0  0
 49124  1  0  0  0
 50 51  1  0  0  0
 50125  1  0  0  0
 50126  1  0  0  0
 51 52  1  0  0  0
 51127  1  0  0  0
 51128  1  0  0  0
 52129  1  0  0  0
 52130  1  0  0  0
 53 54  1  0  0  0
 54 55  2  0  0  0
 54131  1  0  0  0
 55 57  1  0  0  0
 55132  1  0  0  0
 56 69  2  0  0  0
 57 58  2  0  0  0
 57133  1  0  0  0
 58134  1  0  0  0
 59 60  1  0  0  0
 59 61  1  0  0  0
 59 62  1  0  0  0
 60135  1  0  0  0
 60136  1  0  0  0
 60137  1  0  0  0
 61138  1  0  0  0
 61139  1  0  0  0
 61140  1  0  0  0
 62141  1  0  0  0
 62142  1  0  0  0
 62143  1  0  0  0
 63 65  1  0  0  0
 63144  1  0  0  0
 63145  1  0  0  0
 63146  1  0  0  0
 64147  1  0  0  0
 65148  1  0  0  0
 68 84  1  0  0  0
 71 73  2  0  0  0
 71 75  1  0  0  0
 71149  1  0  0  0
 72 75  2  0  0  0
 72 76  1  0  0  0
 72150  1  0  0  0
 73 74  1  0  0  0
 73 77  1  0  0  0
 74 76  2  0  0  0
 74 83  1  0  0  0
 75 88  1  0  0  0
 76 89  1  0  0  0
 77151  1  0  0  0
 77152  1  0  0  0
 77153  1  0  0  0
 78 83  1  0  0  0
 78154  1  0  0  0
 78155  1  0  0  0
 78156  1  0  0  0
 79157  1  0  0  0
 79158  1  0  0  0
 79159  1  0  0  0
 79 86  1  0  0  0
 80 86  1  0  0  0
 80160  1  0  0  0
 80161  1  0  0  0
 80162  1  0  0  0
 81163  1  0  0  0
 81164  1  0  0  0
 81165  1  0  0  0
 81 87  1  0  0  0
 82 87  1  0  0  0
 82166  1  0  0  0
 82167  1  0  0  0
 82168  1  0  0  0
 83169  1  0  0  0
 83170  1  0  0  0
 84 86  1  0  0  0
 84171  1  0  0  0
 84172  1  0  0  0
 85 87  1  0  0  0
 85 89  1  0  0  0
 85173  1  0  0  0
 85174  1  0  0  0
 86 87  1  0  0  0
 88175  1  0  0  0
M  ISO  4   1 100  68 101  84 101  88 100
M  END
> <chiral flag>
0

> <version>
0

> <s_m_source_file>
/data/baiqing/PycharmProjects/Reinvent-master-3.2/result/LINK_invent/BTK/process_docking_weight1_custom_product_contain_oxygen_bond_distance_aromatic_linkinvent_7_9_3/rearranged_h_0140.sdf

> <i_m_source_file_index>
6

> <r_mmod_Potential_Energy-OPLS-2005>
224.277755737305

> <r_mmod_Stretch_Energy-OPLS-2005>
83.9648132324219

> <r_mmod_Bend_Energy-OPLS-2005>
199.423477172852

> <r_mmod_Torsional_Energy-OPLS-2005>
308.731872558594

> <r_mmod_Improper_Torsional_Energy-OPLS-2005>
12.2914762496948

> <r_mmod_Van_der_Waal_Energy-OPLS-2005>
168.165954589844

> <r_mmod_Electrostatic_Energy-OPLS-2005>
-387.199127197266

> <r_mmod_Solvation_Energy-OPLS-2005>
-196.058563232422

> <b_mmod_Minimization_Converged-OPLS-2005>
0

> <r_mmod_RMS_Derivative-OPLS-2005>
5.0635724067688

$$$$
6
                    3D
 Structure written by MMmdl.
168176  0  0  1  0            999 V2000
  -30.7264  -14.5197   20.4964 C   0  0  0  0  0  0
  -30.4132  -12.3210   19.4158 C   0  0  0  0  0  0
  -29.4858  -12.4830   18.1960 C   0  0  0  0  0  0
  -28.0112  -12.3482   18.6202 C   0  0  0  0  0  0
  -27.6529  -13.2179   19.8559 C   0  0  2  0  0  0
  -28.7074  -13.0697   20.9766 C   0  0  0  0  0  0
  -25.2581  -13.8201   20.5690 C   0  0  0  0  0  0
  -24.1860  -13.0456   20.9203 C   0  0  0  0  0  0
  -24.6437  -11.6916   20.8774 C   0  0  0  0  0  0
  -23.9111  -10.4291   21.0433 C   0  0  0  0  0  0
  -24.3643   -9.4192   21.9203 C   0  0  0  0  0  0
  -23.6300   -8.2234   22.0771 C   0  0  0  0  0  0
  -22.4280   -8.0302   21.3560 C   0  0  0  0  0  0
  -21.9931   -9.0276   20.4661 C   0  0  0  0  0  0
  -22.7284  -10.2150   20.3074 C   0  0  0  0  0  0
  -21.6840   -6.0753   22.5291 C   0  0  0  0  0  0
  -21.4009   -6.5640   23.8223 C   0  0  0  0  0  0
  -21.3653   -5.6801   24.9173 C   0  0  0  0  0  0
  -21.6042   -4.3064   24.7224 C   0  0  0  0  0  0
  -21.8820   -3.8156   23.4334 C   0  0  0  0  0  0
  -21.9185   -4.6985   22.3405 C   0  0  0  0  0  0
  -22.7864  -13.5253   21.1854 C   0  0  0  0  0  0
  -22.1653   -4.2175   21.0984 F   0  0  0  0  0  0
  -21.5629   -3.4553   25.7721 F   0  0  0  0  0  0
  -30.0241  -13.3545   20.3904 N   0  0  0  0  0  0
  -26.3007  -12.9377   20.3320 N   0  0  0  0  0  0
  -25.9372  -11.6538   20.5798 N   0  0  0  0  0  0
  -22.0479  -12.8234   22.0371 N   0  0  0  0  0  0
  -25.4258  -15.1916   20.4092 N   0  0  0  0  0  0
  -31.9019  -14.6043   20.1379 O   0  0  0  0  0  0
  -21.6634   -6.8894   21.4254 O   0  0  0  0  0  0
  -22.3539  -14.5536   20.6676 O   0  0  0  0  0  0
  -24.6184  -31.8620   23.2049 C   0  0  0  0  0  0
  -25.9064  -32.4779   23.8346 C   0  0  1  0  0  0
  -27.2452  -27.3658   20.1474 C   0  0  0  0  0  0
  -25.5887  -33.8572   24.2275 N   0  0  0  0  0  0
  -23.4131  -30.4793   21.5404 C   0  0  2  0  0  0
  -24.8704  -28.9397   20.1085 C   0  0  0  0  0  0
  -22.7445  -29.4607   22.4925 C   0  0  0  0  0  0
  -18.0277  -28.1359   22.8446 C   0  0  0  0  0  0
  -24.1496  -36.7334   23.2637 C   0  0  0  0  0  0
  -25.9446  -30.8105   21.3643 C   0  0  0  0  0  0
  -26.0276  -29.4351   20.7215 C   0  0  0  0  0  0
  -27.2152  -28.6584   20.7374 C   0  0  0  0  0  0
  -26.0818  -26.9165   19.4889 C   0  0  0  0  0  0
  -24.8981  -27.6829   19.4758 C   0  0  0  0  0  0
  -23.6306  -29.8061   20.1564 C   0  0  0  0  0  0
  -25.4118  -36.3082   24.0309 C   0  0  1  0  0  0
  -20.5886  -28.3650   23.1307 C   0  0  2  0  0  0
  -20.6780  -26.9373   22.5427 C   0  0  0  0  0  0
  -19.5763  -26.6365   21.5224 C   0  0  0  0  0  0
  -18.1920  -26.7909   22.1589 C   0  0  0  0  0  0
  -19.1526  -28.8816   23.2878 C   0  0  0  0  0  0
  -18.9462  -30.1428   23.8863 C   0  0  0  0  0  0
  -17.6455  -30.6561   24.0538 C   0  0  0  0  0  0
  -25.9075  -34.9452   23.5123 C   0  0  0  0  0  0
  -16.5346  -29.9069   23.6341 C   0  0  0  0  0  0
  -16.7268  -28.6497   23.0323 C   0  0  0  0  0  0
  -26.4466  -31.6574   25.0693 C   0  0  0  0  0  0
  -25.3724  -31.3665   26.1436 C   0  0  0  0  0  0
  -27.0341  -30.3031   24.6102 C   0  0  0  0  0  0
  -27.6044  -32.4299   25.7438 C   0  0  0  0  0  0
  -27.5571  -37.1805   24.8447 C   0  0  0  0  0  0
  -21.4166  -29.3017   22.3693 N   0  0  0  0  0  0
  -26.4291  -37.3778   23.9381 N   0  0  0  0  0  0
  -24.6772  -31.0676   22.0957 N   0  0  0  0  0  0
  -23.4183  -28.8165   23.3027 O   0  0  0  0  0  0
  -28.3919  -26.5730   20.1318 O   0  0  0  0  0  0
  -26.5639  -34.8900   22.4705 O   0  0  0  0  0  0
  -23.5386  -32.1347   23.7430 O   0  0  0  0  0  0
  -32.2610  -18.2679   22.2592 C   0  0  0  0  0  0
  -31.7819  -19.4518   21.6674 C   0  0  0  0  0  0
  -31.6685  -17.0303   21.9597 C   0  0  0  0  0  0
  -30.0909  -18.1574   20.4814 C   0  0  0  0  0  0
  -30.7013  -19.4246   20.7597 C   0  0  0  0  0  0
  -30.5851  -16.9452   21.0597 C   0  0  0  0  0  0
  -31.8552  -23.2076   20.6971 C   0  0  0  0  0  0
  -30.3802  -23.1716   22.6844 C   0  0  0  0  0  0
  -28.7411  -26.0420   22.4475 C   0  0  0  0  0  0
  -27.3237  -24.4749   21.0253 C   0  0  0  0  0  0
  -30.3643  -20.7038   19.9467 C   0  0  0  0  0  0
  -29.6141  -21.9423   20.5959 C   0  0  0  0  0  0
  -29.8212  -24.6285   20.5655 C   0  0  0  0  0  0
  -30.3729  -23.2310   21.1404 C   0  0  0  0  0  0
  -28.5386  -25.4239   21.0453 C   0  0  0  0  0  0
  -30.0218  -15.6473   20.7722 N   0  0  0  0  0  0
  -31.4561  -12.3986   19.1036 H   0  0  0  0  0  0
  -30.3068  -11.3252   19.8498 H   0  0  0  0  0  0
  -29.7248  -11.7382   17.4362 H   0  0  0  0  0  0
  -29.6510  -13.4543   17.7305 H   0  0  0  0  0  0
  -27.8308  -11.2970   18.8442 H   0  0  0  0  0  0
  -27.3567  -12.5921   17.7844 H   0  0  0  0  0  0
  -27.6746  -14.2522   19.5180 H   0  0  0  0  0  0
  -28.6953  -12.0593   21.3869 H   0  0  0  0  0  0
  -28.4887  -13.7368   21.8120 H   0  0  0  0  0  0
  -25.2793   -9.5650   22.4787 H   0  0  0  0  0  0
  -23.9999   -7.4624   22.7488 H   0  0  0  0  0  0
  -21.0863   -8.8823   19.8956 H   0  0  0  0  0  0
  -22.3767  -10.9704   19.6183 H   0  0  0  0  0  0
  -21.1999   -7.6154   23.9734 H   0  0  0  0  0  0
  -21.1476   -6.0522   25.9079 H   0  0  0  0  0  0
  -22.0601   -2.7632   23.2837 H   0  0  0  0  0  0
  -22.4052  -11.9893   22.4787 H   0  0  0  0  0  0
  -21.1103  -13.1293   22.2559 H   0  0  0  0  0  0
  -24.6627  -15.8469   20.5343 H   0  0  0  0  0  0
  -26.2698  -15.6330   20.0652 H   0  0  0  0  0  0
  -26.7118  -32.5473   23.1079 H   0  0  0  0  0  0
  -24.9987  -33.9710   25.0383 H   0  0  0  0  0  0
  -22.6996  -31.2933   21.3887 H   0  0  0  0  0  0
  -23.3731  -35.9711   23.3324 H   0  0  0  0  0  0
  -24.3593  -36.8982   22.2061 H   0  0  0  0  0  0
  -23.7306  -37.6547   23.6676 H   0  0  0  0  0  0
  -26.0665  -31.5680   20.5864 H   0  0  0  0  0  0
  -26.8287  -30.8723   21.9850 H   0  0  0  0  0  0
  -28.1027  -29.0416   21.2209 H   0  0  0  0  0  0
  -26.0941  -25.9601   18.9840 H   0  0  0  0  0  0
  -24.0235  -27.3041   18.9580 H   0  0  0  0  0  0
  -23.7295  -30.5721   19.3891 H   0  0  0  0  0  0
  -22.7554  -29.2203   19.8724 H   0  0  0  0  0  0
  -25.1312  -36.1933   25.0801 H   0  0  0  0  0  0
  -20.9936  -28.3197   24.1450 H   0  0  0  0  0  0
  -20.5704  -26.2196   23.3574 H   0  0  0  0  0  0
  -21.6628  -26.7434   22.1168 H   0  0  0  0  0  0
  -19.6931  -25.6308   21.1189 H   0  0  0  0  0  0
  -19.6711  -27.3199   20.6776 H   0  0  0  0  0  0
  -17.4196  -26.6633   21.3980 H   0  0  0  0  0  0
  -18.0285  -26.0090   22.9001 H   0  0  0  0  0  0
  -19.7950  -30.7249   24.2137 H   0  0  0  0  0  0
  -17.5043  -31.6213   24.5164 H   0  0  0  0  0  0
  -15.5349  -30.2937   23.7728 H   0  0  0  0  0  0
  -15.8667  -28.0840   22.7031 H   0  0  0  0  0  0
  -24.5906  -30.7005   25.7769 H   0  0  0  0  0  0
  -24.8863  -32.2787   26.4906 H   0  0  0  0  0  0
  -25.8075  -30.8792   27.0181 H   0  0  0  0  0  0
  -26.2908  -29.6706   24.1223 H   0  0  0  0  0  0
  -27.4233  -29.7350   25.4570 H   0  0  0  0  0  0
  -27.8646  -30.4367   23.9180 H   0  0  0  0  0  0
  -27.2723  -33.3645   26.1955 H   0  0  0  0  0  0
  -28.3851  -32.6828   25.0259 H   0  0  0  0  0  0
  -28.0700  -31.8461   26.5383 H   0  0  0  0  0  0
  -28.2571  -38.0115   24.7549 H   0  0  0  0  0  0
  -28.1086  -36.2663   24.6214 H   0  0  0  0  0  0
  -27.2289  -37.1427   25.8849 H   0  0  0  0  0  0
  -20.9316  -29.8724   21.6900 H   0  0  0  0  0  0
  -26.0172  -38.2836   24.1446 H   0  0  0  0  0  0
  -33.1108  -18.3005   22.9261 H   0  0  0  0  0  0
  -32.2962  -20.3735   21.8877 H   0  0  0  0  0  0
  -32.0696  -16.1381   22.4208 H   0  0  0  0  0  0
  -29.2790  -18.1106   19.7685 H   0  0  0  0  0  0
  -32.3611  -22.2837   20.9596 H   0  0  0  0  0  0
  -32.4359  -24.0048   21.1650 H   0  0  0  0  0  0
  -31.9441  -23.3357   19.6190 H   0  0  0  0  0  0
  -30.8883  -22.2758   23.0423 H   0  0  0  0  0  0
  -29.3735  -23.1398   23.1023 H   0  0  0  0  0  0
  -30.8946  -24.0260   23.1232 H   0  0  0  0  0  0
  -28.8194  -25.2947   23.2325 H   0  0  0  0  0  0
  -27.9116  -26.6879   22.7291 H   0  0  0  0  0  0
  -29.6425  -26.6540   22.4746 H   0  0  0  0  0  0
  -27.4582  -23.6582   21.7352 H   0  0  0  0  0  0
  -27.1774  -24.0292   20.0385 H   0  0  0  0  0  0
  -26.4046  -24.9799   21.3146 H   0  0  0  0  0  0
  -29.7461  -20.3663   19.1120 H   0  0  0  0  0  0
  -31.2790  -21.0201   19.4446 H   0  0  0  0  0  0
  -28.8600  -21.5925   21.3017 H   0  0  0  0  0  0
  -29.0084  -22.3237   19.7752 H   0  0  0  0  0  0
  -29.7091  -24.4918   19.4904 H   0  0  0  0  0  0
  -30.6287  -25.3560   20.6479 H   0  0  0  0  0  0
  -29.0176  -15.5637   20.7687 H   0  0  0  0  0  0
  1 25  1  0  0  0
  1 30  2  0  0  0
  1 86  1  0  0  0
  2  3  1  0  0  0
  2 25  1  0  0  0
  2 87  1  0  0  0
  2 88  1  0  0  0
  3  4  1  0  0  0
  3 89  1  0  0  0
  3 90  1  0  0  0
  4  5  1  0  0  0
  4 91  1  0  0  0
  4 92  1  0  0  0
  5  6  1  0  0  0
  5 26  1  0  0  0
  5 93  1  0  0  0
  6 25  1  0  0  0
  6 94  1  0  0  0
  6 95  1  0  0  0
  7  8  2  0  0  0
  7 26  1  0  0  0
  7 29  1  0  0  0
  8  9  1  0  0  0
  8 22  1  0  0  0
  9 10  1  0  0  0
  9 27  2  0  0  0
 10 11  2  0  0  0
 10 15  1  0  0  0
 11 12  1  0  0  0
 11 96  1  0  0  0
 12 13  2  0  0  0
 12 97  1  0  0  0
 13 14  1  0  0  0
 13 31  1  0  0  0
 14 15  2  0  0  0
 14 98  1  0  0  0
 15 99  1  0  0  0
 16 17  2  0  0  0
 16 21  1  0  0  0
 16 31  1  0  0  0
 17 18  1  0  0  0
 17100  1  0  0  0
 18 19  2  0  0  0
 18101  1  0  0  0
 19 20  1  0  0  0
 19 24  1  0  0  0
 20 21  2  0  0  0
 20102  1  0  0  0
 21 23  1  0  0  0
 22 28  1  0  0  0
 22 32  2  0  0  0
 26 27  1  0  0  0
 28103  1  0  0  0
 28104  1  0  0  0
 29105  1  0  0  0
 29106  1  0  0  0
 33 34  1  0  0  0
 33 66  1  0  0  0
 33 70  2  0  0  0
 34 36  1  0  0  0
 34 59  1  0  0  0
 34107  1  0  0  0
 35 44  2  0  0  0
 35 45  1  0  0  0
 35 68  1  0  0  0
 36 56  1  0  0  0
 36108  1  0  0  0
 37 39  1  0  0  0
 37 47  1  0  0  0
 37 66  1  0  0  0
 37109  1  0  0  0
 38 43  2  0  0  0
 38 46  1  0  0  0
 38 47  1  0  0  0
 39 64  1  0  0  0
 39 67  2  0  0  0
 40 52  1  0  0  0
 40 53  2  0  0  0
 40 58  1  0  0  0
 41110  1  0  0  0
 41111  1  0  0  0
 41112  1  0  0  0
 41 48  1  0  0  0
 42 43  1  0  0  0
 42 66  1  0  0  0
 42113  1  0  0  0
 42114  1  0  0  0
 43 44  1  0  0  0
 44115  1  0  0  0
 45 46  2  0  0  0
 45116  1  0  0  0
 46117  1  0  0  0
 47118  1  0  0  0
 47119  1  0  0  0
 48 56  1  0  0  0
 48 65  1  0  0  0
 48120  1  0  0  0
 49 50  1  0  0  0
 49 53  1  0  0  0
 49 64  1  0  0  0
 49121  1  0  0  0
 50 51  1  0  0  0
 50122  1  0  0  0
 50123  1  0  0  0
 51 52  1  0  0  0
 51124  1  0  0  0
 51125  1  0  0  0
 52126  1  0  0  0
 52127  1  0  0  0
 53 54  1  0  0  0
 54 55  2  0  0  0
 54128  1  0  0  0
 55 57  1  0  0  0
 55129  1  0  0  0
 56 69  2  0  0  0
 57 58  2  0  0  0
 57130  1  0  0  0
 58131  1  0  0  0
 59 60  1  0  0  0
 59 61  1  0  0  0
 59 62  1  0  0  0
 60132  1  0  0  0
 60133  1  0  0  0
 60134  1  0  0  0
 61135  1  0  0  0
 61136  1  0  0  0
 61137  1  0  0  0
 62138  1  0  0  0
 62139  1  0  0  0
 62140  1  0  0  0
 63 65  1  0  0  0
 63141  1  0  0  0
 63142  1  0  0  0
 63143  1  0  0  0
 64144  1  0  0  0
 65145  1  0  0  0
 68 85  1  0  0  0
 71 72  2  0  0  0
 71 73  1  0  0  0
 71146  1  0  0  0
 72 75  1  0  0  0
 72147  1  0  0  0
 73 76  2  0  0  0
 73148  1  0  0  0
 74 75  2  0  0  0
 74 76  1  0  0  0
 74149  1  0  0  0
 75 81  1  0  0  0
 76 86  1  0  0  0
 77150  1  0  0  0
 77151  1  0  0  0
 77152  1  0  0  0
 77 84  1  0  0  0
 78 84  1  0  0  0
 78153  1  0  0  0
 78154  1  0  0  0
 78155  1  0  0  0
 79156  1  0  0  0
 79157  1  0  0  0
 79158  1  0  0  0
 79 85  1  0  0  0
 80 85  1  0  0  0
 80159  1  0  0  0
 80160  1  0  0  0
 80161  1  0  0  0
 81 82  1  0  0  0
 81162  1  0  0  0
 81163  1  0  0  0
 82 84  1  0  0  0
 82164  1  0  0  0
 82165  1  0  0  0
 83 84  1  0  0  0
 83 85  1  0  0  0
 83166  1  0  0  0
 83167  1  0  0  0
 86168  1  0  0  0
M  ISO  4   1 100  68 101  85 101  86 100
M  END
> <chiral flag>
0

> <version>
0

> <s_m_source_file>
/data/baiqing/PycharmProjects/Reinvent-master-3.2/result/LINK_invent/BTK/process_docking_weight1_custom_product_contain_oxygen_bond_distance_aromatic_linkinvent_7_9_3/rearranged_h_0140.sdf

> <i_m_source_file_index>
7

> <r_mmod_Potential_Energy-OPLS-2005>
131.901626586914

> <r_mmod_Stretch_Energy-OPLS-2005>
69.3930969238281

> <r_mmod_Bend_Energy-OPLS-2005>
159.464569091797

> <r_mmod_Torsional_Energy-OPLS-2005>
282.774627685547

> <r_mmod_Improper_Torsional_Energy-OPLS-2005>
6.49975395202637

> <r_mmod_Van_der_Waal_Energy-OPLS-2005>
149.935333251953

> <r_mmod_Electrostatic_Energy-OPLS-2005>
-372.550842285156

> <r_mmod_Solvation_Energy-OPLS-2005>
-191.555969238281

> <b_mmod_Minimization_Converged-OPLS-2005>
0

> <r_mmod_RMS_Derivative-OPLS-2005>
5.9155421257019

$$$$
7
                    3D
 Structure written by MMmdl.
165173  0  0  1  0            999 V2000
  -30.6600  -14.6331   20.4680 C   0  0  0  0  0  0
  -30.4135  -12.3901   19.4571 C   0  0  0  0  0  0
  -29.4906  -12.5121   18.2262 C   0  0  0  0  0  0
  -28.0130  -12.3632   18.6338 C   0  0  0  0  0  0
  -27.6403  -13.2340   19.8645 C   0  0  2  0  0  0
  -28.6875  -13.1151   20.9949 C   0  0  0  0  0  0
  -25.2475  -13.8208   20.5724 C   0  0  0  0  0  0
  -24.1755  -13.0432   20.9204 C   0  0  0  0  0  0
  -24.6363  -11.6923   20.8765 C   0  0  0  0  0  0
  -23.9037  -10.4296   21.0437 C   0  0  0  0  0  0
  -24.3599   -9.4218   21.9200 C   0  0  0  0  0  0
  -23.6289   -8.2243   22.0767 C   0  0  0  0  0  0
  -22.4273   -8.0277   21.3560 C   0  0  0  0  0  0
  -21.9899   -9.0240   20.4660 C   0  0  0  0  0  0
  -22.7226  -10.2123   20.3071 C   0  0  0  0  0  0
  -21.6857   -6.0744   22.5291 C   0  0  0  0  0  0
  -21.4016   -6.5642   23.8229 C   0  0  0  0  0  0
  -21.3664   -5.6807   24.9194 C   0  0  0  0  0  0
  -21.6043   -4.3063   24.7262 C   0  0  0  0  0  0
  -21.8812   -3.8150   23.4379 C   0  0  0  0  0  0
  -21.9179   -4.6966   22.3431 C   0  0  0  0  0  0
  -22.7771  -13.5210   21.1847 C   0  0  0  0  0  0
  -22.1650   -4.2140   21.1015 F   0  0  0  0  0  0
  -21.5634   -3.4552   25.7779 F   0  0  0  0  0  0
  -30.0009  -13.4327   20.4185 N   0  0  0  0  0  0
  -26.2903  -12.9421   20.3356 N   0  0  0  0  0  0
  -25.9301  -11.6560   20.5791 N   0  0  0  0  0  0
  -22.0428  -12.8199   22.0422 N   0  0  0  0  0  0
  -25.4141  -15.1934   20.4181 N   0  0  0  0  0  0
  -31.8543  -14.6993   20.1627 O   0  0  0  0  0  0
  -21.6645   -6.8867   21.4250 O   0  0  0  0  0  0
  -22.3448  -14.5533   20.6735 O   0  0  0  0  0  0
  -24.6269  -31.8589   23.2053 C   0  0  0  0  0  0
  -25.9138  -32.4749   23.8357 C   0  0  1  0  0  0
  -27.1935  -27.2861   20.1205 C   0  0  0  0  0  0
  -25.5962  -33.8556   24.2271 N   0  0  0  0  0  0
  -23.4179  -30.4902   21.5465 C   0  0  2  0  0  0
  -24.8572  -28.9489   20.1051 C   0  0  0  0  0  0
  -22.7455  -29.4643   22.4896 C   0  0  0  0  0  0
  -18.0291  -28.1381   22.8482 C   0  0  0  0  0  0
  -24.1492  -36.7280   23.2635 C   0  0  0  0  0  0
  -25.9643  -30.7741   21.3891 C   0  0  0  0  0  0
  -26.0262  -29.4037   20.7254 C   0  0  0  0  0  0
  -27.1921  -28.5810   20.7306 C   0  0  0  0  0  0
  -25.9990  -26.8941   19.4710 C   0  0  0  0  0  0
  -24.8491  -27.7025   19.4659 C   0  0  0  0  0  0
  -23.6312  -29.8366   20.1576 C   0  0  0  0  0  0
  -25.4118  -36.3064   24.0315 C   0  0  1  0  0  0
  -20.5887  -28.3700   23.1259 C   0  0  2  0  0  0
  -20.6786  -26.9424   22.5410 C   0  0  0  0  0  0
  -19.5768  -26.6388   21.5210 C   0  0  0  0  0  0
  -18.1937  -26.7922   22.1607 C   0  0  0  0  0  0
  -19.1544  -28.8854   23.2862 C   0  0  0  0  0  0
  -18.9471  -30.1451   23.8885 C   0  0  0  0  0  0
  -17.6476  -30.6586   24.0564 C   0  0  0  0  0  0
  -25.9072  -34.9428   23.5094 C   0  0  0  0  0  0
  -16.5366  -29.9089   23.6332 C   0  0  0  0  0  0
  -16.7280  -28.6504   23.0354 C   0  0  0  0  0  0
  -26.4522  -31.6576   25.0741 C   0  0  0  0  0  0
  -25.3748  -31.3757   26.1463 C   0  0  0  0  0  0
  -27.0388  -30.2972   24.6298 C   0  0  0  0  0  0
  -27.6085  -32.4310   25.7502 C   0  0  0  0  0  0
  -27.5578  -37.1788   24.8448 C   0  0  0  0  0  0
  -21.4169  -29.3043   22.3624 N   0  0  0  0  0  0
  -26.4283  -37.3769   23.9410 N   0  0  0  0  0  0
  -24.6879  -31.0593   22.1014 N   0  0  0  0  0  0
  -23.4169  -28.8156   23.2964 O   0  0  0  0  0  0
  -28.3112  -26.4364   20.2086 O   0  0  0  0  0  0
  -26.5634  -34.8899   22.4655 O   0  0  0  0  0  0
  -23.5430  -32.1417   23.7367 O   0  0  0  0  0  0
  -31.1147  -18.4345   18.2529 C   0  0  0  0  0  0
  -30.6003  -19.6217   18.7923 C   0  0  0  0  0  0
  -30.8949  -17.1998   18.8765 C   0  0  0  0  0  0
  -29.6150  -18.3504   20.6016 C   0  0  0  0  0  0
  -29.8333  -19.6454   19.9824 C   0  0  0  0  0  0
  -30.1523  -17.1095   20.0772 C   0  0  0  0  0  0
  -28.0338  -22.0421   18.6932 C   0  0  0  0  0  0
  -30.4186  -22.7518   18.9712 C   0  0  0  0  0  0
  -27.4538  -23.4737   21.4460 C   0  0  0  0  0  0
  -29.8189  -24.1887   21.5291 C   0  0  0  0  0  0
  -29.3172  -21.0252   20.6036 C   0  0  0  0  0  0
  -28.3429  -25.0558   19.6462 C   0  0  0  0  0  0
  -29.1153  -22.4019   19.7450 C   0  0  0  0  0  0
  -28.6874  -23.7646   20.5622 C   0  0  0  0  0  0
  -29.9225  -15.7787   20.6645 N   0  0  0  0  0  0
  -31.4563  -12.4868   19.1491 H   0  0  0  0  0  0
  -30.3202  -11.4015   19.9112 H   0  0  0  0  0  0
  -29.7479  -11.7564   17.4838 H   0  0  0  0  0  0
  -29.6403  -13.4793   17.7414 H   0  0  0  0  0  0
  -27.8305  -11.3098   18.8501 H   0  0  0  0  0  0
  -27.3671  -12.6124   17.7919 H   0  0  0  0  0  0
  -27.6490  -14.2708   19.5237 H   0  0  0  0  0  0
  -28.6908  -12.1061   21.4113 H   0  0  0  0  0  0
  -28.4495  -13.7843   21.8237 H   0  0  0  0  0  0
  -25.2744   -9.5714   22.4754 H   0  0  0  0  0  0
  -24.0019   -7.4644   22.7483 H   0  0  0  0  0  0
  -21.0837   -8.8764   19.8956 H   0  0  0  0  0  0
  -22.3679  -10.9667   19.6193 H   0  0  0  0  0  0
  -21.1992   -7.6153   23.9719 H   0  0  0  0  0  0
  -21.1501   -6.0555   25.9089 H   0  0  0  0  0  0
  -22.0570   -2.7604   23.2911 H   0  0  0  0  0  0
  -22.4084  -11.9897   22.4841 H   0  0  0  0  0  0
  -21.1038  -13.1207   22.2631 H   0  0  0  0  0  0
  -24.6425  -15.8444   20.5252 H   0  0  0  0  0  0
  -26.2619  -15.6379   20.0899 H   0  0  0  0  0  0
  -26.7185  -32.5386   23.1071 H   0  0  0  0  0  0
  -25.0122  -33.9708   25.0423 H   0  0  0  0  0  0
  -22.7117  -31.3115   21.4091 H   0  0  0  0  0  0
  -23.3771  -35.9599   23.3273 H   0  0  0  0  0  0
  -24.3583  -36.8944   22.2061 H   0  0  0  0  0  0
  -23.7234  -37.6456   23.6695 H   0  0  0  0  0  0
  -26.1208  -31.5403   20.6277 H   0  0  0  0  0  0
  -26.8334  -30.8024   22.0353 H   0  0  0  0  0  0
  -28.0796  -28.9188   21.2453 H   0  0  0  0  0  0
  -25.8829  -25.9514   18.9678 H   0  0  0  0  0  0
  -23.9560  -27.3546   18.9644 H   0  0  0  0  0  0
  -23.7546  -30.6185   19.4078 H   0  0  0  0  0  0
  -22.7480  -29.2750   19.8482 H   0  0  0  0  0  0
  -25.1303  -36.1909   25.0810 H   0  0  0  0  0  0
  -20.9990  -28.3320   24.1374 H   0  0  0  0  0  0
  -20.5711  -26.2321   23.3615 H   0  0  0  0  0  0
  -21.6652  -26.7456   22.1204 H   0  0  0  0  0  0
  -19.6950  -25.6302   21.1233 H   0  0  0  0  0  0
  -19.6712  -27.3198   20.6739 H   0  0  0  0  0  0
  -17.4214  -26.6678   21.3997 H   0  0  0  0  0  0
  -18.0330  -26.0056   22.8993 H   0  0  0  0  0  0
  -19.7955  -30.7264   24.2256 H   0  0  0  0  0  0
  -17.5042  -31.6262   24.5173 H   0  0  0  0  0  0
  -15.5368  -30.3001   23.7668 H   0  0  0  0  0  0
  -15.8671  -28.0833   22.7074 H   0  0  0  0  0  0
  -24.5903  -30.7122   25.7798 H   0  0  0  0  0  0
  -24.8967  -32.2947   26.4863 H   0  0  0  0  0  0
  -25.8051  -30.8943   27.0255 H   0  0  0  0  0  0
  -26.3008  -29.6669   24.1316 H   0  0  0  0  0  0
  -27.4017  -29.7284   25.4875 H   0  0  0  0  0  0
  -27.8910  -30.4203   23.9608 H   0  0  0  0  0  0
  -27.2724  -33.3633   26.2052 H   0  0  0  0  0  0
  -28.3915  -32.6822   25.0333 H   0  0  0  0  0  0
  -28.0738  -31.8447   26.5438 H   0  0  0  0  0  0
  -28.2571  -38.0108   24.7531 H   0  0  0  0  0  0
  -28.1101  -36.2637   24.6239 H   0  0  0  0  0  0
  -27.2296  -37.1403   25.8848 H   0  0  0  0  0  0
  -20.9335  -29.8774   21.6848 H   0  0  0  0  0  0
  -26.0156  -38.2834   24.1446 H   0  0  0  0  0  0
  -31.6931  -18.4745   17.3404 H   0  0  0  0  0  0
  -30.8345  -20.4992   18.2273 H   0  0  0  0  0  0
  -31.3019  -16.3238   18.3938 H   0  0  0  0  0  0
  -29.0242  -18.3109   21.5073 H   0  0  0  0  0  0
  -28.3162  -21.1489   18.1335 H   0  0  0  0  0  0
  -27.8823  -22.8289   17.9560 H   0  0  0  0  0  0
  -27.0688  -21.8121   19.1448 H   0  0  0  0  0  0
  -30.3560  -22.4804   17.9166 H   0  0  0  0  0  0
  -31.2884  -22.2689   19.4166 H   0  0  0  0  0  0
  -30.6714  -23.8063   18.9522 H   0  0  0  0  0  0
  -27.1104  -24.3752   21.9528 H   0  0  0  0  0  0
  -27.6792  -22.7442   22.2243 H   0  0  0  0  0  0
  -26.6088  -23.0949   20.8745 H   0  0  0  0  0  0
  -29.5078  -25.0351   22.1425 H   0  0  0  0  0  0
  -30.7224  -24.5048   21.0085 H   0  0  0  0  0  0
  -30.0973  -23.3873   22.2132 H   0  0  0  0  0  0
  -29.9861  -21.2412   21.4353 H   0  0  0  0  0  0
  -28.3641  -20.7864   21.0761 H   0  0  0  0  0  0
  -27.4672  -24.7952   19.0647 H   0  0  0  0  0  0
  -29.0997  -25.1558   18.8746 H   0  0  0  0  0  0
  -29.0214  -15.6412   21.0985 H   0  0  0  0  0  0
  1 25  1  0  0  0
  1 30  2  0  0  0
  1 85  1  0  0  0
  2  3  1  0  0  0
  2 25  1  0  0  0
  2 86  1  0  0  0
  2 87  1  0  0  0
  3  4  1  0  0  0
  3 88  1  0  0  0
  3 89  1  0  0  0
  4  5  1  0  0  0
  4 90  1  0  0  0
  4 91  1  0  0  0
  5  6  1  0  0  0
  5 26  1  0  0  0
  5 92  1  0  0  0
  6 25  1  0  0  0
  6 93  1  0  0  0
  6 94  1  0  0  0
  7  8  2  0  0  0
  7 26  1  0  0  0
  7 29  1  0  0  0
  8  9  1  0  0  0
  8 22  1  0  0  0
  9 10  1  0  0  0
  9 27  2  0  0  0
 10 11  2  0  0  0
 10 15  1  0  0  0
 11 12  1  0  0  0
 11 95  1  0  0  0
 12 13  2  0  0  0
 12 96  1  0  0  0
 13 14  1  0  0  0
 13 31  1  0  0  0
 14 15  2  0  0  0
 14 97  1  0  0  0
 15 98  1  0  0  0
 16 17  2  0  0  0
 16 21  1  0  0  0
 16 31  1  0  0  0
 17 18  1  0  0  0
 17 99  1  0  0  0
 18 19  2  0  0  0
 18100  1  0  0  0
 19 20  1  0  0  0
 19 24  1  0  0  0
 20 21  2  0  0  0
 20101  1  0  0  0
 21 23  1  0  0  0
 22 28  1  0  0  0
 22 32  2  0  0  0
 26 27  1  0  0  0
 28102  1  0  0  0
 28103  1  0  0  0
 29104  1  0  0  0
 29105  1  0  0  0
 33 34  1  0  0  0
 33 66  1  0  0  0
 33 70  2  0  0  0
 34 36  1  0  0  0
 34 59  1  0  0  0
 34106  1  0  0  0
 35 44  2  0  0  0
 35 45  1  0  0  0
 35 68  1  0  0  0
 36 56  1  0  0  0
 36107  1  0  0  0
 37 39  1  0  0  0
 37 47  1  0  0  0
 37 66  1  0  0  0
 37108  1  0  0  0
 38 43  2  0  0  0
 38 46  1  0  0  0
 38 47  1  0  0  0
 39 64  1  0  0  0
 39 67  2  0  0  0
 40 52  1  0  0  0
 40 53  2  0  0  0
 40 58  1  0  0  0
 41109  1  0  0  0
 41110  1  0  0  0
 41111  1  0  0  0
 41 48  1  0  0  0
 42 43  1  0  0  0
 42 66  1  0  0  0
 42112  1  0  0  0
 42113  1  0  0  0
 43 44  1  0  0  0
 44114  1  0  0  0
 45 46  2  0  0  0
 45115  1  0  0  0
 46116  1  0  0  0
 47117  1  0  0  0
 47118  1  0  0  0
 48 56  1  0  0  0
 48 65  1  0  0  0
 48119  1  0  0  0
 49 50  1  0  0  0
 49 53  1  0  0  0
 49 64  1  0  0  0
 49120  1  0  0  0
 50 51  1  0  0  0
 50121  1  0  0  0
 50122  1  0  0  0
 51 52  1  0  0  0
 51123  1  0  0  0
 51124  1  0  0  0
 52125  1  0  0  0
 52126  1  0  0  0
 53 54  1  0  0  0
 54 55  2  0  0  0
 54127  1  0  0  0
 55 57  1  0  0  0
 55128  1  0  0  0
 56 69  2  0  0  0
 57 58  2  0  0  0
 57129  1  0  0  0
 58130  1  0  0  0
 59 60  1  0  0  0
 59 61  1  0  0  0
 59 62  1  0  0  0
 60131  1  0  0  0
 60132  1  0  0  0
 60133  1  0  0  0
 61134  1  0  0  0
 61135  1  0  0  0
 61136  1  0  0  0
 62137  1  0  0  0
 62138  1  0  0  0
 62139  1  0  0  0
 63 65  1  0  0  0
 63140  1  0  0  0
 63141  1  0  0  0
 63142  1  0  0  0
 64143  1  0  0  0
 65144  1  0  0  0
 68 82  1  0  0  0
 71 72  2  0  0  0
 71 73  1  0  0  0
 71145  1  0  0  0
 72 75  1  0  0  0
 72146  1  0  0  0
 73 76  2  0  0  0
 73147  1  0  0  0
 74 75  2  0  0  0
 74 76  1  0  0  0
 74148  1  0  0  0
 75 81  1  0  0  0
 76 85  1  0  0  0
 77149  1  0  0  0
 77150  1  0  0  0
 77151  1  0  0  0
 77 83  1  0  0  0
 78 83  1  0  0  0
 78152  1  0  0  0
 78153  1  0  0  0
 78154  1  0  0  0
 79155  1  0  0  0
 79156  1  0  0  0
 79157  1  0  0  0
 79 84  1  0  0  0
 80 84  1  0  0  0
 80158  1  0  0  0
 80159  1  0  0  0
 80160  1  0  0  0
 81 83  1  0  0  0
 81161  1  0  0  0
 81162  1  0  0  0
 82 84  1  0  0  0
 82163  1  0  0  0
 82164  1  0  0  0
 83 84  1  0  0  0
 85165  1  0  0  0
M  ISO  4   1 100  68 101  82 101  85 100
M  END
> <chiral flag>
0

> <version>
0

> <s_m_source_file>
/data/baiqing/PycharmProjects/Reinvent-master-3.2/result/LINK_invent/BTK/process_docking_weight1_custom_product_contain_oxygen_bond_distance_aromatic_linkinvent_7_9_3/rearranged_h_0140.sdf

> <i_m_source_file_index>
8

> <r_mmod_Potential_Energy-OPLS-2005>
221.920837402344

> <r_mmod_Stretch_Energy-OPLS-2005>
118.032203674316

> <r_mmod_Bend_Energy-OPLS-2005>
174.766387939453

> <r_mmod_Torsional_Energy-OPLS-2005>
259.632598876953

> <r_mmod_Improper_Torsional_Energy-OPLS-2005>
5.17046642303467

> <r_mmod_Van_der_Waal_Energy-OPLS-2005>
172.740585327148

> <r_mmod_Electrostatic_Energy-OPLS-2005>
-375.347198486328

> <r_mmod_Solvation_Energy-OPLS-2005>
-191.782775878906

> <b_mmod_Minimization_Converged-OPLS-2005>
0

> <r_mmod_RMS_Derivative-OPLS-2005>
3.45727562904358

$$$$
8
                    3D
 Structure written by MMmdl.
163171  0  0  1  0            999 V2000
  -30.6371  -14.6063   20.5128 C   0  0  0  0  0  0
  -30.4347  -12.3744   19.4476 C   0  0  0  0  0  0
  -29.5043  -12.5063   18.2218 C   0  0  0  0  0  0
  -28.0263  -12.3522   18.6332 C   0  0  0  0  0  0
  -27.6548  -13.2161   19.8683 C   0  0  2  0  0  0
  -28.6990  -13.0546   20.9962 C   0  0  0  0  0  0
  -25.2555  -13.8165   20.5674 C   0  0  0  0  0  0
  -24.1820  -13.0431   20.9173 C   0  0  0  0  0  0
  -24.6394  -11.6906   20.8743 C   0  0  0  0  0  0
  -23.9065  -10.4290   21.0408 C   0  0  0  0  0  0
  -24.3617   -9.4206   21.9182 C   0  0  0  0  0  0
  -23.6295   -8.2240   22.0750 C   0  0  0  0  0  0
  -22.4275   -8.0281   21.3543 C   0  0  0  0  0  0
  -21.9911   -9.0254   20.4641 C   0  0  0  0  0  0
  -22.7241  -10.2132   20.3052 C   0  0  0  0  0  0
  -21.6853   -6.0739   22.5281 C   0  0  0  0  0  0
  -21.4013   -6.5641   23.8216 C   0  0  0  0  0  0
  -21.3660   -5.6791   24.9176 C   0  0  0  0  0  0
  -21.6045   -4.3054   24.7225 C   0  0  0  0  0  0
  -21.8822   -3.8148   23.4344 C   0  0  0  0  0  0
  -21.9195   -4.6966   22.3401 C   0  0  0  0  0  0
  -22.7847  -13.5228   21.1856 C   0  0  0  0  0  0
  -22.1664   -4.2153   21.0978 F   0  0  0  0  0  0
  -21.5629   -3.4536   25.7736 F   0  0  0  0  0  0
  -30.0180  -13.3883   20.4346 N   0  0  0  0  0  0
  -26.2998  -12.9354   20.3355 N   0  0  0  0  0  0
  -25.9326  -11.6507   20.5773 N   0  0  0  0  0  0
  -22.0492  -12.8214   22.0412 N   0  0  0  0  0  0
  -25.4259  -15.1879   20.4085 N   0  0  0  0  0  0
  -31.7964  -14.7631   20.1189 O   0  0  0  0  0  0
  -21.6641   -6.8879   21.4241 O   0  0  0  0  0  0
  -22.3534  -14.5545   20.6727 O   0  0  0  0  0  0
  -24.6221  -31.8626   23.2032 C   0  0  0  0  0  0
  -25.9078  -32.4794   23.8361 C   0  0  1  0  0  0
  -27.2280  -27.3464   20.1201 C   0  0  0  0  0  0
  -25.5908  -33.8593   24.2293 N   0  0  0  0  0  0
  -23.4148  -30.4853   21.5451 C   0  0  2  0  0  0
  -24.8613  -28.9423   20.1102 C   0  0  0  0  0  0
  -22.7453  -29.4635   22.4940 C   0  0  0  0  0  0
  -18.0286  -28.1380   22.8497 C   0  0  0  0  0  0
  -24.1487  -36.7296   23.2641 C   0  0  0  0  0  0
  -25.9526  -30.8023   21.3690 C   0  0  0  0  0  0
  -26.0273  -29.4314   20.7127 C   0  0  0  0  0  0
  -27.2130  -28.6442   20.7074 C   0  0  0  0  0  0
  -26.0392  -26.8999   19.4964 C   0  0  0  0  0  0
  -24.8676  -27.6811   19.4936 C   0  0  0  0  0  0
  -23.6270  -29.8186   20.1598 C   0  0  0  0  0  0
  -25.4111  -36.3095   24.0335 C   0  0  1  0  0  0
  -20.5886  -28.3675   23.1294 C   0  0  2  0  0  0
  -20.6777  -26.9402   22.5413 C   0  0  0  0  0  0
  -19.5754  -26.6385   21.5213 C   0  0  0  0  0  0
  -18.1930  -26.7930   22.1623 C   0  0  0  0  0  0
  -19.1539  -28.8845   23.2896 C   0  0  0  0  0  0
  -18.9460  -30.1451   23.8905 C   0  0  0  0  0  0
  -17.6463  -30.6585   24.0567 C   0  0  0  0  0  0
  -25.9046  -34.9463   23.5115 C   0  0  0  0  0  0
  -16.5353  -29.9087   23.6332 C   0  0  0  0  0  0
  -16.7275  -28.6501   23.0358 C   0  0  0  0  0  0
  -26.4476  -31.6592   25.0717 C   0  0  0  0  0  0
  -25.3723  -31.3718   26.1454 C   0  0  0  0  0  0
  -27.0318  -30.3030   24.6136 C   0  0  0  0  0  0
  -27.6044  -32.4322   25.7486 C   0  0  0  0  0  0
  -27.5581  -37.1804   24.8467 C   0  0  0  0  0  0
  -21.4174  -29.3036   22.3689 N   0  0  0  0  0  0
  -26.4294  -37.3782   23.9408 N   0  0  0  0  0  0
  -24.6816  -31.0663   22.0964 N   0  0  0  0  0  0
  -23.4195  -28.8183   23.3013 O   0  0  0  0  0  0
  -28.3656  -26.5345   20.1746 O   0  0  0  0  0  0
  -26.5614  -34.8929   22.4680 O   0  0  0  0  0  0
  -23.5391  -32.1406   23.7382 O   0  0  0  0  0  0
  -31.1611  -19.1981   20.2691 C   0  0  0  0  0  0
  -31.1129  -17.7786   20.3053 C   0  0  0  0  0  0
  -28.9284  -19.3288   21.1488 C   0  0  0  0  0  0
  -30.0825  -20.0195   20.7013 C   0  0  0  0  0  0
  -29.9701  -17.0949   20.7881 C   0  0  0  0  0  0
  -28.8673  -17.8946   21.2020 C   0  0  0  0  0  0
  -30.2684  -21.5351   20.8014 C   0  0  0  0  0  0
  -29.5798  -24.5071   22.0694 C   0  0  0  0  0  0
  -30.6534  -24.6602   19.7811 C   0  0  0  0  0  0
  -26.6732  -17.9436   22.1889 C   0  0  0  0  0  0
  -29.1703  -22.5912   20.3708 C   0  0  0  0  0  0
  -28.2047  -25.0746   20.0546 C   0  0  0  0  0  0
  -29.4113  -24.1801   20.5684 C   0  0  0  0  0  0
  -31.3844  -21.9396   21.2389 N   0  0  0  0  0  0
  -29.8412  -15.6468   20.8967 N   0  0  0  0  0  0
  -27.7666  -17.2012   21.6639 O   0  0  0  0  0  0
  -31.4763  -12.4951   19.1449 H   0  0  0  0  0  0
  -30.3635  -11.3753   19.8805 H   0  0  0  0  0  0
  -29.7628  -11.7589   17.4704 H   0  0  0  0  0  0
  -29.6538  -13.4785   17.7492 H   0  0  0  0  0  0
  -27.8545  -11.2981   18.8557 H   0  0  0  0  0  0
  -27.3737  -12.5947   17.7937 H   0  0  0  0  0  0
  -27.6773  -14.2550   19.5380 H   0  0  0  0  0  0
  -28.7017  -12.0302   21.3717 H   0  0  0  0  0  0
  -28.4485  -13.6819   21.8529 H   0  0  0  0  0  0
  -25.2760   -9.5688   22.4757 H   0  0  0  0  0  0
  -24.0013   -7.4629   22.7461 H   0  0  0  0  0  0
  -21.0847   -8.8770   19.8940 H   0  0  0  0  0  0
  -22.3701  -10.9672   19.6160 H   0  0  0  0  0  0
  -21.2002   -7.6148   23.9721 H   0  0  0  0  0  0
  -21.1480   -6.0518   25.9080 H   0  0  0  0  0  0
  -22.0601   -2.7611   23.2841 H   0  0  0  0  0  0
  -22.4101  -11.9861   22.4778 H   0  0  0  0  0  0
  -21.1110  -13.1234   22.2624 H   0  0  0  0  0  0
  -24.6610  -15.8428   20.5242 H   0  0  0  0  0  0
  -26.2971  -15.6367   20.1545 H   0  0  0  0  0  0
  -26.7143  -32.5473   23.1114 H   0  0  0  0  0  0
  -25.0061  -33.9743   25.0445 H   0  0  0  0  0  0
  -22.7068  -31.3047   21.4032 H   0  0  0  0  0  0
  -23.3754  -35.9623   23.3310 H   0  0  0  0  0  0
  -24.3584  -36.8904   22.2053 H   0  0  0  0  0  0
  -23.7238  -37.6500   23.6657 H   0  0  0  0  0  0
  -26.0796  -31.5662   20.6006 H   0  0  0  0  0  0
  -26.8351  -30.8523   21.9948 H   0  0  0  0  0  0
  -28.1084  -29.0169   21.1849 H   0  0  0  0  0  0
  -25.9929  -25.9353   19.0131 H   0  0  0  0  0  0
  -23.9733  -27.2998   19.0193 H   0  0  0  0  0  0
  -23.7404  -30.5956   19.4025 H   0  0  0  0  0  0
  -22.7487  -29.2439   19.8605 H   0  0  0  0  0  0
  -25.1291  -36.1954   25.0828 H   0  0  0  0  0  0
  -20.9982  -28.3246   24.1417 H   0  0  0  0  0  0
  -20.5678  -26.2279   23.3609 H   0  0  0  0  0  0
  -21.6646  -26.7439   22.1202 H   0  0  0  0  0  0
  -19.6912  -25.6299   21.1237 H   0  0  0  0  0  0
  -19.6698  -27.3206   20.6752 H   0  0  0  0  0  0
  -17.4204  -26.6689   21.4018 H   0  0  0  0  0  0
  -18.0320  -26.0071   22.9018 H   0  0  0  0  0  0
  -19.7938  -30.7269   24.2269 H   0  0  0  0  0  0
  -17.5020  -31.6269   24.5167 H   0  0  0  0  0  0
  -15.5354  -30.2995   23.7650 H   0  0  0  0  0  0
  -15.8678  -28.0826   22.7065 H   0  0  0  0  0  0
  -24.5902  -30.7057   25.7796 H   0  0  0  0  0  0
  -24.8905  -32.2877   26.4891 H   0  0  0  0  0  0
  -25.8064  -30.8903   27.0228 H   0  0  0  0  0  0
  -26.2879  -29.6791   24.1169 H   0  0  0  0  0  0
  -27.4056  -29.7272   25.4609 H   0  0  0  0  0  0
  -27.8731  -30.4347   23.9328 H   0  0  0  0  0  0
  -27.2659  -33.3625   26.2063 H   0  0  0  0  0  0
  -28.3854  -32.6871   25.0310 H   0  0  0  0  0  0
  -28.0713  -31.8445   26.5400 H   0  0  0  0  0  0
  -28.2600  -38.0099   24.7514 H   0  0  0  0  0  0
  -28.1073  -36.2631   24.6294 H   0  0  0  0  0  0
  -27.2302  -37.1453   25.8872 H   0  0  0  0  0  0
  -20.9335  -29.8762   21.6913 H   0  0  0  0  0  0
  -26.0180  -38.2860   24.1413 H   0  0  0  0  0  0
  -32.0719  -19.6647   19.9202 H   0  0  0  0  0  0
  -31.9827  -17.2325   19.9714 H   0  0  0  0  0  0
  -28.1028  -19.9299   21.4972 H   0  0  0  0  0  0
  -30.4526  -24.0239   22.5062 H   0  0  0  0  0  0
  -28.7084  -24.1878   22.6424 H   0  0  0  0  0  0
  -29.6997  -25.5785   22.2355 H   0  0  0  0  0  0
  -31.5839  -24.2348   20.1515 H   0  0  0  0  0  0
  -30.7731  -25.7419   19.8483 H   0  0  0  0  0  0
  -30.5738  -24.4053   18.7239 H   0  0  0  0  0  0
  -25.9005  -17.2566   22.5342 H   0  0  0  0  0  0
  -26.2239  -18.5861   21.4304 H   0  0  0  0  0  0
  -26.9759  -18.5490   23.0445 H   0  0  0  0  0  0
  -28.2500  -22.3233   20.8894 H   0  0  0  0  0  0
  -28.9591  -22.4102   19.3164 H   0  0  0  0  0  0
  -27.3099  -24.7700   20.6007 H   0  0  0  0  0  0
  -28.0169  -24.8395   19.0059 H   0  0  0  0  0  0
  -31.9888  -21.1625   21.4798 H   0  0  0  0  0  0
  -28.9325  -15.3556   21.2250 H   0  0  0  0  0  0
  1 25  1  0  0  0
  1 30  2  0  0  0
  1 85  1  0  0  0
  2  3  1  0  0  0
  2 25  1  0  0  0
  2 87  1  0  0  0
  2 88  1  0  0  0
  3  4  1  0  0  0
  3 89  1  0  0  0
  3 90  1  0  0  0
  4  5  1  0  0  0
  4 91  1  0  0  0
  4 92  1  0  0  0
  5  6  1  0  0  0
  5 26  1  0  0  0
  5 93  1  0  0  0
  6 25  1  0  0  0
  6 94  1  0  0  0
  6 95  1  0  0  0
  7  8  2  0  0  0
  7 26  1  0  0  0
  7 29  1  0  0  0
  8  9  1  0  0  0
  8 22  1  0  0  0
  9 10  1  0  0  0
  9 27  2  0  0  0
 10 11  2  0  0  0
 10 15  1  0  0  0
 11 12  1  0  0  0
 11 96  1  0  0  0
 12 13  2  0  0  0
 12 97  1  0  0  0
 13 14  1  0  0  0
 13 31  1  0  0  0
 14 15  2  0  0  0
 14 98  1  0  0  0
 15 99  1  0  0  0
 16 17  2  0  0  0
 16 21  1  0  0  0
 16 31  1  0  0  0
 17 18  1  0  0  0
 17100  1  0  0  0
 18 19  2  0  0  0
 18101  1  0  0  0
 19 20  1  0  0  0
 19 24  1  0  0  0
 20 21  2  0  0  0
 20102  1  0  0  0
 21 23  1  0  0  0
 22 28  1  0  0  0
 22 32  2  0  0  0
 26 27  1  0  0  0
 28103  1  0  0  0
 28104  1  0  0  0
 29105  1  0  0  0
 29106  1  0  0  0
 33 34  1  0  0  0
 33 66  1  0  0  0
 33 70  2  0  0  0
 34 36  1  0  0  0
 34 59  1  0  0  0
 34107  1  0  0  0
 35 44  2  0  0  0
 35 45  1  0  0  0
 35 68  1  0  0  0
 36 56  1  0  0  0
 36108  1  0  0  0
 37 39  1  0  0  0
 37 47  1  0  0  0
 37 66  1  0  0  0
 37109  1  0  0  0
 38 43  2  0  0  0
 38 46  1  0  0  0
 38 47  1  0  0  0
 39 64  1  0  0  0
 39 67  2  0  0  0
 40 52  1  0  0  0
 40 53  2  0  0  0
 40 58  1  0  0  0
 41110  1  0  0  0
 41111  1  0  0  0
 41112  1  0  0  0
 41 48  1  0  0  0
 42 43  1  0  0  0
 42 66  1  0  0  0
 42113  1  0  0  0
 42114  1  0  0  0
 43 44  1  0  0  0
 44115  1  0  0  0
 45 46  2  0  0  0
 45116  1  0  0  0
 46117  1  0  0  0
 47118  1  0  0  0
 47119  1  0  0  0
 48 56  1  0  0  0
 48 65  1  0  0  0
 48120  1  0  0  0
 49 50  1  0  0  0
 49 53  1  0  0  0
 49 64  1  0  0  0
 49121  1  0  0  0
 50 51  1  0  0  0
 50122  1  0  0  0
 50123  1  0  0  0
 51 52  1  0  0  0
 51124  1  0  0  0
 51125  1  0  0  0
 52126  1  0  0  0
 52127  1  0  0  0
 53 54  1  0  0  0
 54 55  2  0  0  0
 54128  1  0  0  0
 55 57  1  0  0  0
 55129  1  0  0  0
 56 69  2  0  0  0
 57 58  2  0  0  0
 57130  1  0  0  0
 58131  1  0  0  0
 59 60  1  0  0  0
 59 61  1  0  0  0
 59 62  1  0  0  0
 60132  1  0  0  0
 60133  1  0  0  0
 60134  1  0  0  0
 61135  1  0  0  0
 61136  1  0  0  0
 61137  1  0  0  0
 62138  1  0  0  0
 62139  1  0  0  0
 62140  1  0  0  0
 63 65  1  0  0  0
 63141  1  0  0  0
 63142  1  0  0  0
 63143  1  0  0  0
 64144  1  0  0  0
 65145  1  0  0  0
 68 82  1  0  0  0
 71 72  2  0  0  0
 71 74  1  0  0  0
 71146  1  0  0  0
 72 75  1  0  0  0
 72147  1  0  0  0
 73 74  2  0  0  0
 73 76  1  0  0  0
 73148  1  0  0  0
 74 77  1  0  0  0
 75 76  2  0  0  0
 75 85  1  0  0  0
 76 86  1  0  0  0
 77 81  1  0  0  0
 77 84  2  0  0  0
 78149  1  0  0  0
 78150  1  0  0  0
 78151  1  0  0  0
 78 83  1  0  0  0
 79 83  1  0  0  0
 79152  1  0  0  0
 79153  1  0  0  0
 79154  1  0  0  0
 80 86  1  0  0  0
 80155  1  0  0  0
 80156  1  0  0  0
 80157  1  0  0  0
 81 83  1  0  0  0
 81158  1  0  0  0
 81159  1  0  0  0
 82 83  1  0  0  0
 82160  1  0  0  0
 82161  1  0  0  0
 84162  1  0  0  0
 85163  1  0  0  0
M  ISO  4   1 100  68 101  82 101  85 100
M  END
> <chiral flag>
0

> <version>
0

> <s_m_source_file>
/data/baiqing/PycharmProjects/Reinvent-master-3.2/result/LINK_invent/BTK/process_docking_weight1_custom_product_contain_oxygen_bond_distance_aromatic_linkinvent_7_9_3/rearranged_h_0140.sdf

> <i_m_source_file_index>
9

> <r_mmod_Potential_Energy-OPLS-2005>
26.1269760131836

> <r_mmod_Stretch_Energy-OPLS-2005>
79.5875778198242

> <r_mmod_Bend_Energy-OPLS-2005>
146.486633300781

> <r_mmod_Torsional_Energy-OPLS-2005>
228.463943481445

> <r_mmod_Improper_Torsional_Energy-OPLS-2005>
4.18319272994995

> <r_mmod_Van_der_Waal_Energy-OPLS-2005>
157.847015380859

> <r_mmod_Electrostatic_Energy-OPLS-2005>
-423.377227783203

> <r_mmod_Solvation_Energy-OPLS-2005>
-204.462707519531

> <b_mmod_Minimization_Converged-OPLS-2005>
0

> <r_mmod_RMS_Derivative-OPLS-2005>
1.0956027507782

$$$$
9
                    3D
 Structure written by MMmdl.
172180  0  0  1  0            999 V2000
  -30.6923  -14.5589   20.5264 C   0  0  0  0  0  0
  -30.4344  -12.3449   19.4656 C   0  0  0  0  0  0
  -29.5141  -12.4951   18.2357 C   0  0  0  0  0  0
  -28.0338  -12.3543   18.6414 C   0  0  0  0  0  0
  -27.6612  -13.2226   19.8742 C   0  0  2  0  0  0
  -28.7014  -13.0636   21.0074 C   0  0  0  0  0  0
  -25.2566  -13.8169   20.5712 C   0  0  0  0  0  0
  -24.1855  -13.0450   20.9178 C   0  0  0  0  0  0
  -24.6408  -11.6895   20.8726 C   0  0  0  0  0  0
  -23.9091  -10.4296   21.0424 C   0  0  0  0  0  0
  -24.3636   -9.4191   21.9194 C   0  0  0  0  0  0
  -23.6297   -8.2233   22.0767 C   0  0  0  0  0  0
  -22.4266   -8.0289   21.3565 C   0  0  0  0  0  0
  -21.9927   -9.0267   20.4655 C   0  0  0  0  0  0
  -22.7268  -10.2136   20.3066 C   0  0  0  0  0  0
  -21.6860   -6.0738   22.5276 C   0  0  0  0  0  0
  -21.4012   -6.5646   23.8205 C   0  0  0  0  0  0
  -21.3653   -5.6805   24.9174 C   0  0  0  0  0  0
  -21.6043   -4.3066   24.7228 C   0  0  0  0  0  0
  -21.8816   -3.8148   23.4349 C   0  0  0  0  0  0
  -21.9186   -4.6966   22.3402 C   0  0  0  0  0  0
  -22.7844  -13.5204   21.1821 C   0  0  0  0  0  0
  -22.1655   -4.2153   21.0980 F   0  0  0  0  0  0
  -21.5632   -3.4542   25.7738 F   0  0  0  0  0  0
  -30.0336  -13.3634   20.4568 N   0  0  0  0  0  0
  -26.3040  -12.9391   20.3371 N   0  0  0  0  0  0
  -25.9351  -11.6528   20.5800 N   0  0  0  0  0  0
  -22.0484  -12.8253   22.0391 N   0  0  0  0  0  0
  -25.4232  -15.1934   20.4096 N   0  0  0  0  0  0
  -31.8254  -14.7110   20.0674 O   0  0  0  0  0  0
  -21.6637   -6.8883   21.4238 O   0  0  0  0  0  0
  -22.3514  -14.5501   20.6625 O   0  0  0  0  0  0
  -24.6171  -31.8697   23.2110 C   0  0  0  0  0  0
  -25.9070  -32.4807   23.8393 C   0  0  1  0  0  0
  -27.1494  -27.3531   20.0738 C   0  0  0  0  0  0
  -25.5951  -33.8620   24.2345 N   0  0  0  0  0  0
  -23.3986  -30.4997   21.5647 C   0  0  2  0  0  0
  -24.8165  -28.9843   20.0905 C   0  0  0  0  0  0
  -22.7489  -29.4547   22.5005 C   0  0  0  0  0  0
  -18.0407  -28.1284   22.8686 C   0  0  0  0  0  0
  -24.1475  -36.7321   23.2639 C   0  0  0  0  0  0
  -25.9318  -30.8063   21.3730 C   0  0  0  0  0  0
  -25.9873  -29.4387   20.7123 C   0  0  0  0  0  0
  -27.1582  -28.6294   20.7029 C   0  0  0  0  0  0
  -25.9748  -26.9668   19.3833 C   0  0  0  0  0  0
  -24.8098  -27.7584   19.4136 C   0  0  0  0  0  0
  -23.5858  -29.8669   20.1638 C   0  0  0  0  0  0
  -25.4093  -36.3096   24.0329 C   0  0  1  0  0  0
  -20.6002  -28.3500   23.1502 C   0  0  2  0  0  0
  -20.6710  -26.9151   22.5859 C   0  0  0  0  0  0
  -19.5848  -26.6224   21.5432 C   0  0  0  0  0  0
  -18.1988  -26.7834   22.1754 C   0  0  0  0  0  0
  -19.1694  -28.8713   23.3047 C   0  0  0  0  0  0
  -18.9686  -30.1346   23.8997 C   0  0  0  0  0  0
  -17.6765  -30.6615   24.0580 C   0  0  0  0  0  0
  -25.9049  -34.9451   23.5131 C   0  0  0  0  0  0
  -16.5613  -29.9130   23.6457 C   0  0  0  0  0  0
  -16.7434  -28.6474   23.0625 C   0  0  0  0  0  0
  -26.4493  -31.6601   25.0734 C   0  0  0  0  0  0
  -25.3715  -31.3717   26.1464 C   0  0  0  0  0  0
  -27.0305  -30.3014   24.6126 C   0  0  0  0  0  0
  -27.6045  -32.4349   25.7488 C   0  0  0  0  0  0
  -27.5569  -37.1797   24.8462 C   0  0  0  0  0  0
  -21.4215  -29.2909   22.3894 N   0  0  0  0  0  0
  -26.4294  -37.3771   23.9390 N   0  0  0  0  0  0
  -24.6711  -31.0735   22.1061 N   0  0  0  0  0  0
  -23.4366  -28.8072   23.2927 O   0  0  0  0  0  0
  -28.2548  -26.5119   20.1739 O   0  0  0  0  0  0
  -26.5588  -34.8916   22.4675 O   0  0  0  0  0  0
  -23.5391  -32.1515   23.7495 O   0  0  0  0  0  0
  -29.8694  -17.0083   18.9416 C   0  0  0  0  0  0
  -29.5586  -18.1071   21.0684 C   0  0  0  0  0  0
  -29.4910  -18.1916   18.2751 C   0  0  0  0  0  0
  -29.1057  -19.3527   19.0070 C   0  0  0  0  0  0
  -29.8545  -16.9158   20.3461 C   0  0  0  0  0  0
  -29.2098  -19.3415   20.4365 C   0  0  0  0  0  0
  -29.4420  -18.1376   16.7530 C   0  0  0  0  0  0
  -29.2625  -21.5424   17.5778 C   0  0  0  0  0  0
  -26.4774  -21.7308   21.5311 C   0  0  0  0  0  0
  -28.2090  -24.5421   22.5306 C   0  0  0  0  0  0
  -25.9990  -24.5190   21.3717 C   0  0  0  0  0  0
  -28.3850  -20.4646   18.2460 C   0  0  0  0  0  0
  -28.9827  -21.8151   21.0995 C   0  0  0  0  0  0
  -28.1083  -25.0541   20.0289 C   0  0  0  0  0  0
  -27.6148  -22.5942   20.9005 C   0  0  2  0  0  0
  -27.5068  -24.1713   21.2040 C   0  0  0  0  0  0
  -29.9952  -15.6293   20.9968 N   0  0  0  0  0  0
  -28.8581  -20.3738   21.3184 O   0  0  0  0  0  0
  -31.4790  -12.4371   19.1634 H   0  0  0  0  0  0
  -30.3449  -11.3484   19.8999 H   0  0  0  0  0  0
  -29.7678  -11.7436   17.4866 H   0  0  0  0  0  0
  -29.6778  -13.4664   17.7673 H   0  0  0  0  0  0
  -27.8560  -11.3028   18.8664 H   0  0  0  0  0  0
  -27.3872  -12.5983   17.7979 H   0  0  0  0  0  0
  -27.6887  -14.2618   19.5438 H   0  0  0  0  0  0
  -28.6853  -12.0460   21.3991 H   0  0  0  0  0  0
  -28.4557  -13.7105   21.8510 H   0  0  0  0  0  0
  -25.2772   -9.5653   22.4784 H   0  0  0  0  0  0
  -23.9987   -7.4624   22.7505 H   0  0  0  0  0  0
  -21.0849   -8.8788   19.8978 H   0  0  0  0  0  0
  -22.3722  -10.9675   19.6179 H   0  0  0  0  0  0
  -21.2005   -7.6148   23.9728 H   0  0  0  0  0  0
  -21.1486   -6.0520   25.9087 H   0  0  0  0  0  0
  -22.0602   -2.7606   23.2843 H   0  0  0  0  0  0
  -22.4080  -11.9899   22.4794 H   0  0  0  0  0  0
  -21.1102  -13.1309   22.2609 H   0  0  0  0  0  0
  -24.6486  -15.8416   20.5139 H   0  0  0  0  0  0
  -26.2735  -15.6361   20.0859 H   0  0  0  0  0  0
  -26.7104  -32.5441   23.1121 H   0  0  0  0  0  0
  -25.0017  -33.9863   25.0434 H   0  0  0  0  0  0
  -22.6855  -31.3199   21.4646 H   0  0  0  0  0  0
  -23.3730  -35.9686   23.3311 H   0  0  0  0  0  0
  -24.3569  -36.8917   22.2062 H   0  0  0  0  0  0
  -23.7289  -37.6533   23.6662 H   0  0  0  0  0  0
  -26.0506  -31.5740   20.6075 H   0  0  0  0  0  0
  -26.8244  -30.8569   21.9808 H   0  0  0  0  0  0
  -28.0553  -28.9514   21.2133 H   0  0  0  0  0  0
  -25.9282  -26.0486   18.8129 H   0  0  0  0  0  0
  -23.9222  -27.4623   18.8699 H   0  0  0  0  0  0
  -23.6764  -30.6654   19.4241 H   0  0  0  0  0  0
  -22.6896  -29.3029   19.8826 H   0  0  0  0  0  0
  -25.1278  -36.1950   25.0834 H   0  0  0  0  0  0
  -21.0112  -28.3125   24.1628 H   0  0  0  0  0  0
  -20.5129  -26.2151   23.4052 H   0  0  0  0  0  0
  -21.6668  -26.6880   22.2027 H   0  0  0  0  0  0
  -19.6978  -25.6150   21.1405 H   0  0  0  0  0  0
  -19.6909  -27.3116   20.7051 H   0  0  0  0  0  0
  -17.4307  -26.6696   21.4120 H   0  0  0  0  0  0
  -18.0285  -25.9972   22.9135 H   0  0  0  0  0  0
  -19.8242  -30.7084   24.2367 H   0  0  0  0  0  0
  -17.5519  -31.6373   24.5053 H   0  0  0  0  0  0
  -15.5659  -30.3132   23.7720 H   0  0  0  0  0  0
  -15.8823  -28.0722   22.7521 H   0  0  0  0  0  0
  -24.5908  -30.7079   25.7741 H   0  0  0  0  0  0
  -24.8942  -32.2901   26.4874 H   0  0  0  0  0  0
  -25.8060  -30.8861   27.0220 H   0  0  0  0  0  0
  -26.2848  -29.6800   24.1164 H   0  0  0  0  0  0
  -27.4013  -29.7218   25.4591 H   0  0  0  0  0  0
  -27.8718  -30.4279   23.9310 H   0  0  0  0  0  0
  -27.2631  -33.3642   26.2059 H   0  0  0  0  0  0
  -28.3839  -32.6937   25.0308 H   0  0  0  0  0  0
  -28.0741  -31.8495   26.5400 H   0  0  0  0  0  0
  -28.2571  -38.0083   24.7460 H   0  0  0  0  0  0
  -28.1054  -36.2616   24.6326 H   0  0  0  0  0  0
  -27.2283  -37.1490   25.8857 H   0  0  0  0  0  0
  -20.9191  -29.8957   21.7536 H   0  0  0  0  0  0
  -26.0155  -38.2846   24.1364 H   0  0  0  0  0  0
  -30.0910  -16.1299   18.3536 H   0  0  0  0  0  0
  -29.5540  -18.0803   22.1477 H   0  0  0  0  0  0
  -29.8022  -17.1806   16.3705 H   0  0  0  0  0  0
  -30.0693  -18.9122   16.3151 H   0  0  0  0  0  0
  -28.4269  -18.2550   16.3792 H   0  0  0  0  0  0
  -28.6408  -22.2742   17.0606 H   0  0  0  0  0  0
  -29.9233  -21.1122   16.8289 H   0  0  0  0  0  0
  -29.8884  -22.0946   18.2717 H   0  0  0  0  0  0
  -26.5703  -20.6789   21.2662 H   0  0  0  0  0  0
  -25.4876  -21.9989   21.1711 H   0  0  0  0  0  0
  -26.4779  -21.7961   22.6179 H   0  0  0  0  0  0
  -28.0583  -25.5975   22.7767 H   0  0  0  0  0  0
  -29.2884  -24.3841   22.4855 H   0  0  0  0  0  0
  -27.7946  -23.9645   23.3595 H   0  0  0  0  0  0
  -25.8178  -25.5727   21.5660 H   0  0  0  0  0  0
  -25.5517  -24.0199   22.2315 H   0  0  0  0  0  0
  -25.4189  -24.2504   20.4835 H   0  0  0  0  0  0
  -27.6256  -20.8674   18.8984 H   0  0  0  0  0  0
  -27.7698  -20.0222   17.4634 H   0  0  0  0  0  0
  -29.4272  -22.1698   22.0318 H   0  0  0  0  0  0
  -29.7315  -22.0580   20.3519 H   0  0  0  0  0  0
  -27.5988  -24.8312   19.0907 H   0  0  0  0  0  0
  -29.1087  -24.6666   19.8468 H   0  0  0  0  0  0
  -27.4071  -22.5918   19.8375 H   0  0  0  0  0  0
  -29.2581  -15.4012   21.6455 H   0  0  0  0  0  0
  1 25  1  0  0  0
  1 30  2  0  0  0
  1 87  1  0  0  0
  2  3  1  0  0  0
  2 25  1  0  0  0
  2 89  1  0  0  0
  2 90  1  0  0  0
  3  4  1  0  0  0
  3 91  1  0  0  0
  3 92  1  0  0  0
  4  5  1  0  0  0
  4 93  1  0  0  0
  4 94  1  0  0  0
  5  6  1  0  0  0
  5 26  1  0  0  0
  5 95  1  0  0  0
  6 25  1  0  0  0
  6 96  1  0  0  0
  6 97  1  0  0  0
  7  8  2  0  0  0
  7 26  1  0  0  0
  7 29  1  0  0  0
  8  9  1  0  0  0
  8 22  1  0  0  0
  9 10  1  0  0  0
  9 27  2  0  0  0
 10 11  2  0  0  0
 10 15  1  0  0  0
 11 12  1  0  0  0
 11 98  1  0  0  0
 12 13  2  0  0  0
 12 99  1  0  0  0
 13 14  1  0  0  0
 13 31  1  0  0  0
 14 15  2  0  0  0
 14100  1  0  0  0
 15101  1  0  0  0
 16 17  2  0  0  0
 16 21  1  0  0  0
 16 31  1  0  0  0
 17 18  1  0  0  0
 17102  1  0  0  0
 18 19  2  0  0  0
 18103  1  0  0  0
 19 20  1  0  0  0
 19 24  1  0  0  0
 20 21  2  0  0  0
 20104  1  0  0  0
 21 23  1  0  0  0
 22 28  1  0  0  0
 22 32  2  0  0  0
 26 27  1  0  0  0
 28105  1  0  0  0
 28106  1  0  0  0
 29107  1  0  0  0
 29108  1  0  0  0
 33 34  1  0  0  0
 33 66  1  0  0  0
 33 70  2  0  0  0
 34 36  1  0  0  0
 34 59  1  0  0  0
 34109  1  0  0  0
 35 44  2  0  0  0
 35 45  1  0  0  0
 35 68  1  0  0  0
 36 56  1  0  0  0
 36110  1  0  0  0
 37 39  1  0  0  0
 37 47  1  0  0  0
 37 66  1  0  0  0
 37111  1  0  0  0
 38 43  2  0  0  0
 38 46  1  0  0  0
 38 47  1  0  0  0
 39 64  1  0  0  0
 39 67  2  0  0  0
 40 52  1  0  0  0
 40 53  2  0  0  0
 40 58  1  0  0  0
 41112  1  0  0  0
 41113  1  0  0  0
 41114  1  0  0  0
 41 48  1  0  0  0
 42 43  1  0  0  0
 42 66  1  0  0  0
 42115  1  0  0  0
 42116  1  0  0  0
 43 44  1  0  0  0
 44117  1  0  0  0
 45 46  2  0  0  0
 45118  1  0  0  0
 46119  1  0  0  0
 47120  1  0  0  0
 47121  1  0  0  0
 48 56  1  0  0  0
 48 65  1  0  0  0
 48122  1  0  0  0
 49 50  1  0  0  0
 49 53  1  0  0  0
 49 64  1  0  0  0
 49123  1  0  0  0
 50 51  1  0  0  0
 50124  1  0  0  0
 50125  1  0  0  0
 51 52  1  0  0  0
 51126  1  0  0  0
 51127  1  0  0  0
 52128  1  0  0  0
 52129  1  0  0  0
 53 54  1  0  0  0
 54 55  2  0  0  0
 54130  1  0  0  0
 55 57  1  0  0  0
 55131  1  0  0  0
 56 69  2  0  0  0
 57 58  2  0  0  0
 57132  1  0  0  0
 58133  1  0  0  0
 59 60  1  0  0  0
 59 61  1  0  0  0
 59 62  1  0  0  0
 60134  1  0  0  0
 60135  1  0  0  0
 60136  1  0  0  0
 61137  1  0  0  0
 61138  1  0  0  0
 61139  1  0  0  0
 62140  1  0  0  0
 62141  1  0  0  0
 62142  1  0  0  0
 63 65  1  0  0  0
 63143  1  0  0  0
 63144  1  0  0  0
 63145  1  0  0  0
 64146  1  0  0  0
 65147  1  0  0  0
 68 84  1  0  0  0
 71 73  2  0  0  0
 71 75  1  0  0  0
 71148  1  0  0  0
 72 75  2  0  0  0
 72 76  1  0  0  0
 72149  1  0  0  0
 73 74  1  0  0  0
 73 77  1  0  0  0
 74 76  2  0  0  0
 74 82  1  0  0  0
 75 87  1  0  0  0
 76 88  1  0  0  0
 77150  1  0  0  0
 77151  1  0  0  0
 77152  1  0  0  0
 78 82  1  0  0  0
 78153  1  0  0  0
 78154  1  0  0  0
 78155  1  0  0  0
 79156  1  0  0  0
 79157  1  0  0  0
 79158  1  0  0  0
 79 85  1  0  0  0
 80159  1  0  0  0
 80160  1  0  0  0
 80161  1  0  0  0
 80 86  1  0  0  0
 81 86  1  0  0  0
 81162  1  0  0  0
 81163  1  0  0  0
 81164  1  0  0  0
 82165  1  0  0  0
 82166  1  0  0  0
 83 85  1  0  0  0
 83 88  1  0  0  0
 83167  1  0  0  0
 83168  1  0  0  0
 84 86  1  0  0  0
 84169  1  0  0  0
 84170  1  0  0  0
 85 86  1  0  0  0
 85171  1  0  0  0
 87172  1  0  0  0
M  ISO  4   1 100  68 101  84 101  87 100
M  END
> <chiral flag>
0

> <version>
0

> <s_m_source_file>
/data/baiqing/PycharmProjects/Reinvent-master-3.2/result/LINK_invent/BTK/process_docking_weight1_custom_product_contain_oxygen_bond_distance_aromatic_linkinvent_7_9_3/rearranged_h_0140.sdf

> <i_m_source_file_index>
10

> <r_mmod_Potential_Energy-OPLS-2005>
183.876388549805

> <r_mmod_Stretch_Energy-OPLS-2005>
74.7249221801758

> <r_mmod_Bend_Energy-OPLS-2005>
181.387023925781

> <r_mmod_Torsional_Energy-OPLS-2005>
284.647979736328

> <r_mmod_Improper_Torsional_Energy-OPLS-2005>
7.13621282577515

> <r_mmod_Van_der_Waal_Energy-OPLS-2005>
167.156982421875

> <r_mmod_Electrostatic_Energy-OPLS-2005>
-375.964141845703

> <r_mmod_Solvation_Energy-OPLS-2005>
-197.305816650391

> <b_mmod_Minimization_Converged-OPLS-2005>
0

> <r_mmod_RMS_Derivative-OPLS-2005>
9.69598770141602

$$$$
10
                    3D
 Structure written by MMmdl.
160168  0  0  1  0            999 V2000
  -30.4981  -14.9286   20.4169 C   0  0  0  0  0  0
  -30.4484  -12.5677   19.5107 C   0  0  0  0  0  0
  -29.5285  -12.5322   18.2635 C   0  0  0  0  0  0
  -28.0601  -12.3064   18.6777 C   0  0  0  0  0  0
  -27.6392  -13.2233   19.8558 C   0  0  2  0  0  0
  -28.6758  -13.1697   20.9926 C   0  0  0  0  0  0
  -25.2534  -13.8166   20.5712 C   0  0  0  0  0  0
  -24.1791  -13.0433   20.9167 C   0  0  0  0  0  0
  -24.6359  -11.6896   20.8724 C   0  0  0  0  0  0
  -23.9028  -10.4287   21.0395 C   0  0  0  0  0  0
  -24.3593   -9.4217   21.9180 C   0  0  0  0  0  0
  -23.6277   -8.2239   22.0757 C   0  0  0  0  0  0
  -22.4272   -8.0280   21.3535 C   0  0  0  0  0  0
  -21.9887   -9.0244   20.4640 C   0  0  0  0  0  0
  -22.7207  -10.2128   20.3044 C   0  0  0  0  0  0
  -21.6859   -6.0722   22.5270 C   0  0  0  0  0  0
  -21.4007   -6.5629   23.8197 C   0  0  0  0  0  0
  -21.3652   -5.6801   24.9161 C   0  0  0  0  0  0
  -21.6060   -4.3052   24.7230 C   0  0  0  0  0  0
  -21.8821   -3.8139   23.4335 C   0  0  0  0  0  0
  -21.9199   -4.6946   22.3401 C   0  0  0  0  0  0
  -22.7831  -13.5236   21.1856 C   0  0  0  0  0  0
  -22.1675   -4.2128   21.0979 F   0  0  0  0  0  0
  -21.5631   -3.4537   25.7745 F   0  0  0  0  0  0
  -29.9523  -13.6372   20.4254 N   0  0  0  0  0  0
  -26.2932  -12.9329   20.3309 N   0  0  0  0  0  0
  -25.9297  -11.6482   20.5743 N   0  0  0  0  0  0
  -22.0509  -12.8213   22.0411 N   0  0  0  0  0  0
  -25.4290  -15.1890   20.4200 N   0  0  0  0  0  0
  -31.6726  -15.0378   20.0359 O   0  0  0  0  0  0
  -21.6650   -6.8858   21.4242 O   0  0  0  0  0  0
  -22.3516  -14.5554   20.6737 O   0  0  0  0  0  0
  -24.6413  -31.8493   23.1897 C   0  0  0  0  0  0
  -25.9222  -32.4730   23.8288 C   0  0  1  0  0  0
  -27.2108  -27.1609   20.1478 C   0  0  0  0  0  0
  -25.5961  -33.8530   24.2206 N   0  0  0  0  0  0
  -23.4400  -30.4648   21.5423 C   0  0  2  0  0  0
  -24.8877  -28.8911   20.1177 C   0  0  0  0  0  0
  -22.7556  -29.4535   22.4958 C   0  0  0  0  0  0
  -18.0260  -28.1391   22.8482 C   0  0  0  0  0  0
  -24.1468  -36.7276   23.2631 C   0  0  0  0  0  0
  -25.9920  -30.7275   21.3857 C   0  0  0  0  0  0
  -26.0659  -29.3387   20.7307 C   0  0  0  0  0  0
  -27.2335  -28.4879   20.7281 C   0  0  0  0  0  0
  -26.0087  -26.8017   19.5056 C   0  0  0  0  0  0
  -24.8683  -27.6339   19.4927 C   0  0  0  0  0  0
  -23.6630  -29.7934   20.1617 C   0  0  0  0  0  0
  -25.4118  -36.3065   24.0295 C   0  0  1  0  0  0
  -20.5867  -28.3724   23.1261 C   0  0  2  0  0  0
  -20.6784  -26.9449   22.5414 C   0  0  0  0  0  0
  -19.5769  -26.6386   21.5207 C   0  0  0  0  0  0
  -18.1926  -26.7937   22.1605 C   0  0  0  0  0  0
  -19.1519  -28.8877   23.2860 C   0  0  0  0  0  0
  -18.9456  -30.1460   23.8900 C   0  0  0  0  0  0
  -17.6458  -30.6609   24.0531 C   0  0  0  0  0  0
  -25.9090  -34.9434   23.5076 C   0  0  0  0  0  0
  -16.5347  -29.9079   23.6327 C   0  0  0  0  0  0
  -16.7249  -28.6488   23.0370 C   0  0  0  0  0  0
  -26.4511  -31.6595   25.0747 C   0  0  0  0  0  0
  -25.3639  -31.3787   26.1402 C   0  0  0  0  0  0
  -27.0395  -30.3003   24.6330 C   0  0  0  0  0  0
  -27.6054  -32.4364   25.7536 C   0  0  0  0  0  0
  -27.5574  -37.1785   24.8459 C   0  0  0  0  0  0
  -21.4251  -29.3047   22.3695 N   0  0  0  0  0  0
  -26.4295  -37.3783   23.9404 N   0  0  0  0  0  0
  -24.7098  -31.0338   22.0958 N   0  0  0  0  0  0
  -23.4188  -28.8095   23.3133 O   0  0  0  0  0  0
  -28.2826  -26.2112   20.1512 O   0  0  0  0  0  0
  -26.5658  -34.8921   22.4635 O   0  0  0  0  0  0
  -23.5546  -32.1377   23.7138 O   0  0  0  0  0  0
  -30.3571  -19.0961   18.1707 C   0  0  0  0  0  0
  -30.2839  -17.8740   18.8747 C   0  0  0  0  0  0
  -29.8831  -20.3146   18.7046 C   0  0  0  0  0  0
  -29.7164  -17.7726   20.1626 C   0  0  0  0  0  0
  -29.2506  -20.3940   19.9642 C   0  0  0  0  0  0
  -29.1911  -19.0834   20.6761 C   0  0  0  0  0  0
  -29.5970  -16.2830   20.8056 C   0  0  0  0  0  0
  -28.5269  -19.0916   22.0470 C   0  0  0  0  0  0
  -30.3054  -23.7138   19.8208 C   0  0  0  0  0  0
  -28.2634  -23.4439   18.3613 C   0  0  0  0  0  0
  -28.6194  -21.8452   20.4649 C   0  0  0  0  0  0
  -28.0650  -24.7263   20.5241 C   0  0  0  0  0  0
  -28.7986  -23.4006   19.8100 C   0  0  0  0  0  0
  -28.7071  -16.1528   21.6923 N   0  0  0  0  0  0
  -31.4841  -12.7301   19.2086 H   0  0  0  0  0  0
  -30.4440  -11.5994   20.0150 H   0  0  0  0  0  0
  -29.8491  -11.7451   17.5798 H   0  0  0  0  0  0
  -29.6149  -13.4704   17.7140 H   0  0  0  0  0  0
  -27.9686  -11.2617   18.9814 H   0  0  0  0  0  0
  -27.3911  -12.4335   17.8256 H   0  0  0  0  0  0
  -27.6275  -14.2388   19.4628 H   0  0  0  0  0  0
  -28.7722  -12.1530   21.3778 H   0  0  0  0  0  0
  -28.3526  -13.7479   21.8543 H   0  0  0  0  0  0
  -25.2746   -9.5713   22.4746 H   0  0  0  0  0  0
  -24.0005   -7.4642   22.7489 H   0  0  0  0  0  0
  -21.0816   -8.8754   19.8951 H   0  0  0  0  0  0
  -22.3673  -10.9648   19.6148 H   0  0  0  0  0  0
  -21.1992   -7.6134   23.9680 H   0  0  0  0  0  0
  -21.1480   -6.0535   25.9071 H   0  0  0  0  0  0
  -22.0606   -2.7595   23.2865 H   0  0  0  0  0  0
  -22.4146  -11.9870   22.4766 H   0  0  0  0  0  0
  -21.1129  -13.1214   22.2638 H   0  0  0  0  0  0
  -24.6777  -15.8576   20.5529 H   0  0  0  0  0  0
  -26.3306  -15.6246   20.2638 H   0  0  0  0  0  0
  -26.7317  -32.5355   23.1036 H   0  0  0  0  0  0
  -25.0039  -33.9616   25.0306 H   0  0  0  0  0  0
  -22.7430  -31.2900   21.3941 H   0  0  0  0  0  0
  -23.3749  -35.9594   23.3295 H   0  0  0  0  0  0
  -24.3555  -36.8941   22.2061 H   0  0  0  0  0  0
  -23.7206  -37.6444   23.6692 H   0  0  0  0  0  0
  -26.1322  -31.4806   20.6077 H   0  0  0  0  0  0
  -26.8666  -30.7898   22.0232 H   0  0  0  0  0  0
  -28.1380  -28.8168   21.2202 H   0  0  0  0  0  0
  -25.9317  -25.8397   19.0177 H   0  0  0  0  0  0
  -23.9656  -27.2879   19.0070 H   0  0  0  0  0  0
  -23.7929  -30.5652   19.4035 H   0  0  0  0  0  0
  -22.7764  -29.2332   19.8577 H   0  0  0  0  0  0
  -25.1293  -36.1909   25.0791 H   0  0  0  0  0  0
  -20.9899  -28.3337   24.1396 H   0  0  0  0  0  0
  -20.5728  -26.2348   23.3625 H   0  0  0  0  0  0
  -21.6657  -26.7524   22.1205 H   0  0  0  0  0  0
  -19.6952  -25.6270   21.1280 H   0  0  0  0  0  0
  -19.6708  -27.3169   20.6709 H   0  0  0  0  0  0
  -17.4217  -26.6669   21.3976 H   0  0  0  0  0  0
  -18.0325  -26.0054   22.8991 H   0  0  0  0  0  0
  -19.7946  -30.7241   24.2317 H   0  0  0  0  0  0
  -17.5032  -31.6299   24.5149 H   0  0  0  0  0  0
  -15.5351  -30.2995   23.7689 H   0  0  0  0  0  0
  -15.8640  -28.0802   22.7127 H   0  0  0  0  0  0
  -24.5902  -30.7058   25.7698 H   0  0  0  0  0  0
  -24.8688  -32.2948   26.4656 H   0  0  0  0  0  0
  -25.7865  -30.9100   27.0302 H   0  0  0  0  0  0
  -26.3026  -29.6731   24.1314 H   0  0  0  0  0  0
  -27.3984  -29.7331   25.4927 H   0  0  0  0  0  0
  -27.8942  -30.4254   23.9674 H   0  0  0  0  0  0
  -27.2681  -33.3737   26.1969 H   0  0  0  0  0  0
  -28.3916  -32.6816   25.0383 H   0  0  0  0  0  0
  -28.0642  -31.8579   26.5551 H   0  0  0  0  0  0
  -28.2580  -38.0090   24.7532 H   0  0  0  0  0  0
  -28.1069  -36.2625   24.6260 H   0  0  0  0  0  0
  -27.2281  -37.1410   25.8853 H   0  0  0  0  0  0
  -20.9528  -29.8733   21.6815 H   0  0  0  0  0  0
  -26.0167  -38.2853   24.1423 H   0  0  0  0  0  0
  -30.7855  -19.0980   17.1762 H   0  0  0  0  0  0
  -30.6570  -16.9855   18.3830 H   0  0  0  0  0  0
  -30.0158  -21.1936   18.0984 H   0  0  0  0  0  0
  -29.1678  -18.5971   22.7796 H   0  0  0  0  0  0
  -27.5686  -18.5741   22.0135 H   0  0  0  0  0  0
  -28.3308  -20.0888   22.4351 H   0  0  0  0  0  0
  -30.8889  -22.9688   19.2824 H   0  0  0  0  0  0
  -30.6763  -23.7459   20.8473 H   0  0  0  0  0  0
  -30.5157  -24.6842   19.3690 H   0  0  0  0  0  0
  -28.6514  -22.6656   17.7150 H   0  0  0  0  0  0
  -28.5179  -24.3923   17.8848 H   0  0  0  0  0  0
  -27.1759  -23.3631   18.3440 H   0  0  0  0  0  0
  -28.9318  -21.9478   21.5054 H   0  0  0  0  0  0
  -27.5442  -21.6709   20.5186 H   0  0  0  0  0  0
  -28.3557  -24.6834   21.5744 H   0  0  0  0  0  0
  -26.9954  -24.5269   20.5579 H   0  0  0  0  0  0
  -28.2310  -17.0326   21.8526 H   0  0  0  0  0  0
  1 25  1  0  0  0
  1 30  2  0  0  0
  1 77  1  0  0  0
  2  3  1  0  0  0
  2 25  1  0  0  0
  2 85  1  0  0  0
  2 86  1  0  0  0
  3  4  1  0  0  0
  3 87  1  0  0  0
  3 88  1  0  0  0
  4  5  1  0  0  0
  4 89  1  0  0  0
  4 90  1  0  0  0
  5  6  1  0  0  0
  5 26  1  0  0  0
  5 91  1  0  0  0
  6 25  1  0  0  0
  6 92  1  0  0  0
  6 93  1  0  0  0
  7  8  2  0  0  0
  7 26  1  0  0  0
  7 29  1  0  0  0
  8  9  1  0  0  0
  8 22  1  0  0  0
  9 10  1  0  0  0
  9 27  2  0  0  0
 10 11  2  0  0  0
 10 15  1  0  0  0
 11 12  1  0  0  0
 11 94  1  0  0  0
 12 13  2  0  0  0
 12 95  1  0  0  0
 13 14  1  0  0  0
 13 31  1  0  0  0
 14 15  2  0  0  0
 14 96  1  0  0  0
 15 97  1  0  0  0
 16 17  2  0  0  0
 16 21  1  0  0  0
 16 31  1  0  0  0
 17 18  1  0  0  0
 17 98  1  0  0  0
 18 19  2  0  0  0
 18 99  1  0  0  0
 19 20  1  0  0  0
 19 24  1  0  0  0
 20 21  2  0  0  0
 20100  1  0  0  0
 21 23  1  0  0  0
 22 28  1  0  0  0
 22 32  2  0  0  0
 26 27  1  0  0  0
 28101  1  0  0  0
 28102  1  0  0  0
 29103  1  0  0  0
 29104  1  0  0  0
 33 34  1  0  0  0
 33 66  1  0  0  0
 33 70  2  0  0  0
 34 36  1  0  0  0
 34 59  1  0  0  0
 34105  1  0  0  0
 35 44  2  0  0  0
 35 45  1  0  0  0
 35 68  1  0  0  0
 36 56  1  0  0  0
 36106  1  0  0  0
 37 39  1  0  0  0
 37 47  1  0  0  0
 37 66  1  0  0  0
 37107  1  0  0  0
 38 43  2  0  0  0
 38 46  1  0  0  0
 38 47  1  0  0  0
 39 64  1  0  0  0
 39 67  2  0  0  0
 40 52  1  0  0  0
 40 53  2  0  0  0
 40 58  1  0  0  0
 41108  1  0  0  0
 41109  1  0  0  0
 41110  1  0  0  0
 41 48  1  0  0  0
 42 43  1  0  0  0
 42 66  1  0  0  0
 42111  1  0  0  0
 42112  1  0  0  0
 43 44  1  0  0  0
 44113  1  0  0  0
 45 46  2  0  0  0
 45114  1  0  0  0
 46115  1  0  0  0
 47116  1  0  0  0
 47117  1  0  0  0
 48 56  1  0  0  0
 48 65  1  0  0  0
 48118  1  0  0  0
 49 50  1  0  0  0
 49 53  1  0  0  0
 49 64  1  0  0  0
 49119  1  0  0  0
 50 51  1  0  0  0
 50120  1  0  0  0
 50121  1  0  0  0
 51 52  1  0  0  0
 51122  1  0  0  0
 51123  1  0  0  0
 52124  1  0  0  0
 52125  1  0  0  0
 53 54  1  0  0  0
 54 55  2  0  0  0
 54126  1  0  0  0
 55 57  1  0  0  0
 55127  1  0  0  0
 56 69  2  0  0  0
 57 58  2  0  0  0
 57128  1  0  0  0
 58129  1  0  0  0
 59 60  1  0  0  0
 59 61  1  0  0  0
 59 62  1  0  0  0
 60130  1  0  0  0
 60131  1  0  0  0
 60132  1  0  0  0
 61133  1  0  0  0
 61134  1  0  0  0
 61135  1  0  0  0
 62136  1  0  0  0
 62137  1  0  0  0
 62138  1  0  0  0
 63 65  1  0  0  0
 63139  1  0  0  0
 63140  1  0  0  0
 63141  1  0  0  0
 64142  1  0  0  0
 65143  1  0  0  0
 68 82  1  0  0  0
 71 72  2  0  0  0
 71 73  1  0  0  0
 71144  1  0  0  0
 72 74  1  0  0  0
 72145  1  0  0  0
 73 75  2  0  0  0
 73146  1  0  0  0
 74 76  2  0  0  0
 74 77  1  0  0  0
 75 76  1  0  0  0
 75 81  1  0  0  0
 76 78  1  0  0  0
 77 84  2  0  0  0
 78147  1  0  0  0
 78148  1  0  0  0
 78149  1  0  0  0
 79150  1  0  0  0
 79151  1  0  0  0
 79152  1  0  0  0
 79 83  1  0  0  0
 80 83  1  0  0  0
 80153  1  0  0  0
 80154  1  0  0  0
 80155  1  0  0  0
 81 83  1  0  0  0
 81156  1  0  0  0
 81157  1  0  0  0
 82 83  1  0  0  0
 82158  1  0  0  0
 82159  1  0  0  0
 84160  1  0  0  0
M  ISO  4   1 100  68 101  77 100  82 101
M  END
> <chiral flag>
0

> <version>
0

> <s_m_source_file>
/data/baiqing/PycharmProjects/Reinvent-master-3.2/result/LINK_invent/BTK/process_docking_weight1_custom_product_contain_oxygen_bond_distance_aromatic_linkinvent_7_9_3/rearranged_h_0140.sdf

> <i_m_source_file_index>
11

> <r_mmod_Potential_Energy-OPLS-2005>
662.411315917969

> <r_mmod_Stretch_Energy-OPLS-2005>
281.552337646484

> <r_mmod_Bend_Energy-OPLS-2005>
255.90559387207

> <r_mmod_Torsional_Energy-OPLS-2005>
211.247802734375

> <r_mmod_Improper_Torsional_Energy-OPLS-2005>
2.81725120544434

> <r_mmod_Van_der_Waal_Energy-OPLS-2005>
142.177352905273

> <r_mmod_Electrostatic_Energy-OPLS-2005>
-216.384506225586

> <r_mmod_Solvation_Energy-OPLS-2005>
-183.703231811523

> <b_mmod_Minimization_Converged-OPLS-2005>
0

> <r_mmod_RMS_Derivative-OPLS-2005>
4.34538841247559

$$$$
11
                    3D
 Structure written by MMmdl.
163171  0  0  1  0            999 V2000
  -30.6684  -14.7838   20.5151 C   0  0  0  0  0  0
  -30.4030  -12.5132   19.4880 C   0  0  0  0  0  0
  -29.4932  -12.5394   18.2441 C   0  0  0  0  0  0
  -28.0249  -12.3544   18.6581 C   0  0  0  0  0  0
  -27.6287  -13.2477   19.8629 C   0  0  2  0  0  0
  -28.6725  -13.2176   21.0024 C   0  0  0  0  0  0
  -25.2270  -13.8125   20.5457 C   0  0  0  0  0  0
  -24.1673  -13.0403   20.9161 C   0  0  0  0  0  0
  -24.6341  -11.6897   20.8781 C   0  0  0  0  0  0
  -23.9021  -10.4285   21.0424 C   0  0  0  0  0  0
  -24.3589   -9.4228   21.9223 C   0  0  0  0  0  0
  -23.6295   -8.2251   22.0773 C   0  0  0  0  0  0
  -22.4285   -8.0260   21.3540 C   0  0  0  0  0  0
  -21.9889   -9.0224   20.4652 C   0  0  0  0  0  0
  -22.7182  -10.2129   20.3089 C   0  0  0  0  0  0
  -21.6860   -6.0720   22.5274 C   0  0  0  0  0  0
  -21.4017   -6.5633   23.8205 C   0  0  0  0  0  0
  -21.3655   -5.6789   24.9170 C   0  0  0  0  0  0
  -21.6038   -4.3045   24.7216 C   0  0  0  0  0  0
  -21.8841   -3.8140   23.4338 C   0  0  0  0  0  0
  -21.9203   -4.6953   22.3395 C   0  0  0  0  0  0
  -22.7721  -13.5193   21.1842 C   0  0  0  0  0  0
  -22.1684   -4.2147   21.0977 F   0  0  0  0  0  0
  -21.5611   -3.4531   25.7730 F   0  0  0  0  0  0
  -29.9613  -13.5960   20.4123 N   0  0  0  0  0  0
  -26.2832  -12.9450   20.3343 N   0  0  0  0  0  0
  -25.9303  -11.6573   20.5864 N   0  0  0  0  0  0
  -22.0383  -12.8204   22.0416 N   0  0  0  0  0  0
  -25.3687  -15.1768   20.3386 N   0  0  0  0  0  0
  -31.8134  -14.8143   20.0622 O   0  0  0  0  0  0
  -21.6660   -6.8853   21.4231 O   0  0  0  0  0  0
  -22.3404  -14.5519   20.6707 O   0  0  0  0  0  0
  -24.6304  -31.8494   23.1880 C   0  0  0  0  0  0
  -25.9121  -32.4706   23.8248 C   0  0  1  0  0  0
  -27.2307  -27.2340   20.1641 C   0  0  0  0  0  0
  -25.5921  -33.8508   24.2202 N   0  0  0  0  0  0
  -23.4315  -30.4648   21.5266 C   0  0  2  0  0  0
  -24.8799  -28.8936   20.1003 C   0  0  0  0  0  0
  -22.7498  -29.4584   22.4834 C   0  0  0  0  0  0
  -18.0284  -28.1422   22.8530 C   0  0  0  0  0  0
  -24.1487  -36.7272   23.2638 C   0  0  0  0  0  0
  -25.9717  -30.7553   21.3643 C   0  0  0  0  0  0
  -26.0427  -29.3722   20.7154 C   0  0  0  0  0  0
  -27.2108  -28.5515   20.7324 C   0  0  0  0  0  0
  -26.0543  -26.8167   19.5093 C   0  0  0  0  0  0
  -24.8924  -27.6288   19.4811 C   0  0  0  0  0  0
  -23.6506  -29.7820   20.1450 C   0  0  0  0  0  0
  -25.4115  -36.3035   24.0322 C   0  0  1  0  0  0
  -20.5887  -28.3723   23.1229 C   0  0  2  0  0  0
  -20.6771  -26.9420   22.5310 C   0  0  0  0  0  0
  -19.5657  -26.6383   21.5160 C   0  0  0  0  0  0
  -18.1853  -26.7992   22.1604 C   0  0  0  0  0  0
  -19.1558  -28.8874   23.2889 C   0  0  0  0  0  0
  -18.9509  -30.1460   23.8971 C   0  0  0  0  0  0
  -17.6532  -30.6630   24.0629 C   0  0  0  0  0  0
  -25.9073  -34.9402   23.5096 C   0  0  0  0  0  0
  -16.5417  -29.9134   23.6399 C   0  0  0  0  0  0
  -16.7282  -28.6542   23.0478 C   0  0  0  0  0  0
  -26.4513  -31.6542   25.0653 C   0  0  0  0  0  0
  -25.3751  -31.3680   26.1394 C   0  0  0  0  0  0
  -27.0372  -30.2953   24.6139 C   0  0  0  0  0  0
  -27.6071  -32.4285   25.7458 C   0  0  0  0  0  0
  -27.5571  -37.1783   24.8466 C   0  0  0  0  0  0
  -21.4185  -29.3188   22.3722 N   0  0  0  0  0  0
  -26.4281  -37.3744   23.9420 N   0  0  0  0  0  0
  -24.6967  -31.0456   22.0816 N   0  0  0  0  0  0
  -23.4183  -28.8020   23.2871 O   0  0  0  0  0  0
  -28.3620  -26.4079   20.3517 O   0  0  0  0  0  0
  -26.5646  -34.8910   22.4655 O   0  0  0  0  0  0
  -23.5465  -32.1312   23.7192 O   0  0  0  0  0  0
  -27.0084  -17.8996   21.0938 C   0  0  0  0  0  0
  -27.9498  -16.8594   21.0852 C   0  0  0  0  0  0
  -27.3398  -19.2384   20.7952 C   0  0  0  0  0  0
  -29.6603  -18.5051   20.5865 C   0  0  0  0  0  0
  -29.3035  -17.0930   20.8292 C   0  0  0  0  0  0
  -28.6882  -19.6141   20.5310 C   0  0  0  0  0  0
  -26.1558  -20.1909   20.7545 C   0  0  0  0  0  0
  -31.6855  -19.2451   21.8802 C   0  0  0  0  0  0
  -27.3508  -23.1821   18.7525 C   0  0  0  0  0  0
  -31.1362  -18.8661   20.4966 C   0  0  0  0  0  0
  -28.6879  -24.9853   19.9501 C   0  0  0  0  0  0
  -28.6038  -22.2364   20.8610 C   0  0  0  0  0  0
  -27.9103  -23.5590   20.1412 C   0  0  2  0  0  0
  -30.2301  -15.9609   21.1297 N   0  0  0  0  0  0
  -29.0267  -20.9681   20.1518 O   0  0  0  0  0  0
  -31.4427  -12.6172   19.1740 H   0  0  0  0  0  0
  -30.3411  -11.5438   19.9839 H   0  0  0  0  0  0
  -29.7863  -11.7552   17.5458 H   0  0  0  0  0  0
  -29.6117  -13.4859   17.7099 H   0  0  0  0  0  0
  -27.8869  -11.3035   18.9142 H   0  0  0  0  0  0
  -27.3674  -12.5549   17.8124 H   0  0  0  0  0  0
  -27.6072  -14.2661   19.4758 H   0  0  0  0  0  0
  -28.7227  -12.2295   21.4655 H   0  0  0  0  0  0
  -28.4017  -13.9047   21.8012 H   0  0  0  0  0  0
  -25.2716   -9.5733   22.4815 H   0  0  0  0  0  0
  -24.0012   -7.4637   22.7478 H   0  0  0  0  0  0
  -21.0848   -8.8717   19.8929 H   0  0  0  0  0  0
  -22.3613  -10.9685   19.6219 H   0  0  0  0  0  0
  -21.2032   -7.6152   23.9695 H   0  0  0  0  0  0
  -21.1446   -6.0525   25.9065 H   0  0  0  0  0  0
  -22.0623   -2.7604   23.2836 H   0  0  0  0  0  0
  -22.3994  -11.9854   22.4787 H   0  0  0  0  0  0
  -21.1030  -13.1279   22.2706 H   0  0  0  0  0  0
  -24.5755  -15.8040   20.3770 H   0  0  0  0  0  0
  -26.1975  -15.6012   19.9457 H   0  0  0  0  0  0
  -26.7189  -32.5348   23.0990 H   0  0  0  0  0  0
  -25.0034  -33.9627   25.0327 H   0  0  0  0  0  0
  -22.7296  -31.2878   21.3669 H   0  0  0  0  0  0
  -23.3745  -35.9609   23.3297 H   0  0  0  0  0  0
  -24.3565  -36.8904   22.2050 H   0  0  0  0  0  0
  -23.7266  -37.6480   23.6679 H   0  0  0  0  0  0
  -26.1123  -31.5085   20.5886 H   0  0  0  0  0  0
  -26.8488  -30.8074   22.0003 H   0  0  0  0  0  0
  -28.0971  -28.9062   21.2381 H   0  0  0  0  0  0
  -26.0054  -25.8358   19.0658 H   0  0  0  0  0  0
  -23.9994  -27.2566   18.9957 H   0  0  0  0  0  0
  -23.7796  -30.5481   19.3797 H   0  0  0  0  0  0
  -22.7708  -29.2108   19.8415 H   0  0  0  0  0  0
  -25.1304  -36.1862   25.0814 H   0  0  0  0  0  0
  -21.0014  -28.3225   24.1334 H   0  0  0  0  0  0
  -20.5775  -26.2252   23.3497 H   0  0  0  0  0  0
  -21.6602  -26.7515   22.1016 H   0  0  0  0  0  0
  -19.6802  -25.6264   21.1283 H   0  0  0  0  0  0
  -19.6558  -27.3078   20.6594 H   0  0  0  0  0  0
  -17.4084  -26.6908   21.4001 H   0  0  0  0  0  0
  -18.0139  -26.0100   22.8931 H   0  0  0  0  0  0
  -19.7979  -30.7239   24.2386 H   0  0  0  0  0  0
  -17.5055  -31.6315   24.5236 H   0  0  0  0  0  0
  -15.5425  -30.3073   23.7724 H   0  0  0  0  0  0
  -15.8637  -28.0876   22.7318 H   0  0  0  0  0  0
  -24.5948  -30.7016   25.7727 H   0  0  0  0  0  0
  -24.8944  -32.2841   26.4815 H   0  0  0  0  0  0
  -25.8101  -30.8865   27.0163 H   0  0  0  0  0  0
  -26.2938  -29.6679   24.1227 H   0  0  0  0  0  0
  -27.4118  -29.7241   25.4644 H   0  0  0  0  0  0
  -27.8785  -30.4227   23.9332 H   0  0  0  0  0  0
  -27.2669  -33.3582   26.2027 H   0  0  0  0  0  0
  -28.3906  -32.6831   25.0317 H   0  0  0  0  0  0
  -28.0710  -31.8404   26.5386 H   0  0  0  0  0  0
  -28.2581  -38.0082   24.7503 H   0  0  0  0  0  0
  -28.1073  -36.2612   24.6314 H   0  0  0  0  0  0
  -27.2283  -37.1460   25.8864 H   0  0  0  0  0  0
  -20.9381  -29.9253   21.7236 H   0  0  0  0  0  0
  -26.0147  -38.2810   24.1451 H   0  0  0  0  0  0
  -25.9915  -17.6518   21.3537 H   0  0  0  0  0  0
  -27.6207  -15.8744   21.3667 H   0  0  0  0  0  0
  -26.3832  -21.1542   20.3327 H   0  0  0  0  0  0
  -25.7622  -20.3518   21.7583 H   0  0  0  0  0  0
  -25.3599  -19.7688   20.1390 H   0  0  0  0  0  0
  -32.7252  -19.5749   21.8195 H   0  0  0  0  0  0
  -31.6388  -18.4000   22.5682 H   0  0  0  0  0  0
  -31.1049  -20.0556   22.3218 H   0  0  0  0  0  0
  -26.9895  -24.0643   18.2292 H   0  0  0  0  0  0
  -26.5173  -22.4912   18.7778 H   0  0  0  0  0  0
  -28.1176  -22.7332   18.1194 H   0  0  0  0  0  0
  -31.7122  -18.0424   20.0739 H   0  0  0  0  0  0
  -31.2764  -19.6996   19.8068 H   0  0  0  0  0  0
  -29.0507  -25.0437   18.9245 H   0  0  0  0  0  0
  -29.6000  -24.8370   20.5255 H   0  0  0  0  0  0
  -27.9645  -21.9374   21.6948 H   0  0  0  0  0  0
  -29.4995  -22.5886   21.3770 H   0  0  0  0  0  0
  -27.0656  -23.8100   20.7837 H   0  0  0  0  0  0
  -31.0866  -16.3682   21.4702 H   0  0  0  0  0  0
  1 25  1  0  0  0
  1 30  2  0  0  0
  1 84  1  0  0  0
  2  3  1  0  0  0
  2 25  1  0  0  0
  2 86  1  0  0  0
  2 87  1  0  0  0
  3  4  1  0  0  0
  3 88  1  0  0  0
  3 89  1  0  0  0
  4  5  1  0  0  0
  4 90  1  0  0  0
  4 91  1  0  0  0
  5  6  1  0  0  0
  5 26  1  0  0  0
  5 92  1  0  0  0
  6 25  1  0  0  0
  6 93  1  0  0  0
  6 94  1  0  0  0
  7  8  2  0  0  0
  7 26  1  0  0  0
  7 29  1  0  0  0
  8  9  1  0  0  0
  8 22  1  0  0  0
  9 10  1  0  0  0
  9 27  2  0  0  0
 10 11  2  0  0  0
 10 15  1  0  0  0
 11 12  1  0  0  0
 11 95  1  0  0  0
 12 13  2  0  0  0
 12 96  1  0  0  0
 13 14  1  0  0  0
 13 31  1  0  0  0
 14 15  2  0  0  0
 14 97  1  0  0  0
 15 98  1  0  0  0
 16 17  2  0  0  0
 16 21  1  0  0  0
 16 31  1  0  0  0
 17 18  1  0  0  0
 17 99  1  0  0  0
 18 19  2  0  0  0
 18100  1  0  0  0
 19 20  1  0  0  0
 19 24  1  0  0  0
 20 21  2  0  0  0
 20101  1  0  0  0
 21 23  1  0  0  0
 22 28  1  0  0  0
 22 32  2  0  0  0
 26 27  1  0  0  0
 28102  1  0  0  0
 28103  1  0  0  0
 29104  1  0  0  0
 29105  1  0  0  0
 33 34  1  0  0  0
 33 66  1  0  0  0
 33 70  2  0  0  0
 34 36  1  0  0  0
 34 59  1  0  0  0
 34106  1  0  0  0
 35 44  2  0  0  0
 35 45  1  0  0  0
 35 68  1  0  0  0
 36 56  1  0  0  0
 36107  1  0  0  0
 37 39  1  0  0  0
 37 47  1  0  0  0
 37 66  1  0  0  0
 37108  1  0  0  0
 38 43  2  0  0  0
 38 46  1  0  0  0
 38 47  1  0  0  0
 39 64  1  0  0  0
 39 67  2  0  0  0
 40 52  1  0  0  0
 40 53  2  0  0  0
 40 58  1  0  0  0
 41109  1  0  0  0
 41110  1  0  0  0
 41111  1  0  0  0
 41 48  1  0  0  0
 42 43  1  0  0  0
 42 66  1  0  0  0
 42112  1  0  0  0
 42113  1  0  0  0
 43 44  1  0  0  0
 44114  1  0  0  0
 45 46  2  0  0  0
 45115  1  0  0  0
 46116  1  0  0  0
 47117  1  0  0  0
 47118  1  0  0  0
 48 56  1  0  0  0
 48 65  1  0  0  0
 48119  1  0  0  0
 49 50  1  0  0  0
 49 53  1  0  0  0
 49 64  1  0  0  0
 49120  1  0  0  0
 50 51  1  0  0  0
 50121  1  0  0  0
 50122  1  0  0  0
 51 52  1  0  0  0
 51123  1  0  0  0
 51124  1  0  0  0
 52125  1  0  0  0
 52126  1  0  0  0
 53 54  1  0  0  0
 54 55  2  0  0  0
 54127  1  0  0  0
 55 57  1  0  0  0
 55128  1  0  0  0
 56 69  2  0  0  0
 57 58  2  0  0  0
 57129  1  0  0  0
 58130  1  0  0  0
 59 60  1  0  0  0
 59 61  1  0  0  0
 59 62  1  0  0  0
 60131  1  0  0  0
 60132  1  0  0  0
 60133  1  0  0  0
 61134  1  0  0  0
 61135  1  0  0  0
 61136  1  0  0  0
 62137  1  0  0  0
 62138  1  0  0  0
 62139  1  0  0  0
 63 65  1  0  0  0
 63140  1  0  0  0
 63141  1  0  0  0
 63142  1  0  0  0
 64143  1  0  0  0
 65144  1  0  0  0
 68 81  1  0  0  0
 71 72  2  0  0  0
 71 73  1  0  0  0
 71145  1  0  0  0
 72 75  1  0  0  0
 72146  1  0  0  0
 73 76  2  0  0  0
 73 77  1  0  0  0
 74 75  2  0  0  0
 74 76  1  0  0  0
 74 80  1  0  0  0
 75 84  1  0  0  0
 76 85  1  0  0  0
 77147  1  0  0  0
 77148  1  0  0  0
 77149  1  0  0  0
 78 80  1  0  0  0
 78150  1  0  0  0
 78151  1  0  0  0
 78152  1  0  0  0
 79153  1  0  0  0
 79154  1  0  0  0
 79155  1  0  0  0
 79 83  1  0  0  0
 80156  1  0  0  0
 80157  1  0  0  0
 81 83  1  0  0  0
 81158  1  0  0  0
 81159  1  0  0  0
 82 83  1  0  0  0
 82 85  1  0  0  0
 82160  1  0  0  0
 82161  1  0  0  0
 83162  1  0  0  0
 84163  1  0  0  0
M  ISO  4   1 100  68 101  81 101  84 100
M  END
> <chiral flag>
0

> <version>
0

> <s_m_source_file>
/data/baiqing/PycharmProjects/Reinvent-master-3.2/result/LINK_invent/BTK/process_docking_weight1_custom_product_contain_oxygen_bond_distance_aromatic_linkinvent_7_9_3/rearranged_h_0140.sdf

> <i_m_source_file_index>
12

> <r_mmod_Potential_Energy-OPLS-2005>
451.688751220703

> <r_mmod_Stretch_Energy-OPLS-2005>
163.974639892578

> <r_mmod_Bend_Energy-OPLS-2005>
335.278259277344

> <r_mmod_Torsional_Energy-OPLS-2005>
292.959747314453

> <r_mmod_Improper_Torsional_Energy-OPLS-2005>
9.22381782531738

> <r_mmod_Van_der_Waal_Energy-OPLS-2005>
130.911361694336

> <r_mmod_Electrostatic_Energy-OPLS-2005>
-398.786895751953

> <r_mmod_Solvation_Energy-OPLS-2005>
-187.833618164062

> <b_mmod_Minimization_Converged-OPLS-2005>
0

> <r_mmod_RMS_Derivative-OPLS-2005>
5.9725193977356

$$$$
12
                    3D
 Structure written by MMmdl.
168176  0  0  1  0            999 V2000
  -30.6764  -14.4698   20.5524 C   0  0  0  0  0  0
  -30.4257  -12.2942   19.4267 C   0  0  0  0  0  0
  -29.5013  -12.5044   18.2092 C   0  0  0  0  0  0
  -28.0217  -12.3611   18.6189 C   0  0  0  0  0  0
  -27.6642  -13.2003   19.8744 C   0  0  2  0  0  0
  -28.7025  -12.9715   20.9965 C   0  0  0  0  0  0
  -25.2610  -13.8147   20.5659 C   0  0  0  0  0  0
  -24.1844  -13.0437   20.9155 C   0  0  0  0  0  0
  -24.6382  -11.6900   20.8720 C   0  0  0  0  0  0
  -23.9045  -10.4295   21.0404 C   0  0  0  0  0  0
  -24.3600   -9.4214   21.9179 C   0  0  0  0  0  0
  -23.6280   -8.2246   22.0760 C   0  0  0  0  0  0
  -22.4258   -8.0286   21.3558 C   0  0  0  0  0  0
  -21.9890   -9.0256   20.4654 C   0  0  0  0  0  0
  -22.7218  -10.2130   20.3055 C   0  0  0  0  0  0
  -21.6842   -6.0735   22.5286 C   0  0  0  0  0  0
  -21.4015   -6.5637   23.8222 C   0  0  0  0  0  0
  -21.3654   -5.6791   24.9177 C   0  0  0  0  0  0
  -21.6039   -4.3055   24.7227 C   0  0  0  0  0  0
  -21.8813   -3.8152   23.4353 C   0  0  0  0  0  0
  -21.9189   -4.6968   22.3408 C   0  0  0  0  0  0
  -22.7869  -13.5250   21.1818 C   0  0  0  0  0  0
  -22.1663   -4.2160   21.0987 F   0  0  0  0  0  0
  -21.5622   -3.4543   25.7743 F   0  0  0  0  0  0
  -30.0368  -13.2755   20.4507 N   0  0  0  0  0  0
  -26.3032  -12.9295   20.3328 N   0  0  0  0  0  0
  -25.9303  -11.6466   20.5723 N   0  0  0  0  0  0
  -22.0488  -12.8273   22.0371 N   0  0  0  0  0  0
  -25.4356  -15.1862   20.4084 N   0  0  0  0  0  0
  -31.8054  -14.6703   20.0899 O   0  0  0  0  0  0
  -21.6631   -6.8879   21.4247 O   0  0  0  0  0  0
  -22.3568  -14.5557   20.6662 O   0  0  0  0  0  0
  -24.6121  -31.8697   23.2098 C   0  0  0  0  0  0
  -25.9028  -32.4826   23.8386 C   0  0  1  0  0  0
  -27.2305  -27.4464   20.0913 C   0  0  0  0  0  0
  -25.5886  -33.8624   24.2324 N   0  0  0  0  0  0
  -23.3964  -30.4935   21.5511 C   0  0  2  0  0  0
  -24.8390  -28.9561   20.1174 C   0  0  0  0  0  0
  -22.7384  -29.4674   22.5003 C   0  0  0  0  0  0
  -18.0262  -28.1385   22.8479 C   0  0  0  0  0  0
  -24.1482  -36.7323   23.2636 C   0  0  0  0  0  0
  -25.9226  -30.8398   21.3565 C   0  0  0  0  0  0
  -25.9979  -29.4743   20.7063 C   0  0  0  0  0  0
  -27.1954  -28.7281   20.6840 C   0  0  0  0  0  0
  -26.0502  -26.9328   19.5055 C   0  0  0  0  0  0
  -24.8602  -27.6858   19.5148 C   0  0  0  0  0  0
  -23.6020  -29.8241   20.1657 C   0  0  0  0  0  0
  -25.4103  -36.3110   24.0331 C   0  0  1  0  0  0
  -20.5849  -28.3667   23.1324 C   0  0  2  0  0  0
  -20.6754  -26.9405   22.5420 C   0  0  0  0  0  0
  -19.5741  -26.6394   21.5202 C   0  0  0  0  0  0
  -18.1916  -26.7927   22.1611 C   0  0  0  0  0  0
  -19.1509  -28.8840   23.2899 C   0  0  0  0  0  0
  -18.9444  -30.1443   23.8918 C   0  0  0  0  0  0
  -17.6450  -30.6588   24.0571 C   0  0  0  0  0  0
  -25.9033  -34.9477   23.5128 C   0  0  0  0  0  0
  -16.5340  -29.9099   23.6323 C   0  0  0  0  0  0
  -16.7252  -28.6517   23.0337 C   0  0  0  0  0  0
  -26.4470  -31.6598   25.0709 C   0  0  0  0  0  0
  -25.3751  -31.3709   26.1470 C   0  0  0  0  0  0
  -27.0290  -30.3040   24.6067 C   0  0  0  0  0  0
  -27.6051  -32.4315   25.7466 C   0  0  0  0  0  0
  -27.5577  -37.1809   24.8460 C   0  0  0  0  0  0
  -21.4114  -29.3039   22.3738 N   0  0  0  0  0  0
  -26.4290  -37.3795   23.9403 N   0  0  0  0  0  0
  -24.6622  -31.0816   22.0989 N   0  0  0  0  0  0
  -23.4177  -28.8213   23.3023 O   0  0  0  0  0  0
  -28.4329  -26.7755   20.0757 O   0  0  0  0  0  0
  -26.5603  -34.8926   22.4693 O   0  0  0  0  0  0
  -23.5322  -32.1443   23.7519 O   0  0  0  0  0  0
  -30.6775  -19.1300   21.3836 C   0  0  0  0  0  0
  -29.8446  -18.6826   19.1419 C   0  0  0  0  0  0
  -30.5286  -17.7659   21.7174 C   0  0  0  0  0  0
  -29.6946  -17.3175   19.4736 C   0  0  0  0  0  0
  -30.3622  -19.5967   20.0867 C   0  0  0  0  0  0
  -30.0701  -16.8435   20.7532 C   0  0  0  0  0  0
  -28.3945  -21.7627   20.4528 C   0  0  0  0  0  0
  -29.2541  -22.4091   18.1957 C   0  0  0  0  0  0
  -30.5650  -25.3756   18.6695 C   0  0  0  0  0  0
  -30.7365  -21.0244   19.6682 C   0  0  0  0  0  0
  -30.3090  -23.4400   20.3476 C   0  0  0  0  0  0
  -28.4566  -25.3398   20.0585 C   0  0  0  0  0  0
  -29.6586  -22.1745   19.6673 C   0  0  0  0  0  0
  -29.9598  -24.9441   20.0302 C   0  0  2  0  0  0
  -29.9448  -15.4660   21.0860 N   0  0  0  0  0  0
  -30.6242  -25.7529   21.0846 N   0  3  0  0  0  0
  -31.4736  -12.3876   19.1359 H   0  0  0  0  0  0
  -30.3160  -11.2821   19.8197 H   0  0  0  0  0  0
  -29.7420  -11.7859   17.4245 H   0  0  0  0  0  0
  -29.6719  -13.4932   17.7787 H   0  0  0  0  0  0
  -27.8306  -11.3051   18.8165 H   0  0  0  0  0  0
  -27.3710  -12.6310   17.7874 H   0  0  0  0  0  0
  -27.7115  -14.2474   19.5747 H   0  0  0  0  0  0
  -28.6742  -11.9348   21.3323 H   0  0  0  0  0  0
  -28.4631  -13.5672   21.8778 H   0  0  0  0  0  0
  -25.2745   -9.5693   22.4752 H   0  0  0  0  0  0
  -24.0003   -7.4626   22.7474 H   0  0  0  0  0  0
  -21.0822   -8.8756   19.8957 H   0  0  0  0  0  0
  -22.3675  -10.9660   19.6164 H   0  0  0  0  0  0
  -21.2020   -7.6149   23.9727 H   0  0  0  0  0  0
  -21.1475   -6.0522   25.9075 H   0  0  0  0  0  0
  -22.0598   -2.7621   23.2839 H   0  0  0  0  0  0
  -22.4088  -11.9948   22.4810 H   0  0  0  0  0  0
  -21.1108  -13.1331   22.2553 H   0  0  0  0  0  0
  -24.6708  -15.8438   20.5136 H   0  0  0  0  0  0
  -26.2939  -15.6234   20.0968 H   0  0  0  0  0  0
  -26.7094  -32.5532   23.1146 H   0  0  0  0  0  0
  -25.0005  -33.9789   25.0445 H   0  0  0  0  0  0
  -22.6831  -31.3094   21.4143 H   0  0  0  0  0  0
  -23.3731  -35.9669   23.3312 H   0  0  0  0  0  0
  -24.3574  -36.8935   22.2049 H   0  0  0  0  0  0
  -23.7257  -37.6537   23.6655 H   0  0  0  0  0  0
  -26.0297  -31.6042   20.5853 H   0  0  0  0  0  0
  -26.8130  -30.8961   21.9714 H   0  0  0  0  0  0
  -28.0943  -29.1355   21.1248 H   0  0  0  0  0  0
  -26.0313  -25.9688   19.0191 H   0  0  0  0  0  0
  -23.9670  -27.2850   19.0557 H   0  0  0  0  0  0
  -23.7106  -30.5998   19.4063 H   0  0  0  0  0  0
  -22.7241  -29.2466   19.8697 H   0  0  0  0  0  0
  -25.1279  -36.1971   25.0824 H   0  0  0  0  0  0
  -20.9933  -28.3230   24.1446 H   0  0  0  0  0  0
  -20.5647  -26.2271   23.3601 H   0  0  0  0  0  0
  -21.6629  -26.7453   22.1221 H   0  0  0  0  0  0
  -19.6907  -25.6311   21.1218 H   0  0  0  0  0  0
  -19.6682  -27.3216   20.6741 H   0  0  0  0  0  0
  -17.4181  -26.6664   21.4016 H   0  0  0  0  0  0
  -18.0327  -26.0074   22.9017 H   0  0  0  0  0  0
  -19.7927  -30.7243   24.2300 H   0  0  0  0  0  0
  -17.5016  -31.6266   24.5175 H   0  0  0  0  0  0
  -15.5347  -30.3015   23.7641 H   0  0  0  0  0  0
  -15.8646  -28.0850   22.7048 H   0  0  0  0  0  0
  -24.5893  -30.7092   25.7813 H   0  0  0  0  0  0
  -24.8978  -32.2871   26.4956 H   0  0  0  0  0  0
  -25.8110  -30.8843   27.0204 H   0  0  0  0  0  0
  -26.2819  -29.6803   24.1144 H   0  0  0  0  0  0
  -27.4087  -29.7276   25.4514 H   0  0  0  0  0  0
  -27.8644  -30.4357   23.9187 H   0  0  0  0  0  0
  -27.2668  -33.3593   26.2093 H   0  0  0  0  0  0
  -28.3832  -32.6917   25.0277 H   0  0  0  0  0  0
  -28.0754  -31.8413   26.5342 H   0  0  0  0  0  0
  -28.2599  -38.0102   24.7500 H   0  0  0  0  0  0
  -28.1068  -36.2634   24.6286 H   0  0  0  0  0  0
  -27.2295  -37.1465   25.8864 H   0  0  0  0  0  0
  -20.9269  -29.8768   21.6971 H   0  0  0  0  0  0
  -26.0176  -38.2869   24.1410 H   0  0  0  0  0  0
  -31.0857  -19.8116   22.1179 H   0  0  0  0  0  0
  -29.5979  -19.0216   18.1444 H   0  0  0  0  0  0
  -30.8035  -17.4275   22.7071 H   0  0  0  0  0  0
  -29.3132  -16.6332   18.7275 H   0  0  0  0  0  0
  -27.9027  -20.9045   19.9931 H   0  0  0  0  0  0
  -27.6582  -22.5648   20.4902 H   0  0  0  0  0  0
  -28.6327  -21.4861   21.4811 H   0  0  0  0  0  0
  -28.8696  -21.4905   17.7517 H   0  0  0  0  0  0
  -30.0989  -22.7219   17.5815 H   0  0  0  0  0  0
  -28.4640  -23.1478   18.0846 H   0  0  0  0  0  0
  -30.0266  -24.9563   17.8221 H   0  0  0  0  0  0
  -31.6096  -25.0801   18.5732 H   0  0  0  0  0  0
  -30.5302  -26.4586   18.5371 H   0  0  0  0  0  0
  -31.2243  -20.9675   18.6931 H   0  0  0  0  0  0
  -31.5537  -21.2860   20.3395 H   0  0  0  0  0  0
  -31.3853  -23.3858   20.1763 H   0  0  0  0  0  0
  -30.2121  -23.2868   21.4241 H   0  0  0  0  0  0
  -27.9595  -24.9582   20.9513 H   0  0  0  0  0  0
  -27.9364  -24.9453   19.1876 H   0  0  0  0  0  0
  -29.0787  -15.1873   21.5227 H   0  0  0  0  0  0
  -31.6192  -25.6135   21.1091 H   0  0  0  0  0  0
  -30.2546  -25.5382   21.9963 H   0  0  0  0  0  0
  -30.4395  -26.7294   20.9175 H   0  0  0  0  0  0
  1 25  1  0  0  0
  1 30  2  0  0  0
  1 85  1  0  0  0
  2  3  1  0  0  0
  2 25  1  0  0  0
  2 87  1  0  0  0
  2 88  1  0  0  0
  3  4  1  0  0  0
  3 89  1  0  0  0
  3 90  1  0  0  0
  4  5  1  0  0  0
  4 91  1  0  0  0
  4 92  1  0  0  0
  5  6  1  0  0  0
  5 26  1  0  0  0
  5 93  1  0  0  0
  6 25  1  0  0  0
  6 94  1  0  0  0
  6 95  1  0  0  0
  7  8  2  0  0  0
  7 26  1  0  0  0
  7 29  1  0  0  0
  8  9  1  0  0  0
  8 22  1  0  0  0
  9 10  1  0  0  0
  9 27  2  0  0  0
 10 11  2  0  0  0
 10 15  1  0  0  0
 11 12  1  0  0  0
 11 96  1  0  0  0
 12 13  2  0  0  0
 12 97  1  0  0  0
 13 14  1  0  0  0
 13 31  1  0  0  0
 14 15  2  0  0  0
 14 98  1  0  0  0
 15 99  1  0  0  0
 16 17  2  0  0  0
 16 21  1  0  0  0
 16 31  1  0  0  0
 17 18  1  0  0  0
 17100  1  0  0  0
 18 19  2  0  0  0
 18101  1  0  0  0
 19 20  1  0  0  0
 19 24  1  0  0  0
 20 21  2  0  0  0
 20102  1  0  0  0
 21 23  1  0  0  0
 22 28  1  0  0  0
 22 32  2  0  0  0
 26 27  1  0  0  0
 28103  1  0  0  0
 28104  1  0  0  0
 29105  1  0  0  0
 29106  1  0  0  0
 33 34  1  0  0  0
 33 66  1  0  0  0
 33 70  2  0  0  0
 34 36  1  0  0  0
 34 59  1  0  0  0
 34107  1  0  0  0
 35 44  2  0  0  0
 35 45  1  0  0  0
 35 68  1  0  0  0
 36 56  1  0  0  0
 36108  1  0  0  0
 37 39  1  0  0  0
 37 47  1  0  0  0
 37 66  1  0  0  0
 37109  1  0  0  0
 38 43  2  0  0  0
 38 46  1  0  0  0
 38 47  1  0  0  0
 39 64  1  0  0  0
 39 67  2  0  0  0
 40 52  1  0  0  0
 40 53  2  0  0  0
 40 58  1  0  0  0
 41110  1  0  0  0
 41111  1  0  0  0
 41112  1  0  0  0
 41 48  1  0  0  0
 42 43  1  0  0  0
 42 66  1  0  0  0
 42113  1  0  0  0
 42114  1  0  0  0
 43 44  1  0  0  0
 44115  1  0  0  0
 45 46  2  0  0  0
 45116  1  0  0  0
 46117  1  0  0  0
 47118  1  0  0  0
 47119  1  0  0  0
 48 56  1  0  0  0
 48 65  1  0  0  0
 48120  1  0  0  0
 49 50  1  0  0  0
 49 53  1  0  0  0
 49 64  1  0  0  0
 49121  1  0  0  0
 50 51  1  0  0  0
 50122  1  0  0  0
 50123  1  0  0  0
 51 52  1  0  0  0
 51124  1  0  0  0
 51125  1  0  0  0
 52126  1  0  0  0
 52127  1  0  0  0
 53 54  1  0  0  0
 54 55  2  0  0  0
 54128  1  0  0  0
 55 57  1  0  0  0
 55129  1  0  0  0
 56 69  2  0  0  0
 57 58  2  0  0  0
 57130  1  0  0  0
 58131  1  0  0  0
 59 60  1  0  0  0
 59 61  1  0  0  0
 59 62  1  0  0  0
 60132  1  0  0  0
 60133  1  0  0  0
 60134  1  0  0  0
 61135  1  0  0  0
 61136  1  0  0  0
 61137  1  0  0  0
 62138  1  0  0  0
 62139  1  0  0  0
 62140  1  0  0  0
 63 65  1  0  0  0
 63141  1  0  0  0
 63142  1  0  0  0
 63143  1  0  0  0
 64144  1  0  0  0
 65145  1  0  0  0
 68 82  1  0  0  0
 71 73  2  0  0  0
 71 75  1  0  0  0
 71146  1  0  0  0
 72 74  1  0  0  0
 72 75  2  0  0  0
 72147  1  0  0  0
 73 76  1  0  0  0
 73148  1  0  0  0
 74 76  2  0  0  0
 74149  1  0  0  0
 75 80  1  0  0  0
 76 85  1  0  0  0
 77150  1  0  0  0
 77151  1  0  0  0
 77152  1  0  0  0
 77 83  1  0  0  0
 78 83  1  0  0  0
 78153  1  0  0  0
 78154  1  0  0  0
 78155  1  0  0  0
 79156  1  0  0  0
 79157  1  0  0  0
 79158  1  0  0  0
 79 84  1  0  0  0
 80 83  1  0  0  0
 80159  1  0  0  0
 80160  1  0  0  0
 81 83  1  0  0  0
 81 84  1  0  0  0
 81161  1  0  0  0
 81162  1  0  0  0
 82 84  1  0  0  0
 82163  1  0  0  0
 82164  1  0  0  0
 84 86  1  0  0  0
 85165  1  0  0  0
 86166  1  0  0  0
 86167  1  0  0  0
 86168  1  0  0  0
M  CHG  1  86   1
M  ISO  4   1 100  68 101  82 101  85 100
M  END
> <chiral flag>
0

> <version>
0

> <s_m_source_file>
/data/baiqing/PycharmProjects/Reinvent-master-3.2/result/LINK_invent/BTK/process_docking_weight1_custom_product_contain_oxygen_bond_distance_aromatic_linkinvent_7_9_3/rearranged_h_0140.sdf

> <i_m_source_file_index>
13

> <r_mmod_Potential_Energy-OPLS-2005>
-113.965751647949

> <r_mmod_Stretch_Energy-OPLS-2005>
43.4689292907715

> <r_mmod_Bend_Energy-OPLS-2005>
134.926376342773

> <r_mmod_Torsional_Energy-OPLS-2005>
270.648101806641

> <r_mmod_Improper_Torsional_Energy-OPLS-2005>
4.71347236633301

> <r_mmod_Van_der_Waal_Energy-OPLS-2005>
159.869079589844

> <r_mmod_Electrostatic_Energy-OPLS-2005>
-293.140747070312

> <r_mmod_Solvation_Energy-OPLS-2005>
-446.516723632812

> <b_mmod_Minimization_Converged-OPLS-2005>
0

> <r_mmod_RMS_Derivative-OPLS-2005>
2.18306541442871

$$$$
13
                    3D
 Structure written by MMmdl.
159167  0  0  1  0            999 V2000
  -30.6148  -14.6370   20.5585 C   0  0  0  0  0  0
  -30.4496  -12.4040   19.4665 C   0  0  0  0  0  0
  -29.5156  -12.4881   18.2394 C   0  0  0  0  0  0
  -28.0446  -12.3029   18.6641 C   0  0  0  0  0  0
  -27.6586  -13.2056   19.8652 C   0  0  2  0  0  0
  -28.6923  -13.0568   21.0027 C   0  0  0  0  0  0
  -25.2627  -13.8163   20.5706 C   0  0  0  0  0  0
  -24.1872  -13.0437   20.9211 C   0  0  0  0  0  0
  -24.6432  -11.6912   20.8757 C   0  0  0  0  0  0
  -23.9090  -10.4288   21.0432 C   0  0  0  0  0  0
  -24.3636   -9.4202   21.9191 C   0  0  0  0  0  0
  -23.6296   -8.2243   22.0754 C   0  0  0  0  0  0
  -22.4270   -8.0286   21.3550 C   0  0  0  0  0  0
  -21.9925   -9.0282   20.4651 C   0  0  0  0  0  0
  -22.7281  -10.2148   20.3074 C   0  0  0  0  0  0
  -21.6825   -6.0750   22.5293 C   0  0  0  0  0  0
  -21.3997   -6.5662   23.8225 C   0  0  0  0  0  0
  -21.3660   -5.6816   24.9192 C   0  0  0  0  0  0
  -21.6040   -4.3078   24.7237 C   0  0  0  0  0  0
  -21.8808   -3.8177   23.4355 C   0  0  0  0  0  0
  -21.9189   -4.6983   22.3417 C   0  0  0  0  0  0
  -22.7897  -13.5249   21.1872 C   0  0  0  0  0  0
  -22.1651   -4.2182   21.0976 F   0  0  0  0  0  0
  -21.5628   -3.4545   25.7741 F   0  0  0  0  0  0
  -30.0154  -13.4090   20.4608 N   0  0  0  0  0  0
  -26.3007  -12.9319   20.3311 N   0  0  0  0  0  0
  -25.9349  -11.6486   20.5790 N   0  0  0  0  0  0
  -22.0515  -12.8233   22.0414 N   0  0  0  0  0  0
  -25.4459  -15.1879   20.4211 N   0  0  0  0  0  0
  -31.7329  -14.8452   20.0700 O   0  0  0  0  0  0
  -21.6621   -6.8901   21.4256 O   0  0  0  0  0  0
  -22.3606  -14.5567   20.6733 O   0  0  0  0  0  0
  -24.6243  -31.8593   23.2015 C   0  0  0  0  0  0
  -25.9073  -32.4789   23.8392 C   0  0  1  0  0  0
  -27.2124  -27.3286   20.1222 C   0  0  0  0  0  0
  -25.5868  -33.8589   24.2316 N   0  0  0  0  0  0
  -23.4158  -30.4821   21.5450 C   0  0  2  0  0  0
  -24.8603  -28.9417   20.1120 C   0  0  0  0  0  0
  -22.7441  -29.4631   22.4944 C   0  0  0  0  0  0
  -18.0327  -28.1411   22.8390 C   0  0  0  0  0  0
  -24.1487  -36.7303   23.2662 C   0  0  0  0  0  0
  -25.9570  -30.7933   21.3720 C   0  0  0  0  0  0
  -26.0250  -29.4189   20.7245 C   0  0  0  0  0  0
  -27.2078  -28.6243   20.7199 C   0  0  0  0  0  0
  -26.0276  -26.9010   19.4919 C   0  0  0  0  0  0
  -24.8608  -27.6834   19.4909 C   0  0  0  0  0  0
  -23.6292  -29.8208   20.1594 C   0  0  0  0  0  0
  -25.4097  -36.3086   24.0365 C   0  0  1  0  0  0
  -20.5911  -28.3673   23.1288 C   0  0  2  0  0  0
  -20.6735  -26.9404   22.5438 C   0  0  0  0  0  0
  -19.5853  -26.6499   21.5058 C   0  0  0  0  0  0
  -18.1939  -26.8078   22.1316 C   0  0  0  0  0  0
  -19.1559  -28.8826   23.2891 C   0  0  0  0  0  0
  -18.9490  -30.1435   23.8917 C   0  0  0  0  0  0
  -17.6505  -30.6577   24.0603 C   0  0  0  0  0  0
  -25.9009  -34.9448   23.5140 C   0  0  0  0  0  0
  -16.5406  -29.9085   23.6355 C   0  0  0  0  0  0
  -16.7342  -28.6559   23.0280 C   0  0  0  0  0  0
  -26.4478  -31.6608   25.0754 C   0  0  0  0  0  0
  -25.3749  -31.3731   26.1507 C   0  0  0  0  0  0
  -27.0343  -30.3062   24.6157 C   0  0  0  0  0  0
  -27.6033  -32.4346   25.7518 C   0  0  0  0  0  0
  -27.5566  -37.1793   24.8468 C   0  0  0  0  0  0
  -21.4170  -29.3038   22.3679 N   0  0  0  0  0  0
  -26.4271  -37.3763   23.9422 N   0  0  0  0  0  0
  -24.6851  -31.0600   22.0979 N   0  0  0  0  0  0
  -23.4160  -28.8179   23.3018 O   0  0  0  0  0  0
  -28.3520  -26.5277   20.0619 O   0  0  0  0  0  0
  -26.5582  -34.8893   22.4717 O   0  0  0  0  0  0
  -23.5383  -32.1417   23.7301 O   0  0  0  0  0  0
  -29.9933  -19.1267   19.5929 C   0  0  0  0  0  0
  -28.3349  -19.0840   21.3303 C   0  0  0  0  0  0
  -30.3756  -17.7854   19.8979 C   0  0  0  0  0  0
  -28.7158  -17.7481   21.6444 C   0  0  0  0  0  0
  -28.9385  -19.8010   20.2658 C   0  0  0  0  0  0
  -29.7040  -17.0394   20.9062 C   0  0  0  0  0  0
  -28.3552  -21.1038   19.7291 C   0  0  0  0  0  0
  -28.2614  -24.1478   18.3619 C   0  0  0  0  0  0
  -26.4133  -23.6669   20.0782 C   0  0  0  0  0  0
  -28.6961  -22.5174   20.3465 C   0  0  0  0  0  0
  -28.3855  -25.1728   20.6568 C   0  0  0  0  0  0
  -27.9393  -23.8596   19.8567 C   0  0  0  0  0  0
  -27.5686  -21.0076   18.7402 N   0  0  0  0  0  0
  -29.8923  -15.6167   21.1834 N   0  0  0  0  0  0
  -31.4922  -12.5430   19.1710 H   0  0  0  0  0  0
  -30.3979  -11.4114   19.9095 H   0  0  0  0  0  0
  -29.7864  -11.7182   17.5168 H   0  0  0  0  0  0
  -29.6393  -13.4484   17.7356 H   0  0  0  0  0  0
  -27.9274  -11.2537   18.9448 H   0  0  0  0  0  0
  -27.3730  -12.4626   17.8226 H   0  0  0  0  0  0
  -27.6810  -14.2369   19.5084 H   0  0  0  0  0  0
  -28.7108  -12.0293   21.3700 H   0  0  0  0  0  0
  -28.4184  -13.6728   21.8625 H   0  0  0  0  0  0
  -25.2786   -9.5638   22.4777 H   0  0  0  0  0  0
  -23.9996   -7.4622   22.7467 H   0  0  0  0  0  0
  -21.0850   -8.8811   19.8959 H   0  0  0  0  0  0
  -22.3758  -10.9684   19.6186 H   0  0  0  0  0  0
  -21.1963   -7.6166   23.9731 H   0  0  0  0  0  0
  -21.1489   -6.0542   25.9090 H   0  0  0  0  0  0
  -22.0583   -2.7637   23.2842 H   0  0  0  0  0  0
  -22.4113  -11.9903   22.4816 H   0  0  0  0  0  0
  -21.1137  -13.1265   22.2612 H   0  0  0  0  0  0
  -24.7037  -15.8612   20.5745 H   0  0  0  0  0  0
  -26.3233  -15.6200   20.1540 H   0  0  0  0  0  0
  -26.7153  -32.5465   23.1157 H   0  0  0  0  0  0
  -25.0013  -33.9777   25.0459 H   0  0  0  0  0  0
  -22.7091  -31.3020   21.4032 H   0  0  0  0  0  0
  -23.3706  -35.9666   23.3328 H   0  0  0  0  0  0
  -24.3597  -36.8882   22.2059 H   0  0  0  0  0  0
  -23.7222  -37.6522   23.6668 H   0  0  0  0  0  0
  -26.0786  -31.5473   20.5947 H   0  0  0  0  0  0
  -26.8465  -30.8532   21.9890 H   0  0  0  0  0  0
  -28.1046  -28.9939   21.1941 H   0  0  0  0  0  0
  -25.9919  -25.9614   18.9693 H   0  0  0  0  0  0
  -23.9723  -27.3085   19.0017 H   0  0  0  0  0  0
  -23.7512  -30.5990   19.4062 H   0  0  0  0  0  0
  -22.7533  -29.2450   19.8605 H   0  0  0  0  0  0
  -25.1261  -36.1970   25.0846 H   0  0  0  0  0  0
  -21.0045  -28.3170   24.1384 H   0  0  0  0  0  0
  -20.5292  -26.2401   23.3676 H   0  0  0  0  0  0
  -21.6668  -26.7238   22.1500 H   0  0  0  0  0  0
  -19.7032  -25.6435   21.1067 H   0  0  0  0  0  0
  -19.6979  -27.3341   20.6617 H   0  0  0  0  0  0
  -17.4311  -26.7092   21.3581 H   0  0  0  0  0  0
  -18.0115  -26.0108   22.8554 H   0  0  0  0  0  0
  -19.7962  -30.7269   24.2254 H   0  0  0  0  0  0
  -17.5039  -31.6246   24.5228 H   0  0  0  0  0  0
  -15.5385  -30.2990   23.7656 H   0  0  0  0  0  0
  -15.8782  -28.0937   22.6824 H   0  0  0  0  0  0
  -24.5859  -30.7156   25.7871 H   0  0  0  0  0  0
  -24.9024  -32.2896   26.5049 H   0  0  0  0  0  0
  -25.8090  -30.8830   27.0230 H   0  0  0  0  0  0
  -26.2944  -29.6785   24.1168 H   0  0  0  0  0  0
  -27.4104  -29.7325   25.4642 H   0  0  0  0  0  0
  -27.8788  -30.4427   23.9385 H   0  0  0  0  0  0
  -27.2632  -33.3596   26.2195 H   0  0  0  0  0  0
  -28.3798  -32.6958   25.0324 H   0  0  0  0  0  0
  -28.0786  -31.8418   26.5340 H   0  0  0  0  0  0
  -28.2589  -38.0087   24.7498 H   0  0  0  0  0  0
  -28.1048  -36.2600   24.6318 H   0  0  0  0  0  0
  -27.2320  -37.1498   25.8887 H   0  0  0  0  0  0
  -20.9336  -29.8777   21.6928 H   0  0  0  0  0  0
  -26.0154  -38.2855   24.1378 H   0  0  0  0  0  0
  -30.4716  -19.6322   18.7655 H   0  0  0  0  0  0
  -27.5089  -19.5349   21.8662 H   0  0  0  0  0  0
  -31.1497  -17.3247   19.3030 H   0  0  0  0  0  0
  -28.1770  -17.2480   22.4372 H   0  0  0  0  0  0
  -29.2803  -24.5205   18.2483 H   0  0  0  0  0  0
  -27.6010  -24.9141   17.9549 H   0  0  0  0  0  0
  -28.1675  -23.2805   17.7064 H   0  0  0  0  0  0
  -25.8702  -23.5935   19.1358 H   0  0  0  0  0  0
  -25.9728  -24.4838   20.6508 H   0  0  0  0  0  0
  -26.1792  -22.7713   20.6543 H   0  0  0  0  0  0
  -29.7702  -22.6629   20.2384 H   0  0  0  0  0  0
  -28.5377  -22.4346   21.4211 H   0  0  0  0  0  0
  -29.4421  -25.0323   20.8829 H   0  0  0  0  0  0
  -27.9151  -25.1984   21.6401 H   0  0  0  0  0  0
  -27.2132  -21.9074   18.4370 H   0  0  0  0  0  0
  -29.1722  -15.2230   21.7724 H   0  0  0  0  0  0
  1 25  1  0  0  0
  1 30  2  0  0  0
  1 84  1  0  0  0
  2  3  1  0  0  0
  2 25  1  0  0  0
  2 85  1  0  0  0
  2 86  1  0  0  0
  3  4  1  0  0  0
  3 87  1  0  0  0
  3 88  1  0  0  0
  4  5  1  0  0  0
  4 89  1  0  0  0
  4 90  1  0  0  0
  5  6  1  0  0  0
  5 26  1  0  0  0
  5 91  1  0  0  0
  6 25  1  0  0  0
  6 92  1  0  0  0
  6 93  1  0  0  0
  7  8  2  0  0  0
  7 26  1  0  0  0
  7 29  1  0  0  0
  8  9  1  0  0  0
  8 22  1  0  0  0
  9 10  1  0  0  0
  9 27  2  0  0  0
 10 11  2  0  0  0
 10 15  1  0  0  0
 11 12  1  0  0  0
 11 94  1  0  0  0
 12 13  2  0  0  0
 12 95  1  0  0  0
 13 14  1  0  0  0
 13 31  1  0  0  0
 14 15  2  0  0  0
 14 96  1  0  0  0
 15 97  1  0  0  0
 16 17  2  0  0  0
 16 21  1  0  0  0
 16 31  1  0  0  0
 17 18  1  0  0  0
 17 98  1  0  0  0
 18 19  2  0  0  0
 18 99  1  0  0  0
 19 20  1  0  0  0
 19 24  1  0  0  0
 20 21  2  0  0  0
 20100  1  0  0  0
 21 23  1  0  0  0
 22 28  1  0  0  0
 22 32  2  0  0  0
 26 27  1  0  0  0
 28101  1  0  0  0
 28102  1  0  0  0
 29103  1  0  0  0
 29104  1  0  0  0
 33 34  1  0  0  0
 33 66  1  0  0  0
 33 70  2  0  0  0
 34 36  1  0  0  0
 34 59  1  0  0  0
 34105  1  0  0  0
 35 44  2  0  0  0
 35 45  1  0  0  0
 35 68  1  0  0  0
 36 56  1  0  0  0
 36106  1  0  0  0
 37 39  1  0  0  0
 37 47  1  0  0  0
 37 66  1  0  0  0
 37107  1  0  0  0
 38 43  2  0  0  0
 38 46  1  0  0  0
 38 47  1  0  0  0
 39 64  1  0  0  0
 39 67  2  0  0  0
 40 52  1  0  0  0
 40 53  2  0  0  0
 40 58  1  0  0  0
 41108  1  0  0  0
 41109  1  0  0  0
 41110  1  0  0  0
 41 48  1  0  0  0
 42 43  1  0  0  0
 42 66  1  0  0  0
 42111  1  0  0  0
 42112  1  0  0  0
 43 44  1  0  0  0
 44113  1  0  0  0
 45 46  2  0  0  0
 45114  1  0  0  0
 46115  1  0  0  0
 47116  1  0  0  0
 47117  1  0  0  0
 48 56  1  0  0  0
 48 65  1  0  0  0
 48118  1  0  0  0
 49 50  1  0  0  0
 49 53  1  0  0  0
 49 64  1  0  0  0
 49119  1  0  0  0
 50 51  1  0  0  0
 50120  1  0  0  0
 50121  1  0  0  0
 51 52  1  0  0  0
 51122  1  0  0  0
 51123  1  0  0  0
 52124  1  0  0  0
 52125  1  0  0  0
 53 54  1  0  0  0
 54 55  2  0  0  0
 54126  1  0  0  0
 55 57  1  0  0  0
 55127  1  0  0  0
 56 69  2  0  0  0
 57 58  2  0  0  0
 57128  1  0  0  0
 58129  1  0  0  0
 59 60  1  0  0  0
 59 61  1  0  0  0
 59 62  1  0  0  0
 60130  1  0  0  0
 60131  1  0  0  0
 60132  1  0  0  0
 61133  1  0  0  0
 61134  1  0  0  0
 61135  1  0  0  0
 62136  1  0  0  0
 62137  1  0  0  0
 62138  1  0  0  0
 63 65  1  0  0  0
 63139  1  0  0  0
 63140  1  0  0  0
 63141  1  0  0  0
 64142  1  0  0  0
 65143  1  0  0  0
 68 81  1  0  0  0
 71 73  2  0  0  0
 71 75  1  0  0  0
 71144  1  0  0  0
 72 74  1  0  0  0
 72 75  2  0  0  0
 72145  1  0  0  0
 73 76  1  0  0  0
 73146  1  0  0  0
 74 76  2  0  0  0
 74147  1  0  0  0
 75 77  1  0  0  0
 76 84  1  0  0  0
 77 80  1  0  0  0
 77 83  2  0  0  0
 78148  1  0  0  0
 78149  1  0  0  0
 78150  1  0  0  0
 78 82  1  0  0  0
 79 82  1  0  0  0
 79151  1  0  0  0
 79152  1  0  0  0
 79153  1  0  0  0
 80 82  1  0  0  0
 80154  1  0  0  0
 80155  1  0  0  0
 81 82  1  0  0  0
 81156  1  0  0  0
 81157  1  0  0  0
 83158  1  0  0  0
 84159  1  0  0  0
M  ISO  4   1 100  68 101  81 101  84 100
M  END
> <chiral flag>
0

> <version>
0

> <s_m_source_file>
/data/baiqing/PycharmProjects/Reinvent-master-3.2/result/LINK_invent/BTK/process_docking_weight1_custom_product_contain_oxygen_bond_distance_aromatic_linkinvent_7_9_3/rearranged_h_0140.sdf

> <i_m_source_file_index>
14

> <r_mmod_Potential_Energy-OPLS-2005>
147.181930541992

> <r_mmod_Stretch_Energy-OPLS-2005>
81.3958892822266

> <r_mmod_Bend_Energy-OPLS-2005>
157.023193359375

> <r_mmod_Torsional_Energy-OPLS-2005>
285.436309814453

> <r_mmod_Improper_Torsional_Energy-OPLS-2005>
4.5391640663147

> <r_mmod_Van_der_Waal_Energy-OPLS-2005>
144.708114624023

> <r_mmod_Electrostatic_Energy-OPLS-2005>
-362.789855957031

> <r_mmod_Solvation_Energy-OPLS-2005>
-207.267471313477

> <b_mmod_Minimization_Converged-OPLS-2005>
0

> <r_mmod_RMS_Derivative-OPLS-2005>
6.9494833946228

$$$$
14
                    3D
 Structure written by MMmdl.
158166  0  0  1  0            999 V2000
  -30.6641  -14.6660   20.4377 C   0  0  0  0  0  0
  -30.4235  -12.3944   19.4620 C   0  0  0  0  0  0
  -29.5091  -12.5087   18.2245 C   0  0  0  0  0  0
  -28.0241  -12.3807   18.6187 C   0  0  0  0  0  0
  -27.6550  -13.2398   19.8604 C   0  0  2  0  0  0
  -28.7052  -13.1345   20.9896 C   0  0  0  0  0  0
  -25.2561  -13.8241   20.5650 C   0  0  0  0  0  0
  -24.1853  -13.0474   20.9147 C   0  0  0  0  0  0
  -24.6461  -11.6949   20.8724 C   0  0  0  0  0  0
  -23.9116  -10.4319   21.0431 C   0  0  0  0  0  0
  -24.3673   -9.4203   21.9192 C   0  0  0  0  0  0
  -23.6342   -8.2236   22.0760 C   0  0  0  0  0  0
  -22.4320   -8.0291   21.3544 C   0  0  0  0  0  0
  -21.9956   -9.0281   20.4641 C   0  0  0  0  0  0
  -22.7311  -10.2162   20.3067 C   0  0  0  0  0  0
  -21.6852   -6.0750   22.5284 C   0  0  0  0  0  0
  -21.4001   -6.5658   23.8222 C   0  0  0  0  0  0
  -21.3670   -5.6809   24.9184 C   0  0  0  0  0  0
  -21.6089   -4.3084   24.7228 C   0  0  0  0  0  0
  -21.8822   -3.8151   23.4344 C   0  0  0  0  0  0
  -21.9201   -4.6963   22.3406 C   0  0  0  0  0  0
  -22.7873  -13.5229   21.1806 C   0  0  0  0  0  0
  -22.1646   -4.2143   21.0979 F   0  0  0  0  0  0
  -21.5639   -3.4557   25.7745 F   0  0  0  0  0  0
  -30.0165  -13.4537   20.4129 N   0  0  0  0  0  0
  -26.3030  -12.9464   20.3318 N   0  0  0  0  0  0
  -25.9389  -11.6593   20.5766 N   0  0  0  0  0  0
  -22.0512  -12.8234   22.0396 N   0  0  0  0  0  0
  -25.4239  -15.1970   20.4055 N   0  0  0  0  0  0
  -31.8390  -14.7544   20.0766 O   0  0  0  0  0  0
  -21.6652   -6.8917   21.4258 O   0  0  0  0  0  0
  -22.3549  -14.5515   20.6644 O   0  0  0  0  0  0
  -24.6318  -31.8571   23.2016 C   0  0  0  0  0  0
  -25.9145  -32.4771   23.8370 C   0  0  1  0  0  0
  -27.2308  -27.2688   20.1121 C   0  0  0  0  0  0
  -25.5964  -33.8567   24.2283 N   0  0  0  0  0  0
  -23.4278  -30.4811   21.5441 C   0  0  2  0  0  0
  -24.8752  -28.9292   20.1122 C   0  0  0  0  0  0
  -22.7529  -29.4621   22.4916 C   0  0  0  0  0  0
  -18.0284  -28.1389   22.8479 C   0  0  0  0  0  0
  -24.1488  -36.7290   23.2644 C   0  0  0  0  0  0
  -25.9749  -30.7663   21.3850 C   0  0  0  0  0  0
  -26.0465  -29.3887   20.7294 C   0  0  0  0  0  0
  -27.2182  -28.5656   20.7304 C   0  0  0  0  0  0
  -26.0325  -26.8843   19.4611 C   0  0  0  0  0  0
  -24.8706  -27.6816   19.4752 C   0  0  0  0  0  0
  -23.6486  -29.8208   20.1591 C   0  0  0  0  0  0
  -25.4117  -36.3066   24.0321 C   0  0  1  0  0  0
  -20.5907  -28.3708   23.1265 C   0  0  2  0  0  0
  -20.6781  -26.9416   22.5416 C   0  0  0  0  0  0
  -19.5751  -26.6368   21.5226 C   0  0  0  0  0  0
  -18.1931  -26.7925   22.1621 C   0  0  0  0  0  0
  -19.1547  -28.8847   23.2862 C   0  0  0  0  0  0
  -18.9473  -30.1459   23.8876 C   0  0  0  0  0  0
  -17.6482  -30.6588   24.0549 C   0  0  0  0  0  0
  -25.9056  -34.9443   23.5083 C   0  0  0  0  0  0
  -16.5365  -29.9092   23.6329 C   0  0  0  0  0  0
  -16.7285  -28.6501   23.0347 C   0  0  0  0  0  0
  -26.4491  -31.6606   25.0772 C   0  0  0  0  0  0
  -25.3703  -31.3789   26.1491 C   0  0  0  0  0  0
  -27.0344  -30.3024   24.6267 C   0  0  0  0  0  0
  -27.6046  -32.4334   25.7552 C   0  0  0  0  0  0
  -27.5563  -37.1814   24.8466 C   0  0  0  0  0  0
  -21.4226  -29.3057   22.3664 N   0  0  0  0  0  0
  -26.4278  -37.3781   23.9396 N   0  0  0  0  0  0
  -24.6977  -31.0540   22.1003 N   0  0  0  0  0  0
  -23.4223  -28.8163   23.3015 O   0  0  0  0  0  0
  -28.3477  -26.3914   20.1732 O   0  0  0  0  0  0
  -26.5631  -34.8908   22.4651 O   0  0  0  0  0  0
  -23.5464  -32.1408   23.7302 O   0  0  0  0  0  0
  -30.5712  -20.7270   20.8052 C   0  0  0  0  0  0
  -30.8833  -19.2972   20.7821 C   0  0  0  0  0  0
  -29.9340  -18.5139   20.1517 C   0  0  0  0  0  0
  -29.3939  -21.0974   20.1806 C   0  0  0  0  0  0
  -33.3378  -18.8500   20.3412 C   0  0  0  0  0  0
  -28.5561  -25.0369   18.1784 C   0  0  0  0  0  0
  -32.1656  -18.7093   21.3227 C   0  0  0  0  0  0
  -30.0348  -17.0213   19.6775 C   0  0  0  0  0  0
  -29.1393  -23.7707   20.3451 C   0  0  0  0  0  0
  -28.2641  -24.9725   19.6877 C   0  0  1  0  0  0
  -28.7605  -22.3720   19.9051 N   0  0  0  0  0  0
  -29.9084  -15.8074   20.5761 N   0  0  0  0  0  0
  -28.6317  -19.5943   19.6088 S   0  0  0  0  0  0
  -31.4705  -12.4812   19.1682 H   0  0  0  0  0  0
  -30.3255  -11.4107   19.9219 H   0  0  0  0  0  0
  -29.7717  -11.7420   17.4928 H   0  0  0  0  0  0
  -29.6792  -13.4711   17.7368 H   0  0  0  0  0  0
  -27.8271  -11.3298   18.8206 H   0  0  0  0  0  0
  -27.3887  -12.6540   17.7734 H   0  0  0  0  0  0
  -27.6634  -14.2750   19.5194 H   0  0  0  0  0  0
  -28.7135  -12.1286   21.4093 H   0  0  0  0  0  0
  -28.4713  -13.8112   21.8112 H   0  0  0  0  0  0
  -25.2822   -9.5669   22.4765 H   0  0  0  0  0  0
  -24.0061   -7.4653   22.7508 H   0  0  0  0  0  0
  -21.0857   -8.8852   19.8988 H   0  0  0  0  0  0
  -22.3799  -10.9716   19.6157 H   0  0  0  0  0  0
  -21.1961   -7.6159   23.9715 H   0  0  0  0  0  0
  -21.1488   -6.0521   25.9097 H   0  0  0  0  0  0
  -22.0583   -2.7604   23.2834 H   0  0  0  0  0  0
  -22.4103  -11.9888   22.4811 H   0  0  0  0  0  0
  -21.1131  -13.1292   22.2584 H   0  0  0  0  0  0
  -24.6557  -15.8497   20.5210 H   0  0  0  0  0  0
  -26.2746  -15.6395   20.0800 H   0  0  0  0  0  0
  -26.7239  -32.5410   23.1137 H   0  0  0  0  0  0
  -25.0116  -33.9724   25.0424 H   0  0  0  0  0  0
  -22.7223  -31.3026   21.4011 H   0  0  0  0  0  0
  -23.3726  -35.9650   23.3341 H   0  0  0  0  0  0
  -24.3566  -36.8870   22.2052 H   0  0  0  0  0  0
  -23.7279  -37.6513   23.6645 H   0  0  0  0  0  0
  -26.1122  -31.5215   20.6098 H   0  0  0  0  0  0
  -26.8539  -30.8185   22.0171 H   0  0  0  0  0  0
  -28.1067  -28.9044   21.2449 H   0  0  0  0  0  0
  -25.9499  -25.9489   18.9331 H   0  0  0  0  0  0
  -23.9783  -27.3208   18.9838 H   0  0  0  0  0  0
  -23.7869  -30.6002   19.4091 H   0  0  0  0  0  0
  -22.7642  -29.2636   19.8460 H   0  0  0  0  0  0
  -25.1298  -36.1909   25.0827 H   0  0  0  0  0  0
  -20.9977  -28.3288   24.1390 H   0  0  0  0  0  0
  -20.5672  -26.2339   23.3639 H   0  0  0  0  0  0
  -21.6654  -26.7435   22.1220 H   0  0  0  0  0  0
  -19.6910  -25.6276   21.1272 H   0  0  0  0  0  0
  -19.6681  -27.3166   20.6746 H   0  0  0  0  0  0
  -17.4217  -26.6683   21.4014 H   0  0  0  0  0  0
  -18.0299  -26.0075   22.9011 H   0  0  0  0  0  0
  -19.7964  -30.7270   24.2245 H   0  0  0  0  0  0
  -17.5039  -31.6270   24.5160 H   0  0  0  0  0  0
  -15.5365  -30.2982   23.7655 H   0  0  0  0  0  0
  -15.8686  -28.0818   22.7061 H   0  0  0  0  0  0
  -24.5853  -30.7161   25.7840 H   0  0  0  0  0  0
  -24.8921  -32.2973   26.4901 H   0  0  0  0  0  0
  -25.7990  -30.8984   27.0291 H   0  0  0  0  0  0
  -26.2967  -29.6785   24.1212 H   0  0  0  0  0  0
  -27.3952  -29.7266   25.4800 H   0  0  0  0  0  0
  -27.8859  -30.4319   23.9585 H   0  0  0  0  0  0
  -27.2663  -33.3622   26.2149 H   0  0  0  0  0  0
  -28.3852  -32.6906   25.0389 H   0  0  0  0  0  0
  -28.0720  -31.8453   26.5453 H   0  0  0  0  0  0
  -28.2600  -38.0087   24.7441 H   0  0  0  0  0  0
  -28.1014  -36.2602   24.6345 H   0  0  0  0  0  0
  -27.2269  -37.1549   25.8868 H   0  0  0  0  0  0
  -20.9423  -29.8840   21.6917 H   0  0  0  0  0  0
  -26.0133  -38.2841   24.1380 H   0  0  0  0  0  0
  -31.2645  -21.4316   21.2427 H   0  0  0  0  0  0
  -34.2465  -18.3891   20.7377 H   0  0  0  0  0  0
  -33.5640  -19.8966   20.1399 H   0  0  0  0  0  0
  -33.1110  -18.3650   19.3898 H   0  0  0  0  0  0
  -28.4927  -24.0569   17.7074 H   0  0  0  0  0  0
  -29.5595  -25.4229   17.9959 H   0  0  0  0  0  0
  -27.8606  -25.6932   17.6557 H   0  0  0  0  0  0
  -32.0285  -17.6490   21.5501 H   0  0  0  0  0  0
  -32.4334  -19.1668   22.2746 H   0  0  0  0  0  0
  -30.9648  -16.9325   19.1163 H   0  0  0  0  0  0
  -29.2717  -16.8663   18.9145 H   0  0  0  0  0  0
  -29.0278  -23.8195   21.4279 H   0  0  0  0  0  0
  -30.1975  -23.9405   20.1434 H   0  0  0  0  0  0
  -27.2457  -24.6263   19.8460 H   0  0  0  0  0  0
  -27.9334  -22.3362   19.3142 H   0  0  0  0  0  0
  -28.9975  -15.6660   20.9829 H   0  0  0  0  0  0
  1 25  1  0  0  0
  1 30  2  0  0  0
  1 82  1  0  0  0
  2  3  1  0  0  0
  2 25  1  0  0  0
  2 84  1  0  0  0
  2 85  1  0  0  0
  3  4  1  0  0  0
  3 86  1  0  0  0
  3 87  1  0  0  0
  4  5  1  0  0  0
  4 88  1  0  0  0
  4 89  1  0  0  0
  5  6  1  0  0  0
  5 26  1  0  0  0
  5 90  1  0  0  0
  6 25  1  0  0  0
  6 91  1  0  0  0
  6 92  1  0  0  0
  7  8  2  0  0  0
  7 26  1  0  0  0
  7 29  1  0  0  0
  8  9  1  0  0  0
  8 22  1  0  0  0
  9 10  1  0  0  0
  9 27  2  0  0  0
 10 11  2  0  0  0
 10 15  1  0  0  0
 11 12  1  0  0  0
 11 93  1  0  0  0
 12 13  2  0  0  0
 12 94  1  0  0  0
 13 14  1  0  0  0
 13 31  1  0  0  0
 14 15  2  0  0  0
 14 95  1  0  0  0
 15 96  1  0  0  0
 16 17  2  0  0  0
 16 21  1  0  0  0
 16 31  1  0  0  0
 17 18  1  0  0  0
 17 97  1  0  0  0
 18 19  2  0  0  0
 18 98  1  0  0  0
 19 20  1  0  0  0
 19 24  1  0  0  0
 20 21  2  0  0  0
 20 99  1  0  0  0
 21 23  1  0  0  0
 22 28  1  0  0  0
 22 32  2  0  0  0
 26 27  1  0  0  0
 28100  1  0  0  0
 28101  1  0  0  0
 29102  1  0  0  0
 29103  1  0  0  0
 33 34  1  0  0  0
 33 66  1  0  0  0
 33 70  2  0  0  0
 34 36  1  0  0  0
 34 59  1  0  0  0
 34104  1  0  0  0
 35 44  2  0  0  0
 35 45  1  0  0  0
 35 68  1  0  0  0
 36 56  1  0  0  0
 36105  1  0  0  0
 37 39  1  0  0  0
 37 47  1  0  0  0
 37 66  1  0  0  0
 37106  1  0  0  0
 38 43  2  0  0  0
 38 46  1  0  0  0
 38 47  1  0  0  0
 39 64  1  0  0  0
 39 67  2  0  0  0
 40 52  1  0  0  0
 40 53  2  0  0  0
 40 58  1  0  0  0
 41107  1  0  0  0
 41108  1  0  0  0
 41109  1  0  0  0
 41 48  1  0  0  0
 42 43  1  0  0  0
 42 66  1  0  0  0
 42110  1  0  0  0
 42111  1  0  0  0
 43 44  1  0  0  0
 44112  1  0  0  0
 45 46  2  0  0  0
 45113  1  0  0  0
 46114  1  0  0  0
 47115  1  0  0  0
 47116  1  0  0  0
 48 56  1  0  0  0
 48 65  1  0  0  0
 48117  1  0  0  0
 49 50  1  0  0  0
 49 53  1  0  0  0
 49 64  1  0  0  0
 49118  1  0  0  0
 50 51  1  0  0  0
 50119  1  0  0  0
 50120  1  0  0  0
 51 52  1  0  0  0
 51121  1  0  0  0
 51122  1  0  0  0
 52123  1  0  0  0
 52124  1  0  0  0
 53 54  1  0  0  0
 54 55  2  0  0  0
 54125  1  0  0  0
 55 57  1  0  0  0
 55126  1  0  0  0
 56 69  2  0  0  0
 57 58  2  0  0  0
 57127  1  0  0  0
 58128  1  0  0  0
 59 60  1  0  0  0
 59 61  1  0  0  0
 59 62  1  0  0  0
 60129  1  0  0  0
 60130  1  0  0  0
 60131  1  0  0  0
 61132  1  0  0  0
 61133  1  0  0  0
 61134  1  0  0  0
 62135  1  0  0  0
 62136  1  0  0  0
 62137  1  0  0  0
 63 65  1  0  0  0
 63138  1  0  0  0
 63139  1  0  0  0
 63140  1  0  0  0
 64141  1  0  0  0
 65142  1  0  0  0
 68 80  1  0  0  0
 71 72  1  0  0  0
 71 74  2  0  0  0
 71143  1  0  0  0
 72 73  2  0  0  0
 72 77  1  0  0  0
 73 78  1  0  0  0
 73 83  1  0  0  0
 74 81  1  0  0  0
 74 83  1  0  0  0
 75 77  1  0  0  0
 75144  1  0  0  0
 75145  1  0  0  0
 75146  1  0  0  0
 76147  1  0  0  0
 76148  1  0  0  0
 76149  1  0  0  0
 76 80  1  0  0  0
 77150  1  0  0  0
 77151  1  0  0  0
 78 82  1  0  0  0
 78152  1  0  0  0
 78153  1  0  0  0
 79 80  1  0  0  0
 79 81  1  0  0  0
 79154  1  0  0  0
 79155  1  0  0  0
 80156  1  0  0  0
 81157  1  0  0  0
 82158  1  0  0  0
M  ISO  4   1 100  68 101  80 101  82 100
M  END
> <chiral flag>
0

> <version>
0

> <s_m_source_file>
/data/baiqing/PycharmProjects/Reinvent-master-3.2/result/LINK_invent/BTK/process_docking_weight1_custom_product_contain_oxygen_bond_distance_aromatic_linkinvent_7_9_3/rearranged_h_0140.sdf

> <i_m_source_file_index>
15

> <r_mmod_Potential_Energy-OPLS-2005>
78.3209533691406

> <r_mmod_Stretch_Energy-OPLS-2005>
104.001335144043

> <r_mmod_Bend_Energy-OPLS-2005>
181.712829589844

> <r_mmod_Torsional_Energy-OPLS-2005>
226.382095336914

> <r_mmod_Improper_Torsional_Energy-OPLS-2005>
10.7898178100586

> <r_mmod_Van_der_Waal_Energy-OPLS-2005>
116.732048034668

> <r_mmod_Electrostatic_Energy-OPLS-2005>
-411.400543212891

> <r_mmod_Solvation_Energy-OPLS-2005>
-215.769805908203

> <b_mmod_Minimization_Converged-OPLS-2005>
0

> <r_mmod_RMS_Derivative-OPLS-2005>
4.77080965042114

$$$$
15
                    3D
 Structure written by MMmdl.
172181  0  0  1  0            999 V2000
  -30.6304  -14.7266   20.4821 C   0  0  0  0  0  0
  -30.4198  -12.4495   19.4832 C   0  0  0  0  0  0
  -29.5042  -12.5180   18.2409 C   0  0  0  0  0  0
  -28.0275  -12.3532   18.6439 C   0  0  0  0  0  0
  -27.6377  -13.2398   19.8561 C   0  0  2  0  0  0
  -28.6782  -13.1641   20.9934 C   0  0  0  0  0  0
  -25.2439  -13.8223   20.5673 C   0  0  0  0  0  0
  -24.1771  -13.0460   20.9201 C   0  0  0  0  0  0
  -24.6385  -11.6936   20.8763 C   0  0  0  0  0  0
  -23.9088  -10.4300   21.0393 C   0  0  0  0  0  0
  -24.3625   -9.4197   21.9167 C   0  0  0  0  0  0
  -23.6275   -8.2258   22.0752 C   0  0  0  0  0  0
  -22.4262   -8.0287   21.3542 C   0  0  0  0  0  0
  -21.9911   -9.0268   20.4637 C   0  0  0  0  0  0
  -22.7262  -10.2130   20.3031 C   0  0  0  0  0  0
  -21.6850   -6.0714   22.5254 C   0  0  0  0  0  0
  -21.4024   -6.5622   23.8191 C   0  0  0  0  0  0
  -21.3665   -5.6773   24.9154 C   0  0  0  0  0  0
  -21.6048   -4.3036   24.7219 C   0  0  0  0  0  0
  -21.8823   -3.8126   23.4335 C   0  0  0  0  0  0
  -21.9199   -4.6937   22.3381 C   0  0  0  0  0  0
  -22.7785  -13.5197   21.1833 C   0  0  0  0  0  0
  -22.1651   -4.2116   21.0953 F   0  0  0  0  0  0
  -21.5634   -3.4519   25.7743 F   0  0  0  0  0  0
  -29.9795  -13.5142   20.4162 N   0  0  0  0  0  0
  -26.2892  -12.9451   20.3280 N   0  0  0  0  0  0
  -25.9323  -11.6579   20.5756 N   0  0  0  0  0  0
  -22.0445  -12.8204   22.0399 N   0  0  0  0  0  0
  -25.4117  -15.1967   20.4092 N   0  0  0  0  0  0
  -31.8276  -14.7514   20.1805 O   0  0  0  0  0  0
  -21.6629   -6.8873   21.4227 O   0  0  0  0  0  0
  -22.3462  -14.5484   20.6661 O   0  0  0  0  0  0
  -24.6348  -31.8540   23.1924 C   0  0  0  0  0  0
  -25.9178  -32.4733   23.8305 C   0  0  1  0  0  0
  -27.1991  -27.2236   20.1440 C   0  0  0  0  0  0
  -25.5987  -33.8534   24.2220 N   0  0  0  0  0  0
  -23.4318  -30.4713   21.5424 C   0  0  2  0  0  0
  -24.8680  -28.9026   20.1266 C   0  0  0  0  0  0
  -22.7511  -29.4570   22.4945 C   0  0  0  0  0  0
  -18.0276  -28.1344   22.8468 C   0  0  0  0  0  0
  -24.1486  -36.7276   23.2649 C   0  0  0  0  0  0
  -25.9791  -30.7583   21.3740 C   0  0  0  0  0  0
  -26.0519  -29.3795   20.7069 C   0  0  0  0  0  0
  -27.2292  -28.5584   20.6786 C   0  0  0  0  0  0
  -25.9728  -26.7875   19.6071 C   0  0  0  0  0  0
  -24.8301  -27.6128   19.5752 C   0  0  0  0  0  0
  -23.6501  -29.8033   20.1605 C   0  0  0  0  0  0
  -25.4128  -36.3054   24.0296 C   0  0  1  0  0  0
  -20.5877  -28.3673   23.1255 C   0  0  2  0  0  0
  -20.6755  -26.9402   22.5411 C   0  0  0  0  0  0
  -19.5759  -26.6369   21.5185 C   0  0  0  0  0  0
  -18.1914  -26.7902   22.1582 C   0  0  0  0  0  0
  -19.1534  -28.8822   23.2833 C   0  0  0  0  0  0
  -18.9478  -30.1413   23.8884 C   0  0  0  0  0  0
  -17.6483  -30.6565   24.0531 C   0  0  0  0  0  0
  -25.9084  -34.9425   23.5064 C   0  0  0  0  0  0
  -16.5361  -29.9070   23.6318 C   0  0  0  0  0  0
  -16.7273  -28.6471   23.0363 C   0  0  0  0  0  0
  -26.4510  -31.6602   25.0740 C   0  0  0  0  0  0
  -25.3712  -31.3760   26.1436 C   0  0  0  0  0  0
  -27.0420  -30.3025   24.6324 C   0  0  0  0  0  0
  -27.6002  -32.4413   25.7542 C   0  0  0  0  0  0
  -27.5559  -37.1784   24.8456 C   0  0  0  0  0  0
  -21.4219  -29.3053   22.3683 N   0  0  0  0  0  0
  -26.4293  -37.3771   23.9381 N   0  0  0  0  0  0
  -24.7006  -31.0468   22.0920 N   0  0  0  0  0  0
  -23.4180  -28.8115   23.3061 O   0  0  0  0  0  0
  -28.3164  -26.3648   20.0614 O   0  0  0  0  0  0
  -26.5646  -34.8927   22.4633 O   0  0  0  0  0  0
  -23.5499  -32.1394   23.7206 O   0  0  0  0  0  0
  -31.1596  -20.0656   20.0919 C   0  0  0  0  0  0
  -29.4330  -18.4946   20.7798 C   0  0  0  0  0  0
  -31.5238  -17.6540   19.8938 C   0  0  0  0  0  0
  -29.8342  -19.8856   20.5535 C   0  0  0  0  0  0
  -31.9507  -18.9768   19.6742 C   0  0  0  0  0  0
  -30.2795  -17.3377   20.4908 C   0  0  0  0  0  0
  -28.9540  -21.1408   20.7834 C   0  0  0  0  0  0
  -29.0069  -23.3072   17.8389 C   0  0  0  0  0  0
  -27.6669  -23.6110   18.5205 C   0  0  0  0  0  0
  -29.8291  -22.5477   18.8839 C   0  0  0  0  0  0
  -27.9517  -23.5364   20.0303 C   0  0  2  0  0  0
  -36.8962  -20.3922   19.0977 C   0  0  0  0  0  0
  -33.1906  -19.1957   18.8172 C   0  0  0  0  0  0
  -28.3750  -24.9842   20.6750 C   0  0  0  0  0  0
  -35.5624  -19.9672   18.4793 C   0  0  0  0  0  0
  -34.4116  -19.8314   19.4956 C   0  0  0  0  0  0
  -28.9489  -22.3478   20.0556 N   0  0  0  0  0  0
  -29.9030  -15.8991   20.6977 N   0  0  0  0  0  0
  -28.0926  -21.0770   21.7926 N   0  3  0  0  0  0
  -31.4626  -12.5604   19.1799 H   0  0  0  0  0  0
  -30.3545  -11.4718   19.9630 H   0  0  0  0  0  0
  -29.7853  -11.7505   17.5188 H   0  0  0  0  0  0
  -29.6386  -13.4774   17.7393 H   0  0  0  0  0  0
  -27.8641  -11.3032   18.8828 H   0  0  0  0  0  0
  -27.3802  -12.5725   17.7942 H   0  0  0  0  0  0
  -27.6352  -14.2654   19.4890 H   0  0  0  0  0  0
  -28.7052  -12.1602   21.4210 H   0  0  0  0  0  0
  -28.4161  -13.8385   21.8104 H   0  0  0  0  0  0
  -25.2766   -9.5657   22.4751 H   0  0  0  0  0  0
  -23.9956   -7.4641   22.7504 H   0  0  0  0  0  0
  -21.0837   -8.8825   19.8944 H   0  0  0  0  0  0
  -22.3743  -10.9682   19.6140 H   0  0  0  0  0  0
  -21.2026   -7.6136   23.9689 H   0  0  0  0  0  0
  -21.1480   -6.0500   25.9055 H   0  0  0  0  0  0
  -22.0609   -2.7582   23.2849 H   0  0  0  0  0  0
  -22.4066  -11.9850   22.4763 H   0  0  0  0  0  0
  -21.1052  -13.1208   22.2597 H   0  0  0  0  0  0
  -24.6410  -15.8475   20.5164 H   0  0  0  0  0  0
  -26.2503  -15.6369   20.0569 H   0  0  0  0  0  0
  -26.7243  -32.5326   23.1043 H   0  0  0  0  0  0
  -25.0038  -33.9680   25.0292 H   0  0  0  0  0  0
  -22.7339  -31.2952   21.3888 H   0  0  0  0  0  0
  -23.3753  -35.9596   23.3328 H   0  0  0  0  0  0
  -24.3572  -36.8949   22.2069 H   0  0  0  0  0  0
  -23.7246  -37.6467   23.6715 H   0  0  0  0  0  0
  -26.1250  -31.5376   20.6223 H   0  0  0  0  0  0
  -26.8499  -30.7950   22.0183 H   0  0  0  0  0  0
  -28.1574  -28.9282   21.0947 H   0  0  0  0  0  0
  -25.8734  -25.7792   19.2418 H   0  0  0  0  0  0
  -23.9016  -27.2220   19.1713 H   0  0  0  0  0  0
  -23.8042  -30.5846   19.4138 H   0  0  0  0  0  0
  -22.7607  -29.2585   19.8374 H   0  0  0  0  0  0
  -25.1303  -36.1898   25.0790 H   0  0  0  0  0  0
  -20.9879  -28.3280   24.1400 H   0  0  0  0  0  0
  -20.5635  -26.2318   23.3633 H   0  0  0  0  0  0
  -21.6629  -26.7428   22.1236 H   0  0  0  0  0  0
  -19.6978  -25.6277   21.1245 H   0  0  0  0  0  0
  -19.6711  -27.3160   20.6678 H   0  0  0  0  0  0
  -17.4201  -26.6641   21.3972 H   0  0  0  0  0  0
  -18.0286  -26.0003   22.8939 H   0  0  0  0  0  0
  -19.7960  -30.7153   24.2331 H   0  0  0  0  0  0
  -17.5073  -31.6262   24.5129 H   0  0  0  0  0  0
  -15.5380  -30.2968   23.7701 H   0  0  0  0  0  0
  -15.8652  -28.0806   22.7120 H   0  0  0  0  0  0
  -24.5954  -30.7037   25.7778 H   0  0  0  0  0  0
  -24.8777  -32.2897   26.4765 H   0  0  0  0  0  0
  -25.7988  -30.9054   27.0301 H   0  0  0  0  0  0
  -26.3061  -29.6719   24.1324 H   0  0  0  0  0  0
  -27.4048  -29.7379   25.4929 H   0  0  0  0  0  0
  -27.8946  -30.4294   23.9635 H   0  0  0  0  0  0
  -27.2568  -33.3767   26.1996 H   0  0  0  0  0  0
  -28.3853  -32.6957   25.0398 H   0  0  0  0  0  0
  -28.0633  -31.8659   26.5583 H   0  0  0  0  0  0
  -28.2548  -38.0094   24.7476 H   0  0  0  0  0  0
  -28.1073  -36.2626   24.6295 H   0  0  0  0  0  0
  -27.2277  -37.1437   25.8861 H   0  0  0  0  0  0
  -20.9452  -29.8828   21.6917 H   0  0  0  0  0  0
  -26.0171  -38.2837   24.1427 H   0  0  0  0  0  0
  -31.5583  -21.0613   19.9650 H   0  0  0  0  0  0
  -28.4445  -18.3162   21.1775 H   0  0  0  0  0  0
  -32.1873  -16.8914   19.5335 H   0  0  0  0  0  0
  -29.5249  -24.2183   17.5373 H   0  0  0  0  0  0
  -28.8784  -22.7057   16.9359 H   0  0  0  0  0  0
  -26.9369  -22.8379   18.2662 H   0  0  0  0  0  0
  -27.2469  -24.5547   18.1728 H   0  0  0  0  0  0
  -30.7171  -23.1133   19.1748 H   0  0  0  0  0  0
  -30.1560  -21.6098   18.4386 H   0  0  0  0  0  0
  -27.0171  -23.2319   20.5094 H   0  0  0  0  0  0
  -37.6295  -20.6073   18.3191 H   0  0  0  0  0  0
  -37.3060  -19.5972   19.7237 H   0  0  0  0  0  0
  -36.7869  -21.2872   19.7112 H   0  0  0  0  0  0
  -32.8881  -19.8006   17.9605 H   0  0  0  0  0  0
  -33.5017  -18.2374   18.3945 H   0  0  0  0  0  0
  -29.4220  -24.8784   20.9614 H   0  0  0  0  0  0
  -27.8476  -25.0602   21.6269 H   0  0  0  0  0  0
  -35.7130  -19.0177   17.9611 H   0  0  0  0  0  0
  -35.2727  -20.6836   17.7081 H   0  0  0  0  0  0
  -34.7321  -19.2178   20.3389 H   0  0  0  0  0  0
  -34.1510  -20.8139   19.8947 H   0  0  0  0  0  0
  -28.9451  -15.7427   20.9670 H   0  0  0  0  0  0
  -28.0690  -20.2457   22.3653 H   0  0  0  0  0  0
  -27.5762  -21.8803   22.1028 H   0  0  0  0  0  0
  1 25  1  0  0  0
  1 30  2  0  0  0
  1 88  1  0  0  0
  2  3  1  0  0  0
  2 25  1  0  0  0
  2 90  1  0  0  0
  2 91  1  0  0  0
  3  4  1  0  0  0
  3 92  1  0  0  0
  3 93  1  0  0  0
  4  5  1  0  0  0
  4 94  1  0  0  0
  4 95  1  0  0  0
  5  6  1  0  0  0
  5 26  1  0  0  0
  5 96  1  0  0  0
  6 25  1  0  0  0
  6 97  1  0  0  0
  6 98  1  0  0  0
  7  8  2  0  0  0
  7 26  1  0  0  0
  7 29  1  0  0  0
  8  9  1  0  0  0
  8 22  1  0  0  0
  9 10  1  0  0  0
  9 27  2  0  0  0
 10 11  2  0  0  0
 10 15  1  0  0  0
 11 12  1  0  0  0
 11 99  1  0  0  0
 12 13  2  0  0  0
 12100  1  0  0  0
 13 14  1  0  0  0
 13 31  1  0  0  0
 14 15  2  0  0  0
 14101  1  0  0  0
 15102  1  0  0  0
 16 17  2  0  0  0
 16 21  1  0  0  0
 16 31  1  0  0  0
 17 18  1  0  0  0
 17103  1  0  0  0
 18 19  2  0  0  0
 18104  1  0  0  0
 19 20  1  0  0  0
 19 24  1  0  0  0
 20 21  2  0  0  0
 20105  1  0  0  0
 21 23  1  0  0  0
 22 28  1  0  0  0
 22 32  2  0  0  0
 26 27  1  0  0  0
 28106  1  0  0  0
 28107  1  0  0  0
 29108  1  0  0  0
 29109  1  0  0  0
 33 34  1  0  0  0
 33 66  1  0  0  0
 33 70  2  0  0  0
 34 36  1  0  0  0
 34 59  1  0  0  0
 34110  1  0  0  0
 35 44  2  0  0  0
 35 45  1  0  0  0
 35 68  1  0  0  0
 36 56  1  0  0  0
 36111  1  0  0  0
 37 39  1  0  0  0
 37 47  1  0  0  0
 37 66  1  0  0  0
 37112  1  0  0  0
 38 43  2  0  0  0
 38 46  1  0  0  0
 38 47  1  0  0  0
 39 64  1  0  0  0
 39 67  2  0  0  0
 40 52  1  0  0  0
 40 53  2  0  0  0
 40 58  1  0  0  0
 41113  1  0  0  0
 41114  1  0  0  0
 41115  1  0  0  0
 41 48  1  0  0  0
 42 43  1  0  0  0
 42 66  1  0  0  0
 42116  1  0  0  0
 42117  1  0  0  0
 43 44  1  0  0  0
 44118  1  0  0  0
 45 46  2  0  0  0
 45119  1  0  0  0
 46120  1  0  0  0
 47121  1  0  0  0
 47122  1  0  0  0
 48 56  1  0  0  0
 48 65  1  0  0  0
 48123  1  0  0  0
 49 50  1  0  0  0
 49 53  1  0  0  0
 49 64  1  0  0  0
 49124  1  0  0  0
 50 51  1  0  0  0
 50125  1  0  0  0
 50126  1  0  0  0
 51 52  1  0  0  0
 51127  1  0  0  0
 51128  1  0  0  0
 52129  1  0  0  0
 52130  1  0  0  0
 53 54  1  0  0  0
 54 55  2  0  0  0
 54131  1  0  0  0
 55 57  1  0  0  0
 55132  1  0  0  0
 56 69  2  0  0  0
 57 58  2  0  0  0
 57133  1  0  0  0
 58134  1  0  0  0
 59 60  1  0  0  0
 59 61  1  0  0  0
 59 62  1  0  0  0
 60135  1  0  0  0
 60136  1  0  0  0
 60137  1  0  0  0
 61138  1  0  0  0
 61139  1  0  0  0
 61140  1  0  0  0
 62141  1  0  0  0
 62142  1  0  0  0
 62143  1  0  0  0
 63 65  1  0  0  0
 63144  1  0  0  0
 63145  1  0  0  0
 63146  1  0  0  0
 64147  1  0  0  0
 65148  1  0  0  0
 68 84  1  0  0  0
 71 74  2  0  0  0
 71 75  1  0  0  0
 71149  1  0  0  0
 72 74  1  0  0  0
 72 76  2  0  0  0
 72150  1  0  0  0
 73 75  2  0  0  0
 73 76  1  0  0  0
 73151  1  0  0  0
 74 77  1  0  0  0
 75 83  1  0  0  0
 76 88  1  0  0  0
 77 87  1  0  0  0
 77 89  2  0  0  0
 78 79  1  0  0  0
 78 80  1  0  0  0
 78152  1  0  0  0
 78153  1  0  0  0
 79 81  1  0  0  0
 79154  1  0  0  0
 79155  1  0  0  0
 80 87  1  0  0  0
 80156  1  0  0  0
 80157  1  0  0  0
 81 84  1  0  0  0
 81 87  1  0  0  0
 81158  1  0  0  0
 82 85  1  0  0  0
 82159  1  0  0  0
 82160  1  0  0  0
 82161  1  0  0  0
 83 86  1  0  0  0
 83162  1  0  0  0
 83163  1  0  0  0
 84164  1  0  0  0
 84165  1  0  0  0
 85 86  1  0  0  0
 85166  1  0  0  0
 85167  1  0  0  0
 86168  1  0  0  0
 86169  1  0  0  0
 88170  1  0  0  0
 89171  1  0  0  0
 89172  1  0  0  0
M  CHG  1  89   1
M  ISO  4   1 100  68 101  84 101  88 100
M  END
> <chiral flag>
0

> <version>
0

> <s_m_source_file>
/data/baiqing/PycharmProjects/Reinvent-master-3.2/result/LINK_invent/BTK/process_docking_weight1_custom_product_contain_oxygen_bond_distance_aromatic_linkinvent_7_9_3/rearranged_h_0140.sdf

> <i_m_source_file_index>
16

> <r_mmod_Potential_Energy-OPLS-2005>
181.27018737793

> <r_mmod_Stretch_Energy-OPLS-2005>
146.226440429688

> <r_mmod_Bend_Energy-OPLS-2005>
239.621826171875

> <r_mmod_Torsional_Energy-OPLS-2005>
324.205627441406

> <r_mmod_Improper_Torsional_Energy-OPLS-2005>
6.0733437538147

> <r_mmod_Van_der_Waal_Energy-OPLS-2005>
146.329345703125

> <r_mmod_Electrostatic_Energy-OPLS-2005>
-376.650054931641

> <r_mmod_Solvation_Energy-OPLS-2005>
-392.058074951172

> <b_mmod_Minimization_Converged-OPLS-2005>
0

> <r_mmod_RMS_Derivative-OPLS-2005>
5.90538883209229

$$$$
16
                    3D
 Structure written by MMmdl.
158166  0  0  1  0            999 V2000
  -30.5941  -14.6669   20.5778 C   0  0  0  0  0  0
  -30.4331  -12.4267   19.4769 C   0  0  0  0  0  0
  -29.5090  -12.5470   18.2426 C   0  0  0  0  0  0
  -28.0355  -12.3626   18.6477 C   0  0  0  0  0  0
  -27.6526  -13.2212   19.8818 C   0  0  2  0  0  0
  -28.6828  -13.0531   21.0196 C   0  0  0  0  0  0
  -25.2529  -13.8218   20.5678 C   0  0  0  0  0  0
  -24.1778  -13.0403   20.9186 C   0  0  0  0  0  0
  -24.6407  -11.6926   20.8743 C   0  0  0  0  0  0
  -23.9098  -10.4268   21.0426 C   0  0  0  0  0  0
  -24.3641   -9.4176   21.9206 C   0  0  0  0  0  0
  -23.6300   -8.2224   22.0756 C   0  0  0  0  0  0
  -22.4288   -8.0294   21.3546 C   0  0  0  0  0  0
  -21.9934   -9.0265   20.4650 C   0  0  0  0  0  0
  -22.7271  -10.2128   20.3068 C   0  0  0  0  0  0
  -21.6849   -6.0746   22.5286 C   0  0  0  0  0  0
  -21.4016   -6.5639   23.8215 C   0  0  0  0  0  0
  -21.3654   -5.6792   24.9182 C   0  0  0  0  0  0
  -21.6062   -4.3051   24.7232 C   0  0  0  0  0  0
  -21.8813   -3.8146   23.4336 C   0  0  0  0  0  0
  -21.9179   -4.6979   22.3398 C   0  0  0  0  0  0
  -22.7830  -13.5232   21.1861 C   0  0  0  0  0  0
  -22.1655   -4.2153   21.0983 F   0  0  0  0  0  0
  -21.5628   -3.4539   25.7735 F   0  0  0  0  0  0
  -30.0036  -13.4233   20.4842 N   0  0  0  0  0  0
  -26.2968  -12.9374   20.3360 N   0  0  0  0  0  0
  -25.9340  -11.6507   20.5764 N   0  0  0  0  0  0
  -22.0496  -12.8180   22.0423 N   0  0  0  0  0  0
  -25.4253  -15.1892   20.4103 N   0  0  0  0  0  0
  -31.7020  -14.8807   20.0694 O   0  0  0  0  0  0
  -21.6636   -6.8889   21.4250 O   0  0  0  0  0  0
  -22.3493  -14.5508   20.6723 O   0  0  0  0  0  0
  -24.6323  -31.8566   23.2092 C   0  0  0  0  0  0
  -25.9109  -32.4823   23.8406 C   0  0  1  0  0  0
  -27.1977  -27.3041   20.1105 C   0  0  0  0  0  0
  -25.5917  -33.8595   24.2380 N   0  0  0  0  0  0
  -23.4321  -30.4827   21.5531 C   0  0  2  0  0  0
  -24.8706  -28.9528   20.0904 C   0  0  0  0  0  0
  -22.7627  -29.4550   22.4964 C   0  0  0  0  0  0
  -18.0234  -28.1346   22.8722 C   0  0  0  0  0  0
  -24.1485  -36.7319   23.2656 C   0  0  0  0  0  0
  -25.9696  -30.7886   21.3795 C   0  0  0  0  0  0
  -26.0353  -29.4106   20.7178 C   0  0  0  0  0  0
  -27.2098  -28.5932   20.7286 C   0  0  0  0  0  0
  -26.0278  -26.9331   19.4086 C   0  0  0  0  0  0
  -24.8632  -27.7191   19.4187 C   0  0  0  0  0  0
  -23.6428  -29.8289   20.1606 C   0  0  0  0  0  0
  -25.4091  -36.3152   24.0377 C   0  0  1  0  0  0
  -20.5956  -28.3534   23.1296 C   0  0  2  0  0  0
  -20.6654  -26.9145   22.5667 C   0  0  0  0  0  0
  -19.5679  -26.6445   21.5321 C   0  0  0  0  0  0
  -18.1886  -26.7931   22.1720 C   0  0  0  0  0  0
  -19.1569  -28.8826   23.3037 C   0  0  0  0  0  0
  -18.9574  -30.1492   23.8906 C   0  0  0  0  0  0
  -17.6608  -30.6676   24.0537 C   0  0  0  0  0  0
  -25.9018  -34.9494   23.5218 C   0  0  0  0  0  0
  -16.5440  -29.9168   23.6502 C   0  0  0  0  0  0
  -16.7227  -28.6499   23.0632 C   0  0  0  0  0  0
  -26.4416  -31.6625   25.0825 C   0  0  0  0  0  0
  -25.3640  -31.3725   26.1559 C   0  0  0  0  0  0
  -27.0250  -30.3058   24.6307 C   0  0  0  0  0  0
  -27.5969  -32.4359   25.7544 C   0  0  0  0  0  0
  -27.5589  -37.1828   24.8464 C   0  0  0  0  0  0
  -21.4353  -29.2818   22.3628 N   0  0  0  0  0  0
  -26.4302  -37.3819   23.9443 N   0  0  0  0  0  0
  -24.6980  -31.0606   22.1028 N   0  0  0  0  0  0
  -23.4268  -28.8082   23.3085 O   0  0  0  0  0  0
  -28.2170  -26.3479   20.2362 O   0  0  0  0  0  0
  -26.5555  -34.8941   22.4794 O   0  0  0  0  0  0
  -23.5426  -32.1196   23.7368 O   0  0  0  0  0  0
  -29.4990  -19.3657   22.0972 C   0  0  0  0  0  0
  -30.0031  -18.0203   22.1153 C   0  0  0  0  0  0
  -28.6087  -18.9722   19.8968 C   0  0  0  0  0  0
  -28.7083  -19.8506   21.0163 C   0  0  0  0  0  0
  -29.7690  -17.0951   21.0553 C   0  0  0  0  0  0
  -29.1040  -17.6297   19.9169 C   0  0  0  0  0  0
  -28.2218  -23.6764   20.7932 C   0  0  0  0  0  0
  -25.9379  -22.6523   20.5378 C   0  0  0  0  0  0
  -26.9119  -22.8068   22.8108 C   0  0  0  0  0  0
  -27.5275  -20.8642   21.2548 C   0  0  0  0  0  0
  -27.7548  -25.1905   21.0695 C   0  0  0  0  0  0
  -27.2790  -22.4914   21.3274 C   0  0  0  0  0  0
  -29.9096  -15.6433   21.2584 N   0  0  0  0  0  0
  -29.2706  -23.4236   20.1989 O   0  0  0  0  0  0
  -28.8041  -16.8114   18.8806 F   0  0  0  0  0  0
  -31.4713  -12.5619   19.1806 H   0  0  0  0  0  0
  -30.3837  -11.4205   19.8948 H   0  0  0  0  0  0
  -29.7900  -11.8090   17.4927 H   0  0  0  0  0  0
  -29.6390  -13.5245   17.7739 H   0  0  0  0  0  0
  -27.8867  -11.3080   18.8773 H   0  0  0  0  0  0
  -27.3775  -12.5812   17.8085 H   0  0  0  0  0  0
  -27.6725  -14.2636   19.5622 H   0  0  0  0  0  0
  -28.6881  -12.0172   21.3749 H   0  0  0  0  0  0
  -28.3961  -13.6542   21.8830 H   0  0  0  0  0  0
  -25.2799   -9.5615   22.4759 H   0  0  0  0  0  0
  -24.0009   -7.4600   22.7449 H   0  0  0  0  0  0
  -21.0885   -8.8821   19.8918 H   0  0  0  0  0  0
  -22.3807  -10.9690   19.6153 H   0  0  0  0  0  0
  -21.2017   -7.6148   23.9726 H   0  0  0  0  0  0
  -21.1495   -6.0520   25.9080 H   0  0  0  0  0  0
  -22.0593   -2.7617   23.2845 H   0  0  0  0  0  0
  -22.4153  -11.9863   22.4775 H   0  0  0  0  0  0
  -21.1110  -13.1168   22.2643 H   0  0  0  0  0  0
  -24.6625  -15.8487   20.5152 H   0  0  0  0  0  0
  -26.2842  -15.6236   20.0967 H   0  0  0  0  0  0
  -26.7215  -32.5481   23.1157 H   0  0  0  0  0  0
  -25.0020  -33.9662   25.0492 H   0  0  0  0  0  0
  -22.7158  -31.2917   21.4176 H   0  0  0  0  0  0
  -23.3807  -35.9612   23.3300 H   0  0  0  0  0  0
  -24.3538  -36.8932   22.2080 H   0  0  0  0  0  0
  -23.7157  -37.6509   23.6601 H   0  0  0  0  0  0
  -26.1116  -31.5749   20.6319 H   0  0  0  0  0  0
  -26.8441  -30.8243   22.0109 H   0  0  0  0  0  0
  -28.1056  -28.9299   21.2343 H   0  0  0  0  0  0
  -25.9806  -26.0092   18.8505 H   0  0  0  0  0  0
  -23.9766  -27.3853   18.8889 H   0  0  0  0  0  0
  -23.7055  -30.5913   19.3818 H   0  0  0  0  0  0
  -22.7751  -29.2372   19.8864 H   0  0  0  0  0  0
  -25.1265  -36.2053   25.0857 H   0  0  0  0  0  0
  -21.0189  -28.3150   24.1381 H   0  0  0  0  0  0
  -20.5225  -26.2181   23.3947 H   0  0  0  0  0  0
  -21.6573  -26.6937   22.1649 H   0  0  0  0  0  0
  -19.6782  -25.6402   21.1057 H   0  0  0  0  0  0
  -19.6723  -27.3442   20.7071 H   0  0  0  0  0  0
  -17.4279  -26.6932   21.4019 H   0  0  0  0  0  0
  -18.0006  -25.9845   22.8810 H   0  0  0  0  0  0
  -19.7989  -30.7379   24.2215 H   0  0  0  0  0  0
  -17.5238  -31.6434   24.4965 H   0  0  0  0  0  0
  -15.5498  -30.3243   23.7862 H   0  0  0  0  0  0
  -15.8424  -28.0943   22.7538 H   0  0  0  0  0  0
  -24.5828  -30.7038   25.7959 H   0  0  0  0  0  0
  -24.8762  -32.2822   26.5041 H   0  0  0  0  0  0
  -25.7965  -30.8909   27.0321 H   0  0  0  0  0  0
  -26.2820  -29.6872   24.1268 H   0  0  0  0  0  0
  -27.3853  -29.7284   25.4831 H   0  0  0  0  0  0
  -27.8741  -30.4426   23.9610 H   0  0  0  0  0  0
  -27.2605  -33.3674   26.2074 H   0  0  0  0  0  0
  -28.3731  -32.6887   25.0330 H   0  0  0  0  0  0
  -28.0634  -31.8501   26.5454 H   0  0  0  0  0  0
  -28.2663  -38.0085   24.7563 H   0  0  0  0  0  0
  -28.1037  -36.2643   24.6244 H   0  0  0  0  0  0
  -27.2286  -37.1442   25.8852 H   0  0  0  0  0  0
  -20.9659  -29.8432   21.6725 H   0  0  0  0  0  0
  -26.0250  -38.2955   24.1352 H   0  0  0  0  0  0
  -29.6046  -19.9639   22.9983 H   0  0  0  0  0  0
  -30.4806  -17.6668   23.0200 H   0  0  0  0  0  0
  -27.9848  -19.2468   19.0565 H   0  0  0  0  0  0
  -25.4312  -23.6013   20.7003 H   0  0  0  0  0  0
  -25.2004  -21.9021   20.8378 H   0  0  0  0  0  0
  -26.0905  -22.5472   19.4602 H   0  0  0  0  0  0
  -26.5133  -23.8083   22.9448 H   0  0  0  0  0  0
  -27.7448  -22.6931   23.5065 H   0  0  0  0  0  0
  -26.1125  -22.1593   23.1814 H   0  0  0  0  0  0
  -27.1430  -20.4610   22.1930 H   0  0  0  0  0  0
  -26.7914  -20.4813   20.5460 H   0  0  0  0  0  0
  -27.9800  -25.4182   22.1176 H   0  0  0  0  0  0
  -26.6728  -25.1622   21.0245 H   0  0  0  0  0  0
  -29.1588  -15.2687   21.8086 H   0  0  0  0  0  0
  1 25  1  0  0  0
  1 30  2  0  0  0
  1 83  1  0  0  0
  2  3  1  0  0  0
  2 25  1  0  0  0
  2 86  1  0  0  0
  2 87  1  0  0  0
  3  4  1  0  0  0
  3 88  1  0  0  0
  3 89  1  0  0  0
  4  5  1  0  0  0
  4 90  1  0  0  0
  4 91  1  0  0  0
  5  6  1  0  0  0
  5 26  1  0  0  0
  5 92  1  0  0  0
  6 25  1  0  0  0
  6 93  1  0  0  0
  6 94  1  0  0  0
  7  8  2  0  0  0
  7 26  1  0  0  0
  7 29  1  0  0  0
  8  9  1  0  0  0
  8 22  1  0  0  0
  9 10  1  0  0  0
  9 27  2  0  0  0
 10 11  2  0  0  0
 10 15  1  0  0  0
 11 12  1  0  0  0
 11 95  1  0  0  0
 12 13  2  0  0  0
 12 96  1  0  0  0
 13 14  1  0  0  0
 13 31  1  0  0  0
 14 15  2  0  0  0
 14 97  1  0  0  0
 15 98  1  0  0  0
 16 17  2  0  0  0
 16 21  1  0  0  0
 16 31  1  0  0  0
 17 18  1  0  0  0
 17 99  1  0  0  0
 18 19  2  0  0  0
 18100  1  0  0  0
 19 20  1  0  0  0
 19 24  1  0  0  0
 20 21  2  0  0  0
 20101  1  0  0  0
 21 23  1  0  0  0
 22 28  1  0  0  0
 22 32  2  0  0  0
 26 27  1  0  0  0
 28102  1  0  0  0
 28103  1  0  0  0
 29104  1  0  0  0
 29105  1  0  0  0
 33 34  1  0  0  0
 33 66  1  0  0  0
 33 70  2  0  0  0
 34 36  1  0  0  0
 34 59  1  0  0  0
 34106  1  0  0  0
 35 44  2  0  0  0
 35 45  1  0  0  0
 35 68  1  0  0  0
 36 56  1  0  0  0
 36107  1  0  0  0
 37 39  1  0  0  0
 37 47  1  0  0  0
 37 66  1  0  0  0
 37108  1  0  0  0
 38 43  2  0  0  0
 38 46  1  0  0  0
 38 47  1  0  0  0
 39 64  1  0  0  0
 39 67  2  0  0  0
 40 52  1  0  0  0
 40 53  2  0  0  0
 40 58  1  0  0  0
 41109  1  0  0  0
 41110  1  0  0  0
 41111  1  0  0  0
 41 48  1  0  0  0
 42 43  1  0  0  0
 42 66  1  0  0  0
 42112  1  0  0  0
 42113  1  0  0  0
 43 44  1  0  0  0
 44114  1  0  0  0
 45 46  2  0  0  0
 45115  1  0  0  0
 46116  1  0  0  0
 47117  1  0  0  0
 47118  1  0  0  0
 48 56  1  0  0  0
 48 65  1  0  0  0
 48119  1  0  0  0
 49 50  1  0  0  0
 49 53  1  0  0  0
 49 64  1  0  0  0
 49120  1  0  0  0
 50 51  1  0  0  0
 50121  1  0  0  0
 50122  1  0  0  0
 51 52  1  0  0  0
 51123  1  0  0  0
 51124  1  0  0  0
 52125  1  0  0  0
 52126  1  0  0  0
 53 54  1  0  0  0
 54 55  2  0  0  0
 54127  1  0  0  0
 55 57  1  0  0  0
 55128  1  0  0  0
 56 69  2  0  0  0
 57 58  2  0  0  0
 57129  1  0  0  0
 58130  1  0  0  0
 59 60  1  0  0  0
 59 61  1  0  0  0
 59 62  1  0  0  0
 60131  1  0  0  0
 60132  1  0  0  0
 60133  1  0  0  0
 61134  1  0  0  0
 61135  1  0  0  0
 61136  1  0  0  0
 62137  1  0  0  0
 62138  1  0  0  0
 62139  1  0  0  0
 63 65  1  0  0  0
 63140  1  0  0  0
 63141  1  0  0  0
 63142  1  0  0  0
 64143  1  0  0  0
 65144  1  0  0  0
 68 81  1  0  0  0
 71 72  2  0  0  0
 71 74  1  0  0  0
 71145  1  0  0  0
 72 75  1  0  0  0
 72146  1  0  0  0
 73 74  2  0  0  0
 73 76  1  0  0  0
 73147  1  0  0  0
 74 80  1  0  0  0
 75 76  2  0  0  0
 75 83  1  0  0  0
 76 85  1  0  0  0
 77 81  1  0  0  0
 77 82  1  0  0  0
 77 84  2  0  0  0
 78148  1  0  0  0
 78149  1  0  0  0
 78150  1  0  0  0
 78 82  1  0  0  0
 79 82  1  0  0  0
 79151  1  0  0  0
 79152  1  0  0  0
 79153  1  0  0  0
 80 82  1  0  0  0
 80154  1  0  0  0
 80155  1  0  0  0
 81156  1  0  0  0
 81157  1  0  0  0
 83158  1  0  0  0
M  ISO  4   1 100  68 101  81 101  83 100
M  END
> <chiral flag>
0

> <version>
0

> <s_m_source_file>
/data/baiqing/PycharmProjects/Reinvent-master-3.2/result/LINK_invent/BTK/process_docking_weight1_custom_product_contain_oxygen_bond_distance_aromatic_linkinvent_7_9_3/rearranged_h_0140.sdf

> <i_m_source_file_index>
17

> <r_mmod_Potential_Energy-OPLS-2005>
365.846893310547

> <r_mmod_Stretch_Energy-OPLS-2005>
114.421340942383

> <r_mmod_Bend_Energy-OPLS-2005>
257.826446533203

> <r_mmod_Torsional_Energy-OPLS-2005>
325.241546630859

> <r_mmod_Improper_Torsional_Energy-OPLS-2005>
14.472451210022

> <r_mmod_Van_der_Waal_Energy-OPLS-2005>
149.937164306641

> <r_mmod_Electrostatic_Energy-OPLS-2005>
-344.778778076172

> <r_mmod_Solvation_Energy-OPLS-2005>
-223.430130004883

> <b_mmod_Minimization_Converged-OPLS-2005>
0

> <r_mmod_RMS_Derivative-OPLS-2005>
14.9102592468262

$$$$
17
                    3D
 Structure written by MMmdl.
168176  0  0  1  0            999 V2000
  -30.7071  -14.4421   20.5102 C   0  0  0  0  0  0
  -30.4113  -12.2669   19.4295 C   0  0  0  0  0  0
  -29.4962  -12.4909   18.2095 C   0  0  0  0  0  0
  -28.0142  -12.3753   18.6124 C   0  0  0  0  0  0
  -27.6619  -13.2087   19.8744 C   0  0  2  0  0  0
  -28.7032  -12.9956   20.9974 C   0  0  0  0  0  0
  -25.2602  -13.8195   20.5686 C   0  0  0  0  0  0
  -24.1847  -13.0462   20.9167 C   0  0  0  0  0  0
  -24.6402  -11.6916   20.8748 C   0  0  0  0  0  0
  -23.9067  -10.4300   21.0426 C   0  0  0  0  0  0
  -24.3624   -9.4203   21.9188 C   0  0  0  0  0  0
  -23.6303   -8.2245   22.0765 C   0  0  0  0  0  0
  -22.4276   -8.0281   21.3571 C   0  0  0  0  0  0
  -21.9921   -9.0247   20.4660 C   0  0  0  0  0  0
  -22.7249  -10.2135   20.3071 C   0  0  0  0  0  0
  -21.6862   -6.0736   22.5283 C   0  0  0  0  0  0
  -21.4004   -6.5636   23.8207 C   0  0  0  0  0  0
  -21.3672   -5.6791   24.9173 C   0  0  0  0  0  0
  -21.6049   -4.3055   24.7228 C   0  0  0  0  0  0
  -21.8818   -3.8144   23.4343 C   0  0  0  0  0  0
  -21.9203   -4.6962   22.3406 C   0  0  0  0  0  0
  -22.7867  -13.5246   21.1830 C   0  0  0  0  0  0
  -22.1674   -4.2141   21.0988 F   0  0  0  0  0  0
  -21.5633   -3.4542   25.7748 F   0  0  0  0  0  0
  -30.0370  -13.2641   20.4423 N   0  0  0  0  0  0
  -26.3035  -12.9350   20.3369 N   0  0  0  0  0  0
  -25.9322  -11.6507   20.5782 N   0  0  0  0  0  0
  -22.0518  -12.8222   22.0372 N   0  0  0  0  0  0
  -25.4339  -15.1924   20.4111 N   0  0  0  0  0  0
  -31.8866  -14.5618   20.1671 O   0  0  0  0  0  0
  -21.6642   -6.8875   21.4247 O   0  0  0  0  0  0
  -22.3559  -14.5544   20.6674 O   0  0  0  0  0  0
  -24.6118  -31.8709   23.2126 C   0  0  0  0  0  0
  -25.9023  -32.4842   23.8422 C   0  0  1  0  0  0
  -27.2405  -27.4616   20.0958 C   0  0  0  0  0  0
  -25.5899  -33.8639   24.2358 N   0  0  0  0  0  0
  -23.4006  -30.4908   21.5520 C   0  0  2  0  0  0
  -24.8514  -28.9570   20.1220 C   0  0  0  0  0  0
  -22.7415  -29.4650   22.5005 C   0  0  0  0  0  0
  -18.0277  -28.1368   22.8497 C   0  0  0  0  0  0
  -24.1489  -36.7316   23.2638 C   0  0  0  0  0  0
  -25.9265  -30.8415   21.3664 C   0  0  0  0  0  0
  -26.0061  -29.4740   20.7235 C   0  0  0  0  0  0
  -27.2056  -28.7285   20.7174 C   0  0  0  0  0  0
  -26.0753  -26.9524   19.4909 C   0  0  0  0  0  0
  -24.8773  -27.6918   19.5077 C   0  0  0  0  0  0
  -23.6117  -29.8217   20.1667 C   0  0  0  0  0  0
  -25.4108  -36.3120   24.0347 C   0  0  1  0  0  0
  -20.5863  -28.3656   23.1331 C   0  0  2  0  0  0
  -20.6760  -26.9394   22.5424 C   0  0  0  0  0  0
  -19.5740  -26.6382   21.5215 C   0  0  0  0  0  0
  -18.1922  -26.7913   22.1625 C   0  0  0  0  0  0
  -19.1524  -28.8825   23.2908 C   0  0  0  0  0  0
  -18.9448  -30.1428   23.8930 C   0  0  0  0  0  0
  -17.6452  -30.6573   24.0561 C   0  0  0  0  0  0
  -25.9036  -34.9486   23.5148 C   0  0  0  0  0  0
  -16.5346  -29.9078   23.6308 C   0  0  0  0  0  0
  -16.7270  -28.6492   23.0351 C   0  0  0  0  0  0
  -26.4464  -31.6605   25.0730 C   0  0  0  0  0  0
  -25.3740  -31.3693   26.1482 C   0  0  0  0  0  0
  -27.0298  -30.3059   24.6076 C   0  0  0  0  0  0
  -27.6052  -32.4312   25.7490 C   0  0  0  0  0  0
  -27.5583  -37.1812   24.8465 C   0  0  0  0  0  0
  -21.4143  -29.3029   22.3761 N   0  0  0  0  0  0
  -26.4296  -37.3794   23.9410 N   0  0  0  0  0  0
  -24.6638  -31.0821   22.1021 N   0  0  0  0  0  0
  -23.4202  -28.8187   23.3029 O   0  0  0  0  0  0
  -28.4050  -26.7409   20.0139 O   0  0  0  0  0  0
  -26.5584  -34.8920   22.4698 O   0  0  0  0  0  0
  -23.5312  -32.1454   23.7526 O   0  0  0  0  0  0
  -30.0767  -19.2092   18.6107 C   0  0  0  0  0  0
  -30.6211  -16.8428   18.7592 C   0  0  0  0  0  0
  -29.4568  -17.9328   20.6013 C   0  0  0  0  0  0
  -30.6461  -18.0542   18.0461 C   0  0  0  0  0  0
  -29.4907  -19.1614   19.8925 C   0  0  0  0  0  0
  -30.0317  -16.7642   20.0482 C   0  0  0  0  0  0
  -28.4569  -24.5167   21.0269 C   0  0  0  0  0  0
  -31.2626  -18.1085   16.6618 C   0  0  0  0  0  0
  -31.8689  -22.9515   20.9641 C   0  0  0  0  0  0
  -30.5771  -20.5790   22.3067 C   0  0  0  0  0  0
  -28.8440  -20.4256   20.4613 C   0  0  0  0  0  0
  -28.7531  -26.0154   21.1936 C   0  0  0  0  0  0
  -30.7380  -22.1277   20.3137 C   0  0  0  0  0  0
  -28.7938  -22.3585   22.0556 C   0  0  0  0  0  0
  -29.7584  -21.3938   21.2813 C   0  0  2  0  0  0
  -29.9475  -15.5239   20.7587 N   0  0  0  0  0  0
  -27.7497  -24.0814   20.1129 O   0  0  0  0  0  0
  -29.0503  -23.7599   21.9749 O   0  0  0  0  0  0
  -31.4578  -12.3441   19.1301 H   0  0  0  0  0  0
  -30.2884  -11.2574   19.8262 H   0  0  0  0  0  0
  -29.7260  -11.7636   17.4298 H   0  0  0  0  0  0
  -29.6881  -13.4748   17.7801 H   0  0  0  0  0  0
  -27.8004  -11.3218   18.7946 H   0  0  0  0  0  0
  -27.3780  -12.6768   17.7789 H   0  0  0  0  0  0
  -27.7014  -14.2559   19.5748 H   0  0  0  0  0  0
  -28.6609  -11.9702   21.3664 H   0  0  0  0  0  0
  -28.4837  -13.6299   21.8563 H   0  0  0  0  0  0
  -25.2777   -9.5658   22.4747 H   0  0  0  0  0  0
  -24.0019   -7.4623   22.7486 H   0  0  0  0  0  0
  -21.0860   -8.8762   19.8958 H   0  0  0  0  0  0
  -22.3728  -10.9661   19.6163 H   0  0  0  0  0  0
  -21.1975   -7.6146   23.9698 H   0  0  0  0  0  0
  -21.1506   -6.0535   25.9077 H   0  0  0  0  0  0
  -22.0595   -2.7607   23.2854 H   0  0  0  0  0  0
  -22.4166  -11.9902   22.4745 H   0  0  0  0  0  0
  -21.1137  -13.1248   22.2583 H   0  0  0  0  0  0
  -24.6671  -15.8490   20.5116 H   0  0  0  0  0  0
  -26.2891  -15.6290   20.0904 H   0  0  0  0  0  0
  -26.7111  -32.5564   23.1207 H   0  0  0  0  0  0
  -25.0073  -33.9815   25.0520 H   0  0  0  0  0  0
  -22.6863  -31.3048   21.4113 H   0  0  0  0  0  0
  -23.3750  -35.9648   23.3314 H   0  0  0  0  0  0
  -24.3591  -36.8914   22.2050 H   0  0  0  0  0  0
  -23.7240  -37.6527   23.6641 H   0  0  0  0  0  0
  -26.0351  -31.6062   20.5961 H   0  0  0  0  0  0
  -26.8144  -30.8994   21.9843 H   0  0  0  0  0  0
  -28.1005  -29.1282   21.1714 H   0  0  0  0  0  0
  -26.0976  -25.9864   19.0068 H   0  0  0  0  0  0
  -23.9892  -27.2906   19.0392 H   0  0  0  0  0  0
  -23.7196  -30.5971   19.4060 H   0  0  0  0  0  0
  -22.7383  -29.2386   19.8701 H   0  0  0  0  0  0
  -25.1284  -36.1996   25.0842 H   0  0  0  0  0  0
  -20.9946  -28.3196   24.1455 H   0  0  0  0  0  0
  -20.5664  -26.2259   23.3607 H   0  0  0  0  0  0
  -21.6626  -26.7434   22.1210 H   0  0  0  0  0  0
  -19.6901  -25.6303   21.1236 H   0  0  0  0  0  0
  -19.6674  -27.3201   20.6753 H   0  0  0  0  0  0
  -17.4191  -26.6691   21.4018 H   0  0  0  0  0  0
  -18.0298  -26.0043   22.9010 H   0  0  0  0  0  0
  -19.7925  -30.7224   24.2330 H   0  0  0  0  0  0
  -17.5007  -31.6259   24.5152 H   0  0  0  0  0  0
  -15.5347  -30.2992   23.7592 H   0  0  0  0  0  0
  -15.8677  -28.0807   22.7055 H   0  0  0  0  0  0
  -24.5904  -30.7059   25.7801 H   0  0  0  0  0  0
  -24.8936  -32.2844   26.4954 H   0  0  0  0  0  0
  -25.8078  -30.8831   27.0230 H   0  0  0  0  0  0
  -26.2835  -29.6829   24.1129 H   0  0  0  0  0  0
  -27.4101  -29.7266   25.4501 H   0  0  0  0  0  0
  -27.8655  -30.4401   23.9203 H   0  0  0  0  0  0
  -27.2691  -33.3603   26.2101 H   0  0  0  0  0  0
  -28.3839  -32.6891   25.0300 H   0  0  0  0  0  0
  -28.0759  -31.8425   26.5376 H   0  0  0  0  0  0
  -28.2598  -38.0108   24.7507 H   0  0  0  0  0  0
  -28.1080  -36.2639   24.6298 H   0  0  0  0  0  0
  -27.2304  -37.1472   25.8867 H   0  0  0  0  0  0
  -20.9310  -29.8779   21.7008 H   0  0  0  0  0  0
  -26.0197  -38.2881   24.1394 H   0  0  0  0  0  0
  -30.0782  -20.1350   18.0497 H   0  0  0  0  0  0
  -31.0460  -15.9683   18.2868 H   0  0  0  0  0  0
  -28.9854  -17.8923   21.5727 H   0  0  0  0  0  0
  -32.0609  -18.8512   16.6228 H   0  0  0  0  0  0
  -30.5054  -18.3695   15.9218 H   0  0  0  0  0  0
  -31.6913  -17.1476   16.3740 H   0  0  0  0  0  0
  -32.3985  -23.5309   20.2074 H   0  0  0  0  0  0
  -32.6080  -22.3070   21.4407 H   0  0  0  0  0  0
  -31.5085  -23.6522   21.7155 H   0  0  0  0  0  0
  -31.3319  -19.9607   21.8172 H   0  0  0  0  0  0
  -29.9358  -19.9174   22.8886 H   0  0  0  0  0  0
  -31.0955  -21.2246   23.0152 H   0  0  0  0  0  0
  -28.0143  -20.0931   21.0858 H   0  0  0  0  0  0
  -28.3753  -20.9760   19.6436 H   0  0  0  0  0  0
  -29.8198  -26.1409   21.3781 H   0  0  0  0  0  0
  -28.2238  -26.3941   22.0699 H   0  0  0  0  0  0
  -31.2283  -21.3970   19.6730 H   0  0  0  0  0  0
  -30.1799  -22.7610   19.6252 H   0  0  0  0  0  0
  -28.8264  -22.1072   23.1156 H   0  0  0  0  0  0
  -27.7566  -22.1784   21.7708 H   0  0  0  0  0  0
  -29.0783  -15.3481   21.2395 H   0  0  0  0  0  0
  1 25  1  0  0  0
  1 30  2  0  0  0
  1 86  1  0  0  0
  2  3  1  0  0  0
  2 25  1  0  0  0
  2 89  1  0  0  0
  2 90  1  0  0  0
  3  4  1  0  0  0
  3 91  1  0  0  0
  3 92  1  0  0  0
  4  5  1  0  0  0
  4 93  1  0  0  0
  4 94  1  0  0  0
  5  6  1  0  0  0
  5 26  1  0  0  0
  5 95  1  0  0  0
  6 25  1  0  0  0
  6 96  1  0  0  0
  6 97  1  0  0  0
  7  8  2  0  0  0
  7 26  1  0  0  0
  7 29  1  0  0  0
  8  9  1  0  0  0
  8 22  1  0  0  0
  9 10  1  0  0  0
  9 27  2  0  0  0
 10 11  2  0  0  0
 10 15  1  0  0  0
 11 12  1  0  0  0
 11 98  1  0  0  0
 12 13  2  0  0  0
 12 99  1  0  0  0
 13 14  1  0  0  0
 13 31  1  0  0  0
 14 15  2  0  0  0
 14100  1  0  0  0
 15101  1  0  0  0
 16 17  2  0  0  0
 16 21  1  0  0  0
 16 31  1  0  0  0
 17 18  1  0  0  0
 17102  1  0  0  0
 18 19  2  0  0  0
 18103  1  0  0  0
 19 20  1  0  0  0
 19 24  1  0  0  0
 20 21  2  0  0  0
 20104  1  0  0  0
 21 23  1  0  0  0
 22 28  1  0  0  0
 22 32  2  0  0  0
 26 27  1  0  0  0
 28105  1  0  0  0
 28106  1  0  0  0
 29107  1  0  0  0
 29108  1  0  0  0
 33 34  1  0  0  0
 33 66  1  0  0  0
 33 70  2  0  0  0
 34 36  1  0  0  0
 34 59  1  0  0  0
 34109  1  0  0  0
 35 44  2  0  0  0
 35 45  1  0  0  0
 35 68  1  0  0  0
 36 56  1  0  0  0
 36110  1  0  0  0
 37 39  1  0  0  0
 37 47  1  0  0  0
 37 66  1  0  0  0
 37111  1  0  0  0
 38 43  2  0  0  0
 38 46  1  0  0  0
 38 47  1  0  0  0
 39 64  1  0  0  0
 39 67  2  0  0  0
 40 52  1  0  0  0
 40 53  2  0  0  0
 40 58  1  0  0  0
 41112  1  0  0  0
 41113  1  0  0  0
 41114  1  0  0  0
 41 48  1  0  0  0
 42 43  1  0  0  0
 42 66  1  0  0  0
 42115  1  0  0  0
 42116  1  0  0  0
 43 44  1  0  0  0
 44117  1  0  0  0
 45 46  2  0  0  0
 45118  1  0  0  0
 46119  1  0  0  0
 47120  1  0  0  0
 47121  1  0  0  0
 48 56  1  0  0  0
 48 65  1  0  0  0
 48122  1  0  0  0
 49 50  1  0  0  0
 49 53  1  0  0  0
 49 64  1  0  0  0
 49123  1  0  0  0
 50 51  1  0  0  0
 50124  1  0  0  0
 50125  1  0  0  0
 51 52  1  0  0  0
 51126  1  0  0  0
 51127  1  0  0  0
 52128  1  0  0  0
 52129  1  0  0  0
 53 54  1  0  0  0
 54 55  2  0  0  0
 54130  1  0  0  0
 55 57  1  0  0  0
 55131  1  0  0  0
 56 69  2  0  0  0
 57 58  2  0  0  0
 57132  1  0  0  0
 58133  1  0  0  0
 59 60  1  0  0  0
 59 61  1  0  0  0
 59 62  1  0  0  0
 60134  1  0  0  0
 60135  1  0  0  0
 60136  1  0  0  0
 61137  1  0  0  0
 61138  1  0  0  0
 61139  1  0  0  0
 62140  1  0  0  0
 62141  1  0  0  0
 62142  1  0  0  0
 63 65  1  0  0  0
 63143  1  0  0  0
 63144  1  0  0  0
 63145  1  0  0  0
 64146  1  0  0  0
 65147  1  0  0  0
 68 82  1  0  0  0
 71 74  2  0  0  0
 71 75  1  0  0  0
 71148  1  0  0  0
 72 74  1  0  0  0
 72 76  2  0  0  0
 72149  1  0  0  0
 73 75  2  0  0  0
 73 76  1  0  0  0
 73150  1  0  0  0
 74 78  1  0  0  0
 75 81  1  0  0  0
 76 86  1  0  0  0
 77 82  1  0  0  0
 77 87  2  0  0  0
 77 88  1  0  0  0
 78151  1  0  0  0
 78152  1  0  0  0
 78153  1  0  0  0
 79 83  1  0  0  0
 79154  1  0  0  0
 79155  1  0  0  0
 79156  1  0  0  0
 80157  1  0  0  0
 80158  1  0  0  0
 80159  1  0  0  0
 80 85  1  0  0  0
 81 85  1  0  0  0
 81160  1  0  0  0
 81161  1  0  0  0
 82162  1  0  0  0
 82163  1  0  0  0
 83 85  1  0  0  0
 83164  1  0  0  0
 83165  1  0  0  0
 84 85  1  0  0  0
 84 88  1  0  0  0
 84166  1  0  0  0
 84167  1  0  0  0
 86168  1  0  0  0
M  ISO  4   1 100  68 101  82 101  86 100
M  END
> <chiral flag>
0

> <version>
0

> <s_m_source_file>
/data/baiqing/PycharmProjects/Reinvent-master-3.2/result/LINK_invent/BTK/process_docking_weight1_custom_product_contain_oxygen_bond_distance_aromatic_linkinvent_7_9_3/rearranged_h_0140.sdf

> <i_m_source_file_index>
18

> <r_mmod_Potential_Energy-OPLS-2005>
33.3989753723145

> <r_mmod_Stretch_Energy-OPLS-2005>
38.5133972167969

> <r_mmod_Bend_Energy-OPLS-2005>
103.520065307617

> <r_mmod_Torsional_Energy-OPLS-2005>
280.98681640625

> <r_mmod_Improper_Torsional_Energy-OPLS-2005>
6.62053632736206

> <r_mmod_Van_der_Waal_Energy-OPLS-2005>
157.908966064453

> <r_mmod_Electrostatic_Energy-OPLS-2005>
-362.446166992188

> <r_mmod_Solvation_Energy-OPLS-2005>
-205.434280395508

> <b_mmod_Minimization_Converged-OPLS-2005>
0

> <r_mmod_RMS_Derivative-OPLS-2005>
2.79968643188477

$$$$
18
                    3D
 Structure written by MMmdl.
174182  0  0  1  0            999 V2000
  -30.7525  -14.4199   20.6074 C   0  0  0  0  0  0
  -30.4052  -12.2879   19.4256 C   0  0  0  0  0  0
  -29.4860  -12.5009   18.2083 C   0  0  0  0  0  0
  -28.0108  -12.3601   18.6259 C   0  0  0  0  0  0
  -27.6609  -13.2076   19.8779 C   0  0  2  0  0  0
  -28.6993  -13.0026   21.0048 C   0  0  0  0  0  0
  -25.2584  -13.8164   20.5687 C   0  0  0  0  0  0
  -24.1828  -13.0442   20.9164 C   0  0  0  0  0  0
  -24.6382  -11.6907   20.8734 C   0  0  0  0  0  0
  -23.9054  -10.4290   21.0401 C   0  0  0  0  0  0
  -24.3604   -9.4219   21.9192 C   0  0  0  0  0  0
  -23.6282   -8.2258   22.0774 C   0  0  0  0  0  0
  -22.4275   -8.0279   21.3553 C   0  0  0  0  0  0
  -21.9903   -9.0252   20.4661 C   0  0  0  0  0  0
  -22.7220  -10.2133   20.3061 C   0  0  0  0  0  0
  -21.6854   -6.0734   22.5279 C   0  0  0  0  0  0
  -21.4016   -6.5640   23.8209 C   0  0  0  0  0  0
  -21.3662   -5.6796   24.9173 C   0  0  0  0  0  0
  -21.6041   -4.3058   24.7228 C   0  0  0  0  0  0
  -21.8819   -3.8146   23.4347 C   0  0  0  0  0  0
  -21.9192   -4.6960   22.3400 C   0  0  0  0  0  0
  -22.7857  -13.5246   21.1818 C   0  0  0  0  0  0
  -22.1662   -4.2146   21.0980 F   0  0  0  0  0  0
  -21.5626   -3.4546   25.7743 F   0  0  0  0  0  0
  -30.0343  -13.2773   20.4510 N   0  0  0  0  0  0
  -26.3016  -12.9336   20.3387 N   0  0  0  0  0  0
  -25.9309  -11.6493   20.5788 N   0  0  0  0  0  0
  -22.0500  -12.8241   22.0379 N   0  0  0  0  0  0
  -25.4315  -15.1878   20.4099 N   0  0  0  0  0  0
  -31.8411  -14.5965   20.0545 O   0  0  0  0  0  0
  -21.6642   -6.8874   21.4240 O   0  0  0  0  0  0
  -22.3556  -14.5557   20.6671 O   0  0  0  0  0  0
  -24.6122  -31.8699   23.2133 C   0  0  0  0  0  0
  -25.9032  -32.4835   23.8418 C   0  0  1  0  0  0
  -27.2160  -27.4280   20.0883 C   0  0  0  0  0  0
  -25.5885  -33.8637   24.2340 N   0  0  0  0  0  0
  -23.3993  -30.4972   21.5540 C   0  0  2  0  0  0
  -24.8404  -28.9665   20.1139 C   0  0  0  0  0  0
  -22.7398  -29.4684   22.4999 C   0  0  0  0  0  0
  -18.0277  -28.1375   22.8499 C   0  0  0  0  0  0
  -24.1485  -36.7333   23.2634 C   0  0  0  0  0  0
  -25.9302  -30.8295   21.3721 C   0  0  0  0  0  0
  -26.0022  -29.4672   20.7127 C   0  0  0  0  0  0
  -27.1925  -28.7037   20.6981 C   0  0  0  0  0  0
  -26.0317  -26.9468   19.4800 C   0  0  0  0  0  0
  -24.8491  -27.7055   19.4981 C   0  0  0  0  0  0
  -23.6064  -29.8364   20.1666 C   0  0  0  0  0  0
  -25.4107  -36.3127   24.0328 C   0  0  1  0  0  0
  -20.5863  -28.3666   23.1320 C   0  0  2  0  0  0
  -20.6772  -26.9409   22.5411 C   0  0  0  0  0  0
  -19.5749  -26.6393   21.5207 C   0  0  0  0  0  0
  -18.1931  -26.7924   22.1629 C   0  0  0  0  0  0
  -19.1528  -28.8837   23.2907 C   0  0  0  0  0  0
  -18.9456  -30.1441   23.8920 C   0  0  0  0  0  0
  -17.6458  -30.6592   24.0562 C   0  0  0  0  0  0
  -25.9029  -34.9489   23.5132 C   0  0  0  0  0  0
  -16.5350  -29.9093   23.6326 C   0  0  0  0  0  0
  -16.7261  -28.6505   23.0356 C   0  0  0  0  0  0
  -26.4457  -31.6619   25.0752 C   0  0  0  0  0  0
  -25.3706  -31.3702   26.1486 C   0  0  0  0  0  0
  -27.0300  -30.3060   24.6135 C   0  0  0  0  0  0
  -27.6038  -32.4337   25.7511 C   0  0  0  0  0  0
  -27.5593  -37.1812   24.8458 C   0  0  0  0  0  0
  -21.4133  -29.3036   22.3728 N   0  0  0  0  0  0
  -26.4305  -37.3807   23.9401 N   0  0  0  0  0  0
  -24.6655  -31.0798   22.1040 N   0  0  0  0  0  0
  -23.4175  -28.8228   23.3041 O   0  0  0  0  0  0
  -28.3878  -26.6924   20.1231 O   0  0  0  0  0  0
  -26.5608  -34.8931   22.4706 O   0  0  0  0  0  0
  -23.5320  -32.1476   23.7509 O   0  0  0  0  0  0
  -29.6489  -19.1545   24.2395 C   0  0  0  0  0  0
  -28.9409  -20.0534   23.4224 C   0  0  0  0  0  0
  -29.4010  -18.6475   21.5170 C   0  0  0  0  0  0
  -30.2970  -17.9972   23.7244 C   0  0  0  0  0  0
  -30.1634  -17.7583   22.3152 C   0  0  0  0  0  0
  -28.8319  -19.8223   22.0399 C   0  0  0  0  0  0
  -27.6663  -24.4617   20.9715 C   0  0  0  0  0  0
  -30.8110  -17.3942   26.1882 C   0  0  0  0  0  0
  -32.6466  -17.4783   24.5409 C   0  0  0  0  0  0
  -30.9344  -15.6077   24.5208 C   0  0  0  0  0  0
  -26.0384  -22.6141   21.5428 C   0  0  0  0  0  0
  -27.0706  -22.6347   19.2600 C   0  0  0  0  0  0
  -30.9087  -16.6704   21.5431 C   0  0  0  0  0  0
  -28.3391  -25.2774   19.8372 C   0  0  0  0  0  0
  -28.4905  -22.0834   21.2912 C   0  0  0  0  0  0
  -31.1520  -17.1275   24.7002 C   0  0  0  0  0  0
  -27.3254  -22.9548   20.7515 C   0  0  0  0  0  0
  -30.2051  -15.3996   21.3439 N   0  0  0  0  0  0
  -27.4323  -24.9954   22.0617 O   0  0  0  0  0  0
  -28.1790  -20.6850   21.1858 O   0  0  0  0  0  0
  -31.4530  -12.3577   19.1263 H   0  0  0  0  0  0
  -30.2819  -11.2793   19.8242 H   0  0  0  0  0  0
  -29.7210  -11.7782   17.4258 H   0  0  0  0  0  0
  -29.6573  -13.4889   17.7776 H   0  0  0  0  0  0
  -27.8270  -11.3047   18.8316 H   0  0  0  0  0  0
  -27.3552  -12.6252   17.7955 H   0  0  0  0  0  0
  -27.7052  -14.2532   19.5727 H   0  0  0  0  0  0
  -28.6661  -11.9775   21.3769 H   0  0  0  0  0  0
  -28.4619  -13.6318   21.8630 H   0  0  0  0  0  0
  -25.2745   -9.5705   22.4775 H   0  0  0  0  0  0
  -23.9987   -7.4663   22.7513 H   0  0  0  0  0  0
  -21.0831   -8.8759   19.8976 H   0  0  0  0  0  0
  -22.3665  -10.9669   19.6178 H   0  0  0  0  0  0
  -21.2015   -7.6153   23.9707 H   0  0  0  0  0  0
  -21.1483   -6.0535   25.9074 H   0  0  0  0  0  0
  -22.0594   -2.7610   23.2851 H   0  0  0  0  0  0
  -22.4114  -11.9888   22.4726 H   0  0  0  0  0  0
  -21.1133  -13.1289   22.2608 H   0  0  0  0  0  0
  -24.6683  -15.8456   20.5249 H   0  0  0  0  0  0
  -26.2931  -15.6288   20.1113 H   0  0  0  0  0  0
  -26.7100  -32.5545   23.1183 H   0  0  0  0  0  0
  -24.9984  -33.9793   25.0446 H   0  0  0  0  0  0
  -22.6871  -31.3138   21.4194 H   0  0  0  0  0  0
  -23.3749  -35.9671   23.3302 H   0  0  0  0  0  0
  -24.3560  -36.8961   22.2048 H   0  0  0  0  0  0
  -23.7249  -37.6532   23.6662 H   0  0  0  0  0  0
  -26.0490  -31.5990   20.6072 H   0  0  0  0  0  0
  -26.8147  -30.8749   21.9951 H   0  0  0  0  0  0
  -28.0871  -29.0805   21.1747 H   0  0  0  0  0  0
  -25.9853  -25.9852   18.9920 H   0  0  0  0  0  0
  -23.9517  -27.3160   19.0363 H   0  0  0  0  0  0
  -23.7224  -30.6160   19.4124 H   0  0  0  0  0  0
  -22.7282  -29.2626   19.8680 H   0  0  0  0  0  0
  -25.1290  -36.1995   25.0825 H   0  0  0  0  0  0
  -20.9940  -28.3249   24.1450 H   0  0  0  0  0  0
  -20.5707  -26.2272   23.3593 H   0  0  0  0  0  0
  -21.6641  -26.7488   22.1194 H   0  0  0  0  0  0
  -19.6911  -25.6308   21.1239 H   0  0  0  0  0  0
  -19.6688  -27.3202   20.6739 H   0  0  0  0  0  0
  -17.4196  -26.6669   21.4028 H   0  0  0  0  0  0
  -18.0330  -26.0056   22.9013 H   0  0  0  0  0  0
  -19.7934  -30.7235   24.2315 H   0  0  0  0  0  0
  -17.5030  -31.6278   24.5159 H   0  0  0  0  0  0
  -15.5356  -30.3009   23.7645 H   0  0  0  0  0  0
  -15.8659  -28.0837   22.7067 H   0  0  0  0  0  0
  -24.5954  -30.6952   25.7836 H   0  0  0  0  0  0
  -24.8782  -32.2818   26.4876 H   0  0  0  0  0  0
  -25.8061  -30.8956   27.0289 H   0  0  0  0  0  0
  -26.2857  -29.6804   24.1181 H   0  0  0  0  0  0
  -27.4060  -29.7311   25.4614 H   0  0  0  0  0  0
  -27.8705  -30.4394   23.9314 H   0  0  0  0  0  0
  -27.2697  -33.3666   26.2069 H   0  0  0  0  0  0
  -28.3861  -32.6839   25.0332 H   0  0  0  0  0  0
  -28.0682  -31.8455   26.5437 H   0  0  0  0  0  0
  -28.2605  -38.0117   24.7544 H   0  0  0  0  0  0
  -28.1108  -36.2650   24.6269 H   0  0  0  0  0  0
  -27.2294  -37.1452   25.8855 H   0  0  0  0  0  0
  -20.9289  -29.8767   21.6957 H   0  0  0  0  0  0
  -26.0202  -38.2893   24.1395 H   0  0  0  0  0  0
  -29.6964  -19.4204   25.2824 H   0  0  0  0  0  0
  -28.4847  -20.9198   23.8783 H   0  0  0  0  0  0
  -29.3092  -18.4667   20.4559 H   0  0  0  0  0  0
  -31.0657  -18.4065   26.5027 H   0  0  0  0  0  0
  -31.3768  -16.7398   26.8527 H   0  0  0  0  0  0
  -29.7538  -17.2225   26.3957 H   0  0  0  0  0  0
  -32.8224  -18.5378   24.7331 H   0  0  0  0  0  0
  -33.0391  -17.2705   23.5493 H   0  0  0  0  0  0
  -33.2634  -16.9163   25.2437 H   0  0  0  0  0  0
  -29.8733  -15.3570   24.5016 H   0  0  0  0  0  0
  -31.3803  -15.0421   25.3399 H   0  0  0  0  0  0
  -31.4017  -15.1988   23.6322 H   0  0  0  0  0  0
  -25.2062  -23.2520   21.2410 H   0  0  0  0  0  0
  -26.1761  -22.7397   22.6179 H   0  0  0  0  0  0
  -25.7285  -21.5810   21.3829 H   0  0  0  0  0  0
  -26.2389  -23.2161   18.8575 H   0  0  0  0  0  0
  -26.8186  -21.5820   19.1215 H   0  0  0  0  0  0
  -27.9478  -22.8218   18.6394 H   0  0  0  0  0  0
  -31.8884  -16.4866   21.9712 H   0  0  0  0  0  0
  -31.1385  -17.0761   20.5550 H   0  0  0  0  0  0
  -27.8589  -25.0955   18.8777 H   0  0  0  0  0  0
  -29.3632  -24.9187   19.7326 H   0  0  0  0  0  0
  -28.7262  -22.3878   22.3112 H   0  0  0  0  0  0
  -29.3951  -22.2637   20.7088 H   0  0  0  0  0  0
  -29.3028  -15.2613   21.7731 H   0  0  0  0  0  0
  1 25  1  0  0  0
  1 30  2  0  0  0
  1 88  1  0  0  0
  2  3  1  0  0  0
  2 25  1  0  0  0
  2 91  1  0  0  0
  2 92  1  0  0  0
  3  4  1  0  0  0
  3 93  1  0  0  0
  3 94  1  0  0  0
  4  5  1  0  0  0
  4 95  1  0  0  0
  4 96  1  0  0  0
  5  6  1  0  0  0
  5 26  1  0  0  0
  5 97  1  0  0  0
  6 25  1  0  0  0
  6 98  1  0  0  0
  6 99  1  0  0  0
  7  8  2  0  0  0
  7 26  1  0  0  0
  7 29  1  0  0  0
  8  9  1  0  0  0
  8 22  1  0  0  0
  9 10  1  0  0  0
  9 27  2  0  0  0
 10 11  2  0  0  0
 10 15  1  0  0  0
 11 12  1  0  0  0
 11100  1  0  0  0
 12 13  2  0  0  0
 12101  1  0  0  0
 13 14  1  0  0  0
 13 31  1  0  0  0
 14 15  2  0  0  0
 14102  1  0  0  0
 15103  1  0  0  0
 16 17  2  0  0  0
 16 21  1  0  0  0
 16 31  1  0  0  0
 17 18  1  0  0  0
 17104  1  0  0  0
 18 19  2  0  0  0
 18105  1  0  0  0
 19 20  1  0  0  0
 19 24  1  0  0  0
 20 21  2  0  0  0
 20106  1  0  0  0
 21 23  1  0  0  0
 22 28  1  0  0  0
 22 32  2  0  0  0
 26 27  1  0  0  0
 28107  1  0  0  0
 28108  1  0  0  0
 29109  1  0  0  0
 29110  1  0  0  0
 33 34  1  0  0  0
 33 66  1  0  0  0
 33 70  2  0  0  0
 34 36  1  0  0  0
 34 59  1  0  0  0
 34111  1  0  0  0
 35 44  2  0  0  0
 35 45  1  0  0  0
 35 68  1  0  0  0
 36 56  1  0  0  0
 36112  1  0  0  0
 37 39  1  0  0  0
 37 47  1  0  0  0
 37 66  1  0  0  0
 37113  1  0  0  0
 38 43  2  0  0  0
 38 46  1  0  0  0
 38 47  1  0  0  0
 39 64  1  0  0  0
 39 67  2  0  0  0
 40 52  1  0  0  0
 40 53  2  0  0  0
 40 58  1  0  0  0
 41114  1  0  0  0
 41115  1  0  0  0
 41116  1  0  0  0
 41 48  1  0  0  0
 42 43  1  0  0  0
 42 66  1  0  0  0
 42117  1  0  0  0
 42118  1  0  0  0
 43 44  1  0  0  0
 44119  1  0  0  0
 45 46  2  0  0  0
 45120  1  0  0  0
 46121  1  0  0  0
 47122  1  0  0  0
 47123  1  0  0  0
 48 56  1  0  0  0
 48 65  1  0  0  0
 48124  1  0  0  0
 49 50  1  0  0  0
 49 53  1  0  0  0
 49 64  1  0  0  0
 49125  1  0  0  0
 50 51  1  0  0  0
 50126  1  0  0  0
 50127  1  0  0  0
 51 52  1  0  0  0
 51128  1  0  0  0
 51129  1  0  0  0
 52130  1  0  0  0
 52131  1  0  0  0
 53 54  1  0  0  0
 54 55  2  0  0  0
 54132  1  0  0  0
 55 57  1  0  0  0
 55133  1  0  0  0
 56 69  2  0  0  0
 57 58  2  0  0  0
 57134  1  0  0  0
 58135  1  0  0  0
 59 60  1  0  0  0
 59 61  1  0  0  0
 59 62  1  0  0  0
 60136  1  0  0  0
 60137  1  0  0  0
 60138  1  0  0  0
 61139  1  0  0  0
 61140  1  0  0  0
 61141  1  0  0  0
 62142  1  0  0  0
 62143  1  0  0  0
 62144  1  0  0  0
 63 65  1  0  0  0
 63145  1  0  0  0
 63146  1  0  0  0
 63147  1  0  0  0
 64148  1  0  0  0
 65149  1  0  0  0
 68 84  1  0  0  0
 71 72  2  0  0  0
 71 74  1  0  0  0
 71150  1  0  0  0
 72 76  1  0  0  0
 72151  1  0  0  0
 73 75  1  0  0  0
 73 76  2  0  0  0
 73152  1  0  0  0
 74 75  2  0  0  0
 74 86  1  0  0  0
 75 83  1  0  0  0
 76 90  1  0  0  0
 77 84  1  0  0  0
 77 87  1  0  0  0
 77 89  2  0  0  0
 78153  1  0  0  0
 78154  1  0  0  0
 78155  1  0  0  0
 78 86  1  0  0  0
 79 86  1  0  0  0
 79156  1  0  0  0
 79157  1  0  0  0
 79158  1  0  0  0
 80 86  1  0  0  0
 80159  1  0  0  0
 80160  1  0  0  0
 80161  1  0  0  0
 81162  1  0  0  0
 81163  1  0  0  0
 81164  1  0  0  0
 81 87  1  0  0  0
 82 87  1  0  0  0
 82165  1  0  0  0
 82166  1  0  0  0
 82167  1  0  0  0
 83 88  1  0  0  0
 83168  1  0  0  0
 83169  1  0  0  0
 84170  1  0  0  0
 84171  1  0  0  0
 85 87  1  0  0  0
 85 90  1  0  0  0
 85172  1  0  0  0
 85173  1  0  0  0
 88174  1  0  0  0
M  ISO  4   1 100  68 101  84 101  88 100
M  END
> <chiral flag>
0

> <version>
0

> <s_m_source_file>
/data/baiqing/PycharmProjects/Reinvent-master-3.2/result/LINK_invent/BTK/process_docking_weight1_custom_product_contain_oxygen_bond_distance_aromatic_linkinvent_7_9_3/rearranged_h_0140.sdf

> <i_m_source_file_index>
19

> <r_mmod_Potential_Energy-OPLS-2005>
-35.2435264587402

> <r_mmod_Stretch_Energy-OPLS-2005>
46.8564147949219

> <r_mmod_Bend_Energy-OPLS-2005>
126.160552978516

> <r_mmod_Torsional_Energy-OPLS-2005>
232.394073486328

> <r_mmod_Improper_Torsional_Energy-OPLS-2005>
2.62761187553406

> <r_mmod_Van_der_Waal_Energy-OPLS-2005>
182.022674560547

> <r_mmod_Electrostatic_Energy-OPLS-2005>
-429.206848144531

> <r_mmod_Solvation_Energy-OPLS-2005>
-208.375305175781

> <b_mmod_Minimization_Converged-OPLS-2005>
0

> <r_mmod_RMS_Derivative-OPLS-2005>
2.06419467926025

$$$$
19
                    3D
 Structure written by MMmdl.
174182  0  0  1  0            999 V2000
  -30.6331  -14.6891   20.4778 C   0  0  0  0  0  0
  -30.4341  -12.4259   19.4362 C   0  0  0  0  0  0
  -29.5008  -12.5149   18.2105 C   0  0  0  0  0  0
  -28.0312  -12.3340   18.6366 C   0  0  0  0  0  0
  -27.6492  -13.2197   19.8547 C   0  0  2  0  0  0
  -28.7039  -13.1272   20.9803 C   0  0  0  0  0  0
  -25.2584  -13.8165   20.5756 C   0  0  0  0  0  0
  -24.1839  -13.0415   20.9196 C   0  0  0  0  0  0
  -24.6409  -11.6889   20.8727 C   0  0  0  0  0  0
  -23.9068  -10.4281   21.0387 C   0  0  0  0  0  0
  -24.3614   -9.4214   21.9183 C   0  0  0  0  0  0
  -23.6295   -8.2252   22.0755 C   0  0  0  0  0  0
  -22.4287   -8.0275   21.3535 C   0  0  0  0  0  0
  -21.9920   -9.0246   20.4633 C   0  0  0  0  0  0
  -22.7238  -10.2128   20.3051 C   0  0  0  0  0  0
  -21.6866   -6.0742   22.5277 C   0  0  0  0  0  0
  -21.4021   -6.5646   23.8212 C   0  0  0  0  0  0
  -21.3670   -5.6801   24.9169 C   0  0  0  0  0  0
  -21.6046   -4.3063   24.7231 C   0  0  0  0  0  0
  -21.8816   -3.8158   23.4354 C   0  0  0  0  0  0
  -21.9196   -4.6964   22.3401 C   0  0  0  0  0  0
  -22.7870  -13.5228   21.1855 C   0  0  0  0  0  0
  -22.1663   -4.2160   21.0981 F   0  0  0  0  0  0
  -21.5634   -3.4549   25.7740 F   0  0  0  0  0  0
  -30.0038  -13.4724   20.3862 N   0  0  0  0  0  0
  -26.3002  -12.9346   20.3330 N   0  0  0  0  0  0
  -25.9349  -11.6491   20.5739 N   0  0  0  0  0  0
  -22.0504  -12.8198   22.0378 N   0  0  0  0  0  0
  -25.4271  -15.1905   20.4305 N   0  0  0  0  0  0
  -31.8281  -14.8058   20.1888 O   0  0  0  0  0  0
  -21.6649   -6.8885   21.4237 O   0  0  0  0  0  0
  -22.3571  -14.5559   20.6723 O   0  0  0  0  0  0
  -24.6327  -31.8540   23.1933 C   0  0  0  0  0  0
  -25.9175  -32.4738   23.8301 C   0  0  1  0  0  0
  -27.2329  -27.2716   20.1065 C   0  0  0  0  0  0
  -25.5957  -33.8542   24.2187 N   0  0  0  0  0  0
  -23.4262  -30.4801   21.5355 C   0  0  2  0  0  0
  -24.8819  -28.9262   20.0985 C   0  0  0  0  0  0
  -22.7517  -29.4588   22.4848 C   0  0  0  0  0  0
  -18.0292  -28.1406   22.8413 C   0  0  0  0  0  0
  -24.1487  -36.7285   23.2637 C   0  0  0  0  0  0
  -25.9726  -30.7671   21.3759 C   0  0  0  0  0  0
  -26.0468  -29.3891   20.7160 C   0  0  0  0  0  0
  -27.2225  -28.5715   20.7174 C   0  0  0  0  0  0
  -26.0489  -26.8743   19.4533 C   0  0  0  0  0  0
  -24.8851  -27.6745   19.4562 C   0  0  0  0  0  0
  -23.6481  -29.8148   20.1492 C   0  0  0  0  0  0
  -25.4114  -36.3037   24.0295 C   0  0  1  0  0  0
  -20.5893  -28.3710   23.1245 C   0  0  2  0  0  0
  -20.6780  -26.9409   22.5408 C   0  0  0  0  0  0
  -19.5780  -26.6354   21.5183 C   0  0  0  0  0  0
  -18.1941  -26.7942   22.1552 C   0  0  0  0  0  0
  -19.1540  -28.8859   23.2826 C   0  0  0  0  0  0
  -18.9503  -30.1449   23.8872 C   0  0  0  0  0  0
  -17.6517  -30.6588   24.0561 C   0  0  0  0  0  0
  -25.9075  -34.9434   23.5029 C   0  0  0  0  0  0
  -16.5399  -29.9096   23.6352 C   0  0  0  0  0  0
  -16.7288  -28.6522   23.0308 C   0  0  0  0  0  0
  -26.4507  -31.6605   25.0728 C   0  0  0  0  0  0
  -25.3657  -31.3767   26.1386 C   0  0  0  0  0  0
  -27.0381  -30.3040   24.6271 C   0  0  0  0  0  0
  -27.6076  -32.4373   25.7501 C   0  0  0  0  0  0
  -27.5555  -37.1788   24.8455 C   0  0  0  0  0  0
  -21.4227  -29.3072   22.3653 N   0  0  0  0  0  0
  -26.4264  -37.3753   23.9407 N   0  0  0  0  0  0
  -24.6955  -31.0506   22.0897 N   0  0  0  0  0  0
  -23.4237  -28.8110   23.2917 O   0  0  0  0  0  0
  -28.3352  -26.3921   20.2245 O   0  0  0  0  0  0
  -26.5642  -34.8910   22.4599 O   0  0  0  0  0  0
  -23.5478  -32.1360   23.7233 O   0  0  0  0  0  0
  -30.1219  -19.7995   22.2568 C   0  0  0  0  0  0
  -29.6579  -18.3550   20.3836 C   0  0  0  0  0  0
  -29.6767  -19.7036   20.9221 C   0  0  0  0  0  0
  -30.4427  -18.6632   23.0336 C   0  0  0  0  0  0
  -30.4653  -17.3567   22.4697 C   0  0  0  0  0  0
  -30.0592  -17.1668   21.1189 C   0  0  0  0  0  0
  -30.8452  -16.1541   23.3370 C   0  0  0  0  0  0
  -32.2837  -19.4763   26.3837 C   0  0  0  0  0  0
  -29.0065  -22.8809   22.0038 C   0  0  0  0  0  0
  -28.1227  -22.9746   18.2132 C   0  0  0  0  0  0
  -26.7402  -23.4716   20.2086 C   0  0  0  0  0  0
  -29.1487  -20.9752   20.0964 C   0  0  0  0  0  0
  -30.6478  -18.9016   24.5256 C   0  0  0  0  0  0
  -32.1143  -19.1309   24.8992 C   0  0  0  0  0  0
  -28.5535  -25.1699   19.3886 C   0  0  0  0  0  0
  -29.1585  -22.5818   20.4953 C   0  0  1  0  0  0
  -28.1735  -23.5844   19.6465 C   0  0  0  0  0  0
  -29.8193  -15.7974   20.6186 N   0  0  0  0  0  0
  -31.4753  -12.5440   19.1335 H   0  0  0  0  0  0
  -30.3633  -11.4394   19.8966 H   0  0  0  0  0  0
  -29.7728  -11.7578   17.4735 H   0  0  0  0  0  0
  -29.6282  -13.4795   17.7167 H   0  0  0  0  0  0
  -27.8940  -11.2825   18.8878 H   0  0  0  0  0  0
  -27.3660  -12.5371   17.7964 H   0  0  0  0  0  0
  -27.6503  -14.2452   19.4882 H   0  0  0  0  0  0
  -28.7356  -12.1251   21.4121 H   0  0  0  0  0  0
  -28.4567  -13.8038   21.8006 H   0  0  0  0  0  0
  -25.2761   -9.5725   22.4743 H   0  0  0  0  0  0
  -24.0023   -7.4677   22.7497 H   0  0  0  0  0  0
  -21.0858   -8.8758   19.8938 H   0  0  0  0  0  0
  -22.3696  -10.9663   19.6163 H   0  0  0  0  0  0
  -21.2006   -7.6147   23.9720 H   0  0  0  0  0  0
  -21.1500   -6.0525   25.9075 H   0  0  0  0  0  0
  -22.0586   -2.7617   23.2852 H   0  0  0  0  0  0
  -22.4135  -11.9842   22.4736 H   0  0  0  0  0  0
  -21.1109  -13.1195   22.2559 H   0  0  0  0  0  0
  -24.6609  -15.8373   20.5837 H   0  0  0  0  0  0
  -26.2841  -15.6554   20.1594 H   0  0  0  0  0  0
  -26.7239  -32.5433   23.1056 H   0  0  0  0  0  0
  -25.0190  -33.9674   25.0393 H   0  0  0  0  0  0
  -22.7173  -31.3003   21.3909 H   0  0  0  0  0  0
  -23.3740  -35.9626   23.3287 H   0  0  0  0  0  0
  -24.3530  -36.8935   22.2039 H   0  0  0  0  0  0
  -23.7271  -37.6487   23.6710 H   0  0  0  0  0  0
  -26.1034  -31.5261   20.6038 H   0  0  0  0  0  0
  -26.8481  -30.8287   22.0071 H   0  0  0  0  0  0
  -28.1153  -28.9179   21.2190 H   0  0  0  0  0  0
  -25.9912  -25.9172   18.9608 H   0  0  0  0  0  0
  -23.9958  -27.3229   18.9538 H   0  0  0  0  0  0
  -23.7760  -30.5955   19.3982 H   0  0  0  0  0  0
  -22.7655  -29.2589   19.8340 H   0  0  0  0  0  0
  -25.1283  -36.1845   25.0777 H   0  0  0  0  0  0
  -20.9982  -28.3312   24.1362 H   0  0  0  0  0  0
  -20.5619  -26.2331   23.3617 H   0  0  0  0  0  0
  -21.6674  -26.7386   22.1242 H   0  0  0  0  0  0
  -19.6934  -25.6220   21.1282 H   0  0  0  0  0  0
  -19.6765  -27.3112   20.6652 H   0  0  0  0  0  0
  -17.4218  -26.6695   21.3939 H   0  0  0  0  0  0
  -18.0349  -26.0069   22.8932 H   0  0  0  0  0  0
  -19.7965  -30.7270   24.2237 H   0  0  0  0  0  0
  -17.5062  -31.6268   24.5175 H   0  0  0  0  0  0
  -15.5396  -30.3017   23.7646 H   0  0  0  0  0  0
  -15.8672  -28.0878   22.6981 H   0  0  0  0  0  0
  -24.6035  -30.6856   25.7767 H   0  0  0  0  0  0
  -24.8573  -32.2893   26.4547 H   0  0  0  0  0  0
  -25.7912  -30.9232   27.0341 H   0  0  0  0  0  0
  -26.2974  -29.6802   24.1266 H   0  0  0  0  0  0
  -27.4040  -29.7317   25.4810 H   0  0  0  0  0  0
  -27.8843  -30.4320   23.9498 H   0  0  0  0  0  0
  -27.2761  -33.3815   26.1840 H   0  0  0  0  0  0
  -28.4004  -32.6700   25.0373 H   0  0  0  0  0  0
  -28.0612  -31.8641   26.5594 H   0  0  0  0  0  0
  -28.2542  -38.0107   24.7515 H   0  0  0  0  0  0
  -28.1049  -36.2635   24.6249 H   0  0  0  0  0  0
  -27.2262  -37.1423   25.8850 H   0  0  0  0  0  0
  -20.9429  -29.8907   21.6946 H   0  0  0  0  0  0
  -26.0113  -38.2799   24.1488 H   0  0  0  0  0  0
  -30.1790  -20.7496   22.7491 H   0  0  0  0  0  0
  -29.2997  -18.2192   19.3737 H   0  0  0  0  0  0
  -31.3445  -16.4237   24.2641 H   0  0  0  0  0  0
  -31.5552  -15.5048   22.8287 H   0  0  0  0  0  0
  -29.9634  -15.5668   23.5959 H   0  0  0  0  0  0
  -33.3382  -19.4967   26.6582 H   0  0  0  0  0  0
  -31.7927  -18.7417   27.0225 H   0  0  0  0  0  0
  -31.8570  -20.4529   26.6193 H   0  0  0  0  0  0
  -29.9408  -22.7456   22.5435 H   0  0  0  0  0  0
  -28.2300  -22.2632   22.4585 H   0  0  0  0  0  0
  -28.7385  -23.9226   22.1831 H   0  0  0  0  0  0
  -27.6431  -23.6226   17.4793 H   0  0  0  0  0  0
  -27.5579  -22.0427   18.1731 H   0  0  0  0  0  0
  -29.1199  -22.7730   17.8256 H   0  0  0  0  0  0
  -25.9917  -23.8341   19.5073 H   0  0  0  0  0  0
  -26.6155  -24.0372   21.1309 H   0  0  0  0  0  0
  -26.4847  -22.4305   20.4228 H   0  0  0  0  0  0
  -28.1101  -20.7122   19.8909 H   0  0  0  0  0  0
  -29.6482  -20.8968   19.1306 H   0  0  0  0  0  0
  -30.2196  -18.0806   25.1012 H   0  0  0  0  0  0
  -30.0562  -19.7676   24.8249 H   0  0  0  0  0  0
  -32.6959  -18.2392   24.6580 H   0  0  0  0  0  0
  -32.5203  -19.9406   24.2912 H   0  0  0  0  0  0
  -28.1338  -25.4540   18.4247 H   0  0  0  0  0  0
  -29.6274  -25.1713   19.1933 H   0  0  0  0  0  0
  -30.1688  -22.9165   20.2557 H   0  0  0  0  0  0
  -28.8436  -15.5754   20.5126 H   0  0  0  0  0  0
  1 25  1  0  0  0
  1 30  2  0  0  0
  1 88  1  0  0  0
  2  3  1  0  0  0
  2 25  1  0  0  0
  2 89  1  0  0  0
  2 90  1  0  0  0
  3  4  1  0  0  0
  3 91  1  0  0  0
  3 92  1  0  0  0
  4  5  1  0  0  0
  4 93  1  0  0  0
  4 94  1  0  0  0
  5  6  1  0  0  0
  5 26  1  0  0  0
  5 95  1  0  0  0
  6 25  1  0  0  0
  6 96  1  0  0  0
  6 97  1  0  0  0
  7  8  2  0  0  0
  7 26  1  0  0  0
  7 29  1  0  0  0
  8  9  1  0  0  0
  8 22  1  0  0  0
  9 10  1  0  0  0
  9 27  2  0  0  0
 10 11  2  0  0  0
 10 15  1  0  0  0
 11 12  1  0  0  0
 11 98  1  0  0  0
 12 13  2  0  0  0
 12 99  1  0  0  0
 13 14  1  0  0  0
 13 31  1  0  0  0
 14 15  2  0  0  0
 14100  1  0  0  0
 15101  1  0  0  0
 16 17  2  0  0  0
 16 21  1  0  0  0
 16 31  1  0  0  0
 17 18  1  0  0  0
 17102  1  0  0  0
 18 19  2  0  0  0
 18103  1  0  0  0
 19 20  1  0  0  0
 19 24  1  0  0  0
 20 21  2  0  0  0
 20104  1  0  0  0
 21 23  1  0  0  0
 22 28  1  0  0  0
 22 32  2  0  0  0
 26 27  1  0  0  0
 28105  1  0  0  0
 28106  1  0  0  0
 29107  1  0  0  0
 29108  1  0  0  0
 33 34  1  0  0  0
 33 66  1  0  0  0
 33 70  2  0  0  0
 34 36  1  0  0  0
 34 59  1  0  0  0
 34109  1  0  0  0
 35 44  2  0  0  0
 35 45  1  0  0  0
 35 68  1  0  0  0
 36 56  1  0  0  0
 36110  1  0  0  0
 37 39  1  0  0  0
 37 47  1  0  0  0
 37 66  1  0  0  0
 37111  1  0  0  0
 38 43  2  0  0  0
 38 46  1  0  0  0
 38 47  1  0  0  0
 39 64  1  0  0  0
 39 67  2  0  0  0
 40 52  1  0  0  0
 40 53  2  0  0  0
 40 58  1  0  0  0
 41112  1  0  0  0
 41113  1  0  0  0
 41114  1  0  0  0
 41 48  1  0  0  0
 42 43  1  0  0  0
 42 66  1  0  0  0
 42115  1  0  0  0
 42116  1  0  0  0
 43 44  1  0  0  0
 44117  1  0  0  0
 45 46  2  0  0  0
 45118  1  0  0  0
 46119  1  0  0  0
 47120  1  0  0  0
 47121  1  0  0  0
 48 56  1  0  0  0
 48 65  1  0  0  0
 48122  1  0  0  0
 49 50  1  0  0  0
 49 53  1  0  0  0
 49 64  1  0  0  0
 49123  1  0  0  0
 50 51  1  0  0  0
 50124  1  0  0  0
 50125  1  0  0  0
 51 52  1  0  0  0
 51126  1  0  0  0
 51127  1  0  0  0
 52128  1  0  0  0
 52129  1  0  0  0
 53 54  1  0  0  0
 54 55  2  0  0  0
 54130  1  0  0  0
 55 57  1  0  0  0
 55131  1  0  0  0
 56 69  2  0  0  0
 57 58  2  0  0  0
 57132  1  0  0  0
 58133  1  0  0  0
 59 60  1  0  0  0
 59 61  1  0  0  0
 59 62  1  0  0  0
 60134  1  0  0  0
 60135  1  0  0  0
 60136  1  0  0  0
 61137  1  0  0  0
 61138  1  0  0  0
 61139  1  0  0  0
 62140  1  0  0  0
 62141  1  0  0  0
 62142  1  0  0  0
 63 65  1  0  0  0
 63143  1  0  0  0
 63144  1  0  0  0
 63145  1  0  0  0
 64146  1  0  0  0
 65147  1  0  0  0
 68 85  1  0  0  0
 71 73  2  0  0  0
 71 74  1  0  0  0
 71148  1  0  0  0
 72 73  1  0  0  0
 72 76  2  0  0  0
 72149  1  0  0  0
 73 82  1  0  0  0
 74 75  2  0  0  0
 74 83  1  0  0  0
 75 76  1  0  0  0
 75 77  1  0  0  0
 76 88  1  0  0  0
 77150  1  0  0  0
 77151  1  0  0  0
 77152  1  0  0  0
 78 84  1  0  0  0
 78153  1  0  0  0
 78154  1  0  0  0
 78155  1  0  0  0
 79156  1  0  0  0
 79157  1  0  0  0
 79158  1  0  0  0
 79 86  1  0  0  0
 80159  1  0  0  0
 80160  1  0  0  0
 80161  1  0  0  0
 80 87  1  0  0  0
 81 87  1  0  0  0
 81162  1  0  0  0
 81163  1  0  0  0
 81164  1  0  0  0
 82 86  1  0  0  0
 82165  1  0  0  0
 82166  1  0  0  0
 83 84  1  0  0  0
 83167  1  0  0  0
 83168  1  0  0  0
 84169  1  0  0  0
 84170  1  0  0  0
 85 87  1  0  0  0
 85171  1  0  0  0
 85172  1  0  0  0
 86 87  1  0  0  0
 86173  1  0  0  0
 88174  1  0  0  0
M  ISO  4   1 100  68 101  85 101  88 100
M  END
> <chiral flag>
0

> <version>
0

> <s_m_source_file>
/data/baiqing/PycharmProjects/Reinvent-master-3.2/result/LINK_invent/BTK/process_docking_weight1_custom_product_contain_oxygen_bond_distance_aromatic_linkinvent_7_9_3/rearranged_h_0140.sdf

> <i_m_source_file_index>
20

> <r_mmod_Potential_Energy-OPLS-2005>
303.545257568359

> <r_mmod_Stretch_Energy-OPLS-2005>
142.179718017578

> <r_mmod_Bend_Energy-OPLS-2005>
232.513168334961

> <r_mmod_Torsional_Energy-OPLS-2005>
272.034729003906

> <r_mmod_Improper_Torsional_Energy-OPLS-2005>
8.96015930175781

> <r_mmod_Van_der_Waal_Energy-OPLS-2005>
153.366775512695

> <r_mmod_Electrostatic_Energy-OPLS-2005>
-387.047180175781

> <r_mmod_Solvation_Energy-OPLS-2005>
-192.036285400391

> <b_mmod_Minimization_Converged-OPLS-2005>
0

> <r_mmod_RMS_Derivative-OPLS-2005>
5.33180618286133

$$$$
20
                    3D
 Structure written by MMmdl.
177185  0  0  1  0            999 V2000
  -30.8038  -14.4263   20.5250 C   0  0  0  0  0  0
  -30.3920  -12.2693   19.4358 C   0  0  0  0  0  0
  -29.4862  -12.4846   18.2111 C   0  0  0  0  0  0
  -28.0088  -12.3765   18.6244 C   0  0  0  0  0  0
  -27.6596  -13.2296   19.8742 C   0  0  2  0  0  0
  -28.7094  -13.0658   20.9990 C   0  0  0  0  0  0
  -25.2581  -13.8247   20.5747 C   0  0  0  0  0  0
  -24.1845  -13.0469   20.9236 C   0  0  0  0  0  0
  -24.6427  -11.6947   20.8762 C   0  0  0  0  0  0
  -23.9095  -10.4310   21.0397 C   0  0  0  0  0  0
  -24.3627   -9.4224   21.9181 C   0  0  0  0  0  0
  -23.6312   -8.2258   22.0745 C   0  0  0  0  0  0
  -22.4300   -8.0281   21.3542 C   0  0  0  0  0  0
  -21.9934   -9.0260   20.4640 C   0  0  0  0  0  0
  -22.7261  -10.2136   20.3062 C   0  0  0  0  0  0
  -21.6859   -6.0736   22.5279 C   0  0  0  0  0  0
  -21.3989   -6.5635   23.8193 C   0  0  0  0  0  0
  -21.3673   -5.6789   24.9165 C   0  0  0  0  0  0
  -21.6070   -4.3059   24.7224 C   0  0  0  0  0  0
  -21.8821   -3.8150   23.4339 C   0  0  0  0  0  0
  -21.9191   -4.6968   22.3389 C   0  0  0  0  0  0
  -22.7862  -13.5237   21.1893 C   0  0  0  0  0  0
  -22.1667   -4.2155   21.0970 F   0  0  0  0  0  0
  -21.5650   -3.4547   25.7753 F   0  0  0  0  0  0
  -30.0443  -13.3021   20.4257 N   0  0  0  0  0  0
  -26.3036  -12.9446   20.3429 N   0  0  0  0  0  0
  -25.9366  -11.6565   20.5799 N   0  0  0  0  0  0
  -22.0483  -12.8194   22.0406 N   0  0  0  0  0  0
  -25.4289  -15.1978   20.4186 N   0  0  0  0  0  0
  -31.9435  -14.4514   20.0658 O   0  0  0  0  0  0
  -21.6655   -6.8891   21.4246 O   0  0  0  0  0  0
  -22.3536  -14.5538   20.6757 O   0  0  0  0  0  0
  -24.6101  -31.8742   23.2120 C   0  0  0  0  0  0
  -25.9032  -32.4848   23.8405 C   0  0  1  0  0  0
  -27.2335  -27.4942   20.0886 C   0  0  0  0  0  0
  -25.5928  -33.8643   24.2354 N   0  0  0  0  0  0
  -23.3934  -30.4967   21.5494 C   0  0  2  0  0  0
  -24.8412  -28.9747   20.1093 C   0  0  0  0  0  0
  -22.7376  -29.4692   22.5000 C   0  0  0  0  0  0
  -18.0278  -28.1368   22.8509 C   0  0  0  0  0  0
  -24.1480  -36.7301   23.2617 C   0  0  0  0  0  0
  -25.9136  -30.8602   21.3563 C   0  0  0  0  0  0
  -25.9934  -29.4962   20.7120 C   0  0  0  0  0  0
  -27.1937  -28.7608   20.7062 C   0  0  0  0  0  0
  -26.0711  -26.9704   19.4899 C   0  0  0  0  0  0
  -24.8711  -27.7081   19.4959 C   0  0  0  0  0  0
  -23.5975  -29.8306   20.1618 C   0  0  0  0  0  0
  -25.4093  -36.3120   24.0360 C   0  0  1  0  0  0
  -20.5858  -28.3649   23.1345 C   0  0  2  0  0  0
  -20.6748  -26.9385   22.5433 C   0  0  0  0  0  0
  -19.5719  -26.6370   21.5222 C   0  0  0  0  0  0
  -18.1892  -26.7928   22.1623 C   0  0  0  0  0  0
  -19.1522  -28.8824   23.2923 C   0  0  0  0  0  0
  -18.9442  -30.1421   23.8936 C   0  0  0  0  0  0
  -17.6450  -30.6573   24.0572 C   0  0  0  0  0  0
  -25.9064  -34.9498   23.5161 C   0  0  0  0  0  0
  -16.5348  -29.9088   23.6329 C   0  0  0  0  0  0
  -16.7266  -28.6497   23.0366 C   0  0  0  0  0  0
  -26.4483  -31.6612   25.0722 C   0  0  0  0  0  0
  -25.3752  -31.3758   26.1471 C   0  0  0  0  0  0
  -27.0226  -30.3026   24.6072 C   0  0  0  0  0  0
  -27.6107  -32.4283   25.7466 C   0  0  0  0  0  0
  -27.5652  -37.1706   24.8394 C   0  0  0  0  0  0
  -21.4106  -29.3038   22.3757 N   0  0  0  0  0  0
  -26.4243  -37.3841   23.9531 N   0  0  0  0  0  0
  -24.6561  -31.0910   22.0981 N   0  0  0  0  0  0
  -23.4164  -28.8231   23.3013 O   0  0  0  0  0  0
  -28.3834  -26.7561   20.0190 O   0  0  0  0  0  0
  -26.5600  -34.8961   22.4703 O   0  0  0  0  0  0
  -23.5311  -32.1464   23.7566 O   0  0  0  0  0  0
  -32.4323  -18.5947   20.4249 C   0  0  0  0  0  0
  -31.6617  -19.5947   21.0241 C   0  0  0  0  0  0
  -31.9714  -17.2701   20.4158 C   0  0  0  0  0  0
  -30.4176  -19.2816   21.6011 C   0  0  0  0  0  0
  -29.9250  -17.9403   21.5562 C   0  0  0  0  0  0
  -30.7170  -16.9034   20.9838 C   0  0  0  0  0  0
  -28.5614  -17.5955   22.1456 C   0  0  0  0  0  0
  -29.1243  -23.9840   19.1058 C   0  0  0  0  0  0
  -27.8752  -22.0586   22.4946 C   0  0  0  0  0  0
  -28.2705  -20.9055   20.3038 C   0  0  0  0  0  0
  -30.5428  -25.1805   22.6335 C   0  0  0  0  0  0
  -31.2022  -25.7585   20.2823 C   0  0  0  0  0  0
  -29.7259  -20.4143   22.3638 C   0  0  0  0  0  0
  -29.9456  -22.6600   21.1216 C   0  0  0  0  0  0
  -29.0082  -26.5101   21.2638 C   0  0  0  0  0  0
  -29.3153  -24.0196   20.6471 C   0  0  1  0  0  0
  -28.9631  -21.5098   21.5429 C   0  0  0  0  0  0
  -30.0206  -25.3346   21.1800 C   0  0  0  0  0  0
  -30.2263  -15.5414   21.0134 N   0  0  0  0  0  0
  -31.4405  -12.2879   19.1352 H   0  0  0  0  0  0
  -30.2330  -11.2798   19.8645 H   0  0  0  0  0  0
  -29.7114  -11.7440   17.4428 H   0  0  0  0  0  0
  -29.6830  -13.4597   17.7621 H   0  0  0  0  0  0
  -27.8059  -11.3254   18.8265 H   0  0  0  0  0  0
  -27.3648  -12.6568   17.7906 H   0  0  0  0  0  0
  -27.6885  -14.2725   19.5573 H   0  0  0  0  0  0
  -28.6640  -12.0612   21.4210 H   0  0  0  0  0  0
  -28.4997  -13.7497   21.8234 H   0  0  0  0  0  0
  -25.2757   -9.5712   22.4778 H   0  0  0  0  0  0
  -24.0029   -7.4644   22.7460 H   0  0  0  0  0  0
  -21.0865   -8.8789   19.8936 H   0  0  0  0  0  0
  -22.3729  -10.9685   19.6185 H   0  0  0  0  0  0
  -21.1933   -7.6126   23.9703 H   0  0  0  0  0  0
  -21.1524   -6.0518   25.9069 H   0  0  0  0  0  0
  -22.0591   -2.7614   23.2855 H   0  0  0  0  0  0
  -22.4076  -11.9855   22.4787 H   0  0  0  0  0  0
  -21.1088  -13.1219   22.2587 H   0  0  0  0  0  0
  -24.6701  -15.8602   20.5385 H   0  0  0  0  0  0
  -26.2818  -15.6334   20.0906 H   0  0  0  0  0  0
  -26.7136  -32.5621   23.1206 H   0  0  0  0  0  0
  -25.0096  -33.9789   25.0513 H   0  0  0  0  0  0
  -22.6788  -31.3113   21.4125 H   0  0  0  0  0  0
  -23.3873  -35.9483   23.2967 H   0  0  0  0  0  0
  -24.3676  -36.9225   22.2104 H   0  0  0  0  0  0
  -23.6998  -37.6321   23.6805 H   0  0  0  0  0  0
  -26.0197  -31.6282   20.5888 H   0  0  0  0  0  0
  -26.8034  -30.9179   21.9691 H   0  0  0  0  0  0
  -28.0856  -29.1774   21.1536 H   0  0  0  0  0  0
  -26.0929  -25.9920   19.0302 H   0  0  0  0  0  0
  -23.9855  -27.3027   19.0249 H   0  0  0  0  0  0
  -23.6848  -30.6021   19.3949 H   0  0  0  0  0  0
  -22.7269  -29.2375   19.8773 H   0  0  0  0  0  0
  -25.1211  -36.1967   25.0839 H   0  0  0  0  0  0
  -20.9969  -28.3197   24.1451 H   0  0  0  0  0  0
  -20.5670  -26.2238   23.3610 H   0  0  0  0  0  0
  -21.6625  -26.7403   22.1223 H   0  0  0  0  0  0
  -19.6871  -25.6285   21.1226 H   0  0  0  0  0  0
  -19.6676  -27.3209   20.6778 H   0  0  0  0  0  0
  -17.4185  -26.6741   21.3993 H   0  0  0  0  0  0
  -18.0235  -26.0042   22.8974 H   0  0  0  0  0  0
  -19.7902  -30.7223   24.2353 H   0  0  0  0  0  0
  -17.4992  -31.6266   24.5139 H   0  0  0  0  0  0
  -15.5353  -30.3002   23.7607 H   0  0  0  0  0  0
  -15.8669  -28.0827   22.7085 H   0  0  0  0  0  0
  -24.5859  -30.7204   25.7775 H   0  0  0  0  0  0
  -24.9057  -32.2952   26.4984 H   0  0  0  0  0  0
  -25.8073  -30.8813   27.0175 H   0  0  0  0  0  0
  -26.2691  -29.6839   24.1180 H   0  0  0  0  0  0
  -27.3997  -29.7252   25.4522 H   0  0  0  0  0  0
  -27.8561  -30.4278   23.9159 H   0  0  0  0  0  0
  -27.2811  -33.3629   26.2010 H   0  0  0  0  0  0
  -28.3960  -32.6739   25.0305 H   0  0  0  0  0  0
  -28.0709  -31.8398   26.5405 H   0  0  0  0  0  0
  -28.2359  -38.0293   24.7977 H   0  0  0  0  0  0
  -28.1449  -36.2910   24.5536 H   0  0  0  0  0  0
  -27.2486  -37.0558   25.8773 H   0  0  0  0  0  0
  -20.9245  -29.8781   21.7020 H   0  0  0  0  0  0
  -26.0123  -38.2845   24.1831 H   0  0  0  0  0  0
  -33.3949  -18.8340   19.9951 H   0  0  0  0  0  0
  -32.0432  -20.6054   21.0706 H   0  0  0  0  0  0
  -32.6470  -16.5710   19.9558 H   0  0  0  0  0  0
  -27.8563  -18.4172   22.0449 H   0  0  0  0  0  0
  -28.6666  -17.3559   23.2032 H   0  0  0  0  0  0
  -28.0976  -16.7484   21.6406 H   0  0  0  0  0  0
  -28.4633  -23.1875   18.7850 H   0  0  0  0  0  0
  -30.0637  -23.8244   18.5800 H   0  0  0  0  0  0
  -28.6735  -24.8882   18.7064 H   0  0  0  0  0  0
  -27.3405  -21.2578   23.0037 H   0  0  0  0  0  0
  -27.1134  -22.6328   21.9691 H   0  0  0  0  0  0
  -28.3153  -22.7022   23.2588 H   0  0  0  0  0  0
  -27.6250  -20.0740   20.5738 H   0  0  0  0  0  0
  -28.9886  -20.5522   19.5595 H   0  0  0  0  0  0
  -27.6118  -21.6234   19.8240 H   0  0  0  0  0  0
  -30.6543  -26.1422   23.1377 H   0  0  0  0  0  0
  -31.5260  -24.7082   22.6611 H   0  0  0  0  0  0
  -29.8650  -24.5834   23.2492 H   0  0  0  0  0  0
  -31.7157  -26.6288   20.6935 H   0  0  0  0  0  0
  -30.8659  -26.0346   19.2811 H   0  0  0  0  0  0
  -31.9355  -24.9596   20.1745 H   0  0  0  0  0  0
  -30.4774  -20.8891   22.9955 H   0  0  0  0  0  0
  -29.0675  -19.9555   23.0976 H   0  0  0  0  0  0
  -30.6167  -22.8186   21.9599 H   0  0  0  0  0  0
  -30.6211  -22.3059   20.3425 H   0  0  0  0  0  0
  -29.5126  -27.4223   21.5894 H   0  0  0  0  0  0
  -28.2470  -26.2796   22.0145 H   0  0  0  0  0  0
  -28.3110  -24.0934   21.0522 H   0  0  0  0  0  0
  -29.2959  -15.4107   21.3810 H   0  0  0  0  0  0
  1 25  1  0  0  0
  1 30  2  0  0  0
  1 89  1  0  0  0
  2  3  1  0  0  0
  2 25  1  0  0  0
  2 90  1  0  0  0
  2 91  1  0  0  0
  3  4  1  0  0  0
  3 92  1  0  0  0
  3 93  1  0  0  0
  4  5  1  0  0  0
  4 94  1  0  0  0
  4 95  1  0  0  0
  5  6  1  0  0  0
  5 26  1  0  0  0
  5 96  1  0  0  0
  6 25  1  0  0  0
  6 97  1  0  0  0
  6 98  1  0  0  0
  7  8  2  0  0  0
  7 26  1  0  0  0
  7 29  1  0  0  0
  8  9  1  0  0  0
  8 22  1  0  0  0
  9 10  1  0  0  0
  9 27  2  0  0  0
 10 11  2  0  0  0
 10 15  1  0  0  0
 11 12  1  0  0  0
 11 99  1  0  0  0
 12 13  2  0  0  0
 12100  1  0  0  0
 13 14  1  0  0  0
 13 31  1  0  0  0
 14 15  2  0  0  0
 14101  1  0  0  0
 15102  1  0  0  0
 16 17  2  0  0  0
 16 21  1  0  0  0
 16 31  1  0  0  0
 17 18  1  0  0  0
 17103  1  0  0  0
 18 19  2  0  0  0
 18104  1  0  0  0
 19 20  1  0  0  0
 19 24  1  0  0  0
 20 21  2  0  0  0
 20105  1  0  0  0
 21 23  1  0  0  0
 22 28  1  0  0  0
 22 32  2  0  0  0
 26 27  1  0  0  0
 28106  1  0  0  0
 28107  1  0  0  0
 29108  1  0  0  0
 29109  1  0  0  0
 33 34  1  0  0  0
 33 66  1  0  0  0
 33 70  2  0  0  0
 34 36  1  0  0  0
 34 59  1  0  0  0
 34110  1  0  0  0
 35 44  2  0  0  0
 35 45  1  0  0  0
 35 68  1  0  0  0
 36 56  1  0  0  0
 36111  1  0  0  0
 37 39  1  0  0  0
 37 47  1  0  0  0
 37 66  1  0  0  0
 37112  1  0  0  0
 38 43  2  0  0  0
 38 46  1  0  0  0
 38 47  1  0  0  0
 39 64  1  0  0  0
 39 67  2  0  0  0
 40 52  1  0  0  0
 40 53  2  0  0  0
 40 58  1  0  0  0
 41113  1  0  0  0
 41114  1  0  0  0
 41115  1  0  0  0
 41 48  1  0  0  0
 42 43  1  0  0  0
 42 66  1  0  0  0
 42116  1  0  0  0
 42117  1  0  0  0
 43 44  1  0  0  0
 44118  1  0  0  0
 45 46  2  0  0  0
 45119  1  0  0  0
 46120  1  0  0  0
 47121  1  0  0  0
 47122  1  0  0  0
 48 56  1  0  0  0
 48 65  1  0  0  0
 48123  1  0  0  0
 49 50  1  0  0  0
 49 53  1  0  0  0
 49 64  1  0  0  0
 49124  1  0  0  0
 50 51  1  0  0  0
 50125  1  0  0  0
 50126  1  0  0  0
 51 52  1  0  0  0
 51127  1  0  0  0
 51128  1  0  0  0
 52129  1  0  0  0
 52130  1  0  0  0
 53 54  1  0  0  0
 54 55  2  0  0  0
 54131  1  0  0  0
 55 57  1  0  0  0
 55132  1  0  0  0
 56 69  2  0  0  0
 57 58  2  0  0  0
 57133  1  0  0  0
 58134  1  0  0  0
 59 60  1  0  0  0
 59 61  1  0  0  0
 59 62  1  0  0  0
 60135  1  0  0  0
 60136  1  0  0  0
 60137  1  0  0  0
 61138  1  0  0  0
 61139  1  0  0  0
 61140  1  0  0  0
 62141  1  0  0  0
 62142  1  0  0  0
 62143  1  0  0  0
 63 65  1  0  0  0
 63144  1  0  0  0
 63145  1  0  0  0
 63146  1  0  0  0
 64147  1  0  0  0
 65148  1  0  0  0
 68 85  1  0  0  0
 71 72  2  0  0  0
 71 73  1  0  0  0
 71149  1  0  0  0
 72 74  1  0  0  0
 72150  1  0  0  0
 73 76  2  0  0  0
 73151  1  0  0  0
 74 75  2  0  0  0
 74 83  1  0  0  0
 75 76  1  0  0  0
 75 77  1  0  0  0
 76 89  1  0  0  0
 77152  1  0  0  0
 77153  1  0  0  0
 77154  1  0  0  0
 78155  1  0  0  0
 78156  1  0  0  0
 78157  1  0  0  0
 78 86  1  0  0  0
 79158  1  0  0  0
 79159  1  0  0  0
 79160  1  0  0  0
 79 87  1  0  0  0
 80 87  1  0  0  0
 80161  1  0  0  0
 80162  1  0  0  0
 80163  1  0  0  0
 81164  1  0  0  0
 81165  1  0  0  0
 81166  1  0  0  0
 81 88  1  0  0  0
 82 88  1  0  0  0
 82167  1  0  0  0
 82168  1  0  0  0
 82169  1  0  0  0
 83 87  1  0  0  0
 83170  1  0  0  0
 83171  1  0  0  0
 84 86  1  0  0  0
 84 87  1  0  0  0
 84172  1  0  0  0
 84173  1  0  0  0
 85 88  1  0  0  0
 85174  1  0  0  0
 85175  1  0  0  0
 86 88  1  0  0  0
 86176  1  0  0  0
 89177  1  0  0  0
M  ISO  4   1 100  68 101  85 101  89 100
M  END
> <chiral flag>
0

> <version>
0

> <s_m_source_file>
/data/baiqing/PycharmProjects/Reinvent-master-3.2/result/LINK_invent/BTK/process_docking_weight1_custom_product_contain_oxygen_bond_distance_aromatic_linkinvent_7_9_3/rearranged_h_0140.sdf

> <i_m_source_file_index>
21

> <r_mmod_Potential_Energy-OPLS-2005>
75.6143798828125

> <r_mmod_Stretch_Energy-OPLS-2005>
48.5780601501465

> <r_mmod_Bend_Energy-OPLS-2005>
130.571319580078

> <r_mmod_Torsional_Energy-OPLS-2005>
267.184448242188

> <r_mmod_Improper_Torsional_Energy-OPLS-2005>
3.33062982559204

> <r_mmod_Van_der_Waal_Energy-OPLS-2005>
193.850357055664

> <r_mmod_Electrostatic_Energy-OPLS-2005>
-405.275054931641

> <r_mmod_Solvation_Energy-OPLS-2005>
-181.636505126953

> <b_mmod_Minimization_Converged-OPLS-2005>
0

> <r_mmod_RMS_Derivative-OPLS-2005>
4.65823602676392

$$$$
21
                    3D
 Structure written by MMmdl.
155163  0  0  1  0            999 V2000
  -30.4999  -15.0603   20.3293 C   0  0  0  0  0  0
  -30.4359  -12.6491   19.4854 C   0  0  0  0  0  0
  -29.5205  -12.5272   18.2437 C   0  0  0  0  0  0
  -28.0466  -12.3341   18.6495 C   0  0  0  0  0  0
  -27.6230  -13.2570   19.8191 C   0  0  2  0  0  0
  -28.6733  -13.3273   20.9482 C   0  0  0  0  0  0
  -25.2463  -13.8223   20.5634 C   0  0  0  0  0  0
  -24.1775  -13.0426   20.9181 C   0  0  0  0  0  0
  -24.6425  -11.6921   20.8766 C   0  0  0  0  0  0
  -23.9044  -10.4302   21.0399 C   0  0  0  0  0  0
  -24.3586   -9.4225   21.9195 C   0  0  0  0  0  0
  -23.6262   -8.2260   22.0750 C   0  0  0  0  0  0
  -22.4268   -8.0277   21.3517 C   0  0  0  0  0  0
  -21.9889   -9.0262   20.4627 C   0  0  0  0  0  0
  -22.7198  -10.2156   20.3046 C   0  0  0  0  0  0
  -21.6830   -6.0724   22.5265 C   0  0  0  0  0  0
  -21.4022   -6.5624   23.8197 C   0  0  0  0  0  0
  -21.3653   -5.6775   24.9170 C   0  0  0  0  0  0
  -21.6040   -4.3032   24.7204 C   0  0  0  0  0  0
  -21.8828   -3.8127   23.4340 C   0  0  0  0  0  0
  -21.9185   -4.6954   22.3387 C   0  0  0  0  0  0
  -22.7809  -13.5250   21.1747 C   0  0  0  0  0  0
  -22.1643   -4.2133   21.0973 F   0  0  0  0  0  0
  -21.5624   -3.4521   25.7725 F   0  0  0  0  0  0
  -29.9284  -13.7758   20.3293 N   0  0  0  0  0  0
  -26.2865  -12.9441   20.3170 N   0  0  0  0  0  0
  -25.9355  -11.6563   20.5721 N   0  0  0  0  0  0
  -22.0394  -12.8370   22.0354 N   0  0  0  0  0  0
  -25.4215  -15.1938   20.3983 N   0  0  0  0  0  0
  -31.7160  -15.1065   20.1053 O   0  0  0  0  0  0
  -21.6620   -6.8879   21.4211 O   0  0  0  0  0  0
  -22.3541  -14.5534   20.6514 O   0  0  0  0  0  0
  -24.6506  -31.8353   23.1867 C   0  0  0  0  0  0
  -25.9265  -32.4654   23.8234 C   0  0  1  0  0  0
  -27.2413  -27.0925   20.1182 C   0  0  0  0  0  0
  -25.6029  -33.8466   24.2177 N   0  0  0  0  0  0
  -23.4502  -30.4527   21.5392 C   0  0  2  0  0  0
  -24.9056  -28.8685   20.1127 C   0  0  0  0  0  0
  -22.7571  -29.4455   22.4920 C   0  0  0  0  0  0
  -18.0288  -28.1380   22.8461 C   0  0  0  0  0  0
  -24.1488  -36.7210   23.2630 C   0  0  0  0  0  0
  -26.0085  -30.6880   21.3907 C   0  0  0  0  0  0
  -26.0884  -29.2951   20.7313 C   0  0  0  0  0  0
  -27.2538  -28.4265   20.7164 C   0  0  0  0  0  0
  -26.0219  -26.7764   19.4761 C   0  0  0  0  0  0
  -24.8873  -27.6222   19.4745 C   0  0  0  0  0  0
  -23.6804  -29.7784   20.1589 C   0  0  0  0  0  0
  -25.4147  -36.3038   24.0297 C   0  0  1  0  0  0
  -20.5882  -28.3654   23.1254 C   0  0  2  0  0  0
  -20.6748  -26.9352   22.5358 C   0  0  0  0  0  0
  -19.5745  -26.6455   21.5108 C   0  0  0  0  0  0
  -18.1916  -26.7979   22.1501 C   0  0  0  0  0  0
  -19.1541  -28.8862   23.2867 C   0  0  0  0  0  0
  -18.9477  -30.1454   23.8922 C   0  0  0  0  0  0
  -17.6468  -30.6539   24.0667 C   0  0  0  0  0  0
  -25.9115  -34.9394   23.5051 C   0  0  0  0  0  0
  -16.5353  -29.9050   23.6355 C   0  0  0  0  0  0
  -16.7274  -28.6493   23.0321 C   0  0  0  0  0  0
  -26.4572  -31.6549   25.0676 C   0  0  0  0  0  0
  -25.3765  -31.3676   26.1364 C   0  0  0  0  0  0
  -27.0409  -30.2955   24.6246 C   0  0  0  0  0  0
  -27.6121  -32.4290   25.7460 C   0  0  0  0  0  0
  -27.5584  -37.1770   24.8467 C   0  0  0  0  0  0
  -21.4267  -29.2960   22.3652 N   0  0  0  0  0  0
  -26.4295  -37.3785   23.9415 N   0  0  0  0  0  0
  -24.7234  -31.0129   22.0940 N   0  0  0  0  0  0
  -23.4192  -28.8034   23.3111 O   0  0  0  0  0  0
  -28.3163  -26.1035   20.1029 O   0  0  0  0  0  0
  -26.5672  -34.8901   22.4600 O   0  0  0  0  0  0
  -23.5628  -32.1266   23.7089 O   0  0  0  0  0  0
  -28.9601  -18.7733   20.4543 C   0  0  0  0  0  0
  -29.4554  -20.1299   20.0488 C   0  0  0  0  0  0
  -30.6728  -19.7268   19.4872 C   0  0  0  0  0  0
  -29.8489  -17.6929   20.1866 C   0  0  0  0  0  0
  -28.7529  -21.6204   20.2181 C   0  0  0  0  0  0
  -31.8102  -20.4133   18.7843 C   0  0  0  0  0  0
  -30.5297  -23.5626   20.3425 C   0  0  0  0  0  0
  -29.1888  -23.2625   18.2372 C   0  0  0  0  0  0
  -28.1030  -24.5355   20.1940 C   0  0  0  0  0  0
  -29.1346  -23.2137   19.7777 C   0  0  0  0  0  0
  -29.6919  -16.2536   20.3924 N   0  0  0  0  0  0
  -27.6670  -21.5631   20.7964 O   0  0  0  0  0  0
  -30.9040  -18.3284   19.5894 O   0  0  0  0  0  0
  -31.4641  -12.8271   19.1657 H   0  0  0  0  0  0
  -30.4621  -11.7161   20.0507 H   0  0  0  0  0  0
  -29.8472  -11.7018   17.6124 H   0  0  0  0  0  0
  -29.6157  -13.4252   17.6341 H   0  0  0  0  0  0
  -27.9122  -11.2890   18.9255 H   0  0  0  0  0  0
  -27.4014  -12.5085   17.7863 H   0  0  0  0  0  0
  -27.5664  -14.2531   19.3759 H   0  0  0  0  0  0
  -28.7963  -12.3595   21.4350 H   0  0  0  0  0  0
  -28.3623  -14.0308   21.7227 H   0  0  0  0  0  0
  -25.2707   -9.5737   22.4799 H   0  0  0  0  0  0
  -23.9935   -7.4688   22.7542 H   0  0  0  0  0  0
  -21.0774   -8.8766   19.9008 H   0  0  0  0  0  0
  -22.3575  -10.9698   19.6192 H   0  0  0  0  0  0
  -21.2035   -7.6140   23.9695 H   0  0  0  0  0  0
  -21.1451   -6.0507   25.9060 H   0  0  0  0  0  0
  -22.0628   -2.7581   23.2820 H   0  0  0  0  0  0
  -22.3818  -12.0032   22.4902 H   0  0  0  0  0  0
  -21.1052  -13.1557   22.2436 H   0  0  0  0  0  0
  -24.6732  -15.8647   20.5170 H   0  0  0  0  0  0
  -26.2504  -15.6072   19.9910 H   0  0  0  0  0  0
  -26.7282  -32.5251   23.0917 H   0  0  0  0  0  0
  -25.0252  -33.9583   25.0394 H   0  0  0  0  0  0
  -22.7535  -31.2824   21.3926 H   0  0  0  0  0  0
  -23.3822  -35.9459   23.3270 H   0  0  0  0  0  0
  -24.3546  -36.8900   22.2046 H   0  0  0  0  0  0
  -23.7170  -37.6363   23.6675 H   0  0  0  0  0  0
  -26.1726  -31.4411   20.6163 H   0  0  0  0  0  0
  -26.8693  -30.7346   22.0467 H   0  0  0  0  0  0
  -28.1506  -28.7587   21.2177 H   0  0  0  0  0  0
  -25.9140  -25.8402   18.9528 H   0  0  0  0  0  0
  -23.9891  -27.2942   18.9745 H   0  0  0  0  0  0
  -23.8151  -30.5518   19.4020 H   0  0  0  0  0  0
  -22.7919  -29.2267   19.8544 H   0  0  0  0  0  0
  -25.1349  -36.1842   25.0788 H   0  0  0  0  0  0
  -20.9971  -28.3118   24.1374 H   0  0  0  0  0  0
  -20.5598  -26.2180   23.3508 H   0  0  0  0  0  0
  -21.6602  -26.7364   22.1149 H   0  0  0  0  0  0
  -19.6819  -25.6405   21.1037 H   0  0  0  0  0  0
  -19.6740  -27.3384   20.6743 H   0  0  0  0  0  0
  -17.4227  -26.6884   21.3828 H   0  0  0  0  0  0
  -18.0209  -26.0041   22.8807 H   0  0  0  0  0  0
  -19.7976  -30.7273   24.2264 H   0  0  0  0  0  0
  -17.5026  -31.6168   24.5398 H   0  0  0  0  0  0
  -15.5356  -30.2942   23.7778 H   0  0  0  0  0  0
  -15.8666  -28.0892   22.6931 H   0  0  0  0  0  0
  -24.6059  -30.6891   25.7674 H   0  0  0  0  0  0
  -24.8822  -32.2820   26.4645 H   0  0  0  0  0  0
  -25.8090  -30.8982   27.0231 H   0  0  0  0  0  0
  -26.2989  -29.6701   24.1261 H   0  0  0  0  0  0
  -27.4066  -29.7206   25.4776 H   0  0  0  0  0  0
  -27.8912  -30.4197   23.9524 H   0  0  0  0  0  0
  -27.2773  -33.3681   26.1865 H   0  0  0  0  0  0
  -28.4025  -32.6709   25.0327 H   0  0  0  0  0  0
  -28.0648  -31.8510   26.5530 H   0  0  0  0  0  0
  -28.2602  -38.0073   24.7620 H   0  0  0  0  0  0
  -28.1129  -36.2647   24.6248 H   0  0  0  0  0  0
  -27.2290  -37.1342   25.8859 H   0  0  0  0  0  0
  -20.9487  -29.8600   21.6781 H   0  0  0  0  0  0
  -26.0167  -38.2849   24.1488 H   0  0  0  0  0  0
  -27.9973  -18.6184   20.9223 H   0  0  0  0  0  0
  -31.4869  -21.0690   17.9797 H   0  0  0  0  0  0
  -32.4607  -19.6720   18.3169 H   0  0  0  0  0  0
  -32.4342  -20.9875   19.4694 H   0  0  0  0  0  0
  -30.4971  -23.6844   21.4267 H   0  0  0  0  0  0
  -30.9040  -24.5001   19.9281 H   0  0  0  0  0  0
  -31.2668  -22.7918   20.1222 H   0  0  0  0  0  0
  -29.8951  -22.5622   17.7989 H   0  0  0  0  0  0
  -29.4661  -24.2563   17.8900 H   0  0  0  0  0  0
  -28.2116  -23.0438   17.8053 H   0  0  0  0  0  0
  -27.8524  -24.3730   21.2393 H   0  0  0  0  0  0
  -27.1691  -24.3190   19.6778 H   0  0  0  0  0  0
  -28.7317  -16.0040   20.5807 H   0  0  0  0  0  0
  1 25  1  0  0  0
  1 30  2  0  0  0
  1 81  1  0  0  0
  2  3  1  0  0  0
  2 25  1  0  0  0
  2 84  1  0  0  0
  2 85  1  0  0  0
  3  4  1  0  0  0
  3 86  1  0  0  0
  3 87  1  0  0  0
  4  5  1  0  0  0
  4 88  1  0  0  0
  4 89  1  0  0  0
  5  6  1  0  0  0
  5 26  1  0  0  0
  5 90  1  0  0  0
  6 25  1  0  0  0
  6 91  1  0  0  0
  6 92  1  0  0  0
  7  8  2  0  0  0
  7 26  1  0  0  0
  7 29  1  0  0  0
  8  9  1  0  0  0
  8 22  1  0  0  0
  9 10  1  0  0  0
  9 27  2  0  0  0
 10 11  2  0  0  0
 10 15  1  0  0  0
 11 12  1  0  0  0
 11 93  1  0  0  0
 12 13  2  0  0  0
 12 94  1  0  0  0
 13 14  1  0  0  0
 13 31  1  0  0  0
 14 15  2  0  0  0
 14 95  1  0  0  0
 15 96  1  0  0  0
 16 17  2  0  0  0
 16 21  1  0  0  0
 16 31  1  0  0  0
 17 18  1  0  0  0
 17 97  1  0  0  0
 18 19  2  0  0  0
 18 98  1  0  0  0
 19 20  1  0  0  0
 19 24  1  0  0  0
 20 21  2  0  0  0
 20 99  1  0  0  0
 21 23  1  0  0  0
 22 28  1  0  0  0
 22 32  2  0  0  0
 26 27  1  0  0  0
 28100  1  0  0  0
 28101  1  0  0  0
 29102  1  0  0  0
 29103  1  0  0  0
 33 34  1  0  0  0
 33 66  1  0  0  0
 33 70  2  0  0  0
 34 36  1  0  0  0
 34 59  1  0  0  0
 34104  1  0  0  0
 35 44  2  0  0  0
 35 45  1  0  0  0
 35 68  1  0  0  0
 36 56  1  0  0  0
 36105  1  0  0  0
 37 39  1  0  0  0
 37 47  1  0  0  0
 37 66  1  0  0  0
 37106  1  0  0  0
 38 43  2  0  0  0
 38 46  1  0  0  0
 38 47  1  0  0  0
 39 64  1  0  0  0
 39 67  2  0  0  0
 40 52  1  0  0  0
 40 53  2  0  0  0
 40 58  1  0  0  0
 41107  1  0  0  0
 41108  1  0  0  0
 41109  1  0  0  0
 41 48  1  0  0  0
 42 43  1  0  0  0
 42 66  1  0  0  0
 42110  1  0  0  0
 42111  1  0  0  0
 43 44  1  0  0  0
 44112  1  0  0  0
 45 46  2  0  0  0
 45113  1  0  0  0
 46114  1  0  0  0
 47115  1  0  0  0
 47116  1  0  0  0
 48 56  1  0  0  0
 48 65  1  0  0  0
 48117  1  0  0  0
 49 50  1  0  0  0
 49 53  1  0  0  0
 49 64  1  0  0  0
 49118  1  0  0  0
 50 51  1  0  0  0
 50119  1  0  0  0
 50120  1  0  0  0
 51 52  1  0  0  0
 51121  1  0  0  0
 51122  1  0  0  0
 52123  1  0  0  0
 52124  1  0  0  0
 53 54  1  0  0  0
 54 55  2  0  0  0
 54125  1  0  0  0
 55 57  1  0  0  0
 55126  1  0  0  0
 56 69  2  0  0  0
 57 58  2  0  0  0
 57127  1  0  0  0
 58128  1  0  0  0
 59 60  1  0  0  0
 59 61  1  0  0  0
 59 62  1  0  0  0
 60129  1  0  0  0
 60130  1  0  0  0
 60131  1  0  0  0
 61132  1  0  0  0
 61133  1  0  0  0
 61134  1  0  0  0
 62135  1  0  0  0
 62136  1  0  0  0
 62137  1  0  0  0
 63 65  1  0  0  0
 63138  1  0  0  0
 63139  1  0  0  0
 63140  1  0  0  0
 64141  1  0  0  0
 65142  1  0  0  0
 68 79  1  0  0  0
 71 72  1  0  0  0
 71 74  2  0  0  0
 71143  1  0  0  0
 72 73  2  0  0  0
 72 75  1  0  0  0
 73 76  1  0  0  0
 73 83  1  0  0  0
 74 81  1  0  0  0
 74 83  1  0  0  0
 75 80  1  0  0  0
 75 82  2  0  0  0
 76144  1  0  0  0
 76145  1  0  0  0
 76146  1  0  0  0
 77147  1  0  0  0
 77148  1  0  0  0
 77149  1  0  0  0
 77 80  1  0  0  0
 78 80  1  0  0  0
 78150  1  0  0  0
 78151  1  0  0  0
 78152  1  0  0  0
 79 80  1  0  0  0
 79153  1  0  0  0
 79154  1  0  0  0
 81155  1  0  0  0
M  ISO  4   1 100  68 101  79 101  81 100
M  END
> <chiral flag>
0

> <version>
0

> <s_m_source_file>
/data/baiqing/PycharmProjects/Reinvent-master-3.2/result/LINK_invent/BTK/process_docking_weight1_custom_product_contain_oxygen_bond_distance_aromatic_linkinvent_7_9_3/rearranged_h_0140.sdf

> <i_m_source_file_index>
22

> <r_mmod_Potential_Energy-OPLS-2005>
686.143432617188

> <r_mmod_Stretch_Energy-OPLS-2005>
329.056671142578

> <r_mmod_Bend_Energy-OPLS-2005>
332.765991210938

> <r_mmod_Torsional_Energy-OPLS-2005>
241.995101928711

> <r_mmod_Improper_Torsional_Energy-OPLS-2005>
4.20154523849487

> <r_mmod_Van_der_Waal_Energy-OPLS-2005>
105.420364379883

> <r_mmod_Electrostatic_Energy-OPLS-2005>
-356.871307373047

> <r_mmod_Solvation_Energy-OPLS-2005>
-222.718017578125

> <b_mmod_Minimization_Converged-OPLS-2005>
0

> <r_mmod_RMS_Derivative-OPLS-2005>
6.95834970474243

$$$$
22
                    3D
 Structure written by MMmdl.
160169  0  0  1  0            999 V2000
  -30.5952  -14.7872   20.4535 C   0  0  0  0  0  0
  -30.4483  -12.4831   19.4789 C   0  0  0  0  0  0
  -29.5222  -12.5110   18.2390 C   0  0  0  0  0  0
  -28.0456  -12.3352   18.6434 C   0  0  0  0  0  0
  -27.6410  -13.2333   19.8438 C   0  0  2  0  0  0
  -28.6871  -13.1788   20.9796 C   0  0  0  0  0  0
  -25.2516  -13.8202   20.5672 C   0  0  0  0  0  0
  -24.1803  -13.0459   20.9208 C   0  0  0  0  0  0
  -24.6391  -11.6934   20.8744 C   0  0  0  0  0  0
  -23.9073  -10.4305   21.0382 C   0  0  0  0  0  0
  -24.3637   -9.4221   21.9162 C   0  0  0  0  0  0
  -23.6295   -8.2264   22.0744 C   0  0  0  0  0  0
  -22.4252   -8.0301   21.3555 C   0  0  0  0  0  0
  -21.9877   -9.0266   20.4637 C   0  0  0  0  0  0
  -22.7237  -10.2137   20.3022 C   0  0  0  0  0  0
  -21.6878   -6.0727   22.5252 C   0  0  0  0  0  0
  -21.4056   -6.5630   23.8196 C   0  0  0  0  0  0
  -21.3638   -5.6779   24.9144 C   0  0  0  0  0  0
  -21.6045   -4.3040   24.7172 C   0  0  0  0  0  0
  -21.8848   -3.8134   23.4298 C   0  0  0  0  0  0
  -21.9223   -4.6963   22.3366 C   0  0  0  0  0  0
  -22.7833  -13.5238   21.1849 C   0  0  0  0  0  0
  -22.1681   -4.2158   21.0937 F   0  0  0  0  0  0
  -21.5606   -3.4513   25.7680 F   0  0  0  0  0  0
  -29.9888  -13.5473   20.4054 N   0  0  0  0  0  0
  -26.2924  -12.9407   20.3215 N   0  0  0  0  0  0
  -25.9316  -11.6561   20.5701 N   0  0  0  0  0  0
  -22.0483  -12.8241   22.0413 N   0  0  0  0  0  0
  -25.4291  -15.1916   20.4091 N   0  0  0  0  0  0
  -31.7789  -14.8755   20.1305 O   0  0  0  0  0  0
  -21.6667   -6.8864   21.4206 O   0  0  0  0  0  0
  -22.3493  -14.5515   20.6659 O   0  0  0  0  0  0
  -24.6326  -31.8508   23.1954 C   0  0  0  0  0  0
  -25.9155  -32.4718   23.8280 C   0  0  1  0  0  0
  -27.2131  -27.2508   20.1228 C   0  0  0  0  0  0
  -25.5952  -33.8523   24.2206 N   0  0  0  0  0  0
  -23.4283  -30.4742   21.5398 C   0  0  2  0  0  0
  -24.8721  -28.9130   20.1128 C   0  0  0  0  0  0
  -22.7499  -29.4593   22.4926 C   0  0  0  0  0  0
  -18.0281  -28.1359   22.8485 C   0  0  0  0  0  0
  -24.1489  -36.7283   23.2644 C   0  0  0  0  0  0
  -25.9761  -30.7618   21.3750 C   0  0  0  0  0  0
  -26.0472  -29.3835   20.7136 C   0  0  0  0  0  0
  -27.2268  -28.5687   20.6958 C   0  0  0  0  0  0
  -26.0168  -26.8431   19.5008 C   0  0  0  0  0  0
  -24.8623  -27.6523   19.4940 C   0  0  0  0  0  0
  -23.6445  -29.8043   20.1572 C   0  0  0  0  0  0
  -25.4118  -36.3045   24.0315 C   0  0  1  0  0  0
  -20.5887  -28.3675   23.1268 C   0  0  2  0  0  0
  -20.6759  -26.9387   22.5407 C   0  0  0  0  0  0
  -19.5742  -26.6354   21.5204 C   0  0  0  0  0  0
  -18.1924  -26.7904   22.1611 C   0  0  0  0  0  0
  -19.1541  -28.8830   23.2860 C   0  0  0  0  0  0
  -18.9468  -30.1430   23.8869 C   0  0  0  0  0  0
  -17.6476  -30.6566   24.0554 C   0  0  0  0  0  0
  -25.9073  -34.9419   23.5065 C   0  0  0  0  0  0
  -16.5361  -29.9071   23.6325 C   0  0  0  0  0  0
  -16.7268  -28.6484   23.0351 C   0  0  0  0  0  0
  -26.4513  -31.6570   25.0695 C   0  0  0  0  0  0
  -25.3745  -31.3763   26.1439 C   0  0  0  0  0  0
  -27.0369  -30.2970   24.6238 C   0  0  0  0  0  0
  -27.6020  -32.4356   25.7499 C   0  0  0  0  0  0
  -27.5580  -37.1786   24.8459 C   0  0  0  0  0  0
  -21.4205  -29.3032   22.3668 N   0  0  0  0  0  0
  -26.4287  -37.3755   23.9416 N   0  0  0  0  0  0
  -24.6977  -31.0472   22.0923 N   0  0  0  0  0  0
  -23.4205  -28.8128   23.3018 O   0  0  0  0  0  0
  -28.3002  -26.3467   20.1081 O   0  0  0  0  0  0
  -26.5643  -34.8914   22.4637 O   0  0  0  0  0  0
  -23.5476  -32.1345   23.7249 O   0  0  0  0  0  0
  -32.1055  -18.1235   20.0053 C   0  0  0  0  0  0
  -33.2063  -18.9128   19.6646 C   0  0  0  0  0  0
  -31.7905  -20.8568   19.8335 C   0  0  0  0  0  0
  -30.6087  -20.1135   20.1245 C   0  0  0  0  0  0
  -30.7935  -18.6280   20.2361 C   0  0  0  0  0  0
  -33.0467  -20.2913   19.5906 C   0  0  0  0  0  0
  -28.4821  -21.2044   21.4234 C   0  0  0  0  0  0
  -27.5591  -22.4682   21.2497 C   0  0  0  0  0  0
  -29.4764  -22.6680   19.8765 C   0  0  0  0  0  0
  -29.3082  -21.0728   20.1385 C   0  0  1  0  0  0
  -28.1689  -23.4957   20.2407 C   0  0  2  0  0  0
  -29.7478  -17.4636   20.5797 C   0  0  0  0  0  0
  -28.1753  -25.0298   20.8301 C   0  0  0  0  0  0
  -29.7761  -15.9003   20.6666 N   0  0  0  0  0  0
  -34.0969  -21.0796   19.2652 F   0  0  0  0  0  0
  -31.4857  -12.6320   19.1748 H   0  0  0  0  0  0
  -30.4169  -11.5103   19.9722 H   0  0  0  0  0  0
  -29.8139  -11.7312   17.5361 H   0  0  0  0  0  0
  -29.6468  -13.4588   17.7125 H   0  0  0  0  0  0
  -27.9036  -11.2835   18.8976 H   0  0  0  0  0  0
  -27.3939  -12.5333   17.7911 H   0  0  0  0  0  0
  -27.6284  -14.2523   19.4591 H   0  0  0  0  0  0
  -28.7301  -12.1808   21.4151 H   0  0  0  0  0  0
  -28.4113  -13.8520   21.7933 H   0  0  0  0  0  0
  -25.2813   -9.5715   22.4703 H   0  0  0  0  0  0
  -24.0053   -7.4655   22.7428 H   0  0  0  0  0  0
  -21.0832   -8.8747   19.8910 H   0  0  0  0  0  0
  -22.3702  -10.9660   19.6101 H   0  0  0  0  0  0
  -21.2075   -7.6149   23.9693 H   0  0  0  0  0  0
  -21.1429   -6.0489   25.9037 H   0  0  0  0  0  0
  -22.0646   -2.7602   23.2777 H   0  0  0  0  0  0
  -22.4130  -11.9954   22.4865 H   0  0  0  0  0  0
  -21.1041  -13.1174   22.2519 H   0  0  0  0  0  0
  -24.6712  -15.8548   20.5171 H   0  0  0  0  0  0
  -26.2770  -15.6149   20.0583 H   0  0  0  0  0  0
  -26.7230  -32.5340   23.1010 H   0  0  0  0  0  0
  -25.0053  -33.9644   25.0331 H   0  0  0  0  0  0
  -22.7255  -31.2972   21.3932 H   0  0  0  0  0  0
  -23.3742  -35.9622   23.3268 H   0  0  0  0  0  0
  -24.3591  -36.8960   22.2070 H   0  0  0  0  0  0
  -23.7252  -37.6472   23.6707 H   0  0  0  0  0  0
  -26.1260  -31.5276   20.6117 H   0  0  0  0  0  0
  -26.8485  -30.7979   22.0159 H   0  0  0  0  0  0
  -28.1352  -28.9352   21.1532 H   0  0  0  0  0  0
  -25.9703  -25.8724   19.0254 H   0  0  0  0  0  0
  -23.9631  -27.2926   19.0131 H   0  0  0  0  0  0
  -23.7717  -30.5807   19.4012 H   0  0  0  0  0  0
  -22.7587  -29.2440   19.8497 H   0  0  0  0  0  0
  -25.1294  -36.1853   25.0803 H   0  0  0  0  0  0
  -20.9966  -28.3238   24.1391 H   0  0  0  0  0  0
  -20.5604  -26.2292   23.3618 H   0  0  0  0  0  0
  -21.6628  -26.7368   22.1238 H   0  0  0  0  0  0
  -19.6901  -25.6249   21.1247 H   0  0  0  0  0  0
  -19.6685  -27.3136   20.6707 H   0  0  0  0  0  0
  -17.4190  -26.6639   21.4018 H   0  0  0  0  0  0
  -18.0333  -26.0040   22.9001 H   0  0  0  0  0  0
  -19.7948  -30.7238   24.2245 H   0  0  0  0  0  0
  -17.5030  -31.6255   24.5132 H   0  0  0  0  0  0
  -15.5354  -30.2964   23.7650 H   0  0  0  0  0  0
  -15.8673  -28.0777   22.7099 H   0  0  0  0  0  0
  -24.5876  -30.7148   25.7799 H   0  0  0  0  0  0
  -24.9006  -32.2961   26.4870 H   0  0  0  0  0  0
  -25.8076  -30.8934   27.0208 H   0  0  0  0  0  0
  -26.2964  -29.6699   24.1260 H   0  0  0  0  0  0
  -27.4018  -29.7253   25.4779 H   0  0  0  0  0  0
  -27.8851  -30.4204   23.9503 H   0  0  0  0  0  0
  -27.2564  -33.3678   26.1978 H   0  0  0  0  0  0
  -28.3891  -32.6890   25.0386 H   0  0  0  0  0  0
  -28.0612  -31.8556   26.5515 H   0  0  0  0  0  0
  -28.2554  -38.0120   24.7514 H   0  0  0  0  0  0
  -28.1107  -36.2641   24.6236 H   0  0  0  0  0  0
  -27.2308  -37.1380   25.8866 H   0  0  0  0  0  0
  -20.9383  -29.8816   21.6930 H   0  0  0  0  0  0
  -26.0134  -38.2812   24.1442 H   0  0  0  0  0  0
  -32.3121  -17.0756   20.0825 H   0  0  0  0  0  0
  -34.1660  -18.4620   19.4631 H   0  0  0  0  0  0
  -31.7850  -21.9274   19.7362 H   0  0  0  0  0  0
  -27.9088  -20.3036   21.6418 H   0  0  0  0  0  0
  -29.1633  -21.3695   22.2619 H   0  0  0  0  0  0
  -27.3611  -22.9309   22.2178 H   0  0  0  0  0  0
  -26.5851  -22.1437   20.8788 H   0  0  0  0  0  0
  -29.8074  -22.8773   18.8583 H   0  0  0  0  0  0
  -30.2432  -23.0661   20.5407 H   0  0  0  0  0  0
  -28.6464  -20.6764   19.3686 H   0  0  0  0  0  0
  -27.5181  -23.4960   19.3638 H   0  0  0  0  0  0
  -30.3849  -17.3315   21.4603 H   0  0  0  0  0  0
  -29.8914  -17.2263   19.5256 H   0  0  0  0  0  0
  -28.9440  -25.0538   21.6031 H   0  0  0  0  0  0
  -27.2410  -25.1167   21.3918 H   0  0  0  0  0  0
  -28.8558  -15.5699   20.9121 H   0  0  0  0  0  0
  1 25  1  0  0  0
  1 30  2  0  0  0
  1 84  1  0  0  0
  2  3  1  0  0  0
  2 25  1  0  0  0
  2 86  1  0  0  0
  2 87  1  0  0  0
  3  4  1  0  0  0
  3 88  1  0  0  0
  3 89  1  0  0  0
  4  5  1  0  0  0
  4 90  1  0  0  0
  4 91  1  0  0  0
  5  6  1  0  0  0
  5 26  1  0  0  0
  5 92  1  0  0  0
  6 25  1  0  0  0
  6 93  1  0  0  0
  6 94  1  0  0  0
  7  8  2  0  0  0
  7 26  1  0  0  0
  7 29  1  0  0  0
  8  9  1  0  0  0
  8 22  1  0  0  0
  9 10  1  0  0  0
  9 27  2  0  0  0
 10 11  2  0  0  0
 10 15  1  0  0  0
 11 12  1  0  0  0
 11 95  1  0  0  0
 12 13  2  0  0  0
 12 96  1  0  0  0
 13 14  1  0  0  0
 13 31  1  0  0  0
 14 15  2  0  0  0
 14 97  1  0  0  0
 15 98  1  0  0  0
 16 17  2  0  0  0
 16 21  1  0  0  0
 16 31  1  0  0  0
 17 18  1  0  0  0
 17 99  1  0  0  0
 18 19  2  0  0  0
 18100  1  0  0  0
 19 20  1  0  0  0
 19 24  1  0  0  0
 20 21  2  0  0  0
 20101  1  0  0  0
 21 23  1  0  0  0
 22 28  1  0  0  0
 22 32  2  0  0  0
 26 27  1  0  0  0
 28102  1  0  0  0
 28103  1  0  0  0
 29104  1  0  0  0
 29105  1  0  0  0
 33 34  1  0  0  0
 33 66  1  0  0  0
 33 70  2  0  0  0
 34 36  1  0  0  0
 34 59  1  0  0  0
 34106  1  0  0  0
 35 44  2  0  0  0
 35 45  1  0  0  0
 35 68  1  0  0  0
 36 56  1  0  0  0
 36107  1  0  0  0
 37 39  1  0  0  0
 37 47  1  0  0  0
 37 66  1  0  0  0
 37108  1  0  0  0
 38 43  2  0  0  0
 38 46  1  0  0  0
 38 47  1  0  0  0
 39 64  1  0  0  0
 39 67  2  0  0  0
 40 52  1  0  0  0
 40 53  2  0  0  0
 40 58  1  0  0  0
 41109  1  0  0  0
 41110  1  0  0  0
 41111  1  0  0  0
 41 48  1  0  0  0
 42 43  1  0  0  0
 42 66  1  0  0  0
 42112  1  0  0  0
 42113  1  0  0  0
 43 44  1  0  0  0
 44114  1  0  0  0
 45 46  2  0  0  0
 45115  1  0  0  0
 46116  1  0  0  0
 47117  1  0  0  0
 47118  1  0  0  0
 48 56  1  0  0  0
 48 65  1  0  0  0
 48119  1  0  0  0
 49 50  1  0  0  0
 49 53  1  0  0  0
 49 64  1  0  0  0
 49120  1  0  0  0
 50 51  1  0  0  0
 50121  1  0  0  0
 50122  1  0  0  0
 51 52  1  0  0  0
 51123  1  0  0  0
 51124  1  0  0  0
 52125  1  0  0  0
 52126  1  0  0  0
 53 54  1  0  0  0
 54 55  2  0  0  0
 54127  1  0  0  0
 55 57  1  0  0  0
 55128  1  0  0  0
 56 69  2  0  0  0
 57 58  2  0  0  0
 57129  1  0  0  0
 58130  1  0  0  0
 59 60  1  0  0  0
 59 61  1  0  0  0
 59 62  1  0  0  0
 60131  1  0  0  0
 60132  1  0  0  0
 60133  1  0  0  0
 61134  1  0  0  0
 61135  1  0  0  0
 61136  1  0  0  0
 62137  1  0  0  0
 62138  1  0  0  0
 62139  1  0  0  0
 63 65  1  0  0  0
 63140  1  0  0  0
 63141  1  0  0  0
 63142  1  0  0  0
 64143  1  0  0  0
 65144  1  0  0  0
 68 83  1  0  0  0
 71 72  2  0  0  0
 71 75  1  0  0  0
 71145  1  0  0  0
 72 76  1  0  0  0
 72146  1  0  0  0
 73 74  1  0  0  0
 73 76  2  0  0  0
 73147  1  0  0  0
 74 75  2  0  0  0
 74 80  1  0  0  0
 75 82  1  0  0  0
 76 85  1  0  0  0
 77 78  1  0  0  0
 77 80  1  0  0  0
 77148  1  0  0  0
 77149  1  0  0  0
 78 81  1  0  0  0
 78150  1  0  0  0
 78151  1  0  0  0
 79 80  1  0  0  0
 79 81  1  0  0  0
 79152  1  0  0  0
 79153  1  0  0  0
 80154  1  0  0  0
 81 83  1  0  0  0
 81155  1  0  0  0
 82 84  1  0  0  0
 82156  1  0  0  0
 82157  1  0  0  0
 83158  1  0  0  0
 83159  1  0  0  0
 84160  1  0  0  0
M  ISO  4   1 100  68 101  83 101  84 100
M  END
> <chiral flag>
0

> <version>
0

> <s_m_source_file>
/data/baiqing/PycharmProjects/Reinvent-master-3.2/result/LINK_invent/BTK/process_docking_weight1_custom_product_contain_oxygen_bond_distance_aromatic_linkinvent_7_9_3/rearranged_h_0140.sdf

> <i_m_source_file_index>
23

> <r_mmod_Potential_Energy-OPLS-2005>
588.739196777344

> <r_mmod_Stretch_Energy-OPLS-2005>
166.8427734375

> <r_mmod_Bend_Energy-OPLS-2005>
504.972839355469

> <r_mmod_Torsional_Energy-OPLS-2005>
268.474304199219

> <r_mmod_Improper_Torsional_Energy-OPLS-2005>
5.12645053863525

> <r_mmod_Van_der_Waal_Energy-OPLS-2005>
150.215347290039

> <r_mmod_Electrostatic_Energy-OPLS-2005>
-402.170928955078

> <r_mmod_Solvation_Energy-OPLS-2005>
-201.363372802734

> <b_mmod_Minimization_Converged-OPLS-2005>
0

> <r_mmod_RMS_Derivative-OPLS-2005>
4.55868816375732

$$$$
23
                    3D
 Structure written by MMmdl.
152160  0  0  1  0            999 V2000
  -30.5137  -15.0166   20.3997 C   0  0  0  0  0  0
  -30.4396  -12.6217   19.5320 C   0  0  0  0  0  0
  -29.5340  -12.5262   18.2801 C   0  0  0  0  0  0
  -28.0658  -12.3043   18.6882 C   0  0  0  0  0  0
  -27.6248  -13.2535   19.8322 C   0  0  2  0  0  0
  -28.6559  -13.3210   20.9757 C   0  0  0  0  0  0
  -25.2457  -13.8224   20.5716 C   0  0  0  0  0  0
  -24.1776  -13.0447   20.9222 C   0  0  0  0  0  0
  -24.6386  -11.6931   20.8740 C   0  0  0  0  0  0
  -23.9069  -10.4299   21.0406 C   0  0  0  0  0  0
  -24.3620   -9.4213   21.9182 C   0  0  0  0  0  0
  -23.6296   -8.2250   22.0756 C   0  0  0  0  0  0
  -22.4277   -8.0285   21.3546 C   0  0  0  0  0  0
  -21.9913   -9.0258   20.4645 C   0  0  0  0  0  0
  -22.7244  -10.2135   20.3053 C   0  0  0  0  0  0
  -21.6854   -6.0724   22.5271 C   0  0  0  0  0  0
  -21.4022   -6.5636   23.8198 C   0  0  0  0  0  0
  -21.3658   -5.6793   24.9164 C   0  0  0  0  0  0
  -21.6045   -4.3057   24.7219 C   0  0  0  0  0  0
  -21.8822   -3.8143   23.4344 C   0  0  0  0  0  0
  -21.9205   -4.6957   22.3396 C   0  0  0  0  0  0
  -22.7800  -13.5223   21.1888 C   0  0  0  0  0  0
  -22.1670   -4.2147   21.0970 F   0  0  0  0  0  0
  -21.5625   -3.4534   25.7725 F   0  0  0  0  0  0
  -29.9336  -13.7402   20.3877 N   0  0  0  0  0  0
  -26.2863  -12.9456   20.3212 N   0  0  0  0  0  0
  -25.9314  -11.6581   20.5700 N   0  0  0  0  0  0
  -22.0448  -12.8188   22.0423 N   0  0  0  0  0  0
  -25.4154  -15.1948   20.4165 N   0  0  0  0  0  0
  -31.7255  -15.0381   20.1486 O   0  0  0  0  0  0
  -21.6647   -6.8876   21.4233 O   0  0  0  0  0  0
  -22.3487  -14.5535   20.6754 O   0  0  0  0  0  0
  -24.6481  -31.8396   23.1814 C   0  0  0  0  0  0
  -25.9235  -32.4670   23.8225 C   0  0  1  0  0  0
  -27.2076  -27.0803   20.1763 C   0  0  0  0  0  0
  -25.5970  -33.8472   24.2170 N   0  0  0  0  0  0
  -23.4533  -30.4561   21.5296 C   0  0  2  0  0  0
  -24.8993  -28.8642   20.1161 C   0  0  0  0  0  0
  -22.7583  -29.4533   22.4851 C   0  0  0  0  0  0
  -18.0318  -28.1421   22.8492 C   0  0  0  0  0  0
  -24.1481  -36.7234   23.2646 C   0  0  0  0  0  0
  -26.0102  -30.6969   21.3816 C   0  0  0  0  0  0
  -26.0780  -29.2978   20.7366 C   0  0  0  0  0  0
  -27.2344  -28.4233   20.7448 C   0  0  0  0  0  0
  -26.0110  -26.7641   19.5010 C   0  0  0  0  0  0
  -24.8805  -27.6123   19.4796 C   0  0  0  0  0  0
  -23.6792  -29.7739   20.1522 C   0  0  0  0  0  0
  -25.4119  -36.3026   24.0322 C   0  0  1  0  0  0
  -20.5933  -28.3727   23.1247 C   0  0  2  0  0  0
  -20.6784  -26.9428   22.5420 C   0  0  0  0  0  0
  -19.5753  -26.6405   21.5231 C   0  0  0  0  0  0
  -18.1938  -26.7956   22.1631 C   0  0  0  0  0  0
  -19.1583  -28.8891   23.2865 C   0  0  0  0  0  0
  -18.9500  -30.1487   23.8888 C   0  0  0  0  0  0
  -17.6501  -30.6618   24.0569 C   0  0  0  0  0  0
  -25.9090  -34.9398   23.5066 C   0  0  0  0  0  0
  -16.5385  -29.9125   23.6340 C   0  0  0  0  0  0
  -16.7304  -28.6536   23.0372 C   0  0  0  0  0  0
  -26.4521  -31.6527   25.0666 C   0  0  0  0  0  0
  -25.3695  -31.3731   26.1346 C   0  0  0  0  0  0
  -27.0348  -30.2925   24.6206 C   0  0  0  0  0  0
  -27.6069  -32.4252   25.7471 C   0  0  0  0  0  0
  -27.5572  -37.1782   24.8481 C   0  0  0  0  0  0
  -21.4270  -29.3056   22.3613 N   0  0  0  0  0  0
  -26.4279  -37.3745   23.9429 N   0  0  0  0  0  0
  -24.7251  -31.0206   22.0862 N   0  0  0  0  0  0
  -23.4213  -28.8097   23.3033 O   0  0  0  0  0  0
  -28.2666  -26.0844   20.1723 O   0  0  0  0  0  0
  -26.5684  -34.8900   22.4657 O   0  0  0  0  0  0
  -23.5597  -32.1280   23.7022 O   0  0  0  0  0  0
  -28.6574  -20.1716   20.1607 C   0  0  0  0  0  0
  -30.3364  -21.3933   20.7600 C   0  0  0  0  0  0
  -29.0617  -21.6207   20.2955 C   0  0  0  0  0  0
  -29.6862  -19.2123   20.4342 C   0  0  0  0  0  0
  -30.1068  -17.6974   20.4431 C   0  0  0  0  0  0
  -29.6663  -16.3382   20.5185 C   0  0  0  0  0  0
  -29.3682  -24.6305   21.7375 C   0  0  0  0  0  0
  -26.9096  -24.4558   21.5302 C   0  0  0  0  0  0
  -28.3895  -23.1167   19.8646 C   0  0  0  0  0  0
  -28.2162  -24.5934   20.7242 C   0  0  0  0  0  0
  -30.6977  -20.0501   20.8422 O   0  0  0  0  0  0
  -31.4759  -12.7751   19.2271 H   0  0  0  0  0  0
  -30.4337  -11.6816   20.0871 H   0  0  0  0  0  0
  -29.8660  -11.7122   17.6350 H   0  0  0  0  0  0
  -29.6210  -13.4405   17.6928 H   0  0  0  0  0  0
  -27.9704  -11.2679   19.0159 H   0  0  0  0  0  0
  -27.4093  -12.4136   17.8245 H   0  0  0  0  0  0
  -27.5784  -14.2467   19.3847 H   0  0  0  0  0  0
  -28.7498  -12.3616   21.4857 H   0  0  0  0  0  0
  -28.3397  -14.0396   21.7338 H   0  0  0  0  0  0
  -25.2752   -9.5703   22.4767 H   0  0  0  0  0  0
  -24.0007   -7.4642   22.7477 H   0  0  0  0  0  0
  -21.0845   -8.8768   19.8949 H   0  0  0  0  0  0
  -22.3687  -10.9675   19.6171 H   0  0  0  0  0  0
  -21.2007   -7.6144   23.9700 H   0  0  0  0  0  0
  -21.1478   -6.0520   25.9067 H   0  0  0  0  0  0
  -22.0604   -2.7609   23.2831 H   0  0  0  0  0  0
  -22.4080  -11.9837   22.4774 H   0  0  0  0  0  0
  -21.1069  -13.1211   22.2639 H   0  0  0  0  0  0
  -24.6536  -15.8528   20.5376 H   0  0  0  0  0  0
  -26.2610  -15.6304   20.0704 H   0  0  0  0  0  0
  -26.7290  -32.5257   23.0938 H   0  0  0  0  0  0
  -25.0075  -33.9547   25.0294 H   0  0  0  0  0  0
  -22.7606  -31.2846   21.3717 H   0  0  0  0  0  0
  -23.3748  -35.9556   23.3296 H   0  0  0  0  0  0
  -24.3575  -36.8864   22.2062 H   0  0  0  0  0  0
  -23.7198  -37.6418   23.6663 H   0  0  0  0  0  0
  -26.1576  -31.4380   20.5931 H   0  0  0  0  0  0
  -26.8870  -30.7650   22.0142 H   0  0  0  0  0  0
  -28.1346  -28.7591   21.2378 H   0  0  0  0  0  0
  -25.9386  -25.8089   19.0012 H   0  0  0  0  0  0
  -23.9829  -27.2797   18.9773 H   0  0  0  0  0  0
  -23.8189  -30.5390   19.3877 H   0  0  0  0  0  0
  -22.7915  -29.2168   19.8461 H   0  0  0  0  0  0
  -25.1306  -36.1850   25.0809 H   0  0  0  0  0  0
  -21.0055  -28.3288   24.1357 H   0  0  0  0  0  0
  -20.5661  -26.2344   23.3640 H   0  0  0  0  0  0
  -21.6651  -26.7433   22.1223 H   0  0  0  0  0  0
  -19.6912  -25.6319   21.1260 H   0  0  0  0  0  0
  -19.6656  -27.3214   20.6759 H   0  0  0  0  0  0
  -17.4201  -26.6722   21.4032 H   0  0  0  0  0  0
  -18.0308  -26.0115   22.9038 H   0  0  0  0  0  0
  -19.7983  -30.7324   24.2232 H   0  0  0  0  0  0
  -17.5058  -31.6288   24.5202 H   0  0  0  0  0  0
  -15.5385  -30.3033   23.7687 H   0  0  0  0  0  0
  -15.8688  -28.0856   22.7114 H   0  0  0  0  0  0
  -24.5939  -30.6989   25.7685 H   0  0  0  0  0  0
  -24.8792  -32.2896   26.4620 H   0  0  0  0  0  0
  -25.7984  -30.9044   27.0214 H   0  0  0  0  0  0
  -26.2958  -29.6708   24.1120 H   0  0  0  0  0  0
  -27.3864  -29.7134   25.4757 H   0  0  0  0  0  0
  -27.8901  -30.4171   23.9560 H   0  0  0  0  0  0
  -27.2705  -33.3606   26.1956 H   0  0  0  0  0  0
  -28.3959  -32.6685   25.0345 H   0  0  0  0  0  0
  -28.0610  -31.8392   26.5465 H   0  0  0  0  0  0
  -28.2625  -38.0053   24.7558 H   0  0  0  0  0  0
  -28.1043  -36.2605   24.6293 H   0  0  0  0  0  0
  -27.2302  -37.1425   25.8885 H   0  0  0  0  0  0
  -20.9477  -29.8780   21.6793 H   0  0  0  0  0  0
  -26.0140  -38.2810   24.1430 H   0  0  0  0  0  0
  -27.6904  -19.8566   19.7929 H   0  0  0  0  0  0
  -31.1423  -22.0680   21.0159 H   0  0  0  0  0  0
  -31.1802  -17.6842   20.3080 H   0  0  0  0  0  0
  -28.6048  -16.2000   20.6605 H   0  0  0  0  0  0
  -29.3386  -23.7689   22.4052 H   0  0  0  0  0  0
  -29.3280  -25.5259   22.3577 H   0  0  0  0  0  0
  -30.3306  -24.6217   21.2279 H   0  0  0  0  0  0
  -26.9009  -23.5301   22.1052 H   0  0  0  0  0  0
  -26.0365  -24.4225   20.8787 H   0  0  0  0  0  0
  -26.7721  -25.2796   22.2324 H   0  0  0  0  0  0
  -27.4143  -22.8805   19.4364 H   0  0  0  0  0  0
  -28.9831  -23.3918   18.9923 H   0  0  0  0  0  0
  1 25  1  0  0  0
  1 30  2  0  0  0
  1 76  1  0  0  0
  2  3  1  0  0  0
  2 25  1  0  0  0
  2 82  1  0  0  0
  2 83  1  0  0  0
  3  4  1  0  0  0
  3 84  1  0  0  0
  3 85  1  0  0  0
  4  5  1  0  0  0
  4 86  1  0  0  0
  4 87  1  0  0  0
  5  6  1  0  0  0
  5 26  1  0  0  0
  5 88  1  0  0  0
  6 25  1  0  0  0
  6 89  1  0  0  0
  6 90  1  0  0  0
  7  8  2  0  0  0
  7 26  1  0  0  0
  7 29  1  0  0  0
  8  9  1  0  0  0
  8 22  1  0  0  0
  9 10  1  0  0  0
  9 27  2  0  0  0
 10 11  2  0  0  0
 10 15  1  0  0  0
 11 12  1  0  0  0
 11 91  1  0  0  0
 12 13  2  0  0  0
 12 92  1  0  0  0
 13 14  1  0  0  0
 13 31  1  0  0  0
 14 15  2  0  0  0
 14 93  1  0  0  0
 15 94  1  0  0  0
 16 17  2  0  0  0
 16 21  1  0  0  0
 16 31  1  0  0  0
 17 18  1  0  0  0
 17 95  1  0  0  0
 18 19  2  0  0  0
 18 96  1  0  0  0
 19 20  1  0  0  0
 19 24  1  0  0  0
 20 21  2  0  0  0
 20 97  1  0  0  0
 21 23  1  0  0  0
 22 28  1  0  0  0
 22 32  2  0  0  0
 26 27  1  0  0  0
 28 98  1  0  0  0
 28 99  1  0  0  0
 29100  1  0  0  0
 29101  1  0  0  0
 33 34  1  0  0  0
 33 66  1  0  0  0
 33 70  2  0  0  0
 34 36  1  0  0  0
 34 59  1  0  0  0
 34102  1  0  0  0
 35 44  2  0  0  0
 35 45  1  0  0  0
 35 68  1  0  0  0
 36 56  1  0  0  0
 36103  1  0  0  0
 37 39  1  0  0  0
 37 47  1  0  0  0
 37 66  1  0  0  0
 37104  1  0  0  0
 38 43  2  0  0  0
 38 46  1  0  0  0
 38 47  1  0  0  0
 39 64  1  0  0  0
 39 67  2  0  0  0
 40 52  1  0  0  0
 40 53  2  0  0  0
 40 58  1  0  0  0
 41105  1  0  0  0
 41106  1  0  0  0
 41107  1  0  0  0
 41 48  1  0  0  0
 42 43  1  0  0  0
 42 66  1  0  0  0
 42108  1  0  0  0
 42109  1  0  0  0
 43 44  1  0  0  0
 44110  1  0  0  0
 45 46  2  0  0  0
 45111  1  0  0  0
 46112  1  0  0  0
 47113  1  0  0  0
 47114  1  0  0  0
 48 56  1  0  0  0
 48 65  1  0  0  0
 48115  1  0  0  0
 49 50  1  0  0  0
 49 53  1  0  0  0
 49 64  1  0  0  0
 49116  1  0  0  0
 50 51  1  0  0  0
 50117  1  0  0  0
 50118  1  0  0  0
 51 52  1  0  0  0
 51119  1  0  0  0
 51120  1  0  0  0
 52121  1  0  0  0
 52122  1  0  0  0
 53 54  1  0  0  0
 54 55  2  0  0  0
 54123  1  0  0  0
 55 57  1  0  0  0
 55124  1  0  0  0
 56 69  2  0  0  0
 57 58  2  0  0  0
 57125  1  0  0  0
 58126  1  0  0  0
 59 60  1  0  0  0
 59 61  1  0  0  0
 59 62  1  0  0  0
 60127  1  0  0  0
 60128  1  0  0  0
 60129  1  0  0  0
 61130  1  0  0  0
 61131  1  0  0  0
 61132  1  0  0  0
 62133  1  0  0  0
 62134  1  0  0  0
 62135  1  0  0  0
 63 65  1  0  0  0
 63136  1  0  0  0
 63137  1  0  0  0
 63138  1  0  0  0
 64139  1  0  0  0
 65140  1  0  0  0
 68 80  1  0  0  0
 71 73  1  0  0  0
 71 74  2  0  0  0
 71141  1  0  0  0
 72 73  2  0  0  0
 72 81  1  0  0  0
 72142  1  0  0  0
 73 79  1  0  0  0
 74 75  1  0  0  0
 74 81  1  0  0  0
 75 76  2  0  0  0
 75143  1  0  0  0
 76144  1  0  0  0
 77145  1  0  0  0
 77146  1  0  0  0
 77147  1  0  0  0
 77 80  1  0  0  0
 78 80  1  0  0  0
 78148  1  0  0  0
 78149  1  0  0  0
 78150  1  0  0  0
 79 80  1  0  0  0
 79151  1  0  0  0
 79152  1  0  0  0
M  ISO  4   1 100  68 101  76 100  80 101
M  END
> <chiral flag>
0

> <version>
0

> <s_m_source_file>
/data/baiqing/PycharmProjects/Reinvent-master-3.2/result/LINK_invent/BTK/process_docking_weight1_custom_product_contain_oxygen_bond_distance_aromatic_linkinvent_7_9_3/rearranged_h_0140.sdf

> <i_m_source_file_index>
24

> <r_mmod_Potential_Energy-OPLS-2005>
656.198181152344

> <r_mmod_Stretch_Energy-OPLS-2005>
308.838287353516

> <r_mmod_Bend_Energy-OPLS-2005>
321.519073486328

> <r_mmod_Torsional_Energy-OPLS-2005>
212.690216064453

> <r_mmod_Improper_Torsional_Energy-OPLS-2005>
5.05749654769897

> <r_mmod_Van_der_Waal_Energy-OPLS-2005>
111.126007080078

> <r_mmod_Electrostatic_Energy-OPLS-2005>
-348.509155273438

> <r_mmod_Solvation_Energy-OPLS-2005>
-192.301528930664

> <b_mmod_Minimization_Converged-OPLS-2005>
0

> <r_mmod_RMS_Derivative-OPLS-2005>
2.89603424072266

$$$$
24
                    3D
 Structure written by MMmdl.
156164  0  0  1  0            999 V2000
  -30.6223  -14.7271   20.4315 C   0  0  0  0  0  0
  -30.4351  -12.4468   19.4583 C   0  0  0  0  0  0
  -29.5100  -12.4904   18.2246 C   0  0  0  0  0  0
  -28.0330  -12.3375   18.6354 C   0  0  0  0  0  0
  -27.6411  -13.2340   19.8426 C   0  0  2  0  0  0
  -28.6886  -13.1629   20.9732 C   0  0  0  0  0  0
  -25.2537  -13.8223   20.5753 C   0  0  0  0  0  0
  -24.1815  -13.0475   20.9260 C   0  0  0  0  0  0
  -24.6366  -11.6936   20.8749 C   0  0  0  0  0  0
  -23.9033  -10.4325   21.0420 C   0  0  0  0  0  0
  -24.3576   -9.4246   21.9211 C   0  0  0  0  0  0
  -23.6260   -8.2274   22.0780 C   0  0  0  0  0  0
  -22.4259   -8.0300   21.3552 C   0  0  0  0  0  0
  -21.9882   -9.0269   20.4659 C   0  0  0  0  0  0
  -22.7204  -10.2149   20.3068 C   0  0  0  0  0  0
  -21.6863   -6.0719   22.5275 C   0  0  0  0  0  0
  -21.4022   -6.5609   23.8216 C   0  0  0  0  0  0
  -21.3664   -5.6767   24.9182 C   0  0  0  0  0  0
  -21.6055   -4.3037   24.7223 C   0  0  0  0  0  0
  -21.8819   -3.8120   23.4348 C   0  0  0  0  0  0
  -21.9198   -4.6941   22.3407 C   0  0  0  0  0  0
  -22.7836  -13.5309   21.1855 C   0  0  0  0  0  0
  -22.1659   -4.2126   21.0987 F   0  0  0  0  0  0
  -21.5631   -3.4524   25.7730 F   0  0  0  0  0  0
  -29.9854  -13.5106   20.3819 N   0  0  0  0  0  0
  -26.2944  -12.9406   20.3269 N   0  0  0  0  0  0
  -25.9294  -11.6544   20.5721 N   0  0  0  0  0  0
  -22.0339  -12.8388   22.0362 N   0  0  0  0  0  0
  -25.4232  -15.1957   20.4186 N   0  0  0  0  0  0
  -31.8221  -14.7978   20.1545 O   0  0  0  0  0  0
  -21.6636   -6.8879   21.4249 O   0  0  0  0  0  0
  -22.3577  -14.5604   20.6637 O   0  0  0  0  0  0
  -24.6320  -31.8539   23.1993 C   0  0  0  0  0  0
  -25.9186  -32.4741   23.8285 C   0  0  1  0  0  0
  -27.2236  -27.2755   20.1085 C   0  0  0  0  0  0
  -25.6026  -33.8543   24.2256 N   0  0  0  0  0  0
  -23.4265  -30.4805   21.5345 C   0  0  2  0  0  0
  -24.8774  -28.9280   20.0922 C   0  0  0  0  0  0
  -22.7468  -29.4584   22.4797 C   0  0  0  0  0  0
  -18.0337  -28.1391   22.8427 C   0  0  0  0  0  0
  -24.1509  -36.7312   23.2625 C   0  0  0  0  0  0
  -25.9700  -30.7651   21.3799 C   0  0  0  0  0  0
  -26.0404  -29.3911   20.7170 C   0  0  0  0  0  0
  -27.2106  -28.5723   20.7207 C   0  0  0  0  0  0
  -26.0412  -26.8739   19.4508 C   0  0  0  0  0  0
  -24.8834  -27.6802   19.4456 C   0  0  0  0  0  0
  -23.6510  -29.8203   20.1459 C   0  0  0  0  0  0
  -25.4138  -36.3094   24.0319 C   0  0  1  0  0  0
  -20.5928  -28.3681   23.1246 C   0  0  2  0  0  0
  -20.6816  -26.9377   22.5390 C   0  0  0  0  0  0
  -19.5802  -26.6402   21.5164 C   0  0  0  0  0  0
  -18.2000  -26.7922   22.1589 C   0  0  0  0  0  0
  -19.1577  -28.8854   23.2854 C   0  0  0  0  0  0
  -18.9458  -30.1447   23.8908 C   0  0  0  0  0  0
  -17.6439  -30.6543   24.0606 C   0  0  0  0  0  0
  -25.9049  -34.9445   23.5076 C   0  0  0  0  0  0
  -16.5357  -29.9047   23.6299 C   0  0  0  0  0  0
  -16.7316  -28.6508   23.0246 C   0  0  0  0  0  0
  -26.4588  -31.6557   25.0662 C   0  0  0  0  0  0
  -25.3804  -31.3638   26.1358 C   0  0  0  0  0  0
  -27.0439  -30.2982   24.6134 C   0  0  0  0  0  0
  -27.6174  -32.4259   25.7426 C   0  0  0  0  0  0
  -27.5598  -37.1825   24.8449 C   0  0  0  0  0  0
  -21.4173  -29.3016   22.3585 N   0  0  0  0  0  0
  -26.4320  -37.3796   23.9391 N   0  0  0  0  0  0
  -24.6943  -31.0489   22.0961 N   0  0  0  0  0  0
  -23.4177  -28.8137   23.2906 O   0  0  0  0  0  0
  -28.3467  -26.4292   20.1978 O   0  0  0  0  0  0
  -26.5523  -34.8930   22.4574 O   0  0  0  0  0  0
  -23.5487  -32.1363   23.7301 O   0  0  0  0  0  0
  -29.8697  -19.8564   19.7028 C   0  0  0  0  0  0
  -28.0530  -20.1150   20.8744 C   0  0  0  0  0  0
  -28.8748  -20.8595   20.0527 C   0  0  0  0  0  0
  -29.6143  -18.6302   20.3034 C   0  0  0  0  0  0
  -26.6683  -23.5131   20.4872 C   0  0  0  0  0  0
  -28.8440  -23.6760   21.7186 C   0  0  0  0  0  0
  -28.7737  -22.3638   19.5155 C   0  0  0  0  0  0
  -30.4465  -17.2905   20.3804 C   0  0  0  0  0  0
  -28.4634  -25.0721   19.5730 C   0  0  0  0  0  0
  -28.1959  -23.6539   20.3243 C   0  0  0  0  0  0
  -29.8790  -15.8902   20.5536 N   0  0  0  0  0  0
  -28.4813  -18.8009   21.0442 O   0  0  0  0  0  0
  -31.4695  -12.5799   19.1383 H   0  0  0  0  0  0
  -30.4016  -11.4724   19.9471 H   0  0  0  0  0  0
  -29.7831  -11.6971   17.5281 H   0  0  0  0  0  0
  -29.6554  -13.4298   17.6906 H   0  0  0  0  0  0
  -27.8822  -11.2897   18.8920 H   0  0  0  0  0  0
  -27.3848  -12.5376   17.7801 H   0  0  0  0  0  0
  -27.6359  -14.2594   19.4673 H   0  0  0  0  0  0
  -28.7261  -12.1616   21.4070 H   0  0  0  0  0  0
  -28.4313  -13.8460   21.7845 H   0  0  0  0  0  0
  -25.2682   -9.5757   22.4840 H   0  0  0  0  0  0
  -23.9943   -7.4688   22.7534 H   0  0  0  0  0  0
  -21.0798   -8.8785   19.8980 H   0  0  0  0  0  0
  -22.3638  -10.9682   19.6201 H   0  0  0  0  0  0
  -21.2000   -7.6113   23.9723 H   0  0  0  0  0  0
  -21.1504   -6.0492   25.9097 H   0  0  0  0  0  0
  -22.0588   -2.7578   23.2847 H   0  0  0  0  0  0
  -22.3735  -12.0005   22.4837 H   0  0  0  0  0  0
  -21.0970  -13.1582   22.2410 H   0  0  0  0  0  0
  -24.6616  -15.8526   20.5565 H   0  0  0  0  0  0
  -26.2601  -15.6294   20.0503 H   0  0  0  0  0  0
  -26.7222  -32.5405   23.0995 H   0  0  0  0  0  0
  -25.0392  -33.9655   25.0557 H   0  0  0  0  0  0
  -22.7234  -31.3045   21.3881 H   0  0  0  0  0  0
  -23.3787  -35.9625   23.3266 H   0  0  0  0  0  0
  -24.3599  -36.8943   22.2040 H   0  0  0  0  0  0
  -23.7249  -37.6514   23.6638 H   0  0  0  0  0  0
  -26.1044  -31.5263   20.6127 H   0  0  0  0  0  0
  -26.8504  -30.8145   22.0076 H   0  0  0  0  0  0
  -28.0982  -28.9137   21.2357 H   0  0  0  0  0  0
  -25.9810  -25.9174   18.9552 H   0  0  0  0  0  0
  -23.9992  -27.3289   18.9333 H   0  0  0  0  0  0
  -23.7895  -30.6078   19.4033 H   0  0  0  0  0  0
  -22.7683  -29.2660   19.8252 H   0  0  0  0  0  0
  -25.1334  -36.1956   25.0816 H   0  0  0  0  0  0
  -21.0056  -28.3323   24.1354 H   0  0  0  0  0  0
  -20.5650  -26.2205   23.3538 H   0  0  0  0  0  0
  -21.6707  -26.7364   22.1247 H   0  0  0  0  0  0
  -19.6920  -25.6337   21.1120 H   0  0  0  0  0  0
  -19.6772  -27.3275   20.6771 H   0  0  0  0  0  0
  -17.4266  -26.6580   21.3996 H   0  0  0  0  0  0
  -18.0501  -26.0095   22.9046 H   0  0  0  0  0  0
  -19.7904  -30.7297   24.2302 H   0  0  0  0  0  0
  -17.4939  -31.6162   24.5309 H   0  0  0  0  0  0
  -15.5346  -30.2937   23.7589 H   0  0  0  0  0  0
  -15.8733  -28.0831   22.6905 H   0  0  0  0  0  0
  -24.6054  -30.6927   25.7642 H   0  0  0  0  0  0
  -24.8893  -32.2740   26.4782 H   0  0  0  0  0  0
  -25.8130  -30.8808   27.0118 H   0  0  0  0  0  0
  -26.2971  -29.6647   24.1321 H   0  0  0  0  0  0
  -27.4313  -29.7370   25.4648 H   0  0  0  0  0  0
  -27.8787  -30.4267   23.9239 H   0  0  0  0  0  0
  -27.2886  -33.3611   26.1958 H   0  0  0  0  0  0
  -28.4042  -32.6690   25.0270 H   0  0  0  0  0  0
  -28.0781  -31.8353   26.5368 H   0  0  0  0  0  0
  -28.2622  -38.0120   24.7541 H   0  0  0  0  0  0
  -28.1106  -36.2666   24.6273 H   0  0  0  0  0  0
  -27.2274  -37.1452   25.8831 H   0  0  0  0  0  0
  -20.9248  -29.8787   21.6906 H   0  0  0  0  0  0
  -26.0220  -38.2872   24.1407 H   0  0  0  0  0  0
  -30.7261  -20.0277   19.0636 H   0  0  0  0  0  0
  -27.1392  -20.3495   21.4039 H   0  0  0  0  0  0
  -26.3986  -22.6142   21.0394 H   0  0  0  0  0  0
  -26.1638  -23.4618   19.5213 H   0  0  0  0  0  0
  -26.2483  -24.3618   21.0313 H   0  0  0  0  0  0
  -29.9241  -23.8080   21.6529 H   0  0  0  0  0  0
  -28.4473  -24.4877   22.3320 H   0  0  0  0  0  0
  -28.6595  -22.7451   22.2546 H   0  0  0  0  0  0
  -28.2617  -22.3108   18.5536 H   0  0  0  0  0  0
  -29.8012  -22.6127   19.2496 H   0  0  0  0  0  0
  -31.1770  -17.4197   21.1811 H   0  0  0  0  0  0
  -31.0537  -17.2585   19.4731 H   0  0  0  0  0  0
  -27.9477  -25.0618   18.6141 H   0  0  0  0  0  0
  -29.5141  -25.0430   19.2841 H   0  0  0  0  0  0
  -28.8853  -15.8068   20.7070 H   0  0  0  0  0  0
  1 25  1  0  0  0
  1 30  2  0  0  0
  1 81  1  0  0  0
  2  3  1  0  0  0
  2 25  1  0  0  0
  2 83  1  0  0  0
  2 84  1  0  0  0
  3  4  1  0  0  0
  3 85  1  0  0  0
  3 86  1  0  0  0
  4  5  1  0  0  0
  4 87  1  0  0  0
  4 88  1  0  0  0
  5  6  1  0  0  0
  5 26  1  0  0  0
  5 89  1  0  0  0
  6 25  1  0  0  0
  6 90  1  0  0  0
  6 91  1  0  0  0
  7  8  2  0  0  0
  7 26  1  0  0  0
  7 29  1  0  0  0
  8  9  1  0  0  0
  8 22  1  0  0  0
  9 10  1  0  0  0
  9 27  2  0  0  0
 10 11  2  0  0  0
 10 15  1  0  0  0
 11 12  1  0  0  0
 11 92  1  0  0  0
 12 13  2  0  0  0
 12 93  1  0  0  0
 13 14  1  0  0  0
 13 31  1  0  0  0
 14 15  2  0  0  0
 14 94  1  0  0  0
 15 95  1  0  0  0
 16 17  2  0  0  0
 16 21  1  0  0  0
 16 31  1  0  0  0
 17 18  1  0  0  0
 17 96  1  0  0  0
 18 19  2  0  0  0
 18 97  1  0  0  0
 19 20  1  0  0  0
 19 24  1  0  0  0
 20 21  2  0  0  0
 20 98  1  0  0  0
 21 23  1  0  0  0
 22 28  1  0  0  0
 22 32  2  0  0  0
 26 27  1  0  0  0
 28 99  1  0  0  0
 28100  1  0  0  0
 29101  1  0  0  0
 29102  1  0  0  0
 33 34  1  0  0  0
 33 66  1  0  0  0
 33 70  2  0  0  0
 34 36  1  0  0  0
 34 59  1  0  0  0
 34103  1  0  0  0
 35 44  2  0  0  0
 35 45  1  0  0  0
 35 68  1  0  0  0
 36 56  1  0  0  0
 36104  1  0  0  0
 37 39  1  0  0  0
 37 47  1  0  0  0
 37 66  1  0  0  0
 37105  1  0  0  0
 38 43  2  0  0  0
 38 46  1  0  0  0
 38 47  1  0  0  0
 39 64  1  0  0  0
 39 67  2  0  0  0
 40 52  1  0  0  0
 40 53  2  0  0  0
 40 58  1  0  0  0
 41106  1  0  0  0
 41107  1  0  0  0
 41108  1  0  0  0
 41 48  1  0  0  0
 42 43  1  0  0  0
 42 66  1  0  0  0
 42109  1  0  0  0
 42110  1  0  0  0
 43 44  1  0  0  0
 44111  1  0  0  0
 45 46  2  0  0  0
 45112  1  0  0  0
 46113  1  0  0  0
 47114  1  0  0  0
 47115  1  0  0  0
 48 56  1  0  0  0
 48 65  1  0  0  0
 48116  1  0  0  0
 49 50  1  0  0  0
 49 53  1  0  0  0
 49 64  1  0  0  0
 49117  1  0  0  0
 50 51  1  0  0  0
 50118  1  0  0  0
 50119  1  0  0  0
 51 52  1  0  0  0
 51120  1  0  0  0
 51121  1  0  0  0
 52122  1  0  0  0
 52123  1  0  0  0
 53 54  1  0  0  0
 54 55  2  0  0  0
 54124  1  0  0  0
 55 57  1  0  0  0
 55125  1  0  0  0
 56 69  2  0  0  0
 57 58  2  0  0  0
 57126  1  0  0  0
 58127  1  0  0  0
 59 60  1  0  0  0
 59 61  1  0  0  0
 59 62  1  0  0  0
 60128  1  0  0  0
 60129  1  0  0  0
 60130  1  0  0  0
 61131  1  0  0  0
 61132  1  0  0  0
 61133  1  0  0  0
 62134  1  0  0  0
 62135  1  0  0  0
 62136  1  0  0  0
 63 65  1  0  0  0
 63137  1  0  0  0
 63138  1  0  0  0
 63139  1  0  0  0
 64140  1  0  0  0
 65141  1  0  0  0
 68 79  1  0  0  0
 71 73  1  0  0  0
 71 74  2  0  0  0
 71142  1  0  0  0
 72 73  2  0  0  0
 72 82  1  0  0  0
 72143  1  0  0  0
 73 77  1  0  0  0
 74 78  1  0  0  0
 74 82  1  0  0  0
 75144  1  0  0  0
 75145  1  0  0  0
 75146  1  0  0  0
 75 80  1  0  0  0
 76 80  1  0  0  0
 76147  1  0  0  0
 76148  1  0  0  0
 76149  1  0  0  0
 77 80  1  0  0  0
 77150  1  0  0  0
 77151  1  0  0  0
 78 81  1  0  0  0
 78152  1  0  0  0
 78153  1  0  0  0
 79 80  1  0  0  0
 79154  1  0  0  0
 79155  1  0  0  0
 81156  1  0  0  0
M  ISO  4   1 100  68 101  79 101  81 100
M  END
> <chiral flag>
0

> <version>
0

> <s_m_source_file>
/data/baiqing/PycharmProjects/Reinvent-master-3.2/result/LINK_invent/BTK/process_docking_weight1_custom_product_contain_oxygen_bond_distance_aromatic_linkinvent_7_9_3/rearranged_h_0140.sdf

> <i_m_source_file_index>
25

> <r_mmod_Potential_Energy-OPLS-2005>
95.5457611083984

> <r_mmod_Stretch_Energy-OPLS-2005>
112.656440734863

> <r_mmod_Bend_Energy-OPLS-2005>
199.617446899414

> <r_mmod_Torsional_Energy-OPLS-2005>
204.627166748047

> <r_mmod_Improper_Torsional_Energy-OPLS-2005>
5.98726844787598

> <r_mmod_Van_der_Waal_Energy-OPLS-2005>
110.592147827148

> <r_mmod_Electrostatic_Energy-OPLS-2005>
-415.709197998047

> <r_mmod_Solvation_Energy-OPLS-2005>
-201.238388061523

> <b_mmod_Minimization_Converged-OPLS-2005>
0

> <r_mmod_RMS_Derivative-OPLS-2005>
4.72883605957031

$$$$
25
                    3D
 Structure written by MMmdl.
168176  0  0  1  0            999 V2000
  -30.5515  -14.9570   20.4165 C   0  0  0  0  0  0
  -30.4411  -12.5913   19.5100 C   0  0  0  0  0  0
  -29.5269  -12.5234   18.2630 C   0  0  0  0  0  0
  -28.0580  -12.3141   18.6755 C   0  0  0  0  0  0
  -27.6314  -13.2480   19.8385 C   0  0  2  0  0  0
  -28.6726  -13.2805   20.9793 C   0  0  0  0  0  0
  -25.2481  -13.8216   20.5707 C   0  0  0  0  0  0
  -24.1794  -13.0456   20.9213 C   0  0  0  0  0  0
  -24.6396  -11.6930   20.8726 C   0  0  0  0  0  0
  -23.9063  -10.4308   21.0379 C   0  0  0  0  0  0
  -24.3612   -9.4223   21.9163 C   0  0  0  0  0  0
  -23.6297   -8.2252   22.0741 C   0  0  0  0  0  0
  -22.4284   -8.0272   21.3517 C   0  0  0  0  0  0
  -21.9915   -9.0252   20.4630 C   0  0  0  0  0  0
  -22.7234  -10.2143   20.3035 C   0  0  0  0  0  0
  -21.6870   -6.0733   22.5276 C   0  0  0  0  0  0
  -21.4014   -6.5634   23.8200 C   0  0  0  0  0  0
  -21.3667   -5.6780   24.9166 C   0  0  0  0  0  0
  -21.6056   -4.3049   24.7222 C   0  0  0  0  0  0
  -21.8817   -3.8137   23.4340 C   0  0  0  0  0  0
  -21.9193   -4.6951   22.3401 C   0  0  0  0  0  0
  -22.7806  -13.5214   21.1862 C   0  0  0  0  0  0
  -22.1669   -4.2139   21.0980 F   0  0  0  0  0  0
  -21.5634   -3.4531   25.7737 F   0  0  0  0  0  0
  -29.9520  -13.6962   20.3869 N   0  0  0  0  0  0
  -26.2895  -12.9442   20.3222 N   0  0  0  0  0  0
  -25.9331  -11.6570   20.5718 N   0  0  0  0  0  0
  -22.0455  -12.8210   22.0414 N   0  0  0  0  0  0
  -25.4186  -15.1958   20.4177 N   0  0  0  0  0  0
  -31.7539  -14.9968   20.1282 O   0  0  0  0  0  0
  -21.6646   -6.8870   21.4234 O   0  0  0  0  0  0
  -22.3482  -14.5515   20.6701 O   0  0  0  0  0  0
  -24.6424  -31.8411   23.1879 C   0  0  0  0  0  0
  -25.9192  -32.4672   23.8270 C   0  0  1  0  0  0
  -27.2005  -27.1160   20.1690 C   0  0  0  0  0  0
  -25.5913  -33.8480   24.2164 N   0  0  0  0  0  0
  -23.4466  -30.4627   21.5305 C   0  0  2  0  0  0
  -24.8971  -28.8921   20.1081 C   0  0  0  0  0  0
  -22.7551  -29.4534   22.4812 C   0  0  0  0  0  0
  -18.0306  -28.1394   22.8485 C   0  0  0  0  0  0
  -24.1480  -36.7305   23.2647 C   0  0  0  0  0  0
  -26.0031  -30.7092   21.3946 C   0  0  0  0  0  0
  -26.0706  -29.3168   20.7455 C   0  0  0  0  0  0
  -27.2240  -28.4430   20.7637 C   0  0  0  0  0  0
  -26.0246  -26.8271   19.4465 C   0  0  0  0  0  0
  -24.8884  -27.6609   19.4403 C   0  0  0  0  0  0
  -23.6746  -29.7929   20.1494 C   0  0  0  0  0  0
  -25.4104  -36.3031   24.0313 C   0  0  1  0  0  0
  -20.5916  -28.3717   23.1212 C   0  0  2  0  0  0
  -20.6779  -26.9412   22.5389 C   0  0  0  0  0  0
  -19.5755  -26.6371   21.5198 C   0  0  0  0  0  0
  -18.1939  -26.7929   22.1620 C   0  0  0  0  0  0
  -19.1562  -28.8871   23.2849 C   0  0  0  0  0  0
  -18.9487  -30.1465   23.8886 C   0  0  0  0  0  0
  -17.6485  -30.6593   24.0564 C   0  0  0  0  0  0
  -25.9049  -34.9403   23.5058 C   0  0  0  0  0  0
  -16.5370  -29.9094   23.6332 C   0  0  0  0  0  0
  -16.7290  -28.6507   23.0361 C   0  0  0  0  0  0
  -26.4523  -31.6540   25.0716 C   0  0  0  0  0  0
  -25.3691  -31.3777   26.1399 C   0  0  0  0  0  0
  -27.0361  -30.2918   24.6303 C   0  0  0  0  0  0
  -27.6038  -32.4324   25.7506 C   0  0  0  0  0  0
  -27.5568  -37.1794   24.8437 C   0  0  0  0  0  0
  -21.4240  -29.3046   22.3570 N   0  0  0  0  0  0
  -26.4276  -37.3731   23.9381 N   0  0  0  0  0  0
  -24.7171  -31.0275   22.0923 N   0  0  0  0  0  0
  -23.4191  -28.8073   23.2961 O   0  0  0  0  0  0
  -28.2391  -26.1083   20.1781 O   0  0  0  0  0  0
  -26.5659  -34.8913   22.4644 O   0  0  0  0  0  0
  -23.5546  -32.1282   23.7091 O   0  0  0  0  0  0
  -31.2008  -19.1864   18.7069 C   0  0  0  0  0  0
  -30.5200  -20.3312   19.1749 C   0  0  0  0  0  0
  -30.9597  -17.8911   19.2092 C   0  0  0  0  0  0
  -29.5384  -20.2693   20.1866 C   0  0  0  0  0  0
  -29.3043  -18.8742   20.6882 C   0  0  0  0  0  0
  -30.0108  -17.6350   20.2223 C   0  0  0  0  0  0
  -28.2414  -18.7283   21.7578 C   0  0  0  0  0  0
  -28.6397  -23.8708   23.2534 C   0  0  0  0  0  0
  -30.4534  -23.7101   20.2241 C   0  0  0  0  0  0
  -28.5939  -23.2593   18.6256 C   0  0  0  0  0  0
  -26.6212  -24.2067   20.8410 C   0  0  0  0  0  0
  -28.7854  -21.6776   20.6720 C   0  0  0  0  0  0
  -28.5533  -24.9988   22.2116 C   0  0  0  0  0  0
  -28.9663  -23.3015   20.1228 C   0  0  0  0  0  0
  -28.1042  -24.6471   20.7613 C   0  0  2  0  0  0
  -29.7959  -16.1559   20.6163 N   0  0  0  0  0  0
  -31.4776  -12.7384   19.2044 H   0  0  0  0  0  0
  -30.4272  -11.6423   20.0485 H   0  0  0  0  0  0
  -29.8473  -11.7137   17.6057 H   0  0  0  0  0  0
  -29.6222  -13.4454   17.6869 H   0  0  0  0  0  0
  -27.9532  -11.2724   18.9806 H   0  0  0  0  0  0
  -27.3964  -12.4443   17.8184 H   0  0  0  0  0  0
  -27.5952  -14.2478   19.4046 H   0  0  0  0  0  0
  -28.7600  -12.3029   21.4564 H   0  0  0  0  0  0
  -28.3702  -13.9792   21.7605 H   0  0  0  0  0  0
  -25.2756   -9.5732   22.4730 H   0  0  0  0  0  0
  -24.0032   -7.4650   22.7466 H   0  0  0  0  0  0
  -21.0841   -8.8750   19.8936 H   0  0  0  0  0  0
  -22.3659  -10.9674   19.6143 H   0  0  0  0  0  0
  -21.2000   -7.6141   23.9702 H   0  0  0  0  0  0
  -21.1496   -6.0515   25.9066 H   0  0  0  0  0  0
  -22.0587   -2.7599   23.2847 H   0  0  0  0  0  0
  -22.4102  -11.9939   22.4908 H   0  0  0  0  0  0
  -21.1040  -13.1190   22.2533 H   0  0  0  0  0  0
  -24.6571  -15.8523   20.5421 H   0  0  0  0  0  0
  -26.2633  -15.6341   20.0749 H   0  0  0  0  0  0
  -26.7235  -32.5268   23.0982 H   0  0  0  0  0  0
  -24.9958  -33.9585   25.0245 H   0  0  0  0  0  0
  -22.7506  -31.2894   21.3719 H   0  0  0  0  0  0
  -23.3732  -35.9646   23.3268 H   0  0  0  0  0  0
  -24.3590  -36.8972   22.2068 H   0  0  0  0  0  0
  -23.7257  -37.6502   23.6720 H   0  0  0  0  0  0
  -26.1533  -31.4558   20.6142 H   0  0  0  0  0  0
  -26.8779  -30.7670   22.0300 H   0  0  0  0  0  0
  -28.1185  -28.7594   21.2811 H   0  0  0  0  0  0
  -25.9630  -25.9093   18.8838 H   0  0  0  0  0  0
  -24.0048  -27.3439   18.9049 H   0  0  0  0  0  0
  -23.8124  -30.5644   19.3913 H   0  0  0  0  0  0
  -22.7890  -29.2341   19.8394 H   0  0  0  0  0  0
  -25.1294  -36.1861   25.0804 H   0  0  0  0  0  0
  -21.0033  -28.3318   24.1325 H   0  0  0  0  0  0
  -20.5644  -26.2341   23.3621 H   0  0  0  0  0  0
  -21.6648  -26.7390   22.1201 H   0  0  0  0  0  0
  -19.6917  -25.6272   21.1249 H   0  0  0  0  0  0
  -19.6692  -27.3169   20.6718 H   0  0  0  0  0  0
  -17.4192  -26.6673   21.4038 H   0  0  0  0  0  0
  -18.0359  -26.0076   22.9026 H   0  0  0  0  0  0
  -19.7962  -30.7274   24.2267 H   0  0  0  0  0  0
  -17.5040  -31.6277   24.5153 H   0  0  0  0  0  0
  -15.5374  -30.2995   23.7663 H   0  0  0  0  0  0
  -15.8690  -28.0814   22.7100 H   0  0  0  0  0  0
  -24.5819  -30.7210   25.7684 H   0  0  0  0  0  0
  -24.8979  -32.2993   26.4807 H   0  0  0  0  0  0
  -25.7915  -30.8906   27.0186 H   0  0  0  0  0  0
  -26.2959  -29.6659   24.1303 H   0  0  0  0  0  0
  -27.3918  -29.7212   25.4896 H   0  0  0  0  0  0
  -27.8907  -30.4120   23.9632 H   0  0  0  0  0  0
  -27.2595  -33.3647   26.2011 H   0  0  0  0  0  0
  -28.3882  -32.6874   25.0358 H   0  0  0  0  0  0
  -28.0669  -31.8495   26.5476 H   0  0  0  0  0  0
  -28.2557  -38.0121   24.7473 H   0  0  0  0  0  0
  -28.1097  -36.2650   24.6247 H   0  0  0  0  0  0
  -27.2319  -37.1402   25.8854 H   0  0  0  0  0  0
  -20.9435  -29.8796   21.6788 H   0  0  0  0  0  0
  -26.0161  -38.2798   24.1391 H   0  0  0  0  0  0
  -31.9283  -19.3061   17.9161 H   0  0  0  0  0  0
  -30.7738  -21.2668   18.7092 H   0  0  0  0  0  0
  -31.5113  -17.0767   18.7637 H   0  0  0  0  0  0
  -27.2678  -18.9920   21.3460 H   0  0  0  0  0  0
  -28.4434  -19.3997   22.5924 H   0  0  0  0  0  0
  -28.1822  -17.7158   22.1539 H   0  0  0  0  0  0
  -29.5470  -23.2811   23.1275 H   0  0  0  0  0  0
  -27.7832  -23.1994   23.2235 H   0  0  0  0  0  0
  -28.6829  -24.2924   24.2574 H   0  0  0  0  0  0
  -31.1105  -23.1053   19.6082 H   0  0  0  0  0  0
  -30.8286  -23.6450   21.2443 H   0  0  0  0  0  0
  -30.5869  -24.7462   19.9041 H   0  0  0  0  0  0
  -29.1829  -22.5344   18.0680 H   0  0  0  0  0  0
  -28.7408  -24.2276   18.1482 H   0  0  0  0  0  0
  -27.5510  -22.9781   18.4809 H   0  0  0  0  0  0
  -26.5117  -23.2689   21.3810 H   0  0  0  0  0  0
  -26.1792  -24.0331   19.8619 H   0  0  0  0  0  0
  -25.9974  -24.9294   21.3670 H   0  0  0  0  0  0
  -28.9446  -21.6836   21.7457 H   0  0  0  0  0  0
  -27.7259  -21.4454   20.5659 H   0  0  0  0  0  0
  -29.5177  -25.5055   22.1808 H   0  0  0  0  0  0
  -27.8657  -25.7463   22.6097 H   0  0  0  0  0  0
  -28.8795  -15.9689   20.9945 H   0  0  0  0  0  0
  1 25  1  0  0  0
  1 30  2  0  0  0
  1 86  1  0  0  0
  2  3  1  0  0  0
  2 25  1  0  0  0
  2 87  1  0  0  0
  2 88  1  0  0  0
  3  4  1  0  0  0
  3 89  1  0  0  0
  3 90  1  0  0  0
  4  5  1  0  0  0
  4 91  1  0  0  0
  4 92  1  0  0  0
  5  6  1  0  0  0
  5 26  1  0  0  0
  5 93  1  0  0  0
  6 25  1  0  0  0
  6 94  1  0  0  0
  6 95  1  0  0  0
  7  8  2  0  0  0
  7 26  1  0  0  0
  7 29  1  0  0  0
  8  9  1  0  0  0
  8 22  1  0  0  0
  9 10  1  0  0  0
  9 27  2  0  0  0
 10 11  2  0  0  0
 10 15  1  0  0  0
 11 12  1  0  0  0
 11 96  1  0  0  0
 12 13  2  0  0  0
 12 97  1  0  0  0
 13 14  1  0  0  0
 13 31  1  0  0  0
 14 15  2  0  0  0
 14 98  1  0  0  0
 15 99  1  0  0  0
 16 17  2  0  0  0
 16 21  1  0  0  0
 16 31  1  0  0  0
 17 18  1  0  0  0
 17100  1  0  0  0
 18 19  2  0  0  0
 18101  1  0  0  0
 19 20  1  0  0  0
 19 24  1  0  0  0
 20 21  2  0  0  0
 20102  1  0  0  0
 21 23  1  0  0  0
 22 28  1  0  0  0
 22 32  2  0  0  0
 26 27  1  0  0  0
 28103  1  0  0  0
 28104  1  0  0  0
 29105  1  0  0  0
 29106  1  0  0  0
 33 34  1  0  0  0
 33 66  1  0  0  0
 33 70  2  0  0  0
 34 36  1  0  0  0
 34 59  1  0  0  0
 34107  1  0  0  0
 35 44  2  0  0  0
 35 45  1  0  0  0
 35 68  1  0  0  0
 36 56  1  0  0  0
 36108  1  0  0  0
 37 39  1  0  0  0
 37 47  1  0  0  0
 37 66  1  0  0  0
 37109  1  0  0  0
 38 43  2  0  0  0
 38 46  1  0  0  0
 38 47  1  0  0  0
 39 64  1  0  0  0
 39 67  2  0  0  0
 40 52  1  0  0  0
 40 53  2  0  0  0
 40 58  1  0  0  0
 41110  1  0  0  0
 41111  1  0  0  0
 41112  1  0  0  0
 41 48  1  0  0  0
 42 43  1  0  0  0
 42 66  1  0  0  0
 42113  1  0  0  0
 42114  1  0  0  0
 43 44  1  0  0  0
 44115  1  0  0  0
 45 46  2  0  0  0
 45116  1  0  0  0
 46117  1  0  0  0
 47118  1  0  0  0
 47119  1  0  0  0
 48 56  1  0  0  0
 48 65  1  0  0  0
 48120  1  0  0  0
 49 50  1  0  0  0
 49 53  1  0  0  0
 49 64  1  0  0  0
 49121  1  0  0  0
 50 51  1  0  0  0
 50122  1  0  0  0
 50123  1  0  0  0
 51 52  1  0  0  0
 51124  1  0  0  0
 51125  1  0  0  0
 52126  1  0  0  0
 52127  1  0  0  0
 53 54  1  0  0  0
 54 55  2  0  0  0
 54128  1  0  0  0
 55 57  1  0  0  0
 55129  1  0  0  0
 56 69  2  0  0  0
 57 58  2  0  0  0
 57130  1  0  0  0
 58131  1  0  0  0
 59 60  1  0  0  0
 59 61  1  0  0  0
 59 62  1  0  0  0
 60132  1  0  0  0
 60133  1  0  0  0
 60134  1  0  0  0
 61135  1  0  0  0
 61136  1  0  0  0
 61137  1  0  0  0
 62138  1  0  0  0
 62139  1  0  0  0
 62140  1  0  0  0
 63 65  1  0  0  0
 63141  1  0  0  0
 63142  1  0  0  0
 63143  1  0  0  0
 64144  1  0  0  0
 65145  1  0  0  0
 68 85  1  0  0  0
 71 72  2  0  0  0
 71 73  1  0  0  0
 71146  1  0  0  0
 72 74  1  0  0  0
 72147  1  0  0  0
 73 76  2  0  0  0
 73148  1  0  0  0
 74 75  2  0  0  0
 74 82  1  0  0  0
 75 76  1  0  0  0
 75 77  1  0  0  0
 76 86  1  0  0  0
 77149  1  0  0  0
 77150  1  0  0  0
 77151  1  0  0  0
 78 83  1  0  0  0
 78152  1  0  0  0
 78153  1  0  0  0
 78154  1  0  0  0
 79155  1  0  0  0
 79156  1  0  0  0
 79157  1  0  0  0
 79 84  1  0  0  0
 80 84  1  0  0  0
 80158  1  0  0  0
 80159  1  0  0  0
 80160  1  0  0  0
 81161  1  0  0  0
 81162  1  0  0  0
 81163  1  0  0  0
 81 85  1  0  0  0
 82 84  1  0  0  0
 82164  1  0  0  0
 82165  1  0  0  0
 83 85  1  0  0  0
 83166  1  0  0  0
 83167  1  0  0  0
 84 85  1  0  0  0
 86168  1  0  0  0
M  ISO  4   1 100  68 101  85 101  86 100
M  END
> <chiral flag>
0

> <version>
0

> <s_m_source_file>
/data/baiqing/PycharmProjects/Reinvent-master-3.2/result/LINK_invent/BTK/process_docking_weight1_custom_product_contain_oxygen_bond_distance_aromatic_linkinvent_7_9_3/rearranged_h_0140.sdf

> <i_m_source_file_index>
26

> <r_mmod_Potential_Energy-OPLS-2005>
591.092834472656

> <r_mmod_Stretch_Energy-OPLS-2005>
311.872619628906

> <r_mmod_Bend_Energy-OPLS-2005>
280.257232666016

> <r_mmod_Torsional_Energy-OPLS-2005>
264.825103759766

> <r_mmod_Improper_Torsional_Energy-OPLS-2005>
3.50688767433167

> <r_mmod_Van_der_Waal_Energy-OPLS-2005>
139.535263061523

> <r_mmod_Electrostatic_Energy-OPLS-2005>
-419.784088134766

> <r_mmod_Solvation_Energy-OPLS-2005>
-190.911041259766

> <b_mmod_Minimization_Converged-OPLS-2005>
0

> <r_mmod_RMS_Derivative-OPLS-2005>
3.05975961685181

$$$$
26
                    3D
 Structure written by MMmdl.
165174  0  0  1  0            999 V2000
  -30.6882  -14.5356   20.5158 C   0  0  0  0  0  0
  -30.4202  -12.3361   19.4150 C   0  0  0  0  0  0
  -29.4848  -12.4835   18.1977 C   0  0  0  0  0  0
  -28.0119  -12.3414   18.6265 C   0  0  0  0  0  0
  -27.6542  -13.2092   19.8618 C   0  0  2  0  0  0
  -28.7048  -13.0421   20.9810 C   0  0  0  0  0  0
  -25.2580  -13.8145   20.5699 C   0  0  0  0  0  0
  -24.1841  -13.0431   20.9200 C   0  0  0  0  0  0
  -24.6394  -11.6902   20.8749 C   0  0  0  0  0  0
  -23.9060  -10.4290   21.0412 C   0  0  0  0  0  0
  -24.3619   -9.4202   21.9185 C   0  0  0  0  0  0
  -23.6293   -8.2242   22.0763 C   0  0  0  0  0  0
  -22.4274   -8.0276   21.3549 C   0  0  0  0  0  0
  -21.9912   -9.0250   20.4640 C   0  0  0  0  0  0
  -22.7242  -10.2129   20.3051 C   0  0  0  0  0  0
  -21.6842   -6.0728   22.5273 C   0  0  0  0  0  0
  -21.4019   -6.5645   23.8209 C   0  0  0  0  0  0
  -21.3658   -5.6794   24.9167 C   0  0  0  0  0  0
  -21.6039   -4.3057   24.7220 C   0  0  0  0  0  0
  -21.8824   -3.8151   23.4340 C   0  0  0  0  0  0
  -21.9201   -4.6960   22.3392 C   0  0  0  0  0  0
  -22.7868  -13.5222   21.1863 C   0  0  0  0  0  0
  -22.1666   -4.2156   21.0970 F   0  0  0  0  0  0
  -21.5630   -3.4536   25.7733 F   0  0  0  0  0  0
  -30.0203  -13.3523   20.4019 N   0  0  0  0  0  0
  -26.3005  -12.9327   20.3348 N   0  0  0  0  0  0
  -25.9321  -11.6483   20.5778 N   0  0  0  0  0  0
  -22.0516  -12.8202   22.0401 N   0  0  0  0  0  0
  -25.4285  -15.1871   20.4126 N   0  0  0  0  0  0
  -31.8523  -14.6751   20.1333 O   0  0  0  0  0  0
  -21.6639   -6.8873   21.4236 O   0  0  0  0  0  0
  -22.3561  -14.5536   20.6719 O   0  0  0  0  0  0
  -24.6192  -31.8646   23.2080 C   0  0  0  0  0  0
  -25.9055  -32.4801   23.8391 C   0  0  1  0  0  0
  -27.2468  -27.3902   20.1126 C   0  0  0  0  0  0
  -25.5886  -33.8601   24.2303 N   0  0  0  0  0  0
  -23.4113  -30.4844   21.5487 C   0  0  2  0  0  0
  -24.8613  -28.9348   20.1292 C   0  0  0  0  0  0
  -22.7430  -29.4649   22.4993 C   0  0  0  0  0  0
  -18.0259  -28.1403   22.8500 C   0  0  0  0  0  0
  -24.1483  -36.7299   23.2654 C   0  0  0  0  0  0
  -25.9425  -30.8132   21.3701 C   0  0  0  0  0  0
  -26.0230  -29.4384   20.7277 C   0  0  0  0  0  0
  -27.2188  -28.6743   20.7173 C   0  0  0  0  0  0
  -26.0693  -26.9169   19.4965 C   0  0  0  0  0  0
  -24.8784  -27.6697   19.5183 C   0  0  0  0  0  0
  -23.6264  -29.8099   20.1692 C   0  0  0  0  0  0
  -25.4113  -36.3097   24.0333 C   0  0  1  0  0  0
  -20.5851  -28.3705   23.1313 C   0  0  2  0  0  0
  -20.6749  -26.9437   22.5423 C   0  0  0  0  0  0
  -19.5723  -26.6411   21.5232 C   0  0  0  0  0  0
  -18.1893  -26.7952   22.1627 C   0  0  0  0  0  0
  -19.1516  -28.8874   23.2892 C   0  0  0  0  0  0
  -18.9442  -30.1471   23.8918 C   0  0  0  0  0  0
  -17.6452  -30.6608   24.0596 C   0  0  0  0  0  0
  -25.9040  -34.9464   23.5123 C   0  0  0  0  0  0
  -16.5339  -29.9121   23.6349 C   0  0  0  0  0  0
  -16.7249  -28.6535   23.0376 C   0  0  0  0  0  0
  -26.4479  -31.6601   25.0733 C   0  0  0  0  0  0
  -25.3732  -31.3683   26.1458 C   0  0  0  0  0  0
  -27.0337  -30.3042   24.6168 C   0  0  0  0  0  0
  -27.6052  -32.4353   25.7466 C   0  0  0  0  0  0
  -27.5568  -37.1798   24.8472 C   0  0  0  0  0  0
  -21.4152  -29.3050   22.3703 N   0  0  0  0  0  0
  -26.4301  -37.3790   23.9404 N   0  0  0  0  0  0
  -24.6751  -31.0693   22.1011 N   0  0  0  0  0  0
  -23.4157  -28.8204   23.3073 O   0  0  0  0  0  0
  -28.4206  -26.6620   19.9973 O   0  0  0  0  0  0
  -26.5628  -34.8925   22.4696 O   0  0  0  0  0  0
  -23.5360  -32.1423   23.7433 O   0  0  0  0  0  0
  -30.0094  -18.2293   19.0936 C   0  0  0  0  0  0
  -29.7928  -19.5625   18.5921 C   0  0  0  0  0  0
  -30.1276  -18.1399   20.4563 C   0  0  0  0  0  0
  -29.6951  -20.5239   19.5908 C   0  0  0  0  0  0
  -28.7247  -24.0582   18.6541 C   0  0  0  0  0  0
  -28.9979  -22.5915   18.2754 C   0  0  0  0  0  0
  -29.4768  -22.9052   20.6003 C   0  0  2  0  0  0
  -28.4748  -24.0537   20.1702 C   0  0  2  0  0  0
  -29.7215  -19.8061   17.1079 C   0  0  0  0  0  0
  -30.9258  -23.3773   20.8407 C   0  0  0  0  0  0
  -27.0453  -23.5547   20.4871 C   0  0  0  0  0  0
  -30.4769  -16.9318   21.3213 C   0  0  0  0  0  0
  -28.6436  -25.4902   20.8301 C   0  0  0  0  0  0
  -29.4584  -21.9310   19.4909 N   0  0  0  0  0  0
  -29.9606  -15.5993   20.9266 N   0  0  0  0  0  0
  -29.9323  -19.7438   21.1552 S   0  0  0  0  0  0
  -31.4628  -12.4347   19.1067 H   0  0  0  0  0  0
  -30.3289  -11.3382   19.8461 H   0  0  0  0  0  0
  -29.7213  -11.7272   17.4483 H   0  0  0  0  0  0
  -29.6403  -13.4500   17.7171 H   0  0  0  0  0  0
  -27.8417  -11.2888   18.8570 H   0  0  0  0  0  0
  -27.3492  -12.5781   17.7937 H   0  0  0  0  0  0
  -27.6813  -14.2470   19.5296 H   0  0  0  0  0  0
  -28.7014  -12.0201   21.3635 H   0  0  0  0  0  0
  -28.4741  -13.6795   21.8353 H   0  0  0  0  0  0
  -25.2754   -9.5685   22.4772 H   0  0  0  0  0  0
  -23.9995   -7.4637   22.7496 H   0  0  0  0  0  0
  -21.0847   -8.8764   19.8946 H   0  0  0  0  0  0
  -22.3689  -10.9677   19.6179 H   0  0  0  0  0  0
  -21.2007   -7.6150   23.9707 H   0  0  0  0  0  0
  -21.1476   -6.0526   25.9073 H   0  0  0  0  0  0
  -22.0603   -2.7609   23.2837 H   0  0  0  0  0  0
  -22.4151  -11.9845   22.4744 H   0  0  0  0  0  0
  -21.1139  -13.1223   22.2644 H   0  0  0  0  0  0
  -24.6591  -15.8382   20.5250 H   0  0  0  0  0  0
  -26.2730  -15.6286   20.0717 H   0  0  0  0  0  0
  -26.7133  -32.5501   23.1155 H   0  0  0  0  0  0
  -24.9993  -33.9759   25.0417 H   0  0  0  0  0  0
  -22.7017  -31.3004   21.4010 H   0  0  0  0  0  0
  -23.3754  -35.9613   23.3326 H   0  0  0  0  0  0
  -24.3565  -36.8938   22.2067 H   0  0  0  0  0  0
  -23.7222  -37.6485   23.6697 H   0  0  0  0  0  0
  -26.0577  -31.5728   20.5957 H   0  0  0  0  0  0
  -26.8276  -30.8727   21.9914 H   0  0  0  0  0  0
  -28.1212  -29.0723   21.1619 H   0  0  0  0  0  0
  -26.0779  -25.9776   18.9659 H   0  0  0  0  0  0
  -23.9879  -27.2767   19.0487 H   0  0  0  0  0  0
  -23.7418  -30.5803   19.4051 H   0  0  0  0  0  0
  -22.7485  -29.2319   19.8748 H   0  0  0  0  0  0
  -25.1297  -36.1972   25.0826 H   0  0  0  0  0  0
  -20.9917  -28.3290   24.1447 H   0  0  0  0  0  0
  -20.5677  -26.2315   23.3627 H   0  0  0  0  0  0
  -21.6618  -26.7479   22.1218 H   0  0  0  0  0  0
  -19.6895  -25.6323   21.1268 H   0  0  0  0  0  0
  -19.6676  -27.3217   20.6761 H   0  0  0  0  0  0
  -17.4175  -26.6736   21.4023 H   0  0  0  0  0  0
  -18.0259  -26.0088   22.9010 H   0  0  0  0  0  0
  -19.7915  -30.7277   24.2312 H   0  0  0  0  0  0
  -17.5012  -31.6290   24.5196 H   0  0  0  0  0  0
  -15.5346  -30.3048   23.7667 H   0  0  0  0  0  0
  -15.8638  -28.0872   22.7101 H   0  0  0  0  0  0
  -24.5956  -30.6988   25.7762 H   0  0  0  0  0  0
  -24.8839  -32.2809   26.4878 H   0  0  0  0  0  0
  -25.8066  -30.8871   27.0235 H   0  0  0  0  0  0
  -26.2885  -29.6739   24.1302 H   0  0  0  0  0  0
  -27.4169  -29.7362   25.4649 H   0  0  0  0  0  0
  -27.8696  -30.4339   23.9287 H   0  0  0  0  0  0
  -27.2712  -33.3728   26.1935 H   0  0  0  0  0  0
  -28.3882  -32.6811   25.0274 H   0  0  0  0  0  0
  -28.0700  -31.8555   26.5452 H   0  0  0  0  0  0
  -28.2609  -38.0080   24.7529 H   0  0  0  0  0  0
  -28.1056  -36.2610   24.6322 H   0  0  0  0  0  0
  -27.2276  -37.1481   25.8878 H   0  0  0  0  0  0
  -20.9341  -29.8748   21.6896 H   0  0  0  0  0  0
  -26.0192  -38.2862   24.1420 H   0  0  0  0  0  0
  -30.1146  -17.3808   18.4311 H   0  0  0  0  0  0
  -27.8978  -24.4868   18.0879 H   0  0  0  0  0  0
  -29.6073  -24.6598   18.4311 H   0  0  0  0  0  0
  -29.7317  -22.5232   17.4703 H   0  0  0  0  0  0
  -28.0766  -22.1173   17.9365 H   0  0  0  0  0  0
  -29.1224  -22.4269   21.5142 H   0  0  0  0  0  0
  -29.7516  -18.8723   16.5454 H   0  0  0  0  0  0
  -30.5623  -20.4079   16.7613 H   0  0  0  0  0  0
  -28.8018  -20.3088   16.8154 H   0  0  0  0  0  0
  -31.2878  -24.0161   20.0336 H   0  0  0  0  0  0
  -31.6151  -22.5358   20.9205 H   0  0  0  0  0  0
  -31.0130  -23.9373   21.7718 H   0  0  0  0  0  0
  -26.8058  -22.6296   19.9639 H   0  0  0  0  0  0
  -26.2843  -24.2804   20.2216 H   0  0  0  0  0  0
  -26.9299  -23.3584   21.5535 H   0  0  0  0  0  0
  -30.1117  -17.1138   22.3324 H   0  0  0  0  0  0
  -31.5625  -16.8843   21.4264 H   0  0  0  0  0  0
  -29.6708  -25.6208   21.1646 H   0  0  0  0  0  0
  -28.0563  -25.5619   21.7485 H   0  0  0  0  0  0
  -28.9868  -15.4208   21.1211 H   0  0  0  0  0  0
  1 25  1  0  0  0
  1 30  2  0  0  0
  1 85  1  0  0  0
  2  3  1  0  0  0
  2 25  1  0  0  0
  2 87  1  0  0  0
  2 88  1  0  0  0
  3  4  1  0  0  0
  3 89  1  0  0  0
  3 90  1  0  0  0
  4  5  1  0  0  0
  4 91  1  0  0  0
  4 92  1  0  0  0
  5  6  1  0  0  0
  5 26  1  0  0  0
  5 93  1  0  0  0
  6 25  1  0  0  0
  6 94  1  0  0  0
  6 95  1  0  0  0
  7  8  2  0  0  0
  7 26  1  0  0  0
  7 29  1  0  0  0
  8  9  1  0  0  0
  8 22  1  0  0  0
  9 10  1  0  0  0
  9 27  2  0  0  0
 10 11  2  0  0  0
 10 15  1  0  0  0
 11 12  1  0  0  0
 11 96  1  0  0  0
 12 13  2  0  0  0
 12 97  1  0  0  0
 13 14  1  0  0  0
 13 31  1  0  0  0
 14 15  2  0  0  0
 14 98  1  0  0  0
 15 99  1  0  0  0
 16 17  2  0  0  0
 16 21  1  0  0  0
 16 31  1  0  0  0
 17 18  1  0  0  0
 17100  1  0  0  0
 18 19  2  0  0  0
 18101  1  0  0  0
 19 20  1  0  0  0
 19 24  1  0  0  0
 20 21  2  0  0  0
 20102  1  0  0  0
 21 23  1  0  0  0
 22 28  1  0  0  0
 22 32  2  0  0  0
 26 27  1  0  0  0
 28103  1  0  0  0
 28104  1  0  0  0
 29105  1  0  0  0
 29106  1  0  0  0
 33 34  1  0  0  0
 33 66  1  0  0  0
 33 70  2  0  0  0
 34 36  1  0  0  0
 34 59  1  0  0  0
 34107  1  0  0  0
 35 44  2  0  0  0
 35 45  1  0  0  0
 35 68  1  0  0  0
 36 56  1  0  0  0
 36108  1  0  0  0
 37 39  1  0  0  0
 37 47  1  0  0  0
 37 66  1  0  0  0
 37109  1  0  0  0
 38 43  2  0  0  0
 38 46  1  0  0  0
 38 47  1  0  0  0
 39 64  1  0  0  0
 39 67  2  0  0  0
 40 52  1  0  0  0
 40 53  2  0  0  0
 40 58  1  0  0  0
 41110  1  0  0  0
 41111  1  0  0  0
 41112  1  0  0  0
 41 48  1  0  0  0
 42 43  1  0  0  0
 42 66  1  0  0  0
 42113  1  0  0  0
 42114  1  0  0  0
 43 44  1  0  0  0
 44115  1  0  0  0
 45 46  2  0  0  0
 45116  1  0  0  0
 46117  1  0  0  0
 47118  1  0  0  0
 47119  1  0  0  0
 48 56  1  0  0  0
 48 65  1  0  0  0
 48120  1  0  0  0
 49 50  1  0  0  0
 49 53  1  0  0  0
 49 64  1  0  0  0
 49121  1  0  0  0
 50 51  1  0  0  0
 50122  1  0  0  0
 50123  1  0  0  0
 51 52  1  0  0  0
 51124  1  0  0  0
 51125  1  0  0  0
 52126  1  0  0  0
 52127  1  0  0  0
 53 54  1  0  0  0
 54 55  2  0  0  0
 54128  1  0  0  0
 55 57  1  0  0  0
 55129  1  0  0  0
 56 69  2  0  0  0
 57 58  2  0  0  0
 57130  1  0  0  0
 58131  1  0  0  0
 59 60  1  0  0  0
 59 61  1  0  0  0
 59 62  1  0  0  0
 60132  1  0  0  0
 60133  1  0  0  0
 60134  1  0  0  0
 61135  1  0  0  0
 61136  1  0  0  0
 61137  1  0  0  0
 62138  1  0  0  0
 62139  1  0  0  0
 62140  1  0  0  0
 63 65  1  0  0  0
 63141  1  0  0  0
 63142  1  0  0  0
 63143  1  0  0  0
 64144  1  0  0  0
 65145  1  0  0  0
 68 83  1  0  0  0
 71 72  1  0  0  0
 71 73  2  0  0  0
 71146  1  0  0  0
 72 74  2  0  0  0
 72 79  1  0  0  0
 73 82  1  0  0  0
 73 86  1  0  0  0
 74 84  1  0  0  0
 74 86  1  0  0  0
 75 76  1  0  0  0
 75 78  1  0  0  0
 75147  1  0  0  0
 75148  1  0  0  0
 76 84  1  0  0  0
 76149  1  0  0  0
 76150  1  0  0  0
 77 78  1  0  0  0
 77 80  1  0  0  0
 77 84  1  0  0  0
 77151  1  0  0  0
 78 81  1  0  0  0
 78 83  1  0  0  0
 79152  1  0  0  0
 79153  1  0  0  0
 79154  1  0  0  0
 80155  1  0  0  0
 80156  1  0  0  0
 80157  1  0  0  0
 81158  1  0  0  0
 81159  1  0  0  0
 81160  1  0  0  0
 82 85  1  0  0  0
 82161  1  0  0  0
 82162  1  0  0  0
 83163  1  0  0  0
 83164  1  0  0  0
 85165  1  0  0  0
M  ISO  4   1 100  68 101  83 101  85 100
M  END
> <chiral flag>
0

> <version>
0

> <s_m_source_file>
/data/baiqing/PycharmProjects/Reinvent-master-3.2/result/LINK_invent/BTK/process_docking_weight1_custom_product_contain_oxygen_bond_distance_aromatic_linkinvent_7_9_3/rearranged_h_0140.sdf

> <i_m_source_file_index>
27

> <r_mmod_Potential_Energy-OPLS-2005>
30.1582946777344

> <r_mmod_Stretch_Energy-OPLS-2005>
52.8261795043945

> <r_mmod_Bend_Energy-OPLS-2005>
166.051498413086

> <r_mmod_Torsional_Energy-OPLS-2005>
309.926086425781

> <r_mmod_Improper_Torsional_Energy-OPLS-2005>
4.30829334259033

> <r_mmod_Van_der_Waal_Energy-OPLS-2005>
122.404449462891

> <r_mmod_Electrostatic_Energy-OPLS-2005>
-437.21728515625

> <r_mmod_Solvation_Energy-OPLS-2005>
-209.704238891602

> <b_mmod_Minimization_Converged-OPLS-2005>
0

> <r_mmod_RMS_Derivative-OPLS-2005>
3.03939628601074

$$$$
27
                    3D
 Structure written by MMmdl.
162170  0  0  1  0            999 V2000
  -30.6524  -14.6250   20.5047 C   0  0  0  0  0  0
  -30.4391  -12.3868   19.4507 C   0  0  0  0  0  0
  -29.5067  -12.5100   18.2254 C   0  0  0  0  0  0
  -28.0311  -12.3378   18.6389 C   0  0  0  0  0  0
  -27.6510  -13.2106   19.8625 C   0  0  2  0  0  0
  -28.7001  -13.0808   20.9921 C   0  0  0  0  0  0
  -25.2464  -13.8068   20.5679 C   0  0  0  0  0  0
  -24.1774  -13.0350   20.9238 C   0  0  0  0  0  0
  -24.6371  -11.6852   20.8773 C   0  0  0  0  0  0
  -23.9047  -10.4253   21.0424 C   0  0  0  0  0  0
  -24.3601   -9.4172   21.9198 C   0  0  0  0  0  0
  -23.6272   -8.2213   22.0755 C   0  0  0  0  0  0
  -22.4251   -8.0273   21.3539 C   0  0  0  0  0  0
  -21.9891   -9.0244   20.4642 C   0  0  0  0  0  0
  -22.7227  -10.2116   20.3060 C   0  0  0  0  0  0
  -21.6845   -6.0732   22.5284 C   0  0  0  0  0  0
  -21.4010   -6.5635   23.8218 C   0  0  0  0  0  0
  -21.3649   -5.6786   24.9179 C   0  0  0  0  0  0
  -21.6043   -4.3052   24.7230 C   0  0  0  0  0  0
  -21.8816   -3.8145   23.4353 C   0  0  0  0  0  0
  -21.9187   -4.6960   22.3410 C   0  0  0  0  0  0
  -22.7794  -13.5175   21.1877 C   0  0  0  0  0  0
  -22.1657   -4.2148   21.0987 F   0  0  0  0  0  0
  -21.5621   -3.4536   25.7741 F   0  0  0  0  0  0
  -30.0204  -13.4112   20.4263 N   0  0  0  0  0  0
  -26.2951  -12.9304   20.3313 N   0  0  0  0  0  0
  -25.9302  -11.6458   20.5778 N   0  0  0  0  0  0
  -22.0421  -12.8198   22.0441 N   0  0  0  0  0  0
  -25.3937  -15.1765   20.4022 N   0  0  0  0  0  0
  -31.8220  -14.7730   20.1409 O   0  0  0  0  0  0
  -21.6615   -6.8875   21.4244 O   0  0  0  0  0  0
  -22.3506  -14.5490   20.6717 O   0  0  0  0  0  0
  -24.6230  -31.8602   23.2036 C   0  0  0  0  0  0
  -25.9086  -32.4777   23.8359 C   0  0  1  0  0  0
  -27.2337  -27.3428   20.1131 C   0  0  0  0  0  0
  -25.5907  -33.8578   24.2282 N   0  0  0  0  0  0
  -23.4159  -30.4849   21.5440 C   0  0  2  0  0  0
  -24.8637  -28.9413   20.1127 C   0  0  0  0  0  0
  -22.7446  -29.4640   22.4925 C   0  0  0  0  0  0
  -18.0284  -28.1389   22.8485 C   0  0  0  0  0  0
  -24.1482  -36.7294   23.2637 C   0  0  0  0  0  0
  -25.9544  -30.7998   21.3699 C   0  0  0  0  0  0
  -26.0308  -29.4287   20.7131 C   0  0  0  0  0  0
  -27.2174  -28.6409   20.7039 C   0  0  0  0  0  0
  -26.0391  -26.9001   19.4950 C   0  0  0  0  0  0
  -24.8679  -27.6804   19.4972 C   0  0  0  0  0  0
  -23.6297  -29.8178   20.1602 C   0  0  0  0  0  0
  -25.4105  -36.3073   24.0324 C   0  0  1  0  0  0
  -20.5880  -28.3696   23.1279 C   0  0  2  0  0  0
  -20.6775  -26.9421   22.5408 C   0  0  0  0  0  0
  -19.5756  -26.6390   21.5207 C   0  0  0  0  0  0
  -18.1936  -26.7933   22.1623 C   0  0  0  0  0  0
  -19.1537  -28.8858   23.2884 C   0  0  0  0  0  0
  -18.9459  -30.1454   23.8915 C   0  0  0  0  0  0
  -17.6465  -30.6593   24.0567 C   0  0  0  0  0  0
  -25.9041  -34.9446   23.5102 C   0  0  0  0  0  0
  -16.5358  -29.9100   23.6325 C   0  0  0  0  0  0
  -16.7270  -28.6512   23.0355 C   0  0  0  0  0  0
  -26.4490  -31.6584   25.0721 C   0  0  0  0  0  0
  -25.3736  -31.3725   26.1458 C   0  0  0  0  0  0
  -27.0337  -30.3008   24.6167 C   0  0  0  0  0  0
  -27.6048  -32.4326   25.7492 C   0  0  0  0  0  0
  -27.5572  -37.1794   24.8462 C   0  0  0  0  0  0
  -21.4164  -29.3052   22.3661 N   0  0  0  0  0  0
  -26.4281  -37.3768   23.9407 N   0  0  0  0  0  0
  -24.6833  -31.0642   22.0970 N   0  0  0  0  0  0
  -23.4176  -28.8181   23.2998 O   0  0  0  0  0  0
  -28.3709  -26.5243   20.1605 O   0  0  0  0  0  0
  -26.5614  -34.8912   22.4671 O   0  0  0  0  0  0
  -23.5400  -32.1390   23.7377 O   0  0  0  0  0  0
  -31.2481  -19.2327   21.1795 C   0  0  0  0  0  0
  -31.1684  -17.8098   21.1936 C   0  0  0  0  0  0
  -29.0945  -19.3725   20.1215 C   0  0  0  0  0  0
  -30.2088  -20.0515   20.6597 C   0  0  0  0  0  0
  -29.0071  -17.9509   20.1266 C   0  0  0  0  0  0
  -30.0356  -17.1278   20.6823 C   0  0  0  0  0  0
  -26.7491  -16.4909   17.2969 C   0  0  0  0  0  0
  -30.3459  -21.6104   20.6839 C   0  0  0  0  0  0
  -27.7804  -17.3385   19.4829 C   0  0  0  0  0  0
  -27.9662  -17.1354   17.9713 C   0  0  0  0  0  0
  -29.1311  -22.5472   20.2959 C   0  0  0  0  0  0
  -29.3792  -24.1135   20.4163 C   0  0  0  0  0  0
  -28.1875  -25.0708   20.0109 C   0  0  0  0  0  0
  -29.8488  -15.6848   20.8129 N   0  0  0  0  0  0
  -31.4805  -12.5079   19.1467 H   0  0  0  0  0  0
  -30.3713  -11.3923   19.8944 H   0  0  0  0  0  0
  -29.7741  -11.7698   17.4701 H   0  0  0  0  0  0
  -29.6447  -13.4868   17.7584 H   0  0  0  0  0  0
  -27.8736  -11.2846   18.8740 H   0  0  0  0  0  0
  -27.3756  -12.5641   17.7976 H   0  0  0  0  0  0
  -27.6647  -14.2378   19.5069 H   0  0  0  0  0  0
  -28.7084  -12.0651   21.3912 H   0  0  0  0  0  0
  -28.4468  -13.7276   21.8343 H   0  0  0  0  0  0
  -25.2743   -9.5645   22.4769 H   0  0  0  0  0  0
  -23.9978   -7.4594   22.7459 H   0  0  0  0  0  0
  -21.0825   -8.8775   19.8939 H   0  0  0  0  0  0
  -22.3705  -10.9660   19.6174 H   0  0  0  0  0  0
  -21.2011   -7.6141   23.9731 H   0  0  0  0  0  0
  -21.1464   -6.0510   25.9083 H   0  0  0  0  0  0
  -22.0603   -2.7605   23.2854 H   0  0  0  0  0  0
  -22.4021  -11.9874   22.4858 H   0  0  0  0  0  0
  -21.1042  -13.1251   22.2633 H   0  0  0  0  0  0
  -24.5946  -15.7970   20.4717 H   0  0  0  0  0  0
  -26.1785  -15.5965   19.9269 H   0  0  0  0  0  0
  -26.7151  -32.5457   23.1110 H   0  0  0  0  0  0
  -25.0046  -33.9730   25.0420 H   0  0  0  0  0  0
  -22.7093  -31.3050   21.4003 H   0  0  0  0  0  0
  -23.3731  -35.9640   23.3303 H   0  0  0  0  0  0
  -24.3573  -36.8914   22.2051 H   0  0  0  0  0  0
  -23.7256  -37.6504   23.6664 H   0  0  0  0  0  0
  -26.0800  -31.5635   20.6008 H   0  0  0  0  0  0
  -26.8365  -30.8504   21.9967 H   0  0  0  0  0  0
  -28.1137  -29.0114   21.1810 H   0  0  0  0  0  0
  -25.9827  -25.9369   19.0109 H   0  0  0  0  0  0
  -23.9708  -27.3002   19.0278 H   0  0  0  0  0  0
  -23.7441  -30.5920   19.4006 H   0  0  0  0  0  0
  -22.7516  -29.2431   19.8605 H   0  0  0  0  0  0
  -25.1284  -36.1920   25.0816 H   0  0  0  0  0  0
  -20.9986  -28.3279   24.1394 H   0  0  0  0  0  0
  -20.5676  -26.2306   23.3605 H   0  0  0  0  0  0
  -21.6646  -26.7453   22.1204 H   0  0  0  0  0  0
  -19.6922  -25.6300   21.1244 H   0  0  0  0  0  0
  -19.6695  -27.3190   20.6728 H   0  0  0  0  0  0
  -17.4196  -26.6664   21.4033 H   0  0  0  0  0  0
  -18.0353  -26.0080   22.9028 H   0  0  0  0  0  0
  -19.7939  -30.7256   24.2301 H   0  0  0  0  0  0
  -17.5027  -31.6279   24.5162 H   0  0  0  0  0  0
  -15.5363  -30.3019   23.7636 H   0  0  0  0  0  0
  -15.8666  -28.0836   22.7078 H   0  0  0  0  0  0
  -24.5894  -30.7090   25.7793 H   0  0  0  0  0  0
  -24.8955  -32.2902   26.4897 H   0  0  0  0  0  0
  -25.8070  -30.8893   27.0224 H   0  0  0  0  0  0
  -26.2911  -29.6755   24.1198 H   0  0  0  0  0  0
  -27.4045  -29.7266   25.4669 H   0  0  0  0  0  0
  -27.8772  -30.4296   23.9379 H   0  0  0  0  0  0
  -27.2640  -33.3611   26.2088 H   0  0  0  0  0  0
  -28.3848  -32.6914   25.0317 H   0  0  0  0  0  0
  -28.0729  -31.8448   26.5399 H   0  0  0  0  0  0
  -28.2582  -38.0095   24.7495 H   0  0  0  0  0  0
  -28.1070  -36.2623   24.6295 H   0  0  0  0  0  0
  -27.2290  -37.1450   25.8866 H   0  0  0  0  0  0
  -20.9325  -29.8763   21.6873 H   0  0  0  0  0  0
  -26.0156  -38.2833   24.1429 H   0  0  0  0  0  0
  -32.1305  -19.7024   21.5932 H   0  0  0  0  0  0
  -31.9814  -17.2458   21.6298 H   0  0  0  0  0  0
  -28.2850  -19.9456   19.6916 H   0  0  0  0  0  0
  -26.9073  -16.3986   16.2220 H   0  0  0  0  0  0
  -25.8489  -17.0877   17.4482 H   0  0  0  0  0  0
  -26.5574  -15.4911   17.6855 H   0  0  0  0  0  0
  -31.1896  -21.8605   20.0392 H   0  0  0  0  0  0
  -30.6634  -21.8789   21.6924 H   0  0  0  0  0  0
  -26.9156  -17.9753   19.6766 H   0  0  0  0  0  0
  -27.5695  -16.3982   19.9729 H   0  0  0  0  0  0
  -28.1680  -18.0984   17.5003 H   0  0  0  0  0  0
  -28.8458  -16.5170   17.7874 H   0  0  0  0  0  0
  -28.2784  -22.2841   20.9229 H   0  0  0  0  0  0
  -28.8300  -22.3206   19.2728 H   0  0  0  0  0  0
  -30.2501  -24.3740   19.8137 H   0  0  0  0  0  0
  -29.6578  -24.3361   21.4469 H   0  0  0  0  0  0
  -27.3211  -24.7698   20.6037 H   0  0  0  0  0  0
  -27.9421  -24.8663   18.9682 H   0  0  0  0  0  0
  -28.9005  -15.4011   21.0016 H   0  0  0  0  0  0
  1 25  1  0  0  0
  1 30  2  0  0  0
  1 84  1  0  0  0
  2  3  1  0  0  0
  2 25  1  0  0  0
  2 85  1  0  0  0
  2 86  1  0  0  0
  3  4  1  0  0  0
  3 87  1  0  0  0
  3 88  1  0  0  0
  4  5  1  0  0  0
  4 89  1  0  0  0
  4 90  1  0  0  0
  5  6  1  0  0  0
  5 26  1  0  0  0
  5 91  1  0  0  0
  6 25  1  0  0  0
  6 92  1  0  0  0
  6 93  1  0  0  0
  7  8  2  0  0  0
  7 26  1  0  0  0
  7 29  1  0  0  0
  8  9  1  0  0  0
  8 22  1  0  0  0
  9 10  1  0  0  0
  9 27  2  0  0  0
 10 11  2  0  0  0
 10 15  1  0  0  0
 11 12  1  0  0  0
 11 94  1  0  0  0
 12 13  2  0  0  0
 12 95  1  0  0  0
 13 14  1  0  0  0
 13 31  1  0  0  0
 14 15  2  0  0  0
 14 96  1  0  0  0
 15 97  1  0  0  0
 16 17  2  0  0  0
 16 21  1  0  0  0
 16 31  1  0  0  0
 17 18  1  0  0  0
 17 98  1  0  0  0
 18 19  2  0  0  0
 18 99  1  0  0  0
 19 20  1  0  0  0
 19 24  1  0  0  0
 20 21  2  0  0  0
 20100  1  0  0  0
 21 23  1  0  0  0
 22 28  1  0  0  0
 22 32  2  0  0  0
 26 27  1  0  0  0
 28101  1  0  0  0
 28102  1  0  0  0
 29103  1  0  0  0
 29104  1  0  0  0
 33 34  1  0  0  0
 33 66  1  0  0  0
 33 70  2  0  0  0
 34 36  1  0  0  0
 34 59  1  0  0  0
 34105  1  0  0  0
 35 44  2  0  0  0
 35 45  1  0  0  0
 35 68  1  0  0  0
 36 56  1  0  0  0
 36106  1  0  0  0
 37 39  1  0  0  0
 37 47  1  0  0  0
 37 66  1  0  0  0
 37107  1  0  0  0
 38 43  2  0  0  0
 38 46  1  0  0  0
 38 47  1  0  0  0
 39 64  1  0  0  0
 39 67  2  0  0  0
 40 52  1  0  0  0
 40 53  2  0  0  0
 40 58  1  0  0  0
 41108  1  0  0  0
 41109  1  0  0  0
 41110  1  0  0  0
 41 48  1  0  0  0
 42 43  1  0  0  0
 42 66  1  0  0  0
 42111  1  0  0  0
 42112  1  0  0  0
 43 44  1  0  0  0
 44113  1  0  0  0
 45 46  2  0  0  0
 45114  1  0  0  0
 46115  1  0  0  0
 47116  1  0  0  0
 47117  1  0  0  0
 48 56  1  0  0  0
 48 65  1  0  0  0
 48118  1  0  0  0
 49 50  1  0  0  0
 49 53  1  0  0  0
 49 64  1  0  0  0
 49119  1  0  0  0
 50 51  1  0  0  0
 50120  1  0  0  0
 50121  1  0  0  0
 51 52  1  0  0  0
 51122  1  0  0  0
 51123  1  0  0  0
 52124  1  0  0  0
 52125  1  0  0  0
 53 54  1  0  0  0
 54 55  2  0  0  0
 54126  1  0  0  0
 55 57  1  0  0  0
 55127  1  0  0  0
 56 69  2  0  0  0
 57 58  2  0  0  0
 57128  1  0  0  0
 58129  1  0  0  0
 59 60  1  0  0  0
 59 61  1  0  0  0
 59 62  1  0  0  0
 60130  1  0  0  0
 60131  1  0  0  0
 60132  1  0  0  0
 61133  1  0  0  0
 61134  1  0  0  0
 61135  1  0  0  0
 62136  1  0  0  0
 62137  1  0  0  0
 62138  1  0  0  0
 63 65  1  0  0  0
 63139  1  0  0  0
 63140  1  0  0  0
 63141  1  0  0  0
 64142  1  0  0  0
 65143  1  0  0  0
 68 83  1  0  0  0
 71 72  2  0  0  0
 71 74  1  0  0  0
 71144  1  0  0  0
 72 76  1  0  0  0
 72145  1  0  0  0
 73 74  2  0  0  0
 73 75  1  0  0  0
 73146  1  0  0  0
 74 78  1  0  0  0
 75 76  2  0  0  0
 75 79  1  0  0  0
 76 84  1  0  0  0
 77 80  1  0  0  0
 77147  1  0  0  0
 77148  1  0  0  0
 77149  1  0  0  0
 78 81  1  0  0  0
 78150  1  0  0  0
 78151  1  0  0  0
 79 80  1  0  0  0
 79152  1  0  0  0
 79153  1  0  0  0
 80154  1  0  0  0
 80155  1  0  0  0
 81 82  1  0  0  0
 81156  1  0  0  0
 81157  1  0  0  0
 82 83  1  0  0  0
 82158  1  0  0  0
 82159  1  0  0  0
 83160  1  0  0  0
 83161  1  0  0  0
 84162  1  0  0  0
M  ISO  4   1 100  68 101  83 101  84 100
M  END
> <chiral flag>
0

> <version>
0

> <s_m_source_file>
/data/baiqing/PycharmProjects/Reinvent-master-3.2/result/LINK_invent/BTK/process_docking_weight1_custom_product_contain_oxygen_bond_distance_aromatic_linkinvent_7_9_3/rearranged_h_0140.sdf

> <i_m_source_file_index>
28

> <r_mmod_Potential_Energy-OPLS-2005>
32.147274017334

> <r_mmod_Stretch_Energy-OPLS-2005>
68.9651794433594

> <r_mmod_Bend_Energy-OPLS-2005>
123.177200317383

> <r_mmod_Torsional_Energy-OPLS-2005>
222.310791015625

> <r_mmod_Improper_Torsional_Energy-OPLS-2005>
6.18515586853027

> <r_mmod_Van_der_Waal_Energy-OPLS-2005>
134.621658325195

> <r_mmod_Electrostatic_Energy-OPLS-2005>
-368.612426757812

> <r_mmod_Solvation_Energy-OPLS-2005>
-196.098190307617

> <b_mmod_Minimization_Converged-OPLS-2005>
0

> <r_mmod_RMS_Derivative-OPLS-2005>
1.45257234573364

$$$$
28
                    3D
 Structure written by MMmdl.
157166  0  0  1  0            999 V2000
  -30.5733  -14.8104   20.4111 C   0  0  0  0  0  0
  -30.4389  -12.4854   19.4923 C   0  0  0  0  0  0
  -29.5212  -12.5128   18.2486 C   0  0  0  0  0  0
  -28.0475  -12.3317   18.6573 C   0  0  0  0  0  0
  -27.6450  -13.2346   19.8532 C   0  0  2  0  0  0
  -28.6862  -13.1881   20.9916 C   0  0  0  0  0  0
  -25.2549  -13.8195   20.5696 C   0  0  0  0  0  0
  -24.1826  -13.0450   20.9197 C   0  0  0  0  0  0
  -24.6408  -11.6921   20.8733 C   0  0  0  0  0  0
  -23.9075  -10.4294   21.0404 C   0  0  0  0  0  0
  -24.3617   -9.4206   21.9178 C   0  0  0  0  0  0
  -23.6289   -8.2239   22.0741 C   0  0  0  0  0  0
  -22.4268   -8.0283   21.3538 C   0  0  0  0  0  0
  -21.9911   -9.0268   20.4634 C   0  0  0  0  0  0
  -22.7244  -10.2144   20.3048 C   0  0  0  0  0  0
  -21.6858   -6.0735   22.5269 C   0  0  0  0  0  0
  -21.4019   -6.5627   23.8197 C   0  0  0  0  0  0
  -21.3664   -5.6773   24.9160 C   0  0  0  0  0  0
  -21.6052   -4.3041   24.7208 C   0  0  0  0  0  0
  -21.8819   -3.8139   23.4326 C   0  0  0  0  0  0
  -21.9189   -4.6962   22.3386 C   0  0  0  0  0  0
  -22.7848  -13.5245   21.1855 C   0  0  0  0  0  0
  -22.1654   -4.2154   21.0965 F   0  0  0  0  0  0
  -21.5643   -3.4516   25.7719 F   0  0  0  0  0  0
  -29.9821  -13.5596   20.4118 N   0  0  0  0  0  0
  -26.2959  -12.9405   20.3273 N   0  0  0  0  0  0
  -25.9341  -11.6543   20.5740 N   0  0  0  0  0  0
  -22.0473  -12.8232   22.0398 N   0  0  0  0  0  0
  -25.4319  -15.1914   20.4118 N   0  0  0  0  0  0
  -31.7602  -14.8955   20.0752 O   0  0  0  0  0  0
  -21.6623   -6.8891   21.4234 O   0  0  0  0  0  0
  -22.3533  -14.5554   20.6712 O   0  0  0  0  0  0
  -24.6360  -31.8512   23.1936 C   0  0  0  0  0  0
  -25.9170  -32.4731   23.8316 C   0  0  1  0  0  0
  -27.2287  -27.2341   20.1172 C   0  0  0  0  0  0
  -25.5960  -33.8530   24.2254 N   0  0  0  0  0  0
  -23.4369  -30.4729   21.5336 C   0  0  2  0  0  0
  -24.8896  -28.9162   20.0990 C   0  0  0  0  0  0
  -22.7546  -29.4584   22.4841 C   0  0  0  0  0  0
  -18.0308  -28.1392   22.8485 C   0  0  0  0  0  0
  -24.1505  -36.7257   23.2641 C   0  0  0  0  0  0
  -25.9867  -30.7533   21.3830 C   0  0  0  0  0  0
  -26.0596  -29.3756   20.7157 C   0  0  0  0  0  0
  -27.2289  -28.5443   20.7152 C   0  0  0  0  0  0
  -26.0365  -26.8471   19.4690 C   0  0  0  0  0  0
  -24.8847  -27.6631   19.4626 C   0  0  0  0  0  0
  -23.6609  -29.8057   20.1493 C   0  0  0  0  0  0
  -25.4123  -36.3050   24.0334 C   0  0  1  0  0  0
  -20.5917  -28.3719   23.1242 C   0  0  2  0  0  0
  -20.6786  -26.9427   22.5403 C   0  0  0  0  0  0
  -19.5753  -26.6383   21.5212 C   0  0  0  0  0  0
  -18.1930  -26.7941   22.1621 C   0  0  0  0  0  0
  -19.1562  -28.8873   23.2864 C   0  0  0  0  0  0
  -18.9475  -30.1463   23.8892 C   0  0  0  0  0  0
  -17.6473  -30.6595   24.0550 C   0  0  0  0  0  0
  -25.9061  -34.9422   23.5096 C   0  0  0  0  0  0
  -16.5362  -29.9086   23.6331 C   0  0  0  0  0  0
  -16.7288  -28.6501   23.0359 C   0  0  0  0  0  0
  -26.4526  -31.6553   25.0712 C   0  0  0  0  0  0
  -25.3741  -31.3713   26.1428 C   0  0  0  0  0  0
  -27.0370  -30.2953   24.6242 C   0  0  0  0  0  0
  -27.6102  -32.4284   25.7465 C   0  0  0  0  0  0
  -27.5588  -37.1788   24.8469 C   0  0  0  0  0  0
  -21.4237  -29.3067   22.3621 N   0  0  0  0  0  0
  -26.4299  -37.3752   23.9407 N   0  0  0  0  0  0
  -24.7049  -31.0448   22.0924 N   0  0  0  0  0  0
  -23.4230  -28.8119   23.2952 O   0  0  0  0  0  0
  -28.2982  -26.3080   20.2400 O   0  0  0  0  0  0
  -26.5618  -34.8909   22.4656 O   0  0  0  0  0  0
  -23.5496  -32.1366   23.7190 O   0  0  0  0  0  0
  -29.8882  -19.7674   18.4209 C   0  0  0  0  0  0
  -30.4079  -17.3786   18.6760 C   0  0  0  0  0  0
  -29.3330  -18.6077   20.4800 C   0  0  0  0  0  0
  -30.4081  -18.5608   17.9100 C   0  0  0  0  0  0
  -29.3439  -19.8722   19.7219 C   0  0  0  0  0  0
  -29.8646  -17.3248   19.9787 C   0  0  0  0  0  0
  -28.5198  -23.7352   20.0569 C   0  0  0  0  0  0
  -28.3530  -25.0397   19.5715 C   0  0  0  0  0  0
  -28.5244  -23.2416   21.4920 C   0  0  0  0  0  0
  -28.7450  -22.4200   19.2336 C   0  0  0  0  0  0
  -28.9011  -21.7115   21.4947 C   0  0  0  0  0  0
  -30.9534  -18.5200   16.4957 C   0  0  0  0  0  0
  -28.8585  -21.2038   20.1205 N   0  0  0  0  0  0
  -29.8023  -15.9643   20.6321 N   0  0  0  0  0  0
  -31.4813  -12.6097   19.1916 H   0  0  0  0  0  0
  -30.3905  -11.5137   19.9859 H   0  0  0  0  0  0
  -29.8128  -11.7311   17.5447 H   0  0  0  0  0  0
  -29.6434  -13.4618   17.7237 H   0  0  0  0  0  0
  -27.9066  -11.2836   18.9247 H   0  0  0  0  0  0
  -27.3946  -12.5206   17.8047 H   0  0  0  0  0  0
  -27.6370  -14.2529   19.4634 H   0  0  0  0  0  0
  -28.7381  -12.1914   21.4322 H   0  0  0  0  0  0
  -28.4154  -13.8670   21.8021 H   0  0  0  0  0  0
  -25.2767   -9.5682   22.4743 H   0  0  0  0  0  0
  -24.0003   -7.4627   22.7447 H   0  0  0  0  0  0
  -21.0848   -8.8816   19.8931 H   0  0  0  0  0  0
  -22.3727  -10.9695   19.6155 H   0  0  0  0  0  0
  -21.2008   -7.6130   23.9721 H   0  0  0  0  0  0
  -21.1491   -6.0485   25.9071 H   0  0  0  0  0  0
  -22.0596   -2.7600   23.2804 H   0  0  0  0  0  0
  -22.4063  -11.9889   22.4791 H   0  0  0  0  0  0
  -21.1105  -13.1305   22.2609 H   0  0  0  0  0  0
  -24.6817  -15.8617   20.5418 H   0  0  0  0  0  0
  -26.2880  -15.6154   20.0773 H   0  0  0  0  0  0
  -26.7234  -32.5387   23.1052 H   0  0  0  0  0  0
  -25.0161  -33.9661   25.0438 H   0  0  0  0  0  0
  -22.7360  -31.2961   21.3822 H   0  0  0  0  0  0
  -23.3781  -35.9580   23.3290 H   0  0  0  0  0  0
  -24.3610  -36.8882   22.2063 H   0  0  0  0  0  0
  -23.7252  -37.6451   23.6662 H   0  0  0  0  0  0
  -26.1423  -31.5209   20.6230 H   0  0  0  0  0  0
  -26.8568  -30.7923   22.0271 H   0  0  0  0  0  0
  -28.1219  -28.8823   21.2230 H   0  0  0  0  0  0
  -25.9694  -25.8796   18.9931 H   0  0  0  0  0  0
  -23.9905  -27.3075   18.9708 H   0  0  0  0  0  0
  -23.7897  -30.5820   19.3933 H   0  0  0  0  0  0
  -22.7806  -29.2385   19.8430 H   0  0  0  0  0  0
  -25.1306  -36.1892   25.0829 H   0  0  0  0  0  0
  -21.0022  -28.3307   24.1356 H   0  0  0  0  0  0
  -20.5666  -26.2335   23.3617 H   0  0  0  0  0  0
  -21.6652  -26.7431   22.1206 H   0  0  0  0  0  0
  -19.6898  -25.6284   21.1260 H   0  0  0  0  0  0
  -19.6670  -27.3177   20.6725 H   0  0  0  0  0  0
  -17.4199  -26.6712   21.4013 H   0  0  0  0  0  0
  -18.0303  -26.0079   22.9012 H   0  0  0  0  0  0
  -19.7945  -30.7280   24.2269 H   0  0  0  0  0  0
  -17.5021  -31.6275   24.5145 H   0  0  0  0  0  0
  -15.5357  -30.2980   23.7644 H   0  0  0  0  0  0
  -15.8699  -28.0810   22.7077 H   0  0  0  0  0  0
  -24.5905  -30.7082   25.7741 H   0  0  0  0  0  0
  -24.8944  -32.2880   26.4868 H   0  0  0  0  0  0
  -25.8048  -30.8864   27.0197 H   0  0  0  0  0  0
  -26.2959  -29.6667   24.1290 H   0  0  0  0  0  0
  -27.4042  -29.7255   25.4786 H   0  0  0  0  0  0
  -27.8853  -30.4184   23.9507 H   0  0  0  0  0  0
  -27.2756  -33.3611   26.2019 H   0  0  0  0  0  0
  -28.3917  -32.6792   25.0276 H   0  0  0  0  0  0
  -28.0771  -31.8413   26.5384 H   0  0  0  0  0  0
  -28.2602  -38.0090   24.7514 H   0  0  0  0  0  0
  -28.1086  -36.2614   24.6289 H   0  0  0  0  0  0
  -27.2306  -37.1443   25.8876 H   0  0  0  0  0  0
  -20.9416  -29.8817   21.6856 H   0  0  0  0  0  0
  -26.0173  -38.2833   24.1370 H   0  0  0  0  0  0
  -29.9234  -20.6286   17.7707 H   0  0  0  0  0  0
  -30.8058  -16.4857   18.2170 H   0  0  0  0  0  0
  -28.8885  -18.6221   21.4648 H   0  0  0  0  0  0
  -28.3709  -25.2012   18.5028 H   0  0  0  0  0  0
  -27.5135  -23.3667   21.8814 H   0  0  0  0  0  0
  -29.1917  -23.8362   22.1161 H   0  0  0  0  0  0
  -29.6662  -22.5534   18.6639 H   0  0  0  0  0  0
  -27.9317  -22.2934   18.5162 H   0  0  0  0  0  0
  -28.2236  -21.1477   22.1371 H   0  0  0  0  0  0
  -29.9095  -21.5772   21.8890 H   0  0  0  0  0  0
  -31.1031  -19.5222   16.0921 H   0  0  0  0  0  0
  -30.2583  -17.9899   15.8429 H   0  0  0  0  0  0
  -31.9120  -18.0023   16.4645 H   0  0  0  0  0  0
  -28.9612  -15.7972   21.1655 H   0  0  0  0  0  0
  1 25  1  0  0  0
  1 30  2  0  0  0
  1 84  1  0  0  0
  2  3  1  0  0  0
  2 25  1  0  0  0
  2 85  1  0  0  0
  2 86  1  0  0  0
  3  4  1  0  0  0
  3 87  1  0  0  0
  3 88  1  0  0  0
  4  5  1  0  0  0
  4 89  1  0  0  0
  4 90  1  0  0  0
  5  6  1  0  0  0
  5 26  1  0  0  0
  5 91  1  0  0  0
  6 25  1  0  0  0
  6 92  1  0  0  0
  6 93  1  0  0  0
  7  8  2  0  0  0
  7 26  1  0  0  0
  7 29  1  0  0  0
  8  9  1  0  0  0
  8 22  1  0  0  0
  9 10  1  0  0  0
  9 27  2  0  0  0
 10 11  2  0  0  0
 10 15  1  0  0  0
 11 12  1  0  0  0
 11 94  1  0  0  0
 12 13  2  0  0  0
 12 95  1  0  0  0
 13 14  1  0  0  0
 13 31  1  0  0  0
 14 15  2  0  0  0
 14 96  1  0  0  0
 15 97  1  0  0  0
 16 17  2  0  0  0
 16 21  1  0  0  0
 16 31  1  0  0  0
 17 18  1  0  0  0
 17 98  1  0  0  0
 18 19  2  0  0  0
 18 99  1  0  0  0
 19 20  1  0  0  0
 19 24  1  0  0  0
 20 21  2  0  0  0
 20100  1  0  0  0
 21 23  1  0  0  0
 22 28  1  0  0  0
 22 32  2  0  0  0
 26 27  1  0  0  0
 28101  1  0  0  0
 28102  1  0  0  0
 29103  1  0  0  0
 29104  1  0  0  0
 33 34  1  0  0  0
 33 66  1  0  0  0
 33 70  2  0  0  0
 34 36  1  0  0  0
 34 59  1  0  0  0
 34105  1  0  0  0
 35 44  2  0  0  0
 35 45  1  0  0  0
 35 68  1  0  0  0
 36 56  1  0  0  0
 36106  1  0  0  0
 37 39  1  0  0  0
 37 47  1  0  0  0
 37 66  1  0  0  0
 37107  1  0  0  0
 38 43  2  0  0  0
 38 46  1  0  0  0
 38 47  1  0  0  0
 39 64  1  0  0  0
 39 67  2  0  0  0
 40 52  1  0  0  0
 40 53  2  0  0  0
 40 58  1  0  0  0
 41108  1  0  0  0
 41109  1  0  0  0
 41110  1  0  0  0
 41 48  1  0  0  0
 42 43  1  0  0  0
 42 66  1  0  0  0
 42111  1  0  0  0
 42112  1  0  0  0
 43 44  1  0  0  0
 44113  1  0  0  0
 45 46  2  0  0  0
 45114  1  0  0  0
 46115  1  0  0  0
 47116  1  0  0  0
 47117  1  0  0  0
 48 56  1  0  0  0
 48 65  1  0  0  0
 48118  1  0  0  0
 49 50  1  0  0  0
 49 53  1  0  0  0
 49 64  1  0  0  0
 49119  1  0  0  0
 50 51  1  0  0  0
 50120  1  0  0  0
 50121  1  0  0  0
 51 52  1  0  0  0
 51122  1  0  0  0
 51123  1  0  0  0
 52124  1  0  0  0
 52125  1  0  0  0
 53 54  1  0  0  0
 54 55  2  0  0  0
 54126  1  0  0  0
 55 57  1  0  0  0
 55127  1  0  0  0
 56 69  2  0  0  0
 57 58  2  0  0  0
 57128  1  0  0  0
 58129  1  0  0  0
 59 60  1  0  0  0
 59 61  1  0  0  0
 59 62  1  0  0  0
 60130  1  0  0  0
 60131  1  0  0  0
 60132  1  0  0  0
 61133  1  0  0  0
 61134  1  0  0  0
 61135  1  0  0  0
 62136  1  0  0  0
 62137  1  0  0  0
 62138  1  0  0  0
 63 65  1  0  0  0
 63139  1  0  0  0
 63140  1  0  0  0
 63141  1  0  0  0
 64142  1  0  0  0
 65143  1  0  0  0
 68 78  1  0  0  0
 71 74  2  0  0  0
 71 75  1  0  0  0
 71144  1  0  0  0
 72 74  1  0  0  0
 72 76  2  0  0  0
 72145  1  0  0  0
 73 75  2  0  0  0
 73 76  1  0  0  0
 73146  1  0  0  0
 74 82  1  0  0  0
 75 83  1  0  0  0
 76 84  1  0  0  0
 77 78  2  0  0  0
 77 79  1  0  0  0
 77 80  1  0  0  0
 78147  1  0  0  0
 79 81  1  0  0  0
 79148  1  0  0  0
 79149  1  0  0  0
 80 83  1  0  0  0
 80150  1  0  0  0
 80151  1  0  0  0
 81 83  1  0  0  0
 81152  1  0  0  0
 81153  1  0  0  0
 82154  1  0  0  0
 82155  1  0  0  0
 82156  1  0  0  0
 84157  1  0  0  0
M  ISO  4   1 100  68 101  78 101  84 100
M  END
> <chiral flag>
0

> <version>
0

> <s_m_source_file>
/data/baiqing/PycharmProjects/Reinvent-master-3.2/result/LINK_invent/BTK/process_docking_weight1_custom_product_contain_oxygen_bond_distance_aromatic_linkinvent_7_9_3/rearranged_h_0140.sdf

> <i_m_source_file_index>
29

> <r_mmod_Potential_Energy-OPLS-2005>
311.302154541016

> <r_mmod_Stretch_Energy-OPLS-2005>
143.249877929688

> <r_mmod_Bend_Energy-OPLS-2005>
213.501953125

> <r_mmod_Torsional_Energy-OPLS-2005>
257.360748291016

> <r_mmod_Improper_Torsional_Energy-OPLS-2005>
6.15233755111694

> <r_mmod_Van_der_Waal_Energy-OPLS-2005>
134.730255126953

> <r_mmod_Electrostatic_Energy-OPLS-2005>
-330.218688964844

> <r_mmod_Solvation_Energy-OPLS-2005>
-227.568786621094

> <b_mmod_Minimization_Converged-OPLS-2005>
0

> <r_mmod_RMS_Derivative-OPLS-2005>
2.55071544647217

$$$$
29
                    3D
 Structure written by MMmdl.
165174  0  0  1  0            999 V2000
  -30.6567  -14.7895   20.3981 C   0  0  0  0  0  0
  -30.4394  -12.4783   19.4361 C   0  0  0  0  0  0
  -29.4935  -12.4584   18.2172 C   0  0  0  0  0  0
  -28.0220  -12.3158   18.6578 C   0  0  0  0  0  0
  -27.6412  -13.2390   19.8397 C   0  0  2  0  0  0
  -28.7160  -13.2173   20.9509 C   0  0  0  0  0  0
  -25.2546  -13.8240   20.5877 C   0  0  0  0  0  0
  -24.1809  -13.0491   20.9330 C   0  0  0  0  0  0
  -24.6374  -11.6956   20.8812 C   0  0  0  0  0  0
  -23.9037  -10.4326   21.0475 C   0  0  0  0  0  0
  -24.3562   -9.4222   21.9252 C   0  0  0  0  0  0
  -23.6251   -8.2245   22.0776 C   0  0  0  0  0  0
  -22.4257   -8.0274   21.3540 C   0  0  0  0  0  0
  -21.9909   -9.0250   20.4636 C   0  0  0  0  0  0
  -22.7223  -10.2149   20.3073 C   0  0  0  0  0  0
  -21.6831   -6.0727   22.5278 C   0  0  0  0  0  0
  -21.3995   -6.5619   23.8225 C   0  0  0  0  0  0
  -21.3667   -5.6776   24.9167 C   0  0  0  0  0  0
  -21.6022   -4.3041   24.7230 C   0  0  0  0  0  0
  -21.8819   -3.8139   23.4334 C   0  0  0  0  0  0
  -21.9186   -4.6954   22.3408 C   0  0  0  0  0  0
  -22.7833  -13.5294   21.1883 C   0  0  0  0  0  0
  -22.1658   -4.2122   21.0968 F   0  0  0  0  0  0
  -21.5629   -3.4522   25.7744 F   0  0  0  0  0  0
  -29.9958  -13.5753   20.3310 N   0  0  0  0  0  0
  -26.2980  -12.9460   20.3437 N   0  0  0  0  0  0
  -25.9306  -11.6594   20.5879 N   0  0  0  0  0  0
  -22.0298  -12.8359   22.0352 N   0  0  0  0  0  0
  -25.4225  -15.1991   20.4337 N   0  0  0  0  0  0
  -31.8374  -14.8351   20.0585 O   0  0  0  0  0  0
  -21.6619   -6.8868   21.4253 O   0  0  0  0  0  0
  -22.3556  -14.5579   20.6624 O   0  0  0  0  0  0
  -24.6295  -31.8616   23.2041 C   0  0  0  0  0  0
  -25.9089  -32.4832   23.8422 C   0  0  1  0  0  0
  -27.2250  -27.2917   20.1391 C   0  0  0  0  0  0
  -25.5908  -33.8651   24.2376 N   0  0  0  0  0  0
  -23.4265  -30.4801   21.5545 C   0  0  2  0  0  0
  -24.8758  -28.9481   20.1143 C   0  0  0  0  0  0
  -22.7430  -29.4588   22.4956 C   0  0  0  0  0  0
  -18.0231  -28.1512   22.8473 C   0  0  0  0  0  0
  -24.1462  -36.7270   23.2678 C   0  0  0  0  0  0
  -25.9723  -30.7863   21.3809 C   0  0  0  0  0  0
  -26.0509  -29.4129   20.7241 C   0  0  0  0  0  0
  -27.2304  -28.6003   20.7144 C   0  0  0  0  0  0
  -26.0216  -26.9063   19.4832 C   0  0  0  0  0  0
  -24.8739  -27.7085   19.4690 C   0  0  0  0  0  0
  -23.6402  -29.8199   20.1699 C   0  0  0  0  0  0
  -25.4097  -36.3157   24.0402 C   0  0  1  0  0  0
  -20.5832  -28.3705   23.1416 C   0  0  2  0  0  0
  -20.6669  -26.9312   22.5722 C   0  0  0  0  0  0
  -19.5735  -26.6255   21.5410 C   0  0  0  0  0  0
  -18.1803  -26.8011   22.1617 C   0  0  0  0  0  0
  -19.1481  -28.8908   23.2963 C   0  0  0  0  0  0
  -18.9459  -30.1461   23.9054 C   0  0  0  0  0  0
  -17.6509  -30.6672   24.0645 C   0  0  0  0  0  0
  -25.9018  -34.9519   23.5169 C   0  0  0  0  0  0
  -16.5362  -29.9268   23.6413 C   0  0  0  0  0  0
  -16.7251  -28.6706   23.0346 C   0  0  0  0  0  0
  -26.4468  -31.6621   25.0786 C   0  0  0  0  0  0
  -25.3678  -31.3704   26.1490 C   0  0  0  0  0  0
  -27.0371  -30.3082   24.6189 C   0  0  0  0  0  0
  -27.6021  -32.4369   25.7528 C   0  0  0  0  0  0
  -27.5573  -37.1790   24.8505 C   0  0  0  0  0  0
  -21.4111  -29.3017   22.3741 N   0  0  0  0  0  0
  -26.4298  -37.3828   23.9448 N   0  0  0  0  0  0
  -24.6963  -31.0556   22.1079 N   0  0  0  0  0  0
  -23.4108  -28.8066   23.3039 O   0  0  0  0  0  0
  -28.2973  -26.3505   20.2158 O   0  0  0  0  0  0
  -26.5578  -34.8956   22.4747 O   0  0  0  0  0  0
  -23.5450  -32.1484   23.7274 O   0  0  0  0  0  0
  -31.6531  -18.9644   22.2735 C   0  0  0  0  0  0
  -30.9011  -20.0794   21.8461 C   0  0  0  0  0  0
  -29.5546  -18.5617   20.5257 C   0  0  0  0  0  0
  -31.3525  -17.6359   21.8740 C   0  0  0  0  0  0
  -29.7974  -19.9394   20.9829 C   0  0  0  0  0  0
  -30.3091  -17.3716   20.9368 C   0  0  0  0  0  0
  -28.0156  -23.4845   20.6635 C   0  0  0  0  0  0
  -29.0622  -22.5529   20.7597 C   0  0  0  0  0  0
  -26.5333  -20.4578   20.4320 C   0  0  0  0  0  0
  -26.5304  -23.0033   20.5177 C   0  0  0  0  0  0
  -26.2446  -21.7369   19.6780 C   0  0  0  0  0  0
  -27.6483  -20.5803   21.4506 C   0  0  0  0  0  0
  -32.1219  -16.5145   22.5744 C   0  0  0  0  0  0
  -30.5069  -23.0745   20.7635 C   0  0  0  0  0  0
  -27.9971  -25.0846   20.9837 C   0  0  0  0  0  0
  -28.8919  -21.0801   20.8341 N   0  0  0  0  0  0
  -29.9243  -15.9651   20.5671 N   0  0  0  0  0  0
  -25.9264  -19.4041   20.2052 O   0  0  0  0  0  0
  -31.4629  -12.6046   19.0824 H   0  0  0  0  0  0
  -30.4279  -11.5259   19.9741 H   0  0  0  0  0  0
  -29.7616  -11.6302   17.5622 H   0  0  0  0  0  0
  -29.6184  -13.3632   17.6231 H   0  0  0  0  0  0
  -27.8806  -11.2795   18.9609 H   0  0  0  0  0  0
  -27.3520  -12.4768   17.8104 H   0  0  0  0  0  0
  -27.6146  -14.2485   19.4301 H   0  0  0  0  0  0
  -28.7829  -12.2288   21.4008 H   0  0  0  0  0  0
  -28.4758  -13.9132   21.7546 H   0  0  0  0  0  0
  -25.2652   -9.5728   22.4890 H   0  0  0  0  0  0
  -23.9933   -7.4651   22.7505 H   0  0  0  0  0  0
  -21.0841   -8.8738   19.8951 H   0  0  0  0  0  0
  -22.3654  -10.9671   19.6184 H   0  0  0  0  0  0
  -21.1968   -7.6120   23.9711 H   0  0  0  0  0  0
  -21.1506   -6.0497   25.9075 H   0  0  0  0  0  0
  -22.0600   -2.7596   23.2845 H   0  0  0  0  0  0
  -22.3762  -12.0064   22.4930 H   0  0  0  0  0  0
  -21.0856  -13.1454   22.2256 H   0  0  0  0  0  0
  -24.6537  -15.8540   20.5192 H   0  0  0  0  0  0
  -26.2750  -15.6407   20.1127 H   0  0  0  0  0  0
  -26.7156  -32.5502   23.1176 H   0  0  0  0  0  0
  -25.0157  -33.9832   25.0580 H   0  0  0  0  0  0
  -22.7314  -31.3070   21.4024 H   0  0  0  0  0  0
  -23.3802  -35.9514   23.3365 H   0  0  0  0  0  0
  -24.3553  -36.8823   22.2081 H   0  0  0  0  0  0
  -23.7118  -37.6447   23.6635 H   0  0  0  0  0  0
  -26.0952  -31.5520   20.6121 H   0  0  0  0  0  0
  -26.8599  -30.8434   22.0005 H   0  0  0  0  0  0
  -28.1316  -28.9603   21.1996 H   0  0  0  0  0  0
  -25.9189  -25.9448   19.0034 H   0  0  0  0  0  0
  -23.9822  -27.3489   18.9742 H   0  0  0  0  0  0
  -23.7524  -30.5957   19.4138 H   0  0  0  0  0  0
  -22.7634  -29.2385   19.8732 H   0  0  0  0  0  0
  -25.1269  -36.2054   25.0902 H   0  0  0  0  0  0
  -20.9912  -28.3425   24.1560 H   0  0  0  0  0  0
  -20.5278  -26.2364   23.3973 H   0  0  0  0  0  0
  -21.6618  -26.7169   22.1808 H   0  0  0  0  0  0
  -19.6911  -25.6177   21.1520 H   0  0  0  0  0  0
  -19.6801  -27.2954   20.6918 H   0  0  0  0  0  0
  -17.4170  -26.6886   21.3894 H   0  0  0  0  0  0
  -17.9869  -26.0205   22.8959 H   0  0  0  0  0  0
  -19.7942  -30.7141   24.2629 H   0  0  0  0  0  0
  -17.5187  -31.6304   24.5352 H   0  0  0  0  0  0
  -15.5409  -30.3272   23.7876 H   0  0  0  0  0  0
  -15.8600  -28.1113   22.7019 H   0  0  0  0  0  0
  -24.5755  -30.7218   25.7746 H   0  0  0  0  0  0
  -24.8999  -32.2862   26.5097 H   0  0  0  0  0  0
  -25.7980  -30.8676   27.0165 H   0  0  0  0  0  0
  -26.2990  -29.6760   24.1242 H   0  0  0  0  0  0
  -27.4171  -29.7391   25.4682 H   0  0  0  0  0  0
  -27.8790  -30.4462   23.9408 H   0  0  0  0  0  0
  -27.2607  -33.3611   26.2195 H   0  0  0  0  0  0
  -28.3737  -32.7023   25.0300 H   0  0  0  0  0  0
  -28.0791  -31.8462   26.5332 H   0  0  0  0  0  0
  -28.2670  -38.0015   24.7565 H   0  0  0  0  0  0
  -28.0990  -36.2573   24.6337 H   0  0  0  0  0  0
  -27.2293  -37.1458   25.8906 H   0  0  0  0  0  0
  -20.9224  -29.8960   21.7169 H   0  0  0  0  0  0
  -26.0212  -38.2930   24.1402 H   0  0  0  0  0  0
  -32.4392  -19.1567   22.9934 H   0  0  0  0  0  0
  -31.1394  -21.0420   22.2757 H   0  0  0  0  0  0
  -28.7214  -18.3973   19.8578 H   0  0  0  0  0  0
  -25.8800  -23.7396   20.0400 H   0  0  0  0  0  0
  -26.1177  -22.9271   21.5261 H   0  0  0  0  0  0
  -25.1915  -21.7299   19.4066 H   0  0  0  0  0  0
  -26.7841  -21.7319   18.7276 H   0  0  0  0  0  0
  -27.7595  -19.6387   21.9849 H   0  0  0  0  0  0
  -27.3101  -21.2709   22.2228 H   0  0  0  0  0  0
  -32.8444  -16.0370   21.9137 H   0  0  0  0  0  0
  -31.4350  -15.7634   22.9755 H   0  0  0  0  0  0
  -32.7028  -16.8945   23.4135 H   0  0  0  0  0  0
  -30.5740  -24.0127   20.2077 H   0  0  0  0  0  0
  -31.1824  -22.3941   20.2462 H   0  0  0  0  0  0
  -30.9148  -23.2916   21.7576 H   0  0  0  0  0  0
  -27.3962  -25.3003   21.8716 H   0  0  0  0  0  0
  -27.2778  -25.0358   20.2177 H   0  0  0  0  0  0
  -28.9324  -15.8231   20.4596 H   0  0  0  0  0  0
  1 25  1  0  0  0
  1 30  2  0  0  0
  1 87  1  0  0  0
  2  3  1  0  0  0
  2 25  1  0  0  0
  2 89  1  0  0  0
  2 90  1  0  0  0
  3  4  1  0  0  0
  3 91  1  0  0  0
  3 92  1  0  0  0
  4  5  1  0  0  0
  4 93  1  0  0  0
  4 94  1  0  0  0
  5  6  1  0  0  0
  5 26  1  0  0  0
  5 95  1  0  0  0
  6 25  1  0  0  0
  6 96  1  0  0  0
  6 97  1  0  0  0
  7  8  2  0  0  0
  7 26  1  0  0  0
  7 29  1  0  0  0
  8  9  1  0  0  0
  8 22  1  0  0  0
  9 10  1  0  0  0
  9 27  2  0  0  0
 10 11  2  0  0  0
 10 15  1  0  0  0
 11 12  1  0  0  0
 11 98  1  0  0  0
 12 13  2  0  0  0
 12 99  1  0  0  0
 13 14  1  0  0  0
 13 31  1  0  0  0
 14 15  2  0  0  0
 14100  1  0  0  0
 15101  1  0  0  0
 16 17  2  0  0  0
 16 21  1  0  0  0
 16 31  1  0  0  0
 17 18  1  0  0  0
 17102  1  0  0  0
 18 19  2  0  0  0
 18103  1  0  0  0
 19 20  1  0  0  0
 19 24  1  0  0  0
 20 21  2  0  0  0
 20104  1  0  0  0
 21 23  1  0  0  0
 22 28  1  0  0  0
 22 32  2  0  0  0
 26 27  1  0  0  0
 28105  1  0  0  0
 28106  1  0  0  0
 29107  1  0  0  0
 29108  1  0  0  0
 33 34  1  0  0  0
 33 66  1  0  0  0
 33 70  2  0  0  0
 34 36  1  0  0  0
 34 59  1  0  0  0
 34109  1  0  0  0
 35 44  2  0  0  0
 35 45  1  0  0  0
 35 68  1  0  0  0
 36 56  1  0  0  0
 36110  1  0  0  0
 37 39  1  0  0  0
 37 47  1  0  0  0
 37 66  1  0  0  0
 37111  1  0  0  0
 38 43  2  0  0  0
 38 46  1  0  0  0
 38 47  1  0  0  0
 39 64  1  0  0  0
 39 67  2  0  0  0
 40 52  1  0  0  0
 40 53  2  0  0  0
 40 58  1  0  0  0
 41112  1  0  0  0
 41113  1  0  0  0
 41114  1  0  0  0
 41 48  1  0  0  0
 42 43  1  0  0  0
 42 66  1  0  0  0
 42115  1  0  0  0
 42116  1  0  0  0
 43 44  1  0  0  0
 44117  1  0  0  0
 45 46  2  0  0  0
 45118  1  0  0  0
 46119  1  0  0  0
 47120  1  0  0  0
 47121  1  0  0  0
 48 56  1  0  0  0
 48 65  1  0  0  0
 48122  1  0  0  0
 49 50  1  0  0  0
 49 53  1  0  0  0
 49 64  1  0  0  0
 49123  1  0  0  0
 50 51  1  0  0  0
 50124  1  0  0  0
 50125  1  0  0  0
 51 52  1  0  0  0
 51126  1  0  0  0
 51127  1  0  0  0
 52128  1  0  0  0
 52129  1  0  0  0
 53 54  1  0  0  0
 54 55  2  0  0  0
 54130  1  0  0  0
 55 57  1  0  0  0
 55131  1  0  0  0
 56 69  2  0  0  0
 57 58  2  0  0  0
 57132  1  0  0  0
 58133  1  0  0  0
 59 60  1  0  0  0
 59 61  1  0  0  0
 59 62  1  0  0  0
 60134  1  0  0  0
 60135  1  0  0  0
 60136  1  0  0  0
 61137  1  0  0  0
 61138  1  0  0  0
 61139  1  0  0  0
 62140  1  0  0  0
 62141  1  0  0  0
 62142  1  0  0  0
 63 65  1  0  0  0
 63143  1  0  0  0
 63144  1  0  0  0
 63145  1  0  0  0
 64146  1  0  0  0
 65147  1  0  0  0
 68 85  1  0  0  0
 71 72  2  0  0  0
 71 74  1  0  0  0
 71148  1  0  0  0
 72 75  1  0  0  0
 72149  1  0  0  0
 73 75  2  0  0  0
 73 76  1  0  0  0
 73150  1  0  0  0
 74 76  2  0  0  0
 74 83  1  0  0  0
 75 86  1  0  0  0
 76 87  1  0  0  0
 77 78  2  0  0  0
 77 80  1  0  0  0
 77 85  1  0  0  0
 78 84  1  0  0  0
 78 86  1  0  0  0
 79 81  1  0  0  0
 79 82  1  0  0  0
 79 88  2  0  0  0
 80 81  1  0  0  0
 80151  1  0  0  0
 80152  1  0  0  0
 81153  1  0  0  0
 81154  1  0  0  0
 82 86  1  0  0  0
 82155  1  0  0  0
 82156  1  0  0  0
 83157  1  0  0  0
 83158  1  0  0  0
 83159  1  0  0  0
 84160  1  0  0  0
 84161  1  0  0  0
 84162  1  0  0  0
 85163  1  0  0  0
 85164  1  0  0  0
 87165  1  0  0  0
M  ISO  4   1 100  68 101  85 101  87 100
M  END
> <chiral flag>
0

> <version>
0

> <s_m_source_file>
/data/baiqing/PycharmProjects/Reinvent-master-3.2/result/LINK_invent/BTK/process_docking_weight1_custom_product_contain_oxygen_bond_distance_aromatic_linkinvent_7_9_3/rearranged_h_0140.sdf

> <i_m_source_file_index>
30

> <r_mmod_Potential_Energy-OPLS-2005>
535.547119140625

> <r_mmod_Stretch_Energy-OPLS-2005>
174.349380493164

> <r_mmod_Bend_Energy-OPLS-2005>
335.479400634766

> <r_mmod_Torsional_Energy-OPLS-2005>
296.348449707031

> <r_mmod_Improper_Torsional_Energy-OPLS-2005>
12.0785369873047

> <r_mmod_Van_der_Waal_Energy-OPLS-2005>
196.696090698242

> <r_mmod_Electrostatic_Energy-OPLS-2005>
-369.776550292969

> <r_mmod_Solvation_Energy-OPLS-2005>
-208.276977539062

> <b_mmod_Minimization_Converged-OPLS-2005>
0

> <r_mmod_RMS_Derivative-OPLS-2005>
11.2174015045166

$$$$
30
                    3D
 Structure written by MMmdl.
170179  0  0  1  0            999 V2000
  -29.1997  -15.8808   20.8532 C   0  0  0  0  0  0
  -30.1985  -13.4517   19.7689 C   0  0  0  0  0  0
  -29.5225  -12.8233   18.4873 C   0  0  0  0  0  0
  -28.1163  -12.2923   18.8035 C   0  0  0  0  0  0
  -27.4714  -13.2377   19.8315 C   0  0  2  0  0  0
  -28.3044  -13.4558   21.0855 C   0  0  0  0  0  0
  -25.1648  -13.8002   20.5518 C   0  0  0  0  0  0
  -24.1141  -13.0232   20.9196 C   0  0  0  0  0  0
  -24.5830  -11.6735   20.8723 C   0  0  0  0  0  0
  -23.8712  -10.4151   21.0465 C   0  0  0  0  0  0
  -24.3423   -9.4130   21.9213 C   0  0  0  0  0  0
  -23.6187   -8.2129   22.0754 C   0  0  0  0  0  0
  -22.4173   -8.0150   21.3540 C   0  0  0  0  0  0
  -21.9724   -9.0073   20.4641 C   0  0  0  0  0  0
  -22.6952  -10.1980   20.3068 C   0  0  0  0  0  0
  -21.6811   -6.0659   22.5293 C   0  0  0  0  0  0
  -21.3982   -6.5595   23.8216 C   0  0  0  0  0  0
  -21.3650   -5.6766   24.9190 C   0  0  0  0  0  0
  -21.6047   -4.3028   24.7251 C   0  0  0  0  0  0
  -21.8824   -3.8101   23.4380 C   0  0  0  0  0  0
  -21.9182   -4.6900   22.3427 C   0  0  0  0  0  0
  -22.7301  -13.5097   21.2008 C   0  0  0  0  0  0
  -22.1658   -4.2092   21.1003 F   0  0  0  0  0  0
  -21.5636   -3.4523   25.7771 F   0  0  0  0  0  0
  -29.2533  -14.4061   20.6042 N   0  0  0  0  0  0
  -26.1692  -12.9059   20.2631 N   0  0  0  0  0  0
  -25.8603  -11.6255   20.5393 N   0  0  0  0  0  0
  -22.0046  -12.8106   22.0630 N   0  0  0  0  0  0
  -25.3450  -15.1756   20.4204 N   0  0  0  0  0  0
  -30.4319  -16.1155   20.5939 O   0  0  0  0  0  0
  -21.6573   -6.8749   21.4236 O   0  0  0  0  0  0
  -22.3065  -14.5462   20.6908 O   0  0  0  0  0  0
  -24.7680  -32.0090   23.2341 C   0  0  0  0  0  0
  -26.0346  -32.5478   23.8999 C   0  0  1  0  0  0
  -25.8820  -27.2348   20.2782 C   0  0  0  0  0  0
  -25.7014  -33.9150   24.2932 N   0  0  0  0  0  0
  -23.7037  -30.5691   21.6572 C   0  0  2  0  0  0
  -25.0178  -29.5166   19.7163 C   0  0  0  0  0  0
  -23.6685  -29.3315   22.6287 C   0  0  0  0  0  0
  -18.5206  -27.4491   22.6082 C   0  0  0  0  0  0
  -24.1546  -36.7413   23.2540 C   0  0  0  0  0  0
  -26.1688  -30.8136   21.5024 C   0  0  0  0  0  0
  -26.0352  -29.5471   20.6623 C   0  0  0  0  0  0
  -26.6523  -28.3050   20.8756 C   0  0  0  0  0  0
  -25.8698  -27.3560   18.9321 C   0  0  0  0  0  0
  -25.0890  -28.5020   18.7018 C   0  0  0  0  0  0
  -23.8739  -30.4126   20.0980 C   0  0  0  0  0  0
  -25.4157  -36.3359   24.0329 C   0  0  1  0  0  0
  -21.8964  -27.5851   23.1497 C   0  0  2  0  0  0
  -22.2065  -26.0516   22.0086 C   0  0  0  0  0  0
  -20.4464  -25.3854   21.2194 C   0  0  0  0  0  0
  -18.8104  -26.1147   21.6743 C   0  0  0  0  0  0
  -19.6363  -28.0201   23.3997 C   0  0  0  0  0  0
  -18.8888  -29.1322   24.1846 C   0  0  0  0  0  0
  -17.6946  -29.8710   24.0087 C   0  0  0  0  0  0
  -25.9296  -34.9807   23.5221 C   0  0  0  0  0  0
  -16.7585  -29.2784   23.2029 C   0  0  0  0  0  0
  -17.1688  -28.0575   22.5882 C   0  0  0  0  0  0
  -26.5017  -31.6893   25.1337 C   0  0  0  0  0  0
  -25.3865  -31.3948   26.1659 C   0  0  0  0  0  0
  -27.1299  -30.3408   24.7047 C   0  0  0  0  0  0
  -27.6333  -32.4548   25.8488 C   0  0  0  0  0  0
  -27.5627  -37.1994   24.8470 C   0  0  0  0  0  0
  -22.8117  -28.4661   22.4183 N   0  0  0  0  0  0
  -26.4307  -37.4057   23.9462 N   0  0  0  0  0  0
  -24.8904  -31.2371   22.1305 N   0  0  0  0  0  0
  -24.1850  -29.1960   23.7103 O   0  0  0  0  0  0
  -24.4351  -27.2011   20.6401 O   0  0  0  0  0  0
  -26.5419  -34.9131   22.4529 O   0  0  0  0  0  0
  -23.6693  -32.2943   23.7385 O   0  0  0  0  0  0
  -24.1627  -19.8465   22.0731 C   0  0  0  0  0  0
  -25.7352  -21.1398   22.3770 C   0  0  0  0  0  0
  -25.2026  -18.6524   21.7529 C   0  0  0  0  0  0
  -26.7886  -19.9488   22.0512 C   0  0  0  0  0  0
  -24.1827  -21.3586   22.4725 C   0  0  0  0  0  0
  -26.7468  -18.4349   21.6525 C   0  0  0  0  0  0
  -22.8170  -22.9308   22.5251 C   0  0  0  0  0  0
  -21.2021  -29.9302   23.7685 C   0  0  0  0  0  0
  -21.2826  -28.6230   25.2313 C   0  0  0  0  0  0
  -20.7109  -29.5328   21.9003 C   0  0  0  0  0  0
  -20.8344  -26.7351   25.1509 C   0  0  0  0  0  0
  -20.8057  -27.6882   21.2370 C   0  0  1  0  0  0
  -20.6243  -25.7302   23.5235 C   0  0  1  0  0  0
  -22.6728  -26.2094   19.1170 C   0  0  0  0  0  0
  -22.0340  -28.4038   18.9587 C   0  0  0  0  0  0
  -22.6123  -27.4677   20.0799 C   0  0  0  0  0  0
  -22.6565  -23.1707   21.3010 N   0  0  0  0  0  0
  -27.9093  -16.9475   21.2281 N   0  0  0  0  0  0
  -21.7726  -24.0068   23.4922 O   0  0  0  0  0  0
  -31.0817  -14.0052   19.4485 H   0  0  0  0  0  0
  -30.5961  -12.6596   20.4060 H   0  0  0  0  0  0
  -30.1480  -12.0413   18.0552 H   0  0  0  0  0  0
  -29.4367  -13.6016   17.7282 H   0  0  0  0  0  0
  -28.1985  -11.2895   19.2248 H   0  0  0  0  0  0
  -27.5115  -12.2088   17.8998 H   0  0  0  0  0  0
  -27.3515  -14.1735   19.2799 H   0  0  0  0  0  0
  -28.7196  -12.5323   21.4938 H   0  0  0  0  0  0
  -27.7263  -13.9185   21.8890 H   0  0  0  0  0  0
  -25.2572   -9.5678   22.4763 H   0  0  0  0  0  0
  -23.9937   -7.4521   22.7453 H   0  0  0  0  0  0
  -21.0662   -8.8526   19.8953 H   0  0  0  0  0  0
  -22.3381  -10.9510   19.6182 H   0  0  0  0  0  0
  -21.1960   -7.6104   23.9700 H   0  0  0  0  0  0
  -21.1475   -6.0506   25.9089 H   0  0  0  0  0  0
  -22.0619   -2.7564   23.2897 H   0  0  0  0  0  0
  -22.3686  -11.9730   22.4926 H   0  0  0  0  0  0
  -21.0712  -13.1165   22.2986 H   0  0  0  0  0  0
  -24.5858  -15.8245   20.5871 H   0  0  0  0  0  0
  -26.2257  -15.6382   20.2285 H   0  0  0  0  0  0
  -26.8633  -32.5934   23.1941 H   0  0  0  0  0  0
  -25.1556  -34.0305   25.1340 H   0  0  0  0  0  0
  -22.8468  -31.2223   21.8072 H   0  0  0  0  0  0
  -23.3889  -35.9663   23.3163 H   0  0  0  0  0  0
  -24.3706  -36.9038   22.1971 H   0  0  0  0  0  0
  -23.7174  -37.6575   23.6514 H   0  0  0  0  0  0
  -26.5118  -31.6176   20.8492 H   0  0  0  0  0  0
  -26.9772  -30.6471   22.2004 H   0  0  0  0  0  0
  -27.3115  -28.1456   21.7158 H   0  0  0  0  0  0
  -25.7460  -26.5213   18.2567 H   0  0  0  0  0  0
  -24.5606  -28.5736   17.7666 H   0  0  0  0  0  0
  -24.2408  -31.3845   19.7609 H   0  0  0  0  0  0
  -22.9847  -30.4649   19.5086 H   0  0  0  0  0  0
  -25.1256  -36.2258   25.0806 H   0  0  0  0  0  0
  -22.6144  -27.3094   23.9332 H   0  0  0  0  0  0
  -22.8353  -25.5849   22.7513 H   0  0  0  0  0  0
  -23.1055  -25.7482   21.5106 H   0  0  0  0  0  0
  -20.3535  -24.3126   21.3850 H   0  0  0  0  0  0
  -20.4699  -25.3893   20.1368 H   0  0  0  0  0  0
  -18.2911  -26.3048   20.7337 H   0  0  0  0  0  0
  -18.2018  -25.3149   22.0986 H   0  0  0  0  0  0
  -19.2736  -29.6378   25.0472 H   0  0  0  0  0  0
  -17.4478  -30.7303   24.6173 H   0  0  0  0  0  0
  -15.7616  -29.6808   23.0836 H   0  0  0  0  0  0
  -16.4263  -27.5637   21.9766 H   0  0  0  0  0  0
  -24.6061  -30.7476   25.7672 H   0  0  0  0  0  0
  -24.9063  -32.3108   26.5110 H   0  0  0  0  0  0
  -25.7873  -30.8936   27.0478 H   0  0  0  0  0  0
  -26.4628  -29.7006   24.1409 H   0  0  0  0  0  0
  -27.4355  -29.7614   25.5767 H   0  0  0  0  0  0
  -28.0328  -30.4909   24.1120 H   0  0  0  0  0  0
  -27.2816  -33.3797   26.3072 H   0  0  0  0  0  0
  -28.4373  -32.7185   25.1601 H   0  0  0  0  0  0
  -28.0746  -31.8611   26.6505 H   0  0  0  0  0  0
  -28.2571  -38.0369   24.7665 H   0  0  0  0  0  0
  -28.1216  -36.2925   24.6117 H   0  0  0  0  0  0
  -27.2374  -37.1420   25.8872 H   0  0  0  0  0  0
  -22.4300  -28.6087   21.4974 H   0  0  0  0  0  0
  -26.0185  -38.3109   24.1561 H   0  0  0  0  0  0
  -23.1438  -19.5103   21.9427 H   0  0  0  0  0  0
  -26.2543  -22.0723   22.5490 H   0  0  0  0  0  0
  -24.6736  -17.7405   21.5188 H   0  0  0  0  0  0
  -27.8074  -20.3053   22.1151 H   0  0  0  0  0  0
  -22.0522  -30.5762   23.8941 H   0  0  0  0  0  0
  -20.5834  -30.7887   24.0393 H   0  0  0  0  0  0
  -20.8460  -29.0340   26.1428 H   0  0  0  0  0  0
  -22.3264  -28.6515   25.5506 H   0  0  0  0  0  0
  -21.1640  -30.2248   21.2030 H   0  0  0  0  0  0
  -19.6793  -29.8638   21.7587 H   0  0  0  0  0  0
  -19.8999  -26.6167   25.7015 H   0  0  0  0  0  0
  -21.5508  -26.2010   25.7760 H   0  0  0  0  0  0
  -20.0348  -27.6827   20.4616 H   0  0  0  0  0  0
  -19.6428  -25.2934   23.7098 H   0  0  0  0  0  0
  -21.7397  -25.9472   18.6216 H   0  0  0  0  0  0
  -23.0316  -25.2851   19.5605 H   0  0  0  0  0  0
  -23.3651  -26.3889   18.2960 H   0  0  0  0  0  0
  -21.2022  -27.9326   18.4335 H   0  0  0  0  0  0
  -22.6581  -28.7429   18.1495 H   0  0  0  0  0  0
  -21.4753  -29.2412   19.3547 H   0  0  0  0  0  0
  -23.2409  -22.5649   20.7356 H   0  0  0  0  0  0
  -28.6996  -17.5799   21.2215 H   0  0  0  0  0  0
  1 25  1  0  0  0
  1 30  2  0  0  0
  1 88  1  0  0  0
  2  3  1  0  0  0
  2 25  1  0  0  0
  2 90  1  0  0  0
  2 91  1  0  0  0
  3  4  1  0  0  0
  3 92  1  0  0  0
  3 93  1  0  0  0
  4  5  1  0  0  0
  4 94  1  0  0  0
  4 95  1  0  0  0
  5  6  1  0  0  0
  5 26  1  0  0  0
  5 96  1  0  0  0
  6 25  1  0  0  0
  6 97  1  0  0  0
  6 98  1  0  0  0
  7  8  2  0  0  0
  7 26  1  0  0  0
  7 29  1  0  0  0
  8  9  1  0  0  0
  8 22  1  0  0  0
  9 10  1  0  0  0
  9 27  2  0  0  0
 10 11  2  0  0  0
 10 15  1  0  0  0
 11 12  1  0  0  0
 11 99  1  0  0  0
 12 13  2  0  0  0
 12100  1  0  0  0
 13 14  1  0  0  0
 13 31  1  0  0  0
 14 15  2  0  0  0
 14101  1  0  0  0
 15102  1  0  0  0
 16 17  2  0  0  0
 16 21  1  0  0  0
 16 31  1  0  0  0
 17 18  1  0  0  0
 17103  1  0  0  0
 18 19  2  0  0  0
 18104  1  0  0  0
 19 20  1  0  0  0
 19 24  1  0  0  0
 20 21  2  0  0  0
 20105  1  0  0  0
 21 23  1  0  0  0
 22 28  1  0  0  0
 22 32  2  0  0  0
 26 27  1  0  0  0
 28106  1  0  0  0
 28107  1  0  0  0
 29108  1  0  0  0
 29109  1  0  0  0
 33 34  1  0  0  0
 33 66  1  0  0  0
 33 70  2  0  0  0
 34 36  1  0  0  0
 34 59  1  0  0  0
 34110  1  0  0  0
 35 44  2  0  0  0
 35 45  1  0  0  0
 35 68  1  0  0  0
 36 56  1  0  0  0
 36111  1  0  0  0
 37 39  1  0  0  0
 37 47  1  0  0  0
 37 66  1  0  0  0
 37112  1  0  0  0
 38 43  2  0  0  0
 38 46  1  0  0  0
 38 47  1  0  0  0
 39 64  1  0  0  0
 39 67  2  0  0  0
 40 52  1  0  0  0
 40 53  2  0  0  0
 40 58  1  0  0  0
 41113  1  0  0  0
 41114  1  0  0  0
 41115  1  0  0  0
 41 48  1  0  0  0
 42 43  1  0  0  0
 42 66  1  0  0  0
 42116  1  0  0  0
 42117  1  0  0  0
 43 44  1  0  0  0
 44118  1  0  0  0
 45 46  2  0  0  0
 45119  1  0  0  0
 46120  1  0  0  0
 47121  1  0  0  0
 47122  1  0  0  0
 48 56  1  0  0  0
 48 65  1  0  0  0
 48123  1  0  0  0
 49 50  1  0  0  0
 49 53  1  0  0  0
 49 64  1  0  0  0
 49124  1  0  0  0
 50 51  1  0  0  0
 50125  1  0  0  0
 50126  1  0  0  0
 51 52  1  0  0  0
 51127  1  0  0  0
 51128  1  0  0  0
 52129  1  0  0  0
 52130  1  0  0  0
 53 54  1  0  0  0
 54 55  2  0  0  0
 54131  1  0  0  0
 55 57  1  0  0  0
 55132  1  0  0  0
 56 69  2  0  0  0
 57 58  2  0  0  0
 57133  1  0  0  0
 58134  1  0  0  0
 59 60  1  0  0  0
 59 61  1  0  0  0
 59 62  1  0  0  0
 60135  1  0  0  0
 60136  1  0  0  0
 60137  1  0  0  0
 61138  1  0  0  0
 61139  1  0  0  0
 61140  1  0  0  0
 62141  1  0  0  0
 62142  1  0  0  0
 62143  1  0  0  0
 63 65  1  0  0  0
 63144  1  0  0  0
 63145  1  0  0  0
 63146  1  0  0  0
 64147  1  0  0  0
 65148  1  0  0  0
 68 86  1  0  0  0
 71 73  2  0  0  0
 71 75  1  0  0  0
 71149  1  0  0  0
 72 74  1  0  0  0
 72 75  2  0  0  0
 72150  1  0  0  0
 73 76  1  0  0  0
 73151  1  0  0  0
 74 76  2  0  0  0
 74152  1  0  0  0
 75 77  1  0  0  0
 76 88  1  0  0  0
 77 87  2  0  0  0
 77 89  1  0  0  0
 78 79  1  0  0  0
 78 80  1  0  0  0
 78153  1  0  0  0
 78154  1  0  0  0
 79 81  1  0  0  0
 79155  1  0  0  0
 79156  1  0  0  0
 80157  1  0  0  0
 80158  1  0  0  0
 80 82  1  0  0  0
 81 83  1  0  0  0
 81159  1  0  0  0
 81160  1  0  0  0
 82 83  1  0  0  0
 82 86  1  0  0  0
 82161  1  0  0  0
 83 89  1  0  0  0
 83162  1  0  0  0
 84163  1  0  0  0
 84164  1  0  0  0
 84165  1  0  0  0
 84 86  1  0  0  0
 85 86  1  0  0  0
 85166  1  0  0  0
 85167  1  0  0  0
 85168  1  0  0  0
 87169  1  0  0  0
 88170  1  0  0  0
M  ISO  4   1 100  68 101  86 101  88 100
M  END
> <chiral flag>
0

> <version>
0

> <s_m_source_file>
/data/baiqing/PycharmProjects/Reinvent-master-3.2/result/LINK_invent/BTK/process_docking_weight1_custom_product_contain_oxygen_bond_distance_aromatic_linkinvent_7_9_3/rearranged_h_0140.sdf

> <i_m_source_file_index>
31

> <r_mmod_Potential_Energy-OPLS-2005>
19303.57421875

> <r_mmod_Stretch_Energy-OPLS-2005>
8554.2265625

> <r_mmod_Bend_Energy-OPLS-2005>
2275.23193359375

> <r_mmod_Torsional_Energy-OPLS-2005>
673.49365234375

> <r_mmod_Improper_Torsional_Energy-OPLS-2005>
51.2593994140625

> <r_mmod_Van_der_Waal_Energy-OPLS-2005>
2905.91455078125

> <r_mmod_Electrostatic_Energy-OPLS-2005>
-414.182006835938

> <r_mmod_Solvation_Energy-OPLS-2005>
-184.720413208008

> <b_mmod_Minimization_Converged-OPLS-2005>
0

> <r_mmod_RMS_Derivative-OPLS-2005>
2.04591155052185

$$$$
31
                    3D
 Structure written by MMmdl.
158167  0  0  1  0            999 V2000
  -30.7062  -14.4592   20.6011 C   0  0  0  0  0  0
  -30.4354  -12.3181   19.4006 C   0  0  0  0  0  0
  -29.4999  -12.5300   18.1916 C   0  0  0  0  0  0
  -28.0204  -12.3911   18.6038 C   0  0  0  0  0  0
  -27.6689  -13.2121   19.8733 C   0  0  2  0  0  0
  -28.7127  -12.9580   20.9858 C   0  0  0  0  0  0
  -25.2604  -13.8187   20.5664 C   0  0  0  0  0  0
  -24.1858  -13.0456   20.9161 C   0  0  0  0  0  0
  -24.6422  -11.6914   20.8691 C   0  0  0  0  0  0
  -23.9077  -10.4303   21.0359 C   0  0  0  0  0  0
  -24.3623   -9.4220   21.9141 C   0  0  0  0  0  0
  -23.6308   -8.2252   22.0722 C   0  0  0  0  0  0
  -22.4288   -8.0285   21.3532 C   0  0  0  0  0  0
  -21.9916   -9.0253   20.4631 C   0  0  0  0  0  0
  -22.7245  -10.2131   20.3022 C   0  0  0  0  0  0
  -21.6870   -6.0732   22.5273 C   0  0  0  0  0  0
  -21.4028   -6.5625   23.8208 C   0  0  0  0  0  0
  -21.3659   -5.6770   24.9164 C   0  0  0  0  0  0
  -21.6054   -4.3038   24.7212 C   0  0  0  0  0  0
  -21.8823   -3.8132   23.4333 C   0  0  0  0  0  0
  -21.9202   -4.6959   22.3392 C   0  0  0  0  0  0
  -22.7868  -13.5240   21.1814 C   0  0  0  0  0  0
  -22.1668   -4.2129   21.0971 F   0  0  0  0  0  0
  -21.5617   -3.4523   25.7727 F   0  0  0  0  0  0
  -30.0469  -13.2785   20.4439 N   0  0  0  0  0  0
  -26.3064  -12.9372   20.3337 N   0  0  0  0  0  0
  -25.9349  -11.6530   20.5700 N   0  0  0  0  0  0
  -22.0499  -12.8245   22.0381 N   0  0  0  0  0  0
  -25.4290  -15.1901   20.4105 N   0  0  0  0  0  0
  -31.8154  -14.6838   20.1060 O   0  0  0  0  0  0
  -21.6654   -6.8878   21.4237 O   0  0  0  0  0  0
  -22.3550  -14.5529   20.6638 O   0  0  0  0  0  0
  -24.6188  -31.8666   23.2155 C   0  0  0  0  0  0
  -25.9078  -32.4807   23.8432 C   0  0  1  0  0  0
  -27.2129  -27.4036   20.0913 C   0  0  0  0  0  0
  -25.5931  -33.8609   24.2347 N   0  0  0  0  0  0
  -23.4062  -30.4989   21.5535 C   0  0  2  0  0  0
  -24.8496  -28.9804   20.1056 C   0  0  0  0  0  0
  -22.7424  -29.4654   22.4939 C   0  0  0  0  0  0
  -18.0279  -28.1384   22.8493 C   0  0  0  0  0  0
  -24.1484  -36.7306   23.2633 C   0  0  0  0  0  0
  -25.9428  -30.8218   21.3814 C   0  0  0  0  0  0
  -26.0150  -29.4604   20.7169 C   0  0  0  0  0  0
  -27.1985  -28.6803   20.7110 C   0  0  0  0  0  0
  -26.0277  -26.9716   19.4419 C   0  0  0  0  0  0
  -24.8535  -27.7380   19.4629 C   0  0  0  0  0  0
  -23.6157  -29.8501   20.1630 C   0  0  0  0  0  0
  -25.4104  -36.3094   24.0336 C   0  0  1  0  0  0
  -20.5879  -28.3676   23.1313 C   0  0  2  0  0  0
  -20.6780  -26.9409   22.5414 C   0  0  0  0  0  0
  -19.5754  -26.6392   21.5218 C   0  0  0  0  0  0
  -18.1933  -26.7933   22.1628 C   0  0  0  0  0  0
  -19.1531  -28.8844   23.2907 C   0  0  0  0  0  0
  -18.9448  -30.1449   23.8925 C   0  0  0  0  0  0
  -17.6447  -30.6594   24.0570 C   0  0  0  0  0  0
  -25.9038  -34.9452   23.5126 C   0  0  0  0  0  0
  -16.5339  -29.9099   23.6320 C   0  0  0  0  0  0
  -16.7264  -28.6514   23.0343 C   0  0  0  0  0  0
  -26.4496  -31.6587   25.0759 C   0  0  0  0  0  0
  -25.3768  -31.3698   26.1513 C   0  0  0  0  0  0
  -27.0338  -30.3021   24.6179 C   0  0  0  0  0  0
  -27.6055  -32.4321   25.7517 C   0  0  0  0  0  0
  -27.5576  -37.1804   24.8460 C   0  0  0  0  0  0
  -21.4147  -29.3050   22.3707 N   0  0  0  0  0  0
  -26.4286  -37.3783   23.9406 N   0  0  0  0  0  0
  -24.6729  -31.0757   22.1068 N   0  0  0  0  0  0
  -23.4182  -28.8175   23.2977 O   0  0  0  0  0  0
  -28.3446  -26.5960   20.1515 O   0  0  0  0  0  0
  -26.5574  -34.8900   22.4676 O   0  0  0  0  0  0
  -23.5377  -32.1417   23.7538 O   0  0  0  0  0  0
  -31.0989  -18.9156   21.3768 C   0  0  0  0  0  0
  -31.3282  -17.5016   21.3711 C   0  0  0  0  0  0
  -29.7820  -19.2636   21.1845 C   0  0  0  0  0  0
  -30.1807  -16.7536   21.2428 C   0  0  0  0  0  0
  -29.0174  -20.5485   21.1287 C   0  0  0  0  0  0
  -31.4093  -23.0609   20.1483 C   0  0  0  0  0  0
  -30.5301  -24.2871   19.8247 C   0  0  0  0  0  0
  -30.7325  -21.7550   19.6893 C   0  0  0  0  0  0
  -28.5437  -22.7230   20.0228 C   0  0  0  0  0  0
  -29.1060  -24.1293   20.3906 C   0  0  2  0  0  0
  -28.1174  -25.1972   19.8576 C   0  0  0  0  0  0
  -29.4480  -21.6101   20.3862 N   0  0  0  0  0  0
  -30.0008  -15.4038   21.2521 N   0  0  0  0  0  0
  -27.9308  -20.5881   21.7162 O   0  0  0  0  0  0
  -28.7969  -17.8146   21.1273 S   0  0  0  0  0  0
  -31.4751  -12.4332   19.0939 H   0  0  0  0  0  0
  -30.3516  -11.2972   19.7753 H   0  0  0  0  0  0
  -29.7372  -11.8120   17.4059 H   0  0  0  0  0  0
  -29.6685  -13.5178   17.7583 H   0  0  0  0  0  0
  -27.8248  -11.3342   18.7827 H   0  0  0  0  0  0
  -27.3744  -12.6855   17.7749 H   0  0  0  0  0  0
  -27.7189  -14.2661   19.5976 H   0  0  0  0  0  0
  -28.6890  -11.9100   21.2862 H   0  0  0  0  0  0
  -28.4708  -13.5238   21.8860 H   0  0  0  0  0  0
  -25.2776   -9.5695   22.4707 H   0  0  0  0  0  0
  -24.0019   -7.4639   22.7447 H   0  0  0  0  0  0
  -21.0839   -8.8787   19.8948 H   0  0  0  0  0  0
  -22.3715  -10.9655   19.6113 H   0  0  0  0  0  0
  -21.2035   -7.6134   23.9716 H   0  0  0  0  0  0
  -21.1467   -6.0487   25.9062 H   0  0  0  0  0  0
  -22.0609   -2.7596   23.2834 H   0  0  0  0  0  0
  -22.4162  -11.9992   22.4882 H   0  0  0  0  0  0
  -21.1070  -13.1222   22.2472 H   0  0  0  0  0  0
  -24.6601  -15.8416   20.5257 H   0  0  0  0  0  0
  -26.2797  -15.6345   20.0854 H   0  0  0  0  0  0
  -26.7130  -32.5496   23.1170 H   0  0  0  0  0  0
  -25.0110  -33.9772   25.0514 H   0  0  0  0  0  0
  -22.6971  -31.3188   21.4241 H   0  0  0  0  0  0
  -23.3741  -35.9645   23.3290 H   0  0  0  0  0  0
  -24.3581  -36.8925   22.2048 H   0  0  0  0  0  0
  -23.7249  -37.6514   23.6656 H   0  0  0  0  0  0
  -26.0753  -31.5952   20.6234 H   0  0  0  0  0  0
  -26.8246  -30.8559   22.0102 H   0  0  0  0  0  0
  -28.0910  -29.0402   21.2044 H   0  0  0  0  0  0
  -25.9672  -26.0353   18.9077 H   0  0  0  0  0  0
  -23.9636  -27.3763   18.9665 H   0  0  0  0  0  0
  -23.7277  -30.6349   19.4139 H   0  0  0  0  0  0
  -22.7393  -29.2765   19.8587 H   0  0  0  0  0  0
  -25.1280  -36.1942   25.0832 H   0  0  0  0  0  0
  -20.9977  -28.3246   24.1431 H   0  0  0  0  0  0
  -20.5726  -26.2258   23.3588 H   0  0  0  0  0  0
  -21.6641  -26.7478   22.1174 H   0  0  0  0  0  0
  -19.6915  -25.6309   21.1236 H   0  0  0  0  0  0
  -19.6714  -27.3218   20.6765 H   0  0  0  0  0  0
  -17.4199  -26.6684   21.4031 H   0  0  0  0  0  0
  -18.0340  -26.0083   22.9033 H   0  0  0  0  0  0
  -19.7918  -30.7270   24.2309 H   0  0  0  0  0  0
  -17.4996  -31.6280   24.5169 H   0  0  0  0  0  0
  -15.5339  -30.3008   23.7644 H   0  0  0  0  0  0
  -15.8658  -28.0857   22.7030 H   0  0  0  0  0  0
  -24.5929  -30.7053   25.7858 H   0  0  0  0  0  0
  -24.8983  -32.2855   26.4994 H   0  0  0  0  0  0
  -25.8140  -30.8842   27.0248 H   0  0  0  0  0  0
  -26.2897  -29.6765   24.1234 H   0  0  0  0  0  0
  -27.4077  -29.7278   25.4665 H   0  0  0  0  0  0
  -27.8752  -30.4312   23.9366 H   0  0  0  0  0  0
  -27.2660  -33.3612   26.2113 H   0  0  0  0  0  0
  -28.3859  -32.6905   25.0344 H   0  0  0  0  0  0
  -28.0735  -31.8441   26.5421 H   0  0  0  0  0  0
  -28.2578  -38.0112   24.7509 H   0  0  0  0  0  0
  -28.1079  -36.2640   24.6277 H   0  0  0  0  0  0
  -27.2285  -37.1442   25.8858 H   0  0  0  0  0  0
  -20.9288  -29.8756   21.6936 H   0  0  0  0  0  0
  -26.0160  -38.2848   24.1444 H   0  0  0  0  0  0
  -31.9059  -19.6162   21.5290 H   0  0  0  0  0  0
  -32.3215  -17.0890   21.4889 H   0  0  0  0  0  0
  -31.6089  -23.0170   21.2200 H   0  0  0  0  0  0
  -32.3777  -23.1660   19.6587 H   0  0  0  0  0  0
  -30.4721  -24.4056   18.7424 H   0  0  0  0  0  0
  -30.9900  -25.2006   20.2016 H   0  0  0  0  0  0
  -31.4066  -20.9147   19.8214 H   0  0  0  0  0  0
  -30.5490  -21.7980   18.6134 H   0  0  0  0  0  0
  -28.3823  -22.6708   18.9442 H   0  0  0  0  0  0
  -27.5450  -22.6056   20.4479 H   0  0  0  0  0  0
  -29.1458  -24.2018   21.4788 H   0  0  0  0  0  0
  -27.1638  -24.8961   20.2937 H   0  0  0  0  0  0
  -28.0239  -25.0870   18.7756 H   0  0  0  0  0  0
  -29.0939  -15.0864   21.5598 H   0  0  0  0  0  0
  1 25  1  0  0  0
  1 30  2  0  0  0
  1 83  1  0  0  0
  2  3  1  0  0  0
  2 25  1  0  0  0
  2 86  1  0  0  0
  2 87  1  0  0  0
  3  4  1  0  0  0
  3 88  1  0  0  0
  3 89  1  0  0  0
  4  5  1  0  0  0
  4 90  1  0  0  0
  4 91  1  0  0  0
  5  6  1  0  0  0
  5 26  1  0  0  0
  5 92  1  0  0  0
  6 25  1  0  0  0
  6 93  1  0  0  0
  6 94  1  0  0  0
  7  8  2  0  0  0
  7 26  1  0  0  0
  7 29  1  0  0  0
  8  9  1  0  0  0
  8 22  1  0  0  0
  9 10  1  0  0  0
  9 27  2  0  0  0
 10 11  2  0  0  0
 10 15  1  0  0  0
 11 12  1  0  0  0
 11 95  1  0  0  0
 12 13  2  0  0  0
 12 96  1  0  0  0
 13 14  1  0  0  0
 13 31  1  0  0  0
 14 15  2  0  0  0
 14 97  1  0  0  0
 15 98  1  0  0  0
 16 17  2  0  0  0
 16 21  1  0  0  0
 16 31  1  0  0  0
 17 18  1  0  0  0
 17 99  1  0  0  0
 18 19  2  0  0  0
 18100  1  0  0  0
 19 20  1  0  0  0
 19 24  1  0  0  0
 20 21  2  0  0  0
 20101  1  0  0  0
 21 23  1  0  0  0
 22 28  1  0  0  0
 22 32  2  0  0  0
 26 27  1  0  0  0
 28102  1  0  0  0
 28103  1  0  0  0
 29104  1  0  0  0
 29105  1  0  0  0
 33 34  1  0  0  0
 33 66  1  0  0  0
 33 70  2  0  0  0
 34 36  1  0  0  0
 34 59  1  0  0  0
 34106  1  0  0  0
 35 44  2  0  0  0
 35 45  1  0  0  0
 35 68  1  0  0  0
 36 56  1  0  0  0
 36107  1  0  0  0
 37 39  1  0  0  0
 37 47  1  0  0  0
 37 66  1  0  0  0
 37108  1  0  0  0
 38 43  2  0  0  0
 38 46  1  0  0  0
 38 47  1  0  0  0
 39 64  1  0  0  0
 39 67  2  0  0  0
 40 52  1  0  0  0
 40 53  2  0  0  0
 40 58  1  0  0  0
 41109  1  0  0  0
 41110  1  0  0  0
 41111  1  0  0  0
 41 48  1  0  0  0
 42 43  1  0  0  0
 42 66  1  0  0  0
 42112  1  0  0  0
 42113  1  0  0  0
 43 44  1  0  0  0
 44114  1  0  0  0
 45 46  2  0  0  0
 45115  1  0  0  0
 46116  1  0  0  0
 47117  1  0  0  0
 47118  1  0  0  0
 48 56  1  0  0  0
 48 65  1  0  0  0
 48119  1  0  0  0
 49 50  1  0  0  0
 49 53  1  0  0  0
 49 64  1  0  0  0
 49120  1  0  0  0
 50 51  1  0  0  0
 50121  1  0  0  0
 50122  1  0  0  0
 51 52  1  0  0  0
 51123  1  0  0  0
 51124  1  0  0  0
 52125  1  0  0  0
 52126  1  0  0  0
 53 54  1  0  0  0
 54 55  2  0  0  0
 54127  1  0  0  0
 55 57  1  0  0  0
 55128  1  0  0  0
 56 69  2  0  0  0
 57 58  2  0  0  0
 57129  1  0  0  0
 58130  1  0  0  0
 59 60  1  0  0  0
 59 61  1  0  0  0
 59 62  1  0  0  0
 60131  1  0  0  0
 60132  1  0  0  0
 60133  1  0  0  0
 61134  1  0  0  0
 61135  1  0  0  0
 61136  1  0  0  0
 62137  1  0  0  0
 62138  1  0  0  0
 62139  1  0  0  0
 63 65  1  0  0  0
 63140  1  0  0  0
 63141  1  0  0  0
 63142  1  0  0  0
 64143  1  0  0  0
 65144  1  0  0  0
 68 81  1  0  0  0
 71 72  1  0  0  0
 71 73  2  0  0  0
 71145  1  0  0  0
 72 74  2  0  0  0
 72146  1  0  0  0
 73 75  1  0  0  0
 73 85  1  0  0  0
 74 83  1  0  0  0
 74 85  1  0  0  0
 75 82  1  0  0  0
 75 84  2  0  0  0
 76 77  1  0  0  0
 76 78  1  0  0  0
 76147  1  0  0  0
 76148  1  0  0  0
 77 80  1  0  0  0
 77149  1  0  0  0
 77150  1  0  0  0
 78 82  1  0  0  0
 78151  1  0  0  0
 78152  1  0  0  0
 79 80  1  0  0  0
 79 82  1  0  0  0
 79153  1  0  0  0
 79154  1  0  0  0
 80 81  1  0  0  0
 80155  1  0  0  0
 81156  1  0  0  0
 81157  1  0  0  0
 83158  1  0  0  0
M  ISO  4   1 100  68 101  81 101  83 100
M  END
> <chiral flag>
0

> <version>
0

> <s_m_source_file>
/data/baiqing/PycharmProjects/Reinvent-master-3.2/result/LINK_invent/BTK/process_docking_weight1_custom_product_contain_oxygen_bond_distance_aromatic_linkinvent_7_9_3/rearranged_h_0140.sdf

> <i_m_source_file_index>
32

> <r_mmod_Potential_Energy-OPLS-2005>
56.2005271911621

> <r_mmod_Stretch_Energy-OPLS-2005>
41.7172927856445

> <r_mmod_Bend_Energy-OPLS-2005>
120.934593200684

> <r_mmod_Torsional_Energy-OPLS-2005>
293.999633789062

> <r_mmod_Improper_Torsional_Energy-OPLS-2005>
4.55727863311768

> <r_mmod_Van_der_Waal_Energy-OPLS-2005>
156.825088500977

> <r_mmod_Electrostatic_Energy-OPLS-2005>
-353.214050292969

> <r_mmod_Solvation_Energy-OPLS-2005>
-226.211013793945

> <b_mmod_Minimization_Converged-OPLS-2005>
0

> <r_mmod_RMS_Derivative-OPLS-2005>
3.1489679813385

$$$$
32
                    3D
 Structure written by MMmdl.
160168  0  0  1  0            999 V2000
  -30.7774  -14.3992   20.5917 C   0  0  0  0  0  0
  -30.3978  -12.2779   19.4116 C   0  0  0  0  0  0
  -29.4767  -12.5015   18.1984 C   0  0  0  0  0  0
  -28.0008  -12.3730   18.6142 C   0  0  0  0  0  0
  -27.6574  -13.2140   19.8741 C   0  0  2  0  0  0
  -28.7015  -13.0070   20.9941 C   0  0  0  0  0  0
  -25.2560  -13.8195   20.5689 C   0  0  0  0  0  0
  -24.1818  -13.0473   20.9201 C   0  0  0  0  0  0
  -24.6388  -11.6942   20.8744 C   0  0  0  0  0  0
  -23.9064  -10.4308   21.0423 C   0  0  0  0  0  0
  -24.3615   -9.4221   21.9190 C   0  0  0  0  0  0
  -23.6306   -8.2252   22.0749 C   0  0  0  0  0  0
  -22.4281   -8.0286   21.3544 C   0  0  0  0  0  0
  -21.9923   -9.0258   20.4638 C   0  0  0  0  0  0
  -22.7249  -10.2152   20.3061 C   0  0  0  0  0  0
  -21.6854   -6.0747   22.5291 C   0  0  0  0  0  0
  -21.4004   -6.5646   23.8222 C   0  0  0  0  0  0
  -21.3664   -5.6795   24.9181 C   0  0  0  0  0  0
  -21.6044   -4.3064   24.7228 C   0  0  0  0  0  0
  -21.8820   -3.8159   23.4352 C   0  0  0  0  0  0
  -21.9189   -4.6974   22.3408 C   0  0  0  0  0  0
  -22.7833  -13.5240   21.1876 C   0  0  0  0  0  0
  -22.1653   -4.2169   21.0991 F   0  0  0  0  0  0
  -21.5639   -3.4547   25.7739 F   0  0  0  0  0  0
  -30.0367  -13.2710   20.4336 N   0  0  0  0  0  0
  -26.3006  -12.9382   20.3388 N   0  0  0  0  0  0
  -25.9322  -11.6533   20.5787 N   0  0  0  0  0  0
  -22.0469  -12.8205   22.0414 N   0  0  0  0  0  0
  -25.4284  -15.1917   20.4070 N   0  0  0  0  0  0
  -31.8716  -14.5531   20.0426 O   0  0  0  0  0  0
  -21.6639   -6.8890   21.4256 O   0  0  0  0  0  0
  -22.3517  -14.5562   20.6753 O   0  0  0  0  0  0
  -24.6115  -31.8711   23.2129 C   0  0  0  0  0  0
  -25.9028  -32.4835   23.8414 C   0  0  1  0  0  0
  -27.2223  -27.4594   20.1046 C   0  0  0  0  0  0
  -25.5897  -33.8630   24.2349 N   0  0  0  0  0  0
  -23.3960  -30.4954   21.5562 C   0  0  2  0  0  0
  -24.8394  -28.9674   20.1110 C   0  0  0  0  0  0
  -22.7388  -29.4654   22.5027 C   0  0  0  0  0  0
  -18.0259  -28.1353   22.8492 C   0  0  0  0  0  0
  -24.1495  -36.7325   23.2637 C   0  0  0  0  0  0
  -25.9195  -30.8497   21.3553 C   0  0  0  0  0  0
  -25.9994  -29.4857   20.7029 C   0  0  0  0  0  0
  -27.1969  -28.7405   20.6931 C   0  0  0  0  0  0
  -26.0536  -26.9504   19.4997 C   0  0  0  0  0  0
  -24.8598  -27.6977   19.5063 C   0  0  0  0  0  0
  -23.5991  -29.8316   20.1673 C   0  0  0  0  0  0
  -25.4111  -36.3106   24.0333 C   0  0  1  0  0  0
  -20.5846  -28.3630   23.1333 C   0  0  2  0  0  0
  -20.6746  -26.9376   22.5414 C   0  0  0  0  0  0
  -19.5726  -26.6374   21.5209 C   0  0  0  0  0  0
  -18.1895  -26.7908   22.1620 C   0  0  0  0  0  0
  -19.1512  -28.8817   23.2907 C   0  0  0  0  0  0
  -18.9451  -30.1420   23.8902 C   0  0  0  0  0  0
  -17.6465  -30.6569   24.0560 C   0  0  0  0  0  0
  -25.9035  -34.9463   23.5141 C   0  0  0  0  0  0
  -16.5345  -29.9066   23.6345 C   0  0  0  0  0  0
  -16.7250  -28.6482   23.0360 C   0  0  0  0  0  0
  -26.4476  -31.6597   25.0726 C   0  0  0  0  0  0
  -25.3736  -31.3675   26.1475 C   0  0  0  0  0  0
  -27.0334  -30.3061   24.6055 C   0  0  0  0  0  0
  -27.6064  -32.4314   25.7481 C   0  0  0  0  0  0
  -27.5577  -37.1800   24.8458 C   0  0  0  0  0  0
  -21.4123  -29.2996   22.3758 N   0  0  0  0  0  0
  -26.4289  -37.3796   23.9414 N   0  0  0  0  0  0
  -24.6615  -31.0847   22.1016 N   0  0  0  0  0  0
  -23.4167  -28.8200   23.3061 O   0  0  0  0  0  0
  -28.3770  -26.7200   20.1277 O   0  0  0  0  0  0
  -26.5600  -34.8887   22.4694 O   0  0  0  0  0  0
  -23.5332  -32.1462   23.7566 O   0  0  0  0  0  0
  -32.1959  -19.0357   22.2957 C   0  0  0  0  0  0
  -32.2125  -16.6067   22.1108 C   0  0  0  0  0  0
  -30.1931  -17.8522   21.5510 C   0  0  0  0  0  0
  -32.8711  -17.8070   22.4337 C   0  0  0  0  0  0
  -30.8542  -19.0692   21.8472 C   0  0  0  0  0  0
  -30.8768  -16.6164   21.6477 C   0  0  0  0  0  0
  -30.5893  -21.5269   21.4972 C   0  0  0  0  0  0
  -34.3016  -17.7709   22.9274 C   0  0  0  0  0  0
  -29.5955  -22.6753   21.6904 C   0  0  0  0  0  0
  -28.7006  -22.9272   20.4527 C   0  0  0  0  0  0
  -28.7966  -24.3469   19.8576 C   0  0  0  0  0  0
  -28.2570  -25.4513   20.7792 C   0  0  0  0  0  0
  -30.1251  -20.2896   21.7554 N   0  0  0  0  0  0
  -30.2190  -15.4001   21.2973 N   0  0  0  0  0  0
  -31.7334  -21.7723   21.1080 O   0  0  0  0  0  0
  -31.4445  -12.3350   19.1091 H   0  0  0  0  0  0
  -30.2663  -11.2709   19.8132 H   0  0  0  0  0  0
  -29.7072  -11.7812   17.4138 H   0  0  0  0  0  0
  -29.6558  -13.4904   17.7724 H   0  0  0  0  0  0
  -27.8002  -11.3180   18.8021 H   0  0  0  0  0  0
  -27.3546  -12.6590   17.7842 H   0  0  0  0  0  0
  -27.6988  -14.2610   19.5727 H   0  0  0  0  0  0
  -28.6637  -11.9807   21.3624 H   0  0  0  0  0  0
  -28.4715  -13.6362   21.8552 H   0  0  0  0  0  0
  -25.2766   -9.5707   22.4766 H   0  0  0  0  0  0
  -24.0027   -7.4636   22.7462 H   0  0  0  0  0  0
  -21.0863   -8.8782   19.8921 H   0  0  0  0  0  0
  -22.3719  -10.9690   19.6165 H   0  0  0  0  0  0
  -21.1980   -7.6147   23.9738 H   0  0  0  0  0  0
  -21.1486   -6.0518   25.9086 H   0  0  0  0  0  0
  -22.0589   -2.7626   23.2847 H   0  0  0  0  0  0
  -22.4065  -11.9843   22.4774 H   0  0  0  0  0  0
  -21.1088  -13.1217   22.2611 H   0  0  0  0  0  0
  -24.6665  -15.8524   20.5064 H   0  0  0  0  0  0
  -26.2848  -15.6255   20.0886 H   0  0  0  0  0  0
  -26.7104  -32.5565   23.1191 H   0  0  0  0  0  0
  -25.0037  -33.9818   25.0486 H   0  0  0  0  0  0
  -22.6811  -31.3083   21.4201 H   0  0  0  0  0  0
  -23.3741  -35.9669   23.3323 H   0  0  0  0  0  0
  -24.3598  -36.8953   22.2051 H   0  0  0  0  0  0
  -23.7248  -37.6527   23.6664 H   0  0  0  0  0  0
  -26.0200  -31.6171   20.5851 H   0  0  0  0  0  0
  -26.8107  -30.9080   21.9676 H   0  0  0  0  0  0
  -28.0940  -29.1305   21.1527 H   0  0  0  0  0  0
  -26.0671  -25.9777   19.0291 H   0  0  0  0  0  0
  -23.9671  -27.2967   19.0463 H   0  0  0  0  0  0
  -23.6901  -30.6067   19.4073 H   0  0  0  0  0  0
  -22.7226  -29.2472   19.8822 H   0  0  0  0  0  0
  -25.1279  -36.1980   25.0828 H   0  0  0  0  0  0
  -20.9942  -28.3186   24.1452 H   0  0  0  0  0  0
  -20.5690  -26.2222   23.3593 H   0  0  0  0  0  0
  -21.6608  -26.7417   22.1180 H   0  0  0  0  0  0
  -19.6910  -25.6292   21.1208 H   0  0  0  0  0  0
  -19.6693  -27.3214   20.6765 H   0  0  0  0  0  0
  -17.4185  -26.6684   21.4005 H   0  0  0  0  0  0
  -18.0274  -26.0021   22.8992 H   0  0  0  0  0  0
  -19.7933  -30.7228   24.2274 H   0  0  0  0  0  0
  -17.5008  -31.6256   24.5153 H   0  0  0  0  0  0
  -15.5334  -30.2965   23.7666 H   0  0  0  0  0  0
  -15.8654  -28.0801   22.7082 H   0  0  0  0  0  0
  -24.5910  -30.7035   25.7801 H   0  0  0  0  0  0
  -24.8903  -32.2816   26.4939 H   0  0  0  0  0  0
  -25.8071  -30.8825   27.0234 H   0  0  0  0  0  0
  -26.2874  -29.6779   24.1172 H   0  0  0  0  0  0
  -27.4247  -29.7329   25.4473 H   0  0  0  0  0  0
  -27.8630  -30.4458   23.9111 H   0  0  0  0  0  0
  -27.2716  -33.3629   26.2069 H   0  0  0  0  0  0
  -28.3860  -32.6875   25.0285 H   0  0  0  0  0  0
  -28.0740  -31.8417   26.5394 H   0  0  0  0  0  0
  -28.2569  -38.0108   24.7515 H   0  0  0  0  0  0
  -28.1087  -36.2643   24.6271 H   0  0  0  0  0  0
  -27.2289  -37.1422   25.8850 H   0  0  0  0  0  0
  -20.9278  -29.8736   21.7009 H   0  0  0  0  0  0
  -26.0188  -38.2884   24.1403 H   0  0  0  0  0  0
  -32.7158  -19.9453   22.5607 H   0  0  0  0  0  0
  -32.7489  -15.6726   22.2135 H   0  0  0  0  0  0
  -29.1660  -17.8684   21.2138 H   0  0  0  0  0  0
  -34.4575  -18.5019   23.7210 H   0  0  0  0  0  0
  -34.9900  -17.9952   22.1126 H   0  0  0  0  0  0
  -34.5550  -16.7867   23.3249 H   0  0  0  0  0  0
  -30.1635  -23.5703   21.9548 H   0  0  0  0  0  0
  -28.9750  -22.4581   22.5608 H   0  0  0  0  0  0
  -27.6646  -22.7154   20.7202 H   0  0  0  0  0  0
  -28.9443  -22.2142   19.6616 H   0  0  0  0  0  0
  -28.2286  -24.3711   18.9284 H   0  0  0  0  0  0
  -29.8286  -24.5695   19.5883 H   0  0  0  0  0  0
  -28.8373  -25.4924   21.7019 H   0  0  0  0  0  0
  -27.2333  -25.2153   21.0817 H   0  0  0  0  0  0
  -29.1268  -20.2218   21.8949 H   0  0  0  0  0  0
  -29.2411  -15.3035   21.5277 H   0  0  0  0  0  0
  1 25  1  0  0  0
  1 30  2  0  0  0
  1 84  1  0  0  0
  2  3  1  0  0  0
  2 25  1  0  0  0
  2 86  1  0  0  0
  2 87  1  0  0  0
  3  4  1  0  0  0
  3 88  1  0  0  0
  3 89  1  0  0  0
  4  5  1  0  0  0
  4 90  1  0  0  0
  4 91  1  0  0  0
  5  6  1  0  0  0
  5 26  1  0  0  0
  5 92  1  0  0  0
  6 25  1  0  0  0
  6 93  1  0  0  0
  6 94  1  0  0  0
  7  8  2  0  0  0
  7 26  1  0  0  0
  7 29  1  0  0  0
  8  9  1  0  0  0
  8 22  1  0  0  0
  9 10  1  0  0  0
  9 27  2  0  0  0
 10 11  2  0  0  0
 10 15  1  0  0  0
 11 12  1  0  0  0
 11 95  1  0  0  0
 12 13  2  0  0  0
 12 96  1  0  0  0
 13 14  1  0  0  0
 13 31  1  0  0  0
 14 15  2  0  0  0
 14 97  1  0  0  0
 15 98  1  0  0  0
 16 17  2  0  0  0
 16 21  1  0  0  0
 16 31  1  0  0  0
 17 18  1  0  0  0
 17 99  1  0  0  0
 18 19  2  0  0  0
 18100  1  0  0  0
 19 20  1  0  0  0
 19 24  1  0  0  0
 20 21  2  0  0  0
 20101  1  0  0  0
 21 23  1  0  0  0
 22 28  1  0  0  0
 22 32  2  0  0  0
 26 27  1  0  0  0
 28102  1  0  0  0
 28103  1  0  0  0
 29104  1  0  0  0
 29105  1  0  0  0
 33 34  1  0  0  0
 33 66  1  0  0  0
 33 70  2  0  0  0
 34 36  1  0  0  0
 34 59  1  0  0  0
 34106  1  0  0  0
 35 44  2  0  0  0
 35 45  1  0  0  0
 35 68  1  0  0  0
 36 56  1  0  0  0
 36107  1  0  0  0
 37 39  1  0  0  0
 37 47  1  0  0  0
 37 66  1  0  0  0
 37108  1  0  0  0
 38 43  2  0  0  0
 38 46  1  0  0  0
 38 47  1  0  0  0
 39 64  1  0  0  0
 39 67  2  0  0  0
 40 52  1  0  0  0
 40 53  2  0  0  0
 40 58  1  0  0  0
 41109  1  0  0  0
 41110  1  0  0  0
 41111  1  0  0  0
 41 48  1  0  0  0
 42 43  1  0  0  0
 42 66  1  0  0  0
 42112  1  0  0  0
 42113  1  0  0  0
 43 44  1  0  0  0
 44114  1  0  0  0
 45 46  2  0  0  0
 45115  1  0  0  0
 46116  1  0  0  0
 47117  1  0  0  0
 47118  1  0  0  0
 48 56  1  0  0  0
 48 65  1  0  0  0
 48119  1  0  0  0
 49 50  1  0  0  0
 49 53  1  0  0  0
 49 64  1  0  0  0
 49120  1  0  0  0
 50 51  1  0  0  0
 50121  1  0  0  0
 50122  1  0  0  0
 51 52  1  0  0  0
 51123  1  0  0  0
 51124  1  0  0  0
 52125  1  0  0  0
 52126  1  0  0  0
 53 54  1  0  0  0
 54 55  2  0  0  0
 54127  1  0  0  0
 55 57  1  0  0  0
 55128  1  0  0  0
 56 69  2  0  0  0
 57 58  2  0  0  0
 57129  1  0  0  0
 58130  1  0  0  0
 59 60  1  0  0  0
 59 61  1  0  0  0
 59 62  1  0  0  0
 60131  1  0  0  0
 60132  1  0  0  0
 60133  1  0  0  0
 61134  1  0  0  0
 61135  1  0  0  0
 61136  1  0  0  0
 62137  1  0  0  0
 62138  1  0  0  0
 62139  1  0  0  0
 63 65  1  0  0  0
 63140  1  0  0  0
 63141  1  0  0  0
 63142  1  0  0  0
 64143  1  0  0  0
 65144  1  0  0  0
 68 82  1  0  0  0
 71 74  2  0  0  0
 71 75  1  0  0  0
 71145  1  0  0  0
 72 74  1  0  0  0
 72 76  2  0  0  0
 72146  1  0  0  0
 73 75  2  0  0  0
 73 76  1  0  0  0
 73147  1  0  0  0
 74 78  1  0  0  0
 75 83  1  0  0  0
 76 84  1  0  0  0
 77 79  1  0  0  0
 77 83  1  0  0  0
 77 85  2  0  0  0
 78148  1  0  0  0
 78149  1  0  0  0
 78150  1  0  0  0
 79 80  1  0  0  0
 79151  1  0  0  0
 79152  1  0  0  0
 80 81  1  0  0  0
 80153  1  0  0  0
 80154  1  0  0  0
 81 82  1  0  0  0
 81155  1  0  0  0
 81156  1  0  0  0
 82157  1  0  0  0
 82158  1  0  0  0
 83159  1  0  0  0
 84160  1  0  0  0
M  ISO  4   1 100  68 101  82 101  84 100
M  END
> <chiral flag>
0

> <version>
0

> <s_m_source_file>
/data/baiqing/PycharmProjects/Reinvent-master-3.2/result/LINK_invent/BTK/process_docking_weight1_custom_product_contain_oxygen_bond_distance_aromatic_linkinvent_7_9_3/rearranged_h_0140.sdf

> <i_m_source_file_index>
33

> <r_mmod_Potential_Energy-OPLS-2005>
-35.3064880371094

> <r_mmod_Stretch_Energy-OPLS-2005>
33.5720634460449

> <r_mmod_Bend_Energy-OPLS-2005>
91.3747863769531

> <r_mmod_Torsional_Energy-OPLS-2005>
265.186370849609

> <r_mmod_Improper_Torsional_Energy-OPLS-2005>
2.56682419776917

> <r_mmod_Van_der_Waal_Energy-OPLS-2005>
162.548629760742

> <r_mmod_Electrostatic_Energy-OPLS-2005>
-368.204467773438

> <r_mmod_Solvation_Energy-OPLS-2005>
-233.918395996094

> <b_mmod_Minimization_Converged-OPLS-2005>
0

> <r_mmod_RMS_Derivative-OPLS-2005>
3.35783052444458

$$$$
33
                    3D
 Structure written by MMmdl.
165173  0  0  1  0            999 V2000
  -30.7105  -14.4869   20.5771 C   0  0  0  0  0  0
  -30.4137  -12.3109   19.4598 C   0  0  0  0  0  0
  -29.4967  -12.5106   18.2359 C   0  0  0  0  0  0
  -28.0224  -12.3547   18.6486 C   0  0  0  0  0  0
  -27.6606  -13.2138   19.8892 C   0  0  2  0  0  0
  -28.6965  -13.0283   21.0246 C   0  0  0  0  0  0
  -25.2547  -13.8192   20.5730 C   0  0  0  0  0  0
  -24.1813  -13.0446   20.9209 C   0  0  0  0  0  0
  -24.6380  -11.6916   20.8777 C   0  0  0  0  0  0
  -23.9051  -10.4292   21.0414 C   0  0  0  0  0  0
  -24.3609   -9.4196   21.9177 C   0  0  0  0  0  0
  -23.6289   -8.2225   22.0734 C   0  0  0  0  0  0
  -22.4268   -8.0282   21.3527 C   0  0  0  0  0  0
  -21.9900   -9.0265   20.4640 C   0  0  0  0  0  0
  -22.7220  -10.2147   20.3056 C   0  0  0  0  0  0
  -21.6856   -6.0728   22.5285 C   0  0  0  0  0  0
  -21.4017   -6.5636   23.8219 C   0  0  0  0  0  0
  -21.3654   -5.6794   24.9188 C   0  0  0  0  0  0
  -21.6034   -4.3060   24.7244 C   0  0  0  0  0  0
  -21.8811   -3.8138   23.4373 C   0  0  0  0  0  0
  -21.9186   -4.6949   22.3417 C   0  0  0  0  0  0
  -22.7833  -13.5235   21.1889 C   0  0  0  0  0  0
  -22.1649   -4.2124   21.0999 F   0  0  0  0  0  0
  -21.5622   -3.4543   25.7758 F   0  0  0  0  0  0
  -30.0367  -13.3064   20.4792 N   0  0  0  0  0  0
  -26.3011  -12.9368   20.3449 N   0  0  0  0  0  0
  -25.9323  -11.6518   20.5854 N   0  0  0  0  0  0
  -22.0485  -12.8236   22.0472 N   0  0  0  0  0  0
  -25.4240  -15.1918   20.4159 N   0  0  0  0  0  0
  -31.8313  -14.6527   20.0791 O   0  0  0  0  0  0
  -21.6626   -6.8882   21.4248 O   0  0  0  0  0  0
  -22.3509  -14.5525   20.6734 O   0  0  0  0  0  0
  -24.6127  -31.8671   23.2122 C   0  0  0  0  0  0
  -25.9023  -32.4832   23.8414 C   0  0  1  0  0  0
  -27.2610  -27.4527   20.0987 C   0  0  0  0  0  0
  -25.5878  -33.8631   24.2327 N   0  0  0  0  0  0
  -23.4056  -30.4878   21.5494 C   0  0  2  0  0  0
  -24.8621  -28.9493   20.1260 C   0  0  0  0  0  0
  -22.7419  -29.4651   22.4991 C   0  0  0  0  0  0
  -18.0271  -28.1372   22.8491 C   0  0  0  0  0  0
  -24.1485  -36.7347   23.2647 C   0  0  0  0  0  0
  -25.9328  -30.8315   21.3709 C   0  0  0  0  0  0
  -26.0161  -29.4618   20.7339 C   0  0  0  0  0  0
  -27.2188  -28.7152   20.7343 C   0  0  0  0  0  0
  -26.0950  -26.9545   19.4849 C   0  0  0  0  0  0
  -24.8918  -27.6885   19.5063 C   0  0  0  0  0  0
  -23.6210  -29.8143   20.1675 C   0  0  0  0  0  0
  -25.4109  -36.3129   24.0337 C   0  0  1  0  0  0
  -20.5863  -28.3670   23.1310 C   0  0  2  0  0  0
  -20.6758  -26.9403   22.5418 C   0  0  0  0  0  0
  -19.5745  -26.6388   21.5202 C   0  0  0  0  0  0
  -18.1928  -26.7920   22.1623 C   0  0  0  0  0  0
  -19.1525  -28.8833   23.2895 C   0  0  0  0  0  0
  -18.9447  -30.1441   23.8908 C   0  0  0  0  0  0
  -17.6456  -30.6579   24.0569 C   0  0  0  0  0  0
  -25.9032  -34.9483   23.5135 C   0  0  0  0  0  0
  -16.5343  -29.9083   23.6324 C   0  0  0  0  0  0
  -16.7269  -28.6494   23.0348 C   0  0  0  0  0  0
  -26.4458  -31.6621   25.0743 C   0  0  0  0  0  0
  -25.3741  -31.3728   26.1509 C   0  0  0  0  0  0
  -27.0294  -30.3063   24.6125 C   0  0  0  0  0  0
  -27.6041  -32.4343   25.7477 C   0  0  0  0  0  0
  -27.5572  -37.1843   24.8471 C   0  0  0  0  0  0
  -21.4144  -29.3032   22.3712 N   0  0  0  0  0  0
  -26.4305  -37.3796   23.9379 N   0  0  0  0  0  0
  -24.6678  -31.0771   22.1022 N   0  0  0  0  0  0
  -23.4177  -28.8193   23.3043 O   0  0  0  0  0  0
  -28.4046  -26.6961   19.9706 O   0  0  0  0  0  0
  -26.5593  -34.8925   22.4693 O   0  0  0  0  0  0
  -23.5317  -32.1398   23.7524 O   0  0  0  0  0  0
  -29.4225  -17.7724   18.1482 C   0  0  0  0  0  0
  -29.5679  -16.6327   18.9452 C   0  0  0  0  0  0
  -29.7869  -18.0450   20.9189 C   0  0  0  0  0  0
  -29.4981  -19.0534   18.7109 C   0  0  0  0  0  0
  -29.8100  -16.7456   20.3327 C   0  0  0  0  0  0
  -29.6155  -19.2157   20.1192 C   0  0  0  0  0  0
  -28.8417  -22.7340   20.0380 C   0  0  0  0  0  0
  -29.5396  -20.2189   17.7482 C   0  0  0  0  0  0
  -30.6186  -24.7043   22.3085 C   0  0  0  0  0  0
  -30.8360  -25.0061   19.8594 C   0  0  0  0  0  0
  -28.6343  -23.9861   20.9142 C   0  0  0  0  0  0
  -28.5041  -21.3227   20.5883 C   0  0  0  0  0  0
  -29.2219  -26.4663   21.1180 C   0  0  0  0  0  0
  -29.8172  -25.0247   21.0307 C   0  0  0  0  0  0
  -30.0287  -15.5390   21.0829 N   0  0  0  0  0  0
  -29.1211  -22.8955   18.8494 O   0  0  0  0  0  0
  -29.6692  -20.4742   20.7041 O   0  0  0  0  0  0
  -31.4597  -12.3864   19.1654 H   0  0  0  0  0  0
  -30.2963  -11.3055   19.8661 H   0  0  0  0  0  0
  -29.7425  -11.7876   17.4577 H   0  0  0  0  0  0
  -29.6619  -13.4963   17.7985 H   0  0  0  0  0  0
  -27.8603  -11.3014   18.8770 H   0  0  0  0  0  0
  -27.3612  -12.5855   17.8130 H   0  0  0  0  0  0
  -27.6933  -14.2569   19.5734 H   0  0  0  0  0  0
  -28.6679  -12.0095   21.4101 H   0  0  0  0  0  0
  -28.4545  -13.6686   21.8749 H   0  0  0  0  0  0
  -25.2748   -9.5661   22.4773 H   0  0  0  0  0  0
  -23.9975   -7.4608   22.7476 H   0  0  0  0  0  0
  -21.0802   -8.8812   19.8983 H   0  0  0  0  0  0
  -22.3668  -10.9707   19.6186 H   0  0  0  0  0  0
  -21.2013   -7.6143   23.9729 H   0  0  0  0  0  0
  -21.1480   -6.0518   25.9091 H   0  0  0  0  0  0
  -22.0590   -2.7595   23.2890 H   0  0  0  0  0  0
  -22.4106  -11.9899   22.4851 H   0  0  0  0  0  0
  -21.1117  -13.1280   22.2735 H   0  0  0  0  0  0
  -24.6573  -15.8463   20.5371 H   0  0  0  0  0  0
  -26.2832  -15.6406   20.1214 H   0  0  0  0  0  0
  -26.7112  -32.5571   23.1199 H   0  0  0  0  0  0
  -25.0003  -33.9795   25.0451 H   0  0  0  0  0  0
  -22.6952  -31.3041   21.4049 H   0  0  0  0  0  0
  -23.3709  -35.9730   23.3375 H   0  0  0  0  0  0
  -24.3549  -36.8882   22.2044 H   0  0  0  0  0  0
  -23.7292  -37.6602   23.6600 H   0  0  0  0  0  0
  -26.0436  -31.5905   20.5946 H   0  0  0  0  0  0
  -26.8215  -30.8917   21.9879 H   0  0  0  0  0  0
  -28.1122  -29.1166   21.1909 H   0  0  0  0  0  0
  -26.1210  -25.9955   18.9858 H   0  0  0  0  0  0
  -24.0085  -27.2844   19.0292 H   0  0  0  0  0  0
  -23.7346  -30.5844   19.4035 H   0  0  0  0  0  0
  -22.7462  -29.2328   19.8689 H   0  0  0  0  0  0
  -25.1297  -36.2013   25.0840 H   0  0  0  0  0  0
  -20.9952  -28.3229   24.1424 H   0  0  0  0  0  0
  -20.5633  -26.2284   23.3611 H   0  0  0  0  0  0
  -21.6638  -26.7437   22.1218 H   0  0  0  0  0  0
  -19.6919  -25.6305   21.1213 H   0  0  0  0  0  0
  -19.6683  -27.3215   20.6740 H   0  0  0  0  0  0
  -17.4194  -26.6665   21.4024 H   0  0  0  0  0  0
  -18.0344  -26.0053   22.9014 H   0  0  0  0  0  0
  -19.7926  -30.7246   24.2291 H   0  0  0  0  0  0
  -17.5011  -31.6255   24.5186 H   0  0  0  0  0  0
  -15.5346  -30.2992   23.7642 H   0  0  0  0  0  0
  -15.8666  -28.0826   22.7055 H   0  0  0  0  0  0
  -24.5899  -30.7086   25.7851 H   0  0  0  0  0  0
  -24.8969  -32.2897   26.4984 H   0  0  0  0  0  0
  -25.8118  -30.8878   27.0244 H   0  0  0  0  0  0
  -26.2841  -29.6820   24.1186 H   0  0  0  0  0  0
  -27.4059  -29.7305   25.4589 H   0  0  0  0  0  0
  -27.8670  -30.4380   23.9269 H   0  0  0  0  0  0
  -27.2663  -33.3628   26.2074 H   0  0  0  0  0  0
  -28.3813  -32.6924   25.0277 H   0  0  0  0  0  0
  -28.0741  -31.8468   26.5363 H   0  0  0  0  0  0
  -28.2668  -38.0063   24.7409 H   0  0  0  0  0  0
  -28.0981  -36.2595   24.6426 H   0  0  0  0  0  0
  -27.2273  -37.1647   25.8873 H   0  0  0  0  0  0
  -20.9317  -29.8739   21.6916 H   0  0  0  0  0  0
  -26.0213  -38.2890   24.1315 H   0  0  0  0  0  0
  -29.2978  -17.6515   17.0819 H   0  0  0  0  0  0
  -29.5271  -15.6683   18.4626 H   0  0  0  0  0  0
  -29.9293  -18.1566   21.9857 H   0  0  0  0  0  0
  -29.8959  -19.9189   16.7631 H   0  0  0  0  0  0
  -30.2607  -20.9547   18.0995 H   0  0  0  0  0  0
  -28.5521  -20.6672   17.6286 H   0  0  0  0  0  0
  -31.0144  -23.6869   22.2813 H   0  0  0  0  0  0
  -30.0031  -24.7901   23.2027 H   0  0  0  0  0  0
  -31.4687  -25.3761   22.4324 H   0  0  0  0  0  0
  -31.2922  -24.0236   19.7238 H   0  0  0  0  0  0
  -31.6620  -25.6971   20.0349 H   0  0  0  0  0  0
  -30.3732  -25.2910   18.9140 H   0  0  0  0  0  0
  -28.2950  -23.6869   21.9050 H   0  0  0  0  0  0
  -27.7749  -24.4810   20.4643 H   0  0  0  0  0  0
  -27.7690  -20.8696   19.9214 H   0  0  0  0  0  0
  -28.0228  -21.4188   21.5597 H   0  0  0  0  0  0
  -30.0237  -27.2068   21.1216 H   0  0  0  0  0  0
  -28.6603  -26.5963   22.0434 H   0  0  0  0  0  0
  -29.3183  -15.3164   21.7631 H   0  0  0  0  0  0
  1 25  1  0  0  0
  1 30  2  0  0  0
  1 85  1  0  0  0
  2  3  1  0  0  0
  2 25  1  0  0  0
  2 88  1  0  0  0
  2 89  1  0  0  0
  3  4  1  0  0  0
  3 90  1  0  0  0
  3 91  1  0  0  0
  4  5  1  0  0  0
  4 92  1  0  0  0
  4 93  1  0  0  0
  5  6  1  0  0  0
  5 26  1  0  0  0
  5 94  1  0  0  0
  6 25  1  0  0  0
  6 95  1  0  0  0
  6 96  1  0  0  0
  7  8  2  0  0  0
  7 26  1  0  0  0
  7 29  1  0  0  0
  8  9  1  0  0  0
  8 22  1  0  0  0
  9 10  1  0  0  0
  9 27  2  0  0  0
 10 11  2  0  0  0
 10 15  1  0  0  0
 11 12  1  0  0  0
 11 97  1  0  0  0
 12 13  2  0  0  0
 12 98  1  0  0  0
 13 14  1  0  0  0
 13 31  1  0  0  0
 14 15  2  0  0  0
 14 99  1  0  0  0
 15100  1  0  0  0
 16 17  2  0  0  0
 16 21  1  0  0  0
 16 31  1  0  0  0
 17 18  1  0  0  0
 17101  1  0  0  0
 18 19  2  0  0  0
 18102  1  0  0  0
 19 20  1  0  0  0
 19 24  1  0  0  0
 20 21  2  0  0  0
 20103  1  0  0  0
 21 23  1  0  0  0
 22 28  1  0  0  0
 22 32  2  0  0  0
 26 27  1  0  0  0
 28104  1  0  0  0
 28105  1  0  0  0
 29106  1  0  0  0
 29107  1  0  0  0
 33 34  1  0  0  0
 33 66  1  0  0  0
 33 70  2  0  0  0
 34 36  1  0  0  0
 34 59  1  0  0  0
 34108  1  0  0  0
 35 44  2  0  0  0
 35 45  1  0  0  0
 35 68  1  0  0  0
 36 56  1  0  0  0
 36109  1  0  0  0
 37 39  1  0  0  0
 37 47  1  0  0  0
 37 66  1  0  0  0
 37110  1  0  0  0
 38 43  2  0  0  0
 38 46  1  0  0  0
 38 47  1  0  0  0
 39 64  1  0  0  0
 39 67  2  0  0  0
 40 52  1  0  0  0
 40 53  2  0  0  0
 40 58  1  0  0  0
 41111  1  0  0  0
 41112  1  0  0  0
 41113  1  0  0  0
 41 48  1  0  0  0
 42 43  1  0  0  0
 42 66  1  0  0  0
 42114  1  0  0  0
 42115  1  0  0  0
 43 44  1  0  0  0
 44116  1  0  0  0
 45 46  2  0  0  0
 45117  1  0  0  0
 46118  1  0  0  0
 47119  1  0  0  0
 47120  1  0  0  0
 48 56  1  0  0  0
 48 65  1  0  0  0
 48121  1  0  0  0
 49 50  1  0  0  0
 49 53  1  0  0  0
 49 64  1  0  0  0
 49122  1  0  0  0
 50 51  1  0  0  0
 50123  1  0  0  0
 50124  1  0  0  0
 51 52  1  0  0  0
 51125  1  0  0  0
 51126  1  0  0  0
 52127  1  0  0  0
 52128  1  0  0  0
 53 54  1  0  0  0
 54 55  2  0  0  0
 54129  1  0  0  0
 55 57  1  0  0  0
 55130  1  0  0  0
 56 69  2  0  0  0
 57 58  2  0  0  0
 57131  1  0  0  0
 58132  1  0  0  0
 59 60  1  0  0  0
 59 61  1  0  0  0
 59 62  1  0  0  0
 60133  1  0  0  0
 60134  1  0  0  0
 60135  1  0  0  0
 61136  1  0  0  0
 61137  1  0  0  0
 61138  1  0  0  0
 62139  1  0  0  0
 62140  1  0  0  0
 62141  1  0  0  0
 63 65  1  0  0  0
 63142  1  0  0  0
 63143  1  0  0  0
 63144  1  0  0  0
 64145  1  0  0  0
 65146  1  0  0  0
 68 83  1  0  0  0
 71 72  2  0  0  0
 71 74  1  0  0  0
 71147  1  0  0  0
 72 75  1  0  0  0
 72148  1  0  0  0
 73 75  2  0  0  0
 73 76  1  0  0  0
 73149  1  0  0  0
 74 76  2  0  0  0
 74 78  1  0  0  0
 75 85  1  0  0  0
 76 87  1  0  0  0
 77 81  1  0  0  0
 77 82  1  0  0  0
 77 86  2  0  0  0
 78150  1  0  0  0
 78151  1  0  0  0
 78152  1  0  0  0
 79153  1  0  0  0
 79154  1  0  0  0
 79155  1  0  0  0
 79 84  1  0  0  0
 80 84  1  0  0  0
 80156  1  0  0  0
 80157  1  0  0  0
 80158  1  0  0  0
 81 84  1  0  0  0
 81159  1  0  0  0
 81160  1  0  0  0
 82 87  1  0  0  0
 82161  1  0  0  0
 82162  1  0  0  0
 83 84  1  0  0  0
 83163  1  0  0  0
 83164  1  0  0  0
 85165  1  0  0  0
M  ISO  4   1 100  68 101  83 101  85 100
M  END
> <chiral flag>
0

> <version>
0

> <s_m_source_file>
/data/baiqing/PycharmProjects/Reinvent-master-3.2/result/LINK_invent/BTK/process_docking_weight1_custom_product_contain_oxygen_bond_distance_aromatic_linkinvent_7_9_3/rearranged_h_0140.sdf

> <i_m_source_file_index>
34

> <r_mmod_Potential_Energy-OPLS-2005>
73.8310470581055

> <r_mmod_Stretch_Energy-OPLS-2005>
46.2966613769531

> <r_mmod_Bend_Energy-OPLS-2005>
117.786437988281

> <r_mmod_Torsional_Energy-OPLS-2005>
298.091857910156

> <r_mmod_Improper_Torsional_Energy-OPLS-2005>
8.83606719970703

> <r_mmod_Van_der_Waal_Energy-OPLS-2005>
159.309631347656

> <r_mmod_Electrostatic_Energy-OPLS-2005>
-351.890838623047

> <r_mmod_Solvation_Energy-OPLS-2005>
-217.49299621582

> <b_mmod_Minimization_Converged-OPLS-2005>
0

> <r_mmod_RMS_Derivative-OPLS-2005>
4.43693923950195

$$$$
34
                    3D
 Structure written by MMmdl.
171180  0  0  1  0            999 V2000
  -30.5604  -15.0218   20.4270 C   0  0  0  0  0  0
  -30.4258  -12.6466   19.5097 C   0  0  0  0  0  0
  -29.5281  -12.5350   18.2554 C   0  0  0  0  0  0
  -28.0575  -12.3173   18.6604 C   0  0  0  0  0  0
  -27.6190  -13.2547   19.8162 C   0  0  2  0  0  0
  -28.6538  -13.3036   20.9513 C   0  0  0  0  0  0
  -25.2451  -13.8220   20.5702 C   0  0  0  0  0  0
  -24.1777  -13.0430   20.9204 C   0  0  0  0  0  0
  -24.6383  -11.6912   20.8707 C   0  0  0  0  0  0
  -23.9062  -10.4285   21.0373 C   0  0  0  0  0  0
  -24.3618   -9.4207   21.9167 C   0  0  0  0  0  0
  -23.6284   -8.2239   22.0735 C   0  0  0  0  0  0
  -22.4265   -8.0281   21.3528 C   0  0  0  0  0  0
  -21.9897   -9.0263   20.4629 C   0  0  0  0  0  0
  -22.7225  -10.2138   20.3029 C   0  0  0  0  0  0
  -21.6867   -6.0720   22.5268 C   0  0  0  0  0  0
  -21.4038   -6.5598   23.8204 C   0  0  0  0  0  0
  -21.3659   -5.6754   24.9164 C   0  0  0  0  0  0
  -21.6044   -4.3025   24.7220 C   0  0  0  0  0  0
  -21.8820   -3.8114   23.4337 C   0  0  0  0  0  0
  -21.9196   -4.6940   22.3395 C   0  0  0  0  0  0
  -22.7803  -13.5224   21.1866 C   0  0  0  0  0  0
  -22.1662   -4.2116   21.0977 F   0  0  0  0  0  0
  -21.5628   -3.4513   25.7739 F   0  0  0  0  0  0
  -29.9084  -13.7776   20.3470 N   0  0  0  0  0  0
  -26.2835  -12.9446   20.3121 N   0  0  0  0  0  0
  -25.9304  -11.6561   20.5620 N   0  0  0  0  0  0
  -22.0426  -12.8259   22.0443 N   0  0  0  0  0  0
  -25.4141  -15.1965   20.4205 N   0  0  0  0  0  0
  -31.7802  -14.9727   20.2309 O   0  0  0  0  0  0
  -21.6623   -6.8879   21.4234 O   0  0  0  0  0  0
  -22.3482  -14.5508   20.6672 O   0  0  0  0  0  0
  -24.6492  -31.8388   23.1851 C   0  0  0  0  0  0
  -25.9252  -32.4657   23.8245 C   0  0  1  0  0  0
  -27.2059  -27.0707   20.1604 C   0  0  0  0  0  0
  -25.5969  -33.8467   24.2153 N   0  0  0  0  0  0
  -23.4544  -30.4594   21.5310 C   0  0  2  0  0  0
  -24.9015  -28.8754   20.1111 C   0  0  0  0  0  0
  -22.7592  -29.4531   22.4831 C   0  0  0  0  0  0
  -18.0316  -28.1398   22.8475 C   0  0  0  0  0  0
  -24.1493  -36.7237   23.2643 C   0  0  0  0  0  0
  -26.0160  -30.6919   21.3930 C   0  0  0  0  0  0
  -26.0837  -29.2975   20.7337 C   0  0  0  0  0  0
  -27.2359  -28.4132   20.7373 C   0  0  0  0  0  0
  -25.9957  -26.7683   19.4960 C   0  0  0  0  0  0
  -24.8752  -27.6269   19.4755 C   0  0  0  0  0  0
  -23.6831  -29.7874   20.1513 C   0  0  0  0  0  0
  -25.4126  -36.3005   24.0306 C   0  0  1  0  0  0
  -20.5932  -28.3738   23.1212 C   0  0  2  0  0  0
  -20.6794  -26.9433   22.5400 C   0  0  0  0  0  0
  -19.5771  -26.6380   21.5209 C   0  0  0  0  0  0
  -18.1952  -26.7936   22.1620 C   0  0  0  0  0  0
  -19.1572  -28.8885   23.2836 C   0  0  0  0  0  0
  -18.9484  -30.1475   23.8864 C   0  0  0  0  0  0
  -17.6478  -30.6600   24.0553 C   0  0  0  0  0  0
  -25.9083  -34.9382   23.5039 C   0  0  0  0  0  0
  -16.5367  -29.9083   23.6336 C   0  0  0  0  0  0
  -16.7295  -28.6500   23.0354 C   0  0  0  0  0  0
  -26.4544  -31.6544   25.0716 C   0  0  0  0  0  0
  -25.3693  -31.3764   26.1386 C   0  0  0  0  0  0
  -27.0411  -30.2917   24.6360 C   0  0  0  0  0  0
  -27.6055  -32.4327   25.7511 C   0  0  0  0  0  0
  -27.5584  -37.1771   24.8461 C   0  0  0  0  0  0
  -21.4277  -29.3054   22.3574 N   0  0  0  0  0  0
  -26.4285  -37.3731   23.9416 N   0  0  0  0  0  0
  -24.7270  -31.0191   22.0911 N   0  0  0  0  0  0
  -23.4202  -28.8083   23.3012 O   0  0  0  0  0  0
  -28.2386  -26.0420   20.2203 O   0  0  0  0  0  0
  -26.5677  -34.8901   22.4628 O   0  0  0  0  0  0
  -23.5590  -32.1300   23.7022 O   0  0  0  0  0  0
  -28.1512  -19.3753   22.1940 C   0  0  0  0  0  0
  -27.5935  -18.5939   23.2096 C   0  0  0  0  0  0
  -28.7467  -16.6839   22.3114 C   0  0  0  0  0  0
  -29.0020  -18.9019   21.1571 C   0  0  0  0  0  0
  -27.9086  -17.2428   23.2824 C   0  0  0  0  0  0
  -29.2739  -17.3737   21.1854 C   0  0  0  0  0  0
  -30.3345  -21.2502   21.2539 C   0  0  0  0  0  0
  -29.7438  -22.7196   21.3855 C   0  0  0  0  0  0
  -28.4263  -21.5230   19.9178 C   0  0  0  0  0  0
  -29.4884  -20.2753   20.3275 C   0  0  2  0  0  0
  -28.9500  -23.0981   20.1149 C   0  0  2  0  0  0
  -29.9315  -23.4281   18.9778 C   0  0  0  0  0  0
  -32.3705  -18.6965   20.1538 C   0  0  0  0  0  0
  -30.2474  -19.8116   19.0395 C   0  0  0  0  0  0
  -27.9265  -24.4844   20.1890 C   0  0  0  0  0  0
  -31.7870  -19.6090   19.0650 C   0  0  0  0  0  0
  -27.3836  -16.4589   24.3089 N   0  0  0  0  0  0
  -29.9435  -16.3240   20.2758 N   0  0  0  0  0  0
  -31.4612  -12.7934   19.2025 H   0  0  0  0  0  0
  -30.4220  -11.7091   20.0676 H   0  0  0  0  0  0
  -29.8708  -11.7193   17.6148 H   0  0  0  0  0  0
  -29.6144  -13.4472   17.6634 H   0  0  0  0  0  0
  -27.9595  -11.2804   18.9788 H   0  0  0  0  0  0
  -27.3996  -12.4328   17.7972 H   0  0  0  0  0  0
  -27.5722  -14.2540   19.3826 H   0  0  0  0  0  0
  -28.7724  -12.3197   21.4055 H   0  0  0  0  0  0
  -28.2869  -13.9427   21.7440 H   0  0  0  0  0  0
  -25.2772   -9.5691   22.4730 H   0  0  0  0  0  0
  -23.9982   -7.4640   22.7479 H   0  0  0  0  0  0
  -21.0803   -8.8788   19.8969 H   0  0  0  0  0  0
  -22.3678  -10.9669   19.6123 H   0  0  0  0  0  0
  -21.2037   -7.6108   23.9720 H   0  0  0  0  0  0
  -21.1484   -6.0470   25.9078 H   0  0  0  0  0  0
  -22.0600   -2.7577   23.2837 H   0  0  0  0  0  0
  -22.4014  -11.9947   22.4903 H   0  0  0  0  0  0
  -21.1033  -13.1302   22.2577 H   0  0  0  0  0  0
  -24.6575  -15.8527   20.5762 H   0  0  0  0  0  0
  -26.2840  -15.6428   20.1602 H   0  0  0  0  0  0
  -26.7315  -32.5239   23.0957 H   0  0  0  0  0  0
  -25.0068  -33.9569   25.0263 H   0  0  0  0  0  0
  -22.7603  -31.2887   21.3747 H   0  0  0  0  0  0
  -23.3773  -35.9555   23.3260 H   0  0  0  0  0  0
  -24.3585  -36.8921   22.2072 H   0  0  0  0  0  0
  -23.7234  -37.6408   23.6712 H   0  0  0  0  0  0
  -26.1829  -31.4455   20.6212 H   0  0  0  0  0  0
  -26.8819  -30.7385   22.0423 H   0  0  0  0  0  0
  -28.1338  -28.7330   21.2473 H   0  0  0  0  0  0
  -25.8705  -25.8211   18.9949 H   0  0  0  0  0  0
  -23.9741  -27.2985   18.9739 H   0  0  0  0  0  0
  -23.8246  -30.5622   19.3968 H   0  0  0  0  0  0
  -22.7943  -29.2352   19.8389 H   0  0  0  0  0  0
  -25.1319  -36.1818   25.0797 H   0  0  0  0  0  0
  -21.0029  -28.3337   24.1331 H   0  0  0  0  0  0
  -20.5681  -26.2351   23.3625 H   0  0  0  0  0  0
  -21.6656  -26.7427   22.1202 H   0  0  0  0  0  0
  -19.6929  -25.6282   21.1259 H   0  0  0  0  0  0
  -19.6710  -27.3166   20.6720 H   0  0  0  0  0  0
  -17.4221  -26.6675   21.4024 H   0  0  0  0  0  0
  -18.0356  -26.0086   22.9027 H   0  0  0  0  0  0
  -19.7957  -30.7300   24.2213 H   0  0  0  0  0  0
  -17.5030  -31.6277   24.5165 H   0  0  0  0  0  0
  -15.5358  -30.2965   23.7692 H   0  0  0  0  0  0
  -15.8696  -28.0808   22.7074 H   0  0  0  0  0  0
  -24.5865  -30.7130   25.7694 H   0  0  0  0  0  0
  -24.8887  -32.2953   26.4750 H   0  0  0  0  0  0
  -25.7937  -30.8960   27.0207 H   0  0  0  0  0  0
  -26.3041  -29.6625   24.1349 H   0  0  0  0  0  0
  -27.3959  -29.7257   25.4987 H   0  0  0  0  0  0
  -27.8988  -30.4130   23.9737 H   0  0  0  0  0  0
  -27.2634  -33.3657   26.2008 H   0  0  0  0  0  0
  -28.3905  -32.6837   25.0364 H   0  0  0  0  0  0
  -28.0669  -31.8496   26.5490 H   0  0  0  0  0  0
  -28.2557  -38.0110   24.7533 H   0  0  0  0  0  0
  -28.1114  -36.2629   24.6236 H   0  0  0  0  0  0
  -27.2300  -37.1365   25.8863 H   0  0  0  0  0  0
  -20.9489  -29.8751   21.6738 H   0  0  0  0  0  0
  -26.0135  -38.2794   24.1424 H   0  0  0  0  0  0
  -27.9118  -20.4221   22.2737 H   0  0  0  0  0  0
  -26.9520  -19.0555   23.9476 H   0  0  0  0  0  0
  -28.9929  -15.6532   22.4692 H   0  0  0  0  0  0
  -30.4656  -20.8278   22.2512 H   0  0  0  0  0  0
  -31.3515  -21.3577   20.8901 H   0  0  0  0  0  0
  -30.5322  -23.4459   21.5939 H   0  0  0  0  0  0
  -29.0671  -22.7499   22.2416 H   0  0  0  0  0  0
  -27.5153  -21.4353   20.5077 H   0  0  0  0  0  0
  -28.0622  -21.3793   18.9002 H   0  0  0  0  0  0
  -30.7228  -22.6886   18.8718 H   0  0  0  0  0  0
  -30.4134  -24.3903   19.1536 H   0  0  0  0  0  0
  -29.4116  -23.4968   18.0213 H   0  0  0  0  0  0
  -33.4593  -18.7378   20.1379 H   0  0  0  0  0  0
  -32.1046  -17.6565   19.9906 H   0  0  0  0  0  0
  -32.0538  -18.9776   21.1587 H   0  0  0  0  0  0
  -30.0801  -20.5497   18.2552 H   0  0  0  0  0  0
  -29.7664  -18.9108   18.6543 H   0  0  0  0  0  0
  -27.2387  -24.3128   21.0185 H   0  0  0  0  0  0
  -27.3087  -24.3488   19.3031 H   0  0  0  0  0  0
  -32.0848  -19.1987   18.0989 H   0  0  0  0  0  0
  -32.2874  -20.5746   19.1083 H   0  0  0  0  0  0
  -26.5656  -16.8099   24.7980 H   0  0  0  0  0  0
  -27.3269  -15.4577   24.1515 H   0  0  0  0  0  0
  -30.4644  -16.8095   19.5609 H   0  0  0  0  0  0
  1 25  1  0  0  0
  1 30  2  0  0  0
  1 88  1  0  0  0
  2  3  1  0  0  0
  2 25  1  0  0  0
  2 89  1  0  0  0
  2 90  1  0  0  0
  3  4  1  0  0  0
  3 91  1  0  0  0
  3 92  1  0  0  0
  4  5  1  0  0  0
  4 93  1  0  0  0
  4 94  1  0  0  0
  5  6  1  0  0  0
  5 26  1  0  0  0
  5 95  1  0  0  0
  6 25  1  0  0  0
  6 96  1  0  0  0
  6 97  1  0  0  0
  7  8  2  0  0  0
  7 26  1  0  0  0
  7 29  1  0  0  0
  8  9  1  0  0  0
  8 22  1  0  0  0
  9 10  1  0  0  0
  9 27  2  0  0  0
 10 11  2  0  0  0
 10 15  1  0  0  0
 11 12  1  0  0  0
 11 98  1  0  0  0
 12 13  2  0  0  0
 12 99  1  0  0  0
 13 14  1  0  0  0
 13 31  1  0  0  0
 14 15  2  0  0  0
 14100  1  0  0  0
 15101  1  0  0  0
 16 17  2  0  0  0
 16 21  1  0  0  0
 16 31  1  0  0  0
 17 18  1  0  0  0
 17102  1  0  0  0
 18 19  2  0  0  0
 18103  1  0  0  0
 19 20  1  0  0  0
 19 24  1  0  0  0
 20 21  2  0  0  0
 20104  1  0  0  0
 21 23  1  0  0  0
 22 28  1  0  0  0
 22 32  2  0  0  0
 26 27  1  0  0  0
 28105  1  0  0  0
 28106  1  0  0  0
 29107  1  0  0  0
 29108  1  0  0  0
 33 34  1  0  0  0
 33 66  1  0  0  0
 33 70  2  0  0  0
 34 36  1  0  0  0
 34 59  1  0  0  0
 34109  1  0  0  0
 35 44  2  0  0  0
 35 45  1  0  0  0
 35 68  1  0  0  0
 36 56  1  0  0  0
 36110  1  0  0  0
 37 39  1  0  0  0
 37 47  1  0  0  0
 37 66  1  0  0  0
 37111  1  0  0  0
 38 43  2  0  0  0
 38 46  1  0  0  0
 38 47  1  0  0  0
 39 64  1  0  0  0
 39 67  2  0  0  0
 40 52  1  0  0  0
 40 53  2  0  0  0
 40 58  1  0  0  0
 41112  1  0  0  0
 41113  1  0  0  0
 41114  1  0  0  0
 41 48  1  0  0  0
 42 43  1  0  0  0
 42 66  1  0  0  0
 42115  1  0  0  0
 42116  1  0  0  0
 43 44  1  0  0  0
 44117  1  0  0  0
 45 46  2  0  0  0
 45118  1  0  0  0
 46119  1  0  0  0
 47120  1  0  0  0
 47121  1  0  0  0
 48 56  1  0  0  0
 48 65  1  0  0  0
 48122  1  0  0  0
 49 50  1  0  0  0
 49 53  1  0  0  0
 49 64  1  0  0  0
 49123  1  0  0  0
 50 51  1  0  0  0
 50124  1  0  0  0
 50125  1  0  0  0
 51 52  1  0  0  0
 51126  1  0  0  0
 51127  1  0  0  0
 52128  1  0  0  0
 52129  1  0  0  0
 53 54  1  0  0  0
 54 55  2  0  0  0
 54130  1  0  0  0
 55 57  1  0  0  0
 55131  1  0  0  0
 56 69  2  0  0  0
 57 58  2  0  0  0
 57132  1  0  0  0
 58133  1  0  0  0
 59 60  1  0  0  0
 59 61  1  0  0  0
 59 62  1  0  0  0
 60134  1  0  0  0
 60135  1  0  0  0
 60136  1  0  0  0
 61137  1  0  0  0
 61138  1  0  0  0
 61139  1  0  0  0
 62140  1  0  0  0
 62141  1  0  0  0
 62142  1  0  0  0
 63 65  1  0  0  0
 63143  1  0  0  0
 63144  1  0  0  0
 63145  1  0  0  0
 64146  1  0  0  0
 65147  1  0  0  0
 68 85  1  0  0  0
 71 72  2  0  0  0
 71 74  1  0  0  0
 71148  1  0  0  0
 72 75  1  0  0  0
 72149  1  0  0  0
 73 75  2  0  0  0
 73 76  1  0  0  0
 73150  1  0  0  0
 74 76  2  0  0  0
 74 80  1  0  0  0
 75 87  1  0  0  0
 76 88  1  0  0  0
 77 78  1  0  0  0
 77 80  1  0  0  0
 77151  1  0  0  0
 77152  1  0  0  0
 78 81  1  0  0  0
 78153  1  0  0  0
 78154  1  0  0  0
 79 80  1  0  0  0
 79 81  1  0  0  0
 79155  1  0  0  0
 79156  1  0  0  0
 80 84  1  0  0  0
 81 82  1  0  0  0
 81 85  1  0  0  0
 82157  1  0  0  0
 82158  1  0  0  0
 82159  1  0  0  0
 83 86  1  0  0  0
 83160  1  0  0  0
 83161  1  0  0  0
 83162  1  0  0  0
 84 86  1  0  0  0
 84163  1  0  0  0
 84164  1  0  0  0
 85165  1  0  0  0
 85166  1  0  0  0
 86167  1  0  0  0
 86168  1  0  0  0
 87169  1  0  0  0
 87170  1  0  0  0
 88171  1  0  0  0
M  ISO  4   1 100  68 101  85 101  88 100
M  END
> <chiral flag>
0

> <version>
0

> <s_m_source_file>
/data/baiqing/PycharmProjects/Reinvent-master-3.2/result/LINK_invent/BTK/process_docking_weight1_custom_product_contain_oxygen_bond_distance_aromatic_linkinvent_7_9_3/rearranged_h_0140.sdf

> <i_m_source_file_index>
35

> <r_mmod_Potential_Energy-OPLS-2005>
1020.59735107422

> <r_mmod_Stretch_Energy-OPLS-2005>
364.168426513672

> <r_mmod_Bend_Energy-OPLS-2005>
458.429229736328

> <r_mmod_Torsional_Energy-OPLS-2005>
352.689788818359

> <r_mmod_Improper_Torsional_Energy-OPLS-2005>
20.2915515899658

> <r_mmod_Van_der_Waal_Energy-OPLS-2005>
137.604125976562

> <r_mmod_Electrostatic_Energy-OPLS-2005>
-369.412017822266

> <r_mmod_Solvation_Energy-OPLS-2005>
-190.987823486328

> <b_mmod_Minimization_Converged-OPLS-2005>
0

> <r_mmod_RMS_Derivative-OPLS-2005>
3.20864152908325

$$$$
35
                    3D
 Structure written by MMmdl.
167175  0  0  1  0            999 V2000
  -30.6565  -14.5399   20.4530 C   0  0  0  0  0  0
  -30.4173  -12.3253   19.4190 C   0  0  0  0  0  0
  -29.4706  -12.4831   18.2076 C   0  0  0  0  0  0
  -27.9998  -12.3332   18.6370 C   0  0  0  0  0  0
  -27.6457  -13.2080   19.8677 C   0  0  2  0  0  0
  -28.6995  -13.0387   20.9886 C   0  0  0  0  0  0
  -25.2492  -13.8198   20.5710 C   0  0  0  0  0  0
  -24.1763  -13.0441   20.9219 C   0  0  0  0  0  0
  -24.6335  -11.6919   20.8804 C   0  0  0  0  0  0
  -23.9038  -10.4288   21.0419 C   0  0  0  0  0  0
  -24.3605   -9.4202   21.9184 C   0  0  0  0  0  0
  -23.6287   -8.2235   22.0746 C   0  0  0  0  0  0
  -22.4272   -8.0287   21.3539 C   0  0  0  0  0  0
  -21.9904   -9.0247   20.4633 C   0  0  0  0  0  0
  -22.7223  -10.2131   20.3042 C   0  0  0  0  0  0
  -21.6862   -6.0730   22.5266 C   0  0  0  0  0  0
  -21.4018   -6.5626   23.8199 C   0  0  0  0  0  0
  -21.3658   -5.6783   24.9161 C   0  0  0  0  0  0
  -21.6052   -4.3049   24.7214 C   0  0  0  0  0  0
  -21.8825   -3.8132   23.4336 C   0  0  0  0  0  0
  -21.9205   -4.6954   22.3390 C   0  0  0  0  0  0
  -22.7789  -13.5199   21.1894 C   0  0  0  0  0  0
  -22.1662   -4.2131   21.0965 F   0  0  0  0  0  0
  -21.5646   -3.4535   25.7731 F   0  0  0  0  0  0
  -30.0258  -13.3317   20.4190 N   0  0  0  0  0  0
  -26.2930  -12.9357   20.3417 N   0  0  0  0  0  0
  -25.9247  -11.6519   20.5827 N   0  0  0  0  0  0
  -22.0449  -12.8160   22.0469 N   0  0  0  0  0  0
  -25.4160  -15.1912   20.4091 N   0  0  0  0  0  0
  -31.8499  -14.6771   20.1723 O   0  0  0  0  0  0
  -21.6657   -6.8874   21.4230 O   0  0  0  0  0  0
  -22.3466  -14.5515   20.6787 O   0  0  0  0  0  0
  -24.6170  -31.8678   23.2110 C   0  0  0  0  0  0
  -25.9080  -32.4825   23.8402 C   0  0  1  0  0  0
  -27.2225  -27.4023   20.0690 C   0  0  0  0  0  0
  -25.5942  -33.8636   24.2320 N   0  0  0  0  0  0
  -23.4031  -30.4910   21.5566 C   0  0  2  0  0  0
  -24.8397  -28.9545   20.1193 C   0  0  0  0  0  0
  -22.7417  -29.4646   22.5039 C   0  0  0  0  0  0
  -18.0309  -28.1400   22.8390 C   0  0  0  0  0  0
  -24.1484  -36.7307   23.2631 C   0  0  0  0  0  0
  -25.9385  -30.8150   21.3753 C   0  0  0  0  0  0
  -26.0077  -29.4515   20.7100 C   0  0  0  0  0  0
  -27.1993  -28.6843   20.6778 C   0  0  0  0  0  0
  -26.0226  -26.9263   19.4859 C   0  0  0  0  0  0
  -24.8430  -27.6899   19.5123 C   0  0  0  0  0  0
  -23.6064  -29.8251   20.1716 C   0  0  0  0  0  0
  -25.4120  -36.3122   24.0314 C   0  0  1  0  0  0
  -20.5905  -28.3596   23.1380 C   0  0  2  0  0  0
  -20.6760  -26.9357   22.5445 C   0  0  0  0  0  0
  -19.5845  -26.6567   21.5058 C   0  0  0  0  0  0
  -18.1962  -26.7999   22.1404 C   0  0  0  0  0  0
  -19.1579  -28.8761   23.2952 C   0  0  0  0  0  0
  -18.9522  -30.1300   23.9122 C   0  0  0  0  0  0
  -17.6533  -30.6450   24.0781 C   0  0  0  0  0  0
  -25.9045  -34.9484   23.5111 C   0  0  0  0  0  0
  -16.5403  -29.9069   23.6350 C   0  0  0  0  0  0
  -16.7311  -28.6558   23.0213 C   0  0  0  0  0  0
  -26.4483  -31.6635   25.0771 C   0  0  0  0  0  0
  -25.3718  -31.3794   26.1505 C   0  0  0  0  0  0
  -27.0341  -30.3056   24.6254 C   0  0  0  0  0  0
  -27.6034  -32.4388   25.7548 C   0  0  0  0  0  0
  -27.5585  -37.1816   24.8465 C   0  0  0  0  0  0
  -21.4131  -29.3014   22.3773 N   0  0  0  0  0  0
  -26.4311  -37.3796   23.9389 N   0  0  0  0  0  0
  -24.6714  -31.0728   22.1033 N   0  0  0  0  0  0
  -23.4178  -28.8170   23.3057 O   0  0  0  0  0  0
  -28.4143  -26.6890   20.0287 O   0  0  0  0  0  0
  -26.5604  -34.8935   22.4668 O   0  0  0  0  0  0
  -23.5362  -32.1456   23.7486 O   0  0  0  0  0  0
  -29.3017  -19.3893   18.6461 C   0  0  0  0  0  0
  -29.9592  -18.3607   17.9535 C   0  0  0  0  0  0
  -29.1549  -17.9536   20.5853 C   0  0  0  0  0  0
  -28.9123  -19.2347   19.9921 C   0  0  0  0  0  0
  -30.2159  -17.1069   18.5467 C   0  0  0  0  0  0
  -29.7935  -16.8759   19.8994 C   0  0  0  0  0  0
  -28.7760  -21.8401   20.5220 C   0  0  0  0  0  0
  -30.8941  -16.1106   17.6088 C   0  0  0  0  0  0
  -30.1633  -24.6413   21.5560 C   0  0  0  0  0  0
  -26.7122  -20.4155   20.1292 C   0  0  0  0  0  0
  -28.0308  -20.1312   22.2400 C   0  0  0  0  0  0
  -28.0902  -23.0544   21.2123 C   0  0  0  0  0  0
  -28.4377  -25.2577   19.7901 C   0  0  0  0  0  0
  -28.6898  -24.5039   21.1176 C   0  0  2  0  0  0
  -28.1451  -20.3994   20.7171 C   0  0  0  0  0  0
  -29.8329  -15.6044   20.5941 N   0  0  0  0  0  0
  -29.7882  -22.0218   19.8408 O   0  0  0  0  0  0
  -31.4557  -12.4334   19.0998 H   0  0  0  0  0  0
  -30.3371  -11.3207   19.8365 H   0  0  0  0  0  0
  -29.7093  -11.7499   17.4378 H   0  0  0  0  0  0
  -29.6007  -13.4581   17.7438 H   0  0  0  0  0  0
  -27.8270  -11.2818   18.8691 H   0  0  0  0  0  0
  -27.3347  -12.5712   17.8053 H   0  0  0  0  0  0
  -27.6642  -14.2416   19.5242 H   0  0  0  0  0  0
  -28.6796  -12.0203   21.3780 H   0  0  0  0  0  0
  -28.4680  -13.6849   21.8381 H   0  0  0  0  0  0
  -25.2754   -9.5706   22.4752 H   0  0  0  0  0  0
  -24.0025   -7.4628   22.7451 H   0  0  0  0  0  0
  -21.0857   -8.8747   19.8918 H   0  0  0  0  0  0
  -22.3681  -10.9673   19.6147 H   0  0  0  0  0  0
  -21.1992   -7.6127   23.9693 H   0  0  0  0  0  0
  -21.1480   -6.0505   25.9064 H   0  0  0  0  0  0
  -22.0611   -2.7591   23.2830 H   0  0  0  0  0  0
  -22.4093  -11.9824   22.4841 H   0  0  0  0  0  0
  -21.1043  -13.1129   22.2664 H   0  0  0  0  0  0
  -24.6451  -15.8412   20.5175 H   0  0  0  0  0  0
  -26.2597  -15.6376   20.0671 H   0  0  0  0  0  0
  -26.7134  -32.5459   23.1138 H   0  0  0  0  0  0
  -25.0125  -33.9785   25.0488 H   0  0  0  0  0  0
  -22.6900  -31.3055   21.4219 H   0  0  0  0  0  0
  -23.3754  -35.9626   23.3330 H   0  0  0  0  0  0
  -24.3567  -36.8900   22.2041 H   0  0  0  0  0  0
  -23.7237  -37.6521   23.6624 H   0  0  0  0  0  0
  -26.0750  -31.5876   20.6170 H   0  0  0  0  0  0
  -26.8167  -30.8452   22.0073 H   0  0  0  0  0  0
  -28.1071  -29.0755   21.1184 H   0  0  0  0  0  0
  -25.9468  -25.9807   18.9760 H   0  0  0  0  0  0
  -23.9433  -27.2969   19.0598 H   0  0  0  0  0  0
  -23.7142  -30.6027   19.4174 H   0  0  0  0  0  0
  -22.7259  -29.2505   19.8775 H   0  0  0  0  0  0
  -25.1303  -36.1987   25.0802 H   0  0  0  0  0  0
  -20.9996  -28.3147   24.1509 H   0  0  0  0  0  0
  -20.5327  -26.2230   23.3578 H   0  0  0  0  0  0
  -21.6694  -26.7192   22.1485 H   0  0  0  0  0  0
  -19.6903  -27.3530   20.6707 H   0  0  0  0  0  0
  -19.7006  -25.6564   21.0881 H   0  0  0  0  0  0
  -17.4197  -26.6813   21.3824 H   0  0  0  0  0  0
  -18.0389  -26.0090   22.8731 H   0  0  0  0  0  0
  -19.8014  -30.7010   24.2675 H   0  0  0  0  0  0
  -17.5084  -31.6027   24.5608 H   0  0  0  0  0  0
  -15.5429  -30.2965   23.7670 H   0  0  0  0  0  0
  -15.8685  -28.0995   22.6755 H   0  0  0  0  0  0
  -24.5810  -30.7246   25.7847 H   0  0  0  0  0  0
  -24.8994  -32.2969   26.5018 H   0  0  0  0  0  0
  -25.8024  -30.8897   27.0243 H   0  0  0  0  0  0
  -26.2942  -29.6813   24.1240 H   0  0  0  0  0  0
  -27.3977  -29.7347   25.4816 H   0  0  0  0  0  0
  -27.8832  -30.4364   23.9542 H   0  0  0  0  0  0
  -27.2611  -33.3640   26.2205 H   0  0  0  0  0  0
  -28.3804  -32.7059   25.0369 H   0  0  0  0  0  0
  -28.0745  -31.8487   26.5411 H   0  0  0  0  0  0
  -28.2638  -38.0089   24.7510 H   0  0  0  0  0  0
  -28.1062  -36.2630   24.6310 H   0  0  0  0  0  0
  -27.2297  -37.1494   25.8870 H   0  0  0  0  0  0
  -20.9232  -29.8759   21.7044 H   0  0  0  0  0  0
  -26.0216  -38.2878   24.1382 H   0  0  0  0  0  0
  -29.0992  -20.3114   18.1167 H   0  0  0  0  0  0
  -30.2507  -18.5309   16.9253 H   0  0  0  0  0  0
  -28.8203  -17.7647   21.5943 H   0  0  0  0  0  0
  -31.0131  -15.0953   17.9584 H   0  0  0  0  0  0
  -31.8841  -16.4769   17.3314 H   0  0  0  0  0  0
  -30.3243  -16.0395   16.6834 H   0  0  0  0  0  0
  -30.3199  -24.2973   22.5771 H   0  0  0  0  0  0
  -30.4789  -25.6841   21.5119 H   0  0  0  0  0  0
  -30.8392  -24.0868   20.9045 H   0  0  0  0  0  0
  -26.7186  -20.6267   19.0600 H   0  0  0  0  0  0
  -26.0680  -21.1560   20.6064 H   0  0  0  0  0  0
  -26.2221  -19.4492   20.2561 H   0  0  0  0  0  0
  -29.0142  -20.0555   22.7076 H   0  0  0  0  0  0
  -27.4848  -19.2150   22.4646 H   0  0  0  0  0  0
  -27.4852  -20.9128   22.7684 H   0  0  0  0  0  0
  -28.0331  -22.8305   22.2769 H   0  0  0  0  0  0
  -27.0600  -23.0982   20.8640 H   0  0  0  0  0  0
  -27.5570  -24.8509   19.3028 H   0  0  0  0  0  0
  -29.2442  -25.0444   19.0894 H   0  0  0  0  0  0
  -28.1157  -25.0608   21.8590 H   0  0  0  0  0  0
  -28.9910  -15.3864   21.1066 H   0  0  0  0  0  0
  1 25  1  0  0  0
  1 30  2  0  0  0
  1 86  1  0  0  0
  2  3  1  0  0  0
  2 25  1  0  0  0
  2 88  1  0  0  0
  2 89  1  0  0  0
  3  4  1  0  0  0
  3 90  1  0  0  0
  3 91  1  0  0  0
  4  5  1  0  0  0
  4 92  1  0  0  0
  4 93  1  0  0  0
  5  6  1  0  0  0
  5 26  1  0  0  0
  5 94  1  0  0  0
  6 25  1  0  0  0
  6 95  1  0  0  0
  6 96  1  0  0  0
  7  8  2  0  0  0
  7 26  1  0  0  0
  7 29  1  0  0  0
  8  9  1  0  0  0
  8 22  1  0  0  0
  9 10  1  0  0  0
  9 27  2  0  0  0
 10 11  2  0  0  0
 10 15  1  0  0  0
 11 12  1  0  0  0
 11 97  1  0  0  0
 12 13  2  0  0  0
 12 98  1  0  0  0
 13 14  1  0  0  0
 13 31  1  0  0  0
 14 15  2  0  0  0
 14 99  1  0  0  0
 15100  1  0  0  0
 16 17  2  0  0  0
 16 21  1  0  0  0
 16 31  1  0  0  0
 17 18  1  0  0  0
 17101  1  0  0  0
 18 19  2  0  0  0
 18102  1  0  0  0
 19 20  1  0  0  0
 19 24  1  0  0  0
 20 21  2  0  0  0
 20103  1  0  0  0
 21 23  1  0  0  0
 22 28  1  0  0  0
 22 32  2  0  0  0
 26 27  1  0  0  0
 28104  1  0  0  0
 28105  1  0  0  0
 29106  1  0  0  0
 29107  1  0  0  0
 33 34  1  0  0  0
 33 66  1  0  0  0
 33 70  2  0  0  0
 34 36  1  0  0  0
 34 59  1  0  0  0
 34108  1  0  0  0
 35 44  2  0  0  0
 35 45  1  0  0  0
 35 68  1  0  0  0
 36 56  1  0  0  0
 36109  1  0  0  0
 37 39  1  0  0  0
 37 47  1  0  0  0
 37 66  1  0  0  0
 37110  1  0  0  0
 38 43  2  0  0  0
 38 46  1  0  0  0
 38 47  1  0  0  0
 39 64  1  0  0  0
 39 67  2  0  0  0
 40 52  1  0  0  0
 40 53  2  0  0  0
 40 58  1  0  0  0
 41111  1  0  0  0
 41112  1  0  0  0
 41113  1  0  0  0
 41 48  1  0  0  0
 42 43  1  0  0  0
 42 66  1  0  0  0
 42114  1  0  0  0
 42115  1  0  0  0
 43 44  1  0  0  0
 44116  1  0  0  0
 45 46  2  0  0  0
 45117  1  0  0  0
 46118  1  0  0  0
 47119  1  0  0  0
 47120  1  0  0  0
 48 56  1  0  0  0
 48 65  1  0  0  0
 48121  1  0  0  0
 49 50  1  0  0  0
 49 53  1  0  0  0
 49 64  1  0  0  0
 49122  1  0  0  0
 50 51  1  0  0  0
 50123  1  0  0  0
 50124  1  0  0  0
 51 52  1  0  0  0
 51125  1  0  0  0
 51126  1  0  0  0
 52127  1  0  0  0
 52128  1  0  0  0
 53 54  1  0  0  0
 54 55  2  0  0  0
 54129  1  0  0  0
 55 57  1  0  0  0
 55130  1  0  0  0
 56 69  2  0  0  0
 57 58  2  0  0  0
 57131  1  0  0  0
 58132  1  0  0  0
 59 60  1  0  0  0
 59 61  1  0  0  0
 59 62  1  0  0  0
 60133  1  0  0  0
 60134  1  0  0  0
 60135  1  0  0  0
 61136  1  0  0  0
 61137  1  0  0  0
 61138  1  0  0  0
 62139  1  0  0  0
 62140  1  0  0  0
 62141  1  0  0  0
 63 65  1  0  0  0
 63142  1  0  0  0
 63143  1  0  0  0
 63144  1  0  0  0
 64145  1  0  0  0
 65146  1  0  0  0
 68 83  1  0  0  0
 71 72  2  0  0  0
 71 74  1  0  0  0
 71147  1  0  0  0
 72 75  1  0  0  0
 72148  1  0  0  0
 73 74  2  0  0  0
 73 76  1  0  0  0
 73149  1  0  0  0
 74 85  1  0  0  0
 75 76  2  0  0  0
 75 78  1  0  0  0
 76 86  1  0  0  0
 77 82  1  0  0  0
 77 85  1  0  0  0
 77 87  2  0  0  0
 78150  1  0  0  0
 78151  1  0  0  0
 78152  1  0  0  0
 79153  1  0  0  0
 79154  1  0  0  0
 79155  1  0  0  0
 79 84  1  0  0  0
 80156  1  0  0  0
 80157  1  0  0  0
 80158  1  0  0  0
 80 85  1  0  0  0
 81 85  1  0  0  0
 81159  1  0  0  0
 81160  1  0  0  0
 81161  1  0  0  0
 82 84  1  0  0  0
 82162  1  0  0  0
 82163  1  0  0  0
 83 84  1  0  0  0
 83164  1  0  0  0
 83165  1  0  0  0
 84166  1  0  0  0
 86167  1  0  0  0
M  ISO  4   1 100  68 101  83 101  86 100
M  END
> <chiral flag>
0

> <version>
0

> <s_m_source_file>
/data/baiqing/PycharmProjects/Reinvent-master-3.2/result/LINK_invent/BTK/process_docking_weight1_custom_product_contain_oxygen_bond_distance_aromatic_linkinvent_7_9_3/rearranged_h_0140.sdf

> <i_m_source_file_index>
36

> <r_mmod_Potential_Energy-OPLS-2005>
68.6783294677734

> <r_mmod_Stretch_Energy-OPLS-2005>
60.3863983154297

> <r_mmod_Bend_Energy-OPLS-2005>
150.586822509766

> <r_mmod_Torsional_Energy-OPLS-2005>
240.668685913086

> <r_mmod_Improper_Torsional_Energy-OPLS-2005>
6.82953643798828

> <r_mmod_Van_der_Waal_Energy-OPLS-2005>
167.103393554688

> <r_mmod_Electrostatic_Energy-OPLS-2005>
-370.133239746094

> <r_mmod_Solvation_Energy-OPLS-2005>
-212.208953857422

> <b_mmod_Minimization_Converged-OPLS-2005>
0

> <r_mmod_RMS_Derivative-OPLS-2005>
4.85851383209229

$$$$
36
                    3D
 Structure written by MMmdl.
163171  0  0  1  0            999 V2000
  -30.7003  -14.5210   20.5779 C   0  0  0  0  0  0
  -30.4314  -12.3401   19.4390 C   0  0  0  0  0  0
  -29.5012  -12.5076   18.2196 C   0  0  0  0  0  0
  -28.0238  -12.3652   18.6299 C   0  0  0  0  0  0
  -27.6628  -13.2122   19.8794 C   0  0  2  0  0  0
  -28.7073  -13.0221   21.0051 C   0  0  0  0  0  0
  -25.2584  -13.8177   20.5680 C   0  0  0  0  0  0
  -24.1847  -13.0431   20.9166 C   0  0  0  0  0  0
  -24.6409  -11.6899   20.8738 C   0  0  0  0  0  0
  -23.9074  -10.4277   21.0403 C   0  0  0  0  0  0
  -24.3617   -9.4210   21.9192 C   0  0  0  0  0  0
  -23.6283   -8.2255   22.0766 C   0  0  0  0  0  0
  -22.4272   -8.0280   21.3548 C   0  0  0  0  0  0
  -21.9906   -9.0260   20.4666 C   0  0  0  0  0  0
  -22.7239  -10.2131   20.3071 C   0  0  0  0  0  0
  -21.6858   -6.0739   22.5285 C   0  0  0  0  0  0
  -21.4005   -6.5641   23.8214 C   0  0  0  0  0  0
  -21.3657   -5.6800   24.9180 C   0  0  0  0  0  0
  -21.6040   -4.3062   24.7234 C   0  0  0  0  0  0
  -21.8814   -3.8151   23.4359 C   0  0  0  0  0  0
  -21.9184   -4.6965   22.3411 C   0  0  0  0  0  0
  -22.7864  -13.5223   21.1843 C   0  0  0  0  0  0
  -22.1663   -4.2150   21.0992 F   0  0  0  0  0  0
  -21.5615   -3.4545   25.7745 F   0  0  0  0  0  0
  -30.0383  -13.3325   20.4541 N   0  0  0  0  0  0
  -26.3039  -12.9356   20.3400 N   0  0  0  0  0  0
  -25.9345  -11.6506   20.5791 N   0  0  0  0  0  0
  -22.0536  -12.8211   22.0433 N   0  0  0  0  0  0
  -25.4231  -15.1900   20.4043 N   0  0  0  0  0  0
  -31.8125  -14.7161   20.0816 O   0  0  0  0  0  0
  -21.6641   -6.8878   21.4243 O   0  0  0  0  0  0
  -22.3539  -14.5534   20.6712 O   0  0  0  0  0  0
  -24.6171  -31.8652   23.2048 C   0  0  0  0  0  0
  -25.9057  -32.4810   23.8366 C   0  0  1  0  0  0
  -27.2490  -27.4134   20.1102 C   0  0  0  0  0  0
  -25.5909  -33.8609   24.2313 N   0  0  0  0  0  0
  -23.4054  -30.4852   21.5476 C   0  0  2  0  0  0
  -24.8539  -28.9408   20.1178 C   0  0  0  0  0  0
  -22.7431  -29.4659   22.5006 C   0  0  0  0  0  0
  -18.0325  -28.1350   22.8482 C   0  0  0  0  0  0
  -24.1491  -36.7295   23.2638 C   0  0  0  0  0  0
  -25.9351  -30.8274   21.3566 C   0  0  0  0  0  0
  -26.0128  -29.4595   20.7054 C   0  0  0  0  0  0
  -27.2101  -28.7070   20.6890 C   0  0  0  0  0  0
  -26.0623  -26.9070   19.5268 C   0  0  0  0  0  0
  -24.8740  -27.6653   19.5242 C   0  0  0  0  0  0
  -23.6134  -29.8055   20.1662 C   0  0  0  0  0  0
  -25.4114  -36.3095   24.0334 C   0  0  1  0  0  0
  -20.5898  -28.3662   23.1339 C   0  0  2  0  0  0
  -20.6836  -26.9399   22.5433 C   0  0  0  0  0  0
  -19.5839  -26.6340   21.5213 C   0  0  0  0  0  0
  -18.2020  -26.7880   22.1622 C   0  0  0  0  0  0
  -19.1545  -28.8837   23.2885 C   0  0  0  0  0  0
  -18.9444  -30.1468   23.8877 C   0  0  0  0  0  0
  -17.6431  -30.6570   24.0518 C   0  0  0  0  0  0
  -25.9059  -34.9476   23.5129 C   0  0  0  0  0  0
  -16.5349  -29.9044   23.6291 C   0  0  0  0  0  0
  -16.7303  -28.6442   23.0338 C   0  0  0  0  0  0
  -26.4482  -31.6604   25.0712 C   0  0  0  0  0  0
  -25.3744  -31.3697   26.1455 C   0  0  0  0  0  0
  -27.0304  -30.3041   24.6113 C   0  0  0  0  0  0
  -27.6083  -32.4310   25.7461 C   0  0  0  0  0  0
  -27.5586  -37.1787   24.8475 C   0  0  0  0  0  0
  -21.4181  -29.3005   22.3724 N   0  0  0  0  0  0
  -26.4304  -37.3778   23.9410 N   0  0  0  0  0  0
  -24.6707  -31.0738   22.0949 N   0  0  0  0  0  0
  -23.4183  -28.8242   23.3106 O   0  0  0  0  0  0
  -28.4527  -26.7239   20.1326 O   0  0  0  0  0  0
  -26.5632  -34.8930   22.4698 O   0  0  0  0  0  0
  -23.5367  -32.1429   23.7447 O   0  0  0  0  0  0
  -30.7477  -19.1086   22.0470 C   0  0  0  0  0  0
  -30.7412  -17.6932   22.1003 C   0  0  0  0  0  0
  -29.6059  -19.0430   19.9192 C   0  0  0  0  0  0
  -29.6133  -17.6240   19.9515 C   0  0  0  0  0  0
  -30.1580  -19.8132   20.9709 C   0  0  0  0  0  0
  -30.1702  -16.9278   21.0581 C   0  0  0  0  0  0
  -28.4540  -24.4251   21.1008 C   0  0  0  0  0  0
  -28.9896  -16.8795   18.7858 C   0  0  0  0  0  0
  -26.8164  -22.7622   20.1792 C   0  0  0  0  0  0
  -27.9072  -22.2635   22.3602 C   0  0  0  0  0  0
  -28.5262  -25.3116   19.8305 C   0  0  0  0  0  0
  -29.2506  -22.0825   20.1808 C   0  0  0  0  0  0
  -28.1447  -22.8927   20.9608 C   0  0  0  0  0  0
  -30.0251  -15.5048   21.2122 N   0  0  0  0  0  0
  -30.1534  -21.2317   20.9906 N   0  0  0  0  0  0
  -28.6254  -24.9359   22.2153 O   0  0  0  0  0  0
  -31.4769  -12.4393   19.1395 H   0  0  0  0  0  0
  -30.3337  -11.3351   19.8507 H   0  0  0  0  0  0
  -29.7507  -11.7654   17.4607 H   0  0  0  0  0  0
  -29.6579  -13.4851   17.7595 H   0  0  0  0  0  0
  -27.8340  -11.3091   18.8254 H   0  0  0  0  0  0
  -27.3754  -12.6352   17.7942 H   0  0  0  0  0  0
  -27.6913  -14.2545   19.5680 H   0  0  0  0  0  0
  -28.7001  -11.9921   21.3636 H   0  0  0  0  0  0
  -28.4598  -13.6319   21.8750 H   0  0  0  0  0  0
  -25.2778   -9.5669   22.4743 H   0  0  0  0  0  0
  -23.9993   -7.4652   22.7490 H   0  0  0  0  0  0
  -21.0837   -8.8783   19.8983 H   0  0  0  0  0  0
  -22.3717  -10.9658   19.6171 H   0  0  0  0  0  0
  -21.2004   -7.6150   23.9710 H   0  0  0  0  0  0
  -21.1486   -6.0544   25.9084 H   0  0  0  0  0  0
  -22.0593   -2.7612   23.2864 H   0  0  0  0  0  0
  -22.4140  -11.9837   22.4755 H   0  0  0  0  0  0
  -21.1167  -13.1231   22.2694 H   0  0  0  0  0  0
  -24.6490  -15.8363   20.5118 H   0  0  0  0  0  0
  -26.2722  -15.6411   20.0896 H   0  0  0  0  0  0
  -26.7144  -32.5520   23.1136 H   0  0  0  0  0  0
  -25.0010  -33.9778   25.0424 H   0  0  0  0  0  0
  -22.6924  -31.2995   21.4023 H   0  0  0  0  0  0
  -23.3759  -35.9624   23.3325 H   0  0  0  0  0  0
  -24.3576  -36.8881   22.2046 H   0  0  0  0  0  0
  -23.7241  -37.6509   23.6634 H   0  0  0  0  0  0
  -26.0564  -31.5903   20.5870 H   0  0  0  0  0  0
  -26.8202  -30.8779   21.9787 H   0  0  0  0  0  0
  -28.1078  -29.1139   21.1318 H   0  0  0  0  0  0
  -26.0227  -25.9301   19.0734 H   0  0  0  0  0  0
  -23.9804  -27.2555   19.0753 H   0  0  0  0  0  0
  -23.7116  -30.5748   19.4000 H   0  0  0  0  0  0
  -22.7381  -29.2199   19.8803 H   0  0  0  0  0  0
  -25.1282  -36.1956   25.0824 H   0  0  0  0  0  0
  -20.9951  -28.3238   24.1477 H   0  0  0  0  0  0
  -20.5769  -26.2262   23.3621 H   0  0  0  0  0  0
  -21.6737  -26.7486   22.1262 H   0  0  0  0  0  0
  -19.6967  -25.6213   21.1345 H   0  0  0  0  0  0
  -19.6811  -27.3056   20.6655 H   0  0  0  0  0  0
  -17.4298  -26.6566   21.4041 H   0  0  0  0  0  0
  -18.0453  -26.0013   22.9013 H   0  0  0  0  0  0
  -19.7902  -30.7326   24.2197 H   0  0  0  0  0  0
  -17.4960  -31.6267   24.5061 H   0  0  0  0  0  0
  -15.5338  -30.2935   23.7560 H   0  0  0  0  0  0
  -15.8717  -28.0750   22.7050 H   0  0  0  0  0  0
  -24.5927  -30.7035   25.7772 H   0  0  0  0  0  0
  -24.8913  -32.2838   26.4922 H   0  0  0  0  0  0
  -25.8090  -30.8842   27.0205 H   0  0  0  0  0  0
  -26.2835  -29.6793   24.1184 H   0  0  0  0  0  0
  -27.4076  -29.7292   25.4584 H   0  0  0  0  0  0
  -27.8686  -30.4354   23.9263 H   0  0  0  0  0  0
  -27.2741  -33.3600   26.2103 H   0  0  0  0  0  0
  -28.3860  -32.6883   25.0256 H   0  0  0  0  0  0
  -28.0810  -31.8389   26.5315 H   0  0  0  0  0  0
  -28.2624  -38.0063   24.7499 H   0  0  0  0  0  0
  -28.1057  -36.2592   24.6323 H   0  0  0  0  0  0
  -27.2308  -37.1470   25.8882 H   0  0  0  0  0  0
  -20.9400  -29.8557   21.6770 H   0  0  0  0  0  0
  -26.0200  -38.2873   24.1356 H   0  0  0  0  0  0
  -31.1927  -19.6492   22.8710 H   0  0  0  0  0  0
  -31.1616  -17.2008   22.9660 H   0  0  0  0  0  0
  -29.1625  -19.5278   19.0651 H   0  0  0  0  0  0
  -28.0473  -16.4274   19.0860 H   0  0  0  0  0  0
  -29.6627  -16.1021   18.4264 H   0  0  0  0  0  0
  -28.7906  -17.5489   17.9485 H   0  0  0  0  0  0
  -26.0393  -23.4182   20.5763 H   0  0  0  0  0  0
  -26.4334  -21.7426   20.2188 H   0  0  0  0  0  0
  -26.9395  -23.0025   19.1236 H   0  0  0  0  0  0
  -27.0332  -22.6915   22.8526 H   0  0  0  0  0  0
  -28.7613  -22.4165   23.0231 H   0  0  0  0  0  0
  -27.7430  -21.1864   22.2902 H   0  0  0  0  0  0
  -27.8103  -25.0055   19.0742 H   0  0  0  0  0  0
  -29.5047  -25.1317   19.3865 H   0  0  0  0  0  0
  -29.8726  -22.7755   19.6119 H   0  0  0  0  0  0
  -28.7580  -21.4854   19.4180 H   0  0  0  0  0  0
  -29.1803  -15.2025   21.6721 H   0  0  0  0  0  0
  -30.6520  -21.6966   21.7439 H   0  0  0  0  0  0
  1 25  1  0  0  0
  1 30  2  0  0  0
  1 84  1  0  0  0
  2  3  1  0  0  0
  2 25  1  0  0  0
  2 87  1  0  0  0
  2 88  1  0  0  0
  3  4  1  0  0  0
  3 89  1  0  0  0
  3 90  1  0  0  0
  4  5  1  0  0  0
  4 91  1  0  0  0
  4 92  1  0  0  0
  5  6  1  0  0  0
  5 26  1  0  0  0
  5 93  1  0  0  0
  6 25  1  0  0  0
  6 94  1  0  0  0
  6 95  1  0  0  0
  7  8  2  0  0  0
  7 26  1  0  0  0
  7 29  1  0  0  0
  8  9  1  0  0  0
  8 22  1  0  0  0
  9 10  1  0  0  0
  9 27  2  0  0  0
 10 11  2  0  0  0
 10 15  1  0  0  0
 11 12  1  0  0  0
 11 96  1  0  0  0
 12 13  2  0  0  0
 12 97  1  0  0  0
 13 14  1  0  0  0
 13 31  1  0  0  0
 14 15  2  0  0  0
 14 98  1  0  0  0
 15 99  1  0  0  0
 16 17  2  0  0  0
 16 21  1  0  0  0
 16 31  1  0  0  0
 17 18  1  0  0  0
 17100  1  0  0  0
 18 19  2  0  0  0
 18101  1  0  0  0
 19 20  1  0  0  0
 19 24  1  0  0  0
 20 21  2  0  0  0
 20102  1  0  0  0
 21 23  1  0  0  0
 22 28  1  0  0  0
 22 32  2  0  0  0
 26 27  1  0  0  0
 28103  1  0  0  0
 28104  1  0  0  0
 29105  1  0  0  0
 29106  1  0  0  0
 33 34  1  0  0  0
 33 66  1  0  0  0
 33 70  2  0  0  0
 34 36  1  0  0  0
 34 59  1  0  0  0
 34107  1  0  0  0
 35 44  2  0  0  0
 35 45  1  0  0  0
 35 68  1  0  0  0
 36 56  1  0  0  0
 36108  1  0  0  0
 37 39  1  0  0  0
 37 47  1  0  0  0
 37 66  1  0  0  0
 37109  1  0  0  0
 38 43  2  0  0  0
 38 46  1  0  0  0
 38 47  1  0  0  0
 39 64  1  0  0  0
 39 67  2  0  0  0
 40 52  1  0  0  0
 40 53  2  0  0  0
 40 58  1  0  0  0
 41110  1  0  0  0
 41111  1  0  0  0
 41112  1  0  0  0
 41 48  1  0  0  0
 42 43  1  0  0  0
 42 66  1  0  0  0
 42113  1  0  0  0
 42114  1  0  0  0
 43 44  1  0  0  0
 44115  1  0  0  0
 45 46  2  0  0  0
 45116  1  0  0  0
 46117  1  0  0  0
 47118  1  0  0  0
 47119  1  0  0  0
 48 56  1  0  0  0
 48 65  1  0  0  0
 48120  1  0  0  0
 49 50  1  0  0  0
 49 53  1  0  0  0
 49 64  1  0  0  0
 49121  1  0  0  0
 50 51  1  0  0  0
 50122  1  0  0  0
 50123  1  0  0  0
 51 52  1  0  0  0
 51124  1  0  0  0
 51125  1  0  0  0
 52126  1  0  0  0
 52127  1  0  0  0
 53 54  1  0  0  0
 54 55  2  0  0  0
 54128  1  0  0  0
 55 57  1  0  0  0
 55129  1  0  0  0
 56 69  2  0  0  0
 57 58  2  0  0  0
 57130  1  0  0  0
 58131  1  0  0  0
 59 60  1  0  0  0
 59 61  1  0  0  0
 59 62  1  0  0  0
 60132  1  0  0  0
 60133  1  0  0  0
 60134  1  0  0  0
 61135  1  0  0  0
 61136  1  0  0  0
 61137  1  0  0  0
 62138  1  0  0  0
 62139  1  0  0  0
 62140  1  0  0  0
 63 65  1  0  0  0
 63141  1  0  0  0
 63142  1  0  0  0
 63143  1  0  0  0
 64144  1  0  0  0
 65145  1  0  0  0
 68 81  1  0  0  0
 71 72  2  0  0  0
 71 75  1  0  0  0
 71146  1  0  0  0
 72 76  1  0  0  0
 72147  1  0  0  0
 73 74  1  0  0  0
 73 75  2  0  0  0
 73148  1  0  0  0
 74 76  2  0  0  0
 74 78  1  0  0  0
 75 85  1  0  0  0
 76 84  1  0  0  0
 77 81  1  0  0  0
 77 83  1  0  0  0
 77 86  2  0  0  0
 78149  1  0  0  0
 78150  1  0  0  0
 78151  1  0  0  0
 79152  1  0  0  0
 79153  1  0  0  0
 79154  1  0  0  0
 79 83  1  0  0  0
 80 83  1  0  0  0
 80155  1  0  0  0
 80156  1  0  0  0
 80157  1  0  0  0
 81158  1  0  0  0
 81159  1  0  0  0
 82 83  1  0  0  0
 82 85  1  0  0  0
 82160  1  0  0  0
 82161  1  0  0  0
 84162  1  0  0  0
 85163  1  0  0  0
M  ISO  4   1 100  68 101  81 101  84 100
M  END
> <chiral flag>
0

> <version>
0

> <s_m_source_file>
/data/baiqing/PycharmProjects/Reinvent-master-3.2/result/LINK_invent/BTK/process_docking_weight1_custom_product_contain_oxygen_bond_distance_aromatic_linkinvent_7_9_3/rearranged_h_0140.sdf

> <i_m_source_file_index>
37

> <r_mmod_Potential_Energy-OPLS-2005>
10.4961833953857

> <r_mmod_Stretch_Energy-OPLS-2005>
50.7685852050781

> <r_mmod_Bend_Energy-OPLS-2005>
130.144622802734

> <r_mmod_Torsional_Energy-OPLS-2005>
246.519058227539

> <r_mmod_Improper_Torsional_Energy-OPLS-2005>
4.0739951133728

> <r_mmod_Van_der_Waal_Energy-OPLS-2005>
154.532165527344

> <r_mmod_Electrostatic_Energy-OPLS-2005>
-357.777374267578

> <r_mmod_Solvation_Energy-OPLS-2005>
-235.272705078125

> <b_mmod_Minimization_Converged-OPLS-2005>
0

> <r_mmod_RMS_Derivative-OPLS-2005>
3.75279760360718

$$$$
37
                    3D
 Structure written by MMmdl.
161170  0  0  1  0            999 V2000
  -30.6504  -14.5784   20.5289 C   0  0  0  0  0  0
  -30.4306  -12.3652   19.4322 C   0  0  0  0  0  0
  -29.4976  -12.5149   18.2106 C   0  0  0  0  0  0
  -28.0175  -12.3688   18.6230 C   0  0  0  0  0  0
  -27.6560  -13.2105   19.8774 C   0  0  2  0  0  0
  -28.7056  -12.9955   20.9904 C   0  0  0  0  0  0
  -25.2565  -13.8168   20.5705 C   0  0  0  0  0  0
  -24.1820  -13.0438   20.9183 C   0  0  0  0  0  0
  -24.6385  -11.6906   20.8743 C   0  0  0  0  0  0
  -23.9056  -10.4292   21.0407 C   0  0  0  0  0  0
  -24.3611   -9.4208   21.9183 C   0  0  0  0  0  0
  -23.6286   -8.2246   22.0756 C   0  0  0  0  0  0
  -22.4270   -8.0284   21.3546 C   0  0  0  0  0  0
  -21.9903   -9.0254   20.4646 C   0  0  0  0  0  0
  -22.7232  -10.2131   20.3055 C   0  0  0  0  0  0
  -21.6852   -6.0733   22.5275 C   0  0  0  0  0  0
  -21.4016   -6.5636   23.8209 C   0  0  0  0  0  0
  -21.3659   -5.6791   24.9172 C   0  0  0  0  0  0
  -21.6043   -4.3054   24.7225 C   0  0  0  0  0  0
  -21.8819   -3.8145   23.4346 C   0  0  0  0  0  0
  -21.9194   -4.6961   22.3401 C   0  0  0  0  0  0
  -22.7841  -13.5231   21.1838 C   0  0  0  0  0  0
  -22.1662   -4.2145   21.0979 F   0  0  0  0  0  0
  -21.5627   -3.4539   25.7740 F   0  0  0  0  0  0
  -30.0100  -13.3703   20.4291 N   0  0  0  0  0  0
  -26.3000  -12.9337   20.3403 N   0  0  0  0  0  0
  -25.9316  -11.6494   20.5794 N   0  0  0  0  0  0
  -22.0484  -12.8222   22.0396 N   0  0  0  0  0  0
  -25.4279  -15.1889   20.4115 N   0  0  0  0  0  0
  -31.8161  -14.6970   20.1319 O   0  0  0  0  0  0
  -21.6637   -6.8880   21.4239 O   0  0  0  0  0  0
  -22.3525  -14.5536   20.6688 O   0  0  0  0  0  0
  -24.6199  -31.8624   23.2036 C   0  0  0  0  0  0
  -25.9071  -32.4789   23.8351 C   0  0  1  0  0  0
  -27.2364  -27.3746   20.0966 C   0  0  0  0  0  0
  -25.5907  -33.8588   24.2287 N   0  0  0  0  0  0
  -23.4096  -30.4846   21.5459 C   0  0  2  0  0  0
  -24.8536  -28.9381   20.1139 C   0  0  0  0  0  0
  -22.7433  -29.4634   22.4969 C   0  0  0  0  0  0
  -18.0276  -28.1378   22.8492 C   0  0  0  0  0  0
  -24.1488  -36.7299   23.2641 C   0  0  0  0  0  0
  -25.9429  -30.8105   21.3621 C   0  0  0  0  0  0
  -26.0167  -29.4404   20.7067 C   0  0  0  0  0  0
  -27.2053  -28.6678   20.6885 C   0  0  0  0  0  0
  -26.0410  -26.8889   19.5218 C   0  0  0  0  0  0
  -24.8638  -27.6644   19.5188 C   0  0  0  0  0  0
  -23.6190  -29.8127   20.1620 C   0  0  0  0  0  0
  -25.4113  -36.3091   24.0333 C   0  0  1  0  0  0
  -20.5870  -28.3669   23.1309 C   0  0  2  0  0  0
  -20.6766  -26.9402   22.5417 C   0  0  0  0  0  0
  -19.5745  -26.6383   21.5214 C   0  0  0  0  0  0
  -18.1923  -26.7924   22.1625 C   0  0  0  0  0  0
  -19.1527  -28.8841   23.2896 C   0  0  0  0  0  0
  -18.9453  -30.1449   23.8905 C   0  0  0  0  0  0
  -17.6455  -30.6585   24.0564 C   0  0  0  0  0  0
  -25.9044  -34.9459   23.5111 C   0  0  0  0  0  0
  -16.5346  -29.9084   23.6328 C   0  0  0  0  0  0
  -16.7266  -28.6501   23.0348 C   0  0  0  0  0  0
  -26.4481  -31.6587   25.0705 C   0  0  0  0  0  0
  -25.3734  -31.3709   26.1445 C   0  0  0  0  0  0
  -27.0320  -30.3025   24.6114 C   0  0  0  0  0  0
  -27.6043  -32.4316   25.7477 C   0  0  0  0  0  0
  -27.5580  -37.1806   24.8464 C   0  0  0  0  0  0
  -21.4155  -29.3028   22.3711 N   0  0  0  0  0  0
  -26.4293  -37.3782   23.9410 N   0  0  0  0  0  0
  -24.6762  -31.0683   22.0952 N   0  0  0  0  0  0
  -23.4185  -28.8182   23.3033 O   0  0  0  0  0  0
  -28.4332  -26.6632   20.1358 O   0  0  0  0  0  0
  -26.5612  -34.8923   22.4677 O   0  0  0  0  0  0
  -23.5382  -32.1396   23.7410 O   0  0  0  0  0  0
  -28.1484  -18.3715   22.6799 C   0  0  0  0  0  0
  -28.0264  -19.7517   22.3984 C   0  0  0  0  0  0
  -29.3111  -19.4863   20.3340 C   0  0  0  0  0  0
  -28.8562  -17.5611   21.7789 C   0  0  0  0  0  0
  -29.4323  -18.0963   20.6442 C   0  0  0  0  0  0
  -28.5840  -20.3377   21.2305 C   0  0  0  0  0  0
  -28.4982  -22.6419   20.0757 C   0  0  0  0  0  0
  -29.0719  -16.0646   21.8503 C   0  0  0  0  0  0
  -30.1358  -16.9685   19.8980 C   0  0  0  0  0  0
  -28.4828  -25.3365   18.0487 C   0  0  0  0  0  0
  -30.2288  -25.2782   19.8221 C   0  0  0  0  0  0
  -28.0223  -24.1213   20.3384 C   0  0  0  0  0  0
  -28.7061  -25.3354   19.5792 C   0  0  0  0  0  0
  -29.8676  -15.7021   20.6537 N   0  0  0  0  0  0
  -28.3599  -21.7630   21.1004 N   0  0  0  0  0  0
  -28.9490  -22.3077   18.9785 O   0  0  0  0  0  0
  -31.4714  -12.4830   19.1262 H   0  0  0  0  0  0
  -30.3607  -11.3589   19.8480 H   0  0  0  0  0  0
  -29.7485  -11.7763   17.4484 H   0  0  0  0  0  0
  -29.6527  -13.4922   17.7507 H   0  0  0  0  0  0
  -27.8346  -11.3128   18.8241 H   0  0  0  0  0  0
  -27.3657  -12.6357   17.7903 H   0  0  0  0  0  0
  -27.6907  -14.2571   19.5752 H   0  0  0  0  0  0
  -28.7183  -11.9461   21.2885 H   0  0  0  0  0  0
  -28.4706  -13.5278   21.9075 H   0  0  0  0  0  0
  -25.2759   -9.5684   22.4751 H   0  0  0  0  0  0
  -23.9992   -7.4638   22.7474 H   0  0  0  0  0  0
  -21.0835   -8.8777   19.8946 H   0  0  0  0  0  0
  -22.3698  -10.9669   19.6162 H   0  0  0  0  0  0
  -21.2012   -7.6144   23.9714 H   0  0  0  0  0  0
  -21.1476   -6.0520   25.9073 H   0  0  0  0  0  0
  -22.0599   -2.7607   23.2848 H   0  0  0  0  0  0
  -22.4103  -11.9878   22.4769 H   0  0  0  0  0  0
  -21.1108  -13.1248   22.2617 H   0  0  0  0  0  0
  -24.6628  -15.8453   20.5235 H   0  0  0  0  0  0
  -26.2850  -15.6309   20.1043 H   0  0  0  0  0  0
  -26.7138  -32.5478   23.1103 H   0  0  0  0  0  0
  -25.0059  -33.9736   25.0434 H   0  0  0  0  0  0
  -22.7010  -31.3031   21.4035 H   0  0  0  0  0  0
  -23.3750  -35.9631   23.3303 H   0  0  0  0  0  0
  -24.3579  -36.8918   22.2055 H   0  0  0  0  0  0
  -23.7237  -37.6502   23.6658 H   0  0  0  0  0  0
  -26.0637  -31.5760   20.5942 H   0  0  0  0  0  0
  -26.8273  -30.8614   21.9855 H   0  0  0  0  0  0
  -28.1057  -29.0568   21.1439 H   0  0  0  0  0  0
  -25.9836  -25.9040   19.0913 H   0  0  0  0  0  0
  -23.9639  -27.2656   19.0712 H   0  0  0  0  0  0
  -23.7315  -30.5853   19.4004 H   0  0  0  0  0  0
  -22.7406  -29.2358   19.8662 H   0  0  0  0  0  0
  -25.1291  -36.1949   25.0826 H   0  0  0  0  0  0
  -20.9963  -28.3234   24.1430 H   0  0  0  0  0  0
  -20.5669  -26.2274   23.3607 H   0  0  0  0  0  0
  -21.6636  -26.7436   22.1212 H   0  0  0  0  0  0
  -19.6906  -25.6296   21.1236 H   0  0  0  0  0  0
  -19.6685  -27.3201   20.6752 H   0  0  0  0  0  0
  -17.4194  -26.6676   21.4025 H   0  0  0  0  0  0
  -18.0320  -26.0061   22.9017 H   0  0  0  0  0  0
  -19.7930  -30.7263   24.2274 H   0  0  0  0  0  0
  -17.5010  -31.6264   24.5166 H   0  0  0  0  0  0
  -15.5348  -30.2989   23.7644 H   0  0  0  0  0  0
  -15.8667  -28.0826   22.7054 H   0  0  0  0  0  0
  -24.5899  -30.7068   25.7774 H   0  0  0  0  0  0
  -24.8938  -32.2876   26.4891 H   0  0  0  0  0  0
  -25.8074  -30.8870   27.0204 H   0  0  0  0  0  0
  -26.2878  -29.6780   24.1157 H   0  0  0  0  0  0
  -27.4070  -29.7267   25.4586 H   0  0  0  0  0  0
  -27.8719  -30.4333   23.9284 H   0  0  0  0  0  0
  -27.2649  -33.3608   26.2070 H   0  0  0  0  0  0
  -28.3849  -32.6894   25.0305 H   0  0  0  0  0  0
  -28.0717  -31.8434   26.5386 H   0  0  0  0  0  0
  -28.2596  -38.0106   24.7516 H   0  0  0  0  0  0
  -28.1081  -36.2638   24.6284 H   0  0  0  0  0  0
  -27.2301  -37.1447   25.8868 H   0  0  0  0  0  0
  -20.9323  -29.8748   21.6927 H   0  0  0  0  0  0
  -26.0179  -38.2860   24.1407 H   0  0  0  0  0  0
  -27.6988  -17.9490   23.5679 H   0  0  0  0  0  0
  -27.4770  -20.3658   23.0989 H   0  0  0  0  0  0
  -29.7662  -19.8819   19.4370 H   0  0  0  0  0  0
  -28.0874  -15.6000   21.8355 H   0  0  0  0  0  0
  -29.5846  -15.7893   22.7732 H   0  0  0  0  0  0
  -31.2039  -17.1838   19.8385 H   0  0  0  0  0  0
  -29.7478  -16.8868   18.8823 H   0  0  0  0  0  0
  -28.9977  -24.5024   17.5727 H   0  0  0  0  0  0
  -28.8737  -26.2481   17.5958 H   0  0  0  0  0  0
  -27.4394  -25.2488   17.7585 H   0  0  0  0  0  0
  -30.6809  -24.3761   19.4098 H   0  0  0  0  0  0
  -30.4620  -25.3042   20.8870 H   0  0  0  0  0  0
  -30.7364  -26.1255   19.3589 H   0  0  0  0  0  0
  -28.1314  -24.3052   21.4075 H   0  0  0  0  0  0
  -26.9486  -24.1423   20.1563 H   0  0  0  0  0  0
  -27.9559  -22.1874   21.9241 H   0  0  0  0  0  0
  1 25  1  0  0  0
  1 30  2  0  0  0
  1 84  1  0  0  0
  2  3  1  0  0  0
  2 25  1  0  0  0
  2 87  1  0  0  0
  2 88  1  0  0  0
  3  4  1  0  0  0
  3 89  1  0  0  0
  3 90  1  0  0  0
  4  5  1  0  0  0
  4 91  1  0  0  0
  4 92  1  0  0  0
  5  6  1  0  0  0
  5 26  1  0  0  0
  5 93  1  0  0  0
  6 25  1  0  0  0
  6 94  1  0  0  0
  6 95  1  0  0  0
  7  8  2  0  0  0
  7 26  1  0  0  0
  7 29  1  0  0  0
  8  9  1  0  0  0
  8 22  1  0  0  0
  9 10  1  0  0  0
  9 27  2  0  0  0
 10 11  2  0  0  0
 10 15  1  0  0  0
 11 12  1  0  0  0
 11 96  1  0  0  0
 12 13  2  0  0  0
 12 97  1  0  0  0
 13 14  1  0  0  0
 13 31  1  0  0  0
 14 15  2  0  0  0
 14 98  1  0  0  0
 15 99  1  0  0  0
 16 17  2  0  0  0
 16 21  1  0  0  0
 16 31  1  0  0  0
 17 18  1  0  0  0
 17100  1  0  0  0
 18 19  2  0  0  0
 18101  1  0  0  0
 19 20  1  0  0  0
 19 24  1  0  0  0
 20 21  2  0  0  0
 20102  1  0  0  0
 21 23  1  0  0  0
 22 28  1  0  0  0
 22 32  2  0  0  0
 26 27  1  0  0  0
 28103  1  0  0  0
 28104  1  0  0  0
 29105  1  0  0  0
 29106  1  0  0  0
 33 34  1  0  0  0
 33 66  1  0  0  0
 33 70  2  0  0  0
 34 36  1  0  0  0
 34 59  1  0  0  0
 34107  1  0  0  0
 35 44  2  0  0  0
 35 45  1  0  0  0
 35 68  1  0  0  0
 36 56  1  0  0  0
 36108  1  0  0  0
 37 39  1  0  0  0
 37 47  1  0  0  0
 37 66  1  0  0  0
 37109  1  0  0  0
 38 43  2  0  0  0
 38 46  1  0  0  0
 38 47  1  0  0  0
 39 64  1  0  0  0
 39 67  2  0  0  0
 40 52  1  0  0  0
 40 53  2  0  0  0
 40 58  1  0  0  0
 41110  1  0  0  0
 41111  1  0  0  0
 41112  1  0  0  0
 41 48  1  0  0  0
 42 43  1  0  0  0
 42 66  1  0  0  0
 42113  1  0  0  0
 42114  1  0  0  0
 43 44  1  0  0  0
 44115  1  0  0  0
 45 46  2  0  0  0
 45116  1  0  0  0
 46117  1  0  0  0
 47118  1  0  0  0
 47119  1  0  0  0
 48 56  1  0  0  0
 48 65  1  0  0  0
 48120  1  0  0  0
 49 50  1  0  0  0
 49 53  1  0  0  0
 49 64  1  0  0  0
 49121  1  0  0  0
 50 51  1  0  0  0
 50122  1  0  0  0
 50123  1  0  0  0
 51 52  1  0  0  0
 51124  1  0  0  0
 51125  1  0  0  0
 52126  1  0  0  0
 52127  1  0  0  0
 53 54  1  0  0  0
 54 55  2  0  0  0
 54128  1  0  0  0
 55 57  1  0  0  0
 55129  1  0  0  0
 56 69  2  0  0  0
 57 58  2  0  0  0
 57130  1  0  0  0
 58131  1  0  0  0
 59 60  1  0  0  0
 59 61  1  0  0  0
 59 62  1  0  0  0
 60132  1  0  0  0
 60133  1  0  0  0
 60134  1  0  0  0
 61135  1  0  0  0
 61136  1  0  0  0
 61137  1  0  0  0
 62138  1  0  0  0
 62139  1  0  0  0
 62140  1  0  0  0
 63 65  1  0  0  0
 63141  1  0  0  0
 63142  1  0  0  0
 63143  1  0  0  0
 64144  1  0  0  0
 65145  1  0  0  0
 68 83  1  0  0  0
 71 72  2  0  0  0
 71 74  1  0  0  0
 71146  1  0  0  0
 72 76  1  0  0  0
 72147  1  0  0  0
 73 75  1  0  0  0
 73 76  2  0  0  0
 73148  1  0  0  0
 74 75  2  0  0  0
 74 78  1  0  0  0
 75 79  1  0  0  0
 76 85  1  0  0  0
 77 82  1  0  0  0
 77 85  1  0  0  0
 77 86  2  0  0  0
 78 84  1  0  0  0
 78149  1  0  0  0
 78150  1  0  0  0
 79 84  1  0  0  0
 79151  1  0  0  0
 79152  1  0  0  0
 80153  1  0  0  0
 80154  1  0  0  0
 80155  1  0  0  0
 80 83  1  0  0  0
 81 83  1  0  0  0
 81156  1  0  0  0
 81157  1  0  0  0
 81158  1  0  0  0
 82 83  1  0  0  0
 82159  1  0  0  0
 82160  1  0  0  0
 85161  1  0  0  0
M  ISO  4   1 100  68 101  83 101  84 100
M  END
> <chiral flag>
0

> <version>
0

> <s_m_source_file>
/data/baiqing/PycharmProjects/Reinvent-master-3.2/result/LINK_invent/BTK/process_docking_weight1_custom_product_contain_oxygen_bond_distance_aromatic_linkinvent_7_9_3/rearranged_h_0140.sdf

> <i_m_source_file_index>
38

> <r_mmod_Potential_Energy-OPLS-2005>
116.112182617188

> <r_mmod_Stretch_Energy-OPLS-2005>
64.9626922607422

> <r_mmod_Bend_Energy-OPLS-2005>
210.606170654297

> <r_mmod_Torsional_Energy-OPLS-2005>
228.453643798828

> <r_mmod_Improper_Torsional_Energy-OPLS-2005>
14.4568920135498

> <r_mmod_Van_der_Waal_Energy-OPLS-2005>
139.816192626953

> <r_mmod_Electrostatic_Energy-OPLS-2005>
-353.478515625

> <r_mmod_Solvation_Energy-OPLS-2005>
-215.142944335938

> <b_mmod_Minimization_Converged-OPLS-2005>
0

> <r_mmod_RMS_Derivative-OPLS-2005>
0.659139811992645

$$$$
38
                    3D
 Structure written by MMmdl.
165173  0  0  1  0            999 V2000
  -30.6737  -14.5432   20.5096 C   0  0  0  0  0  0
  -30.4265  -12.3284   19.4553 C   0  0  0  0  0  0
  -29.5066  -12.4958   18.2264 C   0  0  0  0  0  0
  -28.0270  -12.3540   18.6344 C   0  0  0  0  0  0
  -27.6619  -13.2117   19.8751 C   0  0  2  0  0  0
  -28.7024  -13.0366   21.0052 C   0  0  0  0  0  0
  -25.2613  -13.8181   20.5709 C   0  0  0  0  0  0
  -24.1845  -13.0469   20.9181 C   0  0  0  0  0  0
  -24.6383  -11.6930   20.8746 C   0  0  0  0  0  0
  -23.9041  -10.4319   21.0433 C   0  0  0  0  0  0
  -24.3603   -9.4227   21.9206 C   0  0  0  0  0  0
  -23.6287   -8.2254   22.0765 C   0  0  0  0  0  0
  -22.4270   -8.0296   21.3549 C   0  0  0  0  0  0
  -21.9895   -9.0266   20.4652 C   0  0  0  0  0  0
  -22.7218  -10.2152   20.3071 C   0  0  0  0  0  0
  -21.6855   -6.0740   22.5274 C   0  0  0  0  0  0
  -21.4017   -6.5648   23.8205 C   0  0  0  0  0  0
  -21.3659   -5.6791   24.9167 C   0  0  0  0  0  0
  -21.6039   -4.3052   24.7218 C   0  0  0  0  0  0
  -21.8816   -3.8153   23.4336 C   0  0  0  0  0  0
  -21.9193   -4.6970   22.3397 C   0  0  0  0  0  0
  -22.7865  -13.5285   21.1816 C   0  0  0  0  0  0
  -22.1662   -4.2165   21.0971 F   0  0  0  0  0  0
  -21.5622   -3.4527   25.7726 F   0  0  0  0  0  0
  -30.0308  -13.3410   20.4503 N   0  0  0  0  0  0
  -26.3033  -12.9344   20.3363 N   0  0  0  0  0  0
  -25.9317  -11.6510   20.5771 N   0  0  0  0  0  0
  -22.0464  -12.8317   22.0366 N   0  0  0  0  0  0
  -25.4400  -15.1891   20.4133 N   0  0  0  0  0  0
  -31.8231  -14.6929   20.0839 O   0  0  0  0  0  0
  -21.6633   -6.8891   21.4241 O   0  0  0  0  0  0
  -22.3567  -14.5591   20.6656 O   0  0  0  0  0  0
  -24.6168  -31.8644   23.2070 C   0  0  0  0  0  0
  -25.9045  -32.4799   23.8386 C   0  0  1  0  0  0
  -27.2396  -27.3980   20.1119 C   0  0  0  0  0  0
  -25.5883  -33.8602   24.2319 N   0  0  0  0  0  0
  -23.4077  -30.4873   21.5470 C   0  0  2  0  0  0
  -24.8560  -28.9459   20.1158 C   0  0  0  0  0  0
  -22.7423  -29.4642   22.4966 C   0  0  0  0  0  0
  -18.0278  -28.1376   22.8491 C   0  0  0  0  0  0
  -24.1480  -36.7314   23.2645 C   0  0  0  0  0  0
  -25.9390  -30.8213   21.3647 C   0  0  0  0  0  0
  -26.0173  -29.4530   20.7117 C   0  0  0  0  0  0
  -27.2104  -28.6884   20.7008 C   0  0  0  0  0  0
  -26.0558  -26.9134   19.5099 C   0  0  0  0  0  0
  -24.8728  -27.6773   19.5110 C   0  0  0  0  0  0
  -23.6186  -29.8156   20.1634 C   0  0  0  0  0  0
  -25.4099  -36.3102   24.0345 C   0  0  1  0  0  0
  -20.5864  -28.3667   23.1305 C   0  0  2  0  0  0
  -20.6759  -26.9397   22.5417 C   0  0  0  0  0  0
  -19.5741  -26.6377   21.5207 C   0  0  0  0  0  0
  -18.1919  -26.7925   22.1616 C   0  0  0  0  0  0
  -19.1527  -28.8838   23.2895 C   0  0  0  0  0  0
  -18.9457  -30.1442   23.8910 C   0  0  0  0  0  0
  -17.6460  -30.6586   24.0561 C   0  0  0  0  0  0
  -25.9028  -34.9466   23.5132 C   0  0  0  0  0  0
  -16.5349  -29.9087   23.6326 C   0  0  0  0  0  0
  -16.7268  -28.6500   23.0353 C   0  0  0  0  0  0
  -26.4470  -31.6594   25.0731 C   0  0  0  0  0  0
  -25.3744  -31.3710   26.1495 C   0  0  0  0  0  0
  -27.0316  -30.3036   24.6126 C   0  0  0  0  0  0
  -27.6046  -32.4321   25.7479 C   0  0  0  0  0  0
  -27.5575  -37.1808   24.8465 C   0  0  0  0  0  0
  -21.4142  -29.3040   22.3713 N   0  0  0  0  0  0
  -26.4286  -37.3785   23.9409 N   0  0  0  0  0  0
  -24.6727  -31.0726   22.0978 N   0  0  0  0  0  0
  -23.4185  -28.8183   23.3015 O   0  0  0  0  0  0
  -28.4115  -26.6544   20.1462 O   0  0  0  0  0  0
  -26.5594  -34.8916   22.4695 O   0  0  0  0  0  0
  -23.5351  -32.1404   23.7444 O   0  0  0  0  0  0
  -30.1087  -18.3957   18.3768 C   0  0  0  0  0  0
  -29.8728  -19.5354   19.1692 C   0  0  0  0  0  0
  -30.1546  -17.1141   18.9555 C   0  0  0  0  0  0
  -29.6972  -18.1039   21.1291 C   0  0  0  0  0  0
  -29.6612  -19.4200   20.5606 C   0  0  0  0  0  0
  -29.9564  -16.9388   20.3454 C   0  0  0  0  0  0
  -28.6935  -20.4248   22.7219 C   0  0  0  0  0  0
  -30.0264  -24.7057   21.8298 C   0  0  0  0  0  0
  -30.8029  -25.1849   19.5044 C   0  0  0  0  0  0
  -28.7974  -21.9568   20.7047 C   0  0  0  0  0  0
  -29.7448  -22.9659   19.9785 C   0  0  0  0  0  0
  -28.3414  -25.2125   19.9889 C   0  0  0  0  0  0
  -29.4595  -20.7099   21.4157 C   0  0  2  0  0  0
  -29.6952  -24.5027   20.3369 C   0  0  0  0  0  0
  -29.9408  -15.6109   20.9200 N   0  0  0  0  0  0
  -31.4733  -12.4199   19.1606 H   0  0  0  0  0  0
  -30.3260  -11.3273   19.8775 H   0  0  0  0  0  0
  -29.7563  -11.7541   17.4669 H   0  0  0  0  0  0
  -29.6673  -13.4729   17.7654 H   0  0  0  0  0  0
  -27.8437  -11.3002   18.8490 H   0  0  0  0  0  0
  -27.3796  -12.6106   17.7960 H   0  0  0  0  0  0
  -27.6962  -14.2527   19.5543 H   0  0  0  0  0  0
  -28.6856  -12.0137   21.3857 H   0  0  0  0  0  0
  -28.4645  -13.6717   21.8596 H   0  0  0  0  0  0
  -25.2750   -9.5698   22.4781 H   0  0  0  0  0  0
  -23.9998   -7.4643   22.7489 H   0  0  0  0  0  0
  -21.0821   -8.8783   19.8965 H   0  0  0  0  0  0
  -22.3681  -10.9692   19.6184 H   0  0  0  0  0  0
  -21.2008   -7.6153   23.9714 H   0  0  0  0  0  0
  -21.1485   -6.0520   25.9067 H   0  0  0  0  0  0
  -22.0598   -2.7619   23.2816 H   0  0  0  0  0  0
  -22.4037  -11.9982   22.4786 H   0  0  0  0  0  0
  -21.1093  -13.1407   22.2550 H   0  0  0  0  0  0
  -24.6848  -15.8570   20.5216 H   0  0  0  0  0  0
  -26.2985  -15.6143   20.0878 H   0  0  0  0  0  0
  -26.7112  -32.5508   23.1149 H   0  0  0  0  0  0
  -25.0023  -33.9756   25.0457 H   0  0  0  0  0  0
  -22.6973  -31.3043   21.4039 H   0  0  0  0  0  0
  -23.3727  -35.9662   23.3325 H   0  0  0  0  0  0
  -24.3573  -36.8913   22.2056 H   0  0  0  0  0  0
  -23.7252  -37.6532   23.6651 H   0  0  0  0  0  0
  -26.0565  -31.5861   20.5957 H   0  0  0  0  0  0
  -26.8242  -30.8740   21.9871 H   0  0  0  0  0  0
  -28.1062  -29.0764   21.1655 H   0  0  0  0  0  0
  -26.0278  -25.9429   19.0374 H   0  0  0  0  0  0
  -23.9800  -27.2782   19.0504 H   0  0  0  0  0  0
  -23.7286  -30.5879   19.4010 H   0  0  0  0  0  0
  -22.7425  -29.2354   19.8676 H   0  0  0  0  0  0
  -25.1269  -36.1969   25.0839 H   0  0  0  0  0  0
  -20.9967  -28.3241   24.1422 H   0  0  0  0  0  0
  -20.5640  -26.2278   23.3611 H   0  0  0  0  0  0
  -21.6634  -26.7421   22.1224 H   0  0  0  0  0  0
  -19.6896  -25.6289   21.1235 H   0  0  0  0  0  0
  -19.6681  -27.3186   20.6736 H   0  0  0  0  0  0
  -17.4187  -26.6686   21.4014 H   0  0  0  0  0  0
  -18.0307  -26.0061   22.9005 H   0  0  0  0  0  0
  -19.7935  -30.7244   24.2291 H   0  0  0  0  0  0
  -17.5024  -31.6272   24.5149 H   0  0  0  0  0  0
  -15.5353  -30.2996   23.7646 H   0  0  0  0  0  0
  -15.8667  -28.0823   22.7070 H   0  0  0  0  0  0
  -24.5890  -30.7080   25.7848 H   0  0  0  0  0  0
  -24.8964  -32.2871   26.4976 H   0  0  0  0  0  0
  -25.8105  -30.8859   27.0239 H   0  0  0  0  0  0
  -26.2875  -29.6780   24.1185 H   0  0  0  0  0  0
  -27.4094  -29.7288   25.4591 H   0  0  0  0  0  0
  -27.8699  -30.4357   23.9283 H   0  0  0  0  0  0
  -27.2667  -33.3605   26.2090 H   0  0  0  0  0  0
  -28.3827  -32.6909   25.0289 H   0  0  0  0  0  0
  -28.0752  -31.8437   26.5364 H   0  0  0  0  0  0
  -28.2603  -38.0091   24.7483 H   0  0  0  0  0  0
  -28.1054  -36.2622   24.6311 H   0  0  0  0  0  0
  -27.2300  -37.1495   25.8870 H   0  0  0  0  0  0
  -20.9299  -29.8795   21.6962 H   0  0  0  0  0  0
  -26.0177  -38.2864   24.1393 H   0  0  0  0  0  0
  -30.2604  -18.5068   17.3117 H   0  0  0  0  0  0
  -29.8638  -20.5030   18.6901 H   0  0  0  0  0  0
  -30.3297  -16.2657   18.3097 H   0  0  0  0  0  0
  -29.5436  -17.9656   22.1878 H   0  0  0  0  0  0
  -29.2291  -19.7302   23.3669 H   0  0  0  0  0  0
  -27.7025  -20.0164   22.5221 H   0  0  0  0  0  0
  -28.5658  -21.3337   23.3114 H   0  0  0  0  0  0
  -30.9569  -24.2067   22.1026 H   0  0  0  0  0  0
  -29.2431  -24.3192   22.4807 H   0  0  0  0  0  0
  -30.1464  -25.7633   22.0687 H   0  0  0  0  0  0
  -31.7816  -24.7411   19.6894 H   0  0  0  0  0  0
  -30.8885  -26.2486   19.7342 H   0  0  0  0  0  0
  -30.6044  -25.1019   18.4355 H   0  0  0  0  0  0
  -28.0164  -21.6204   20.0227 H   0  0  0  0  0  0
  -28.2548  -22.5362   21.4508 H   0  0  0  0  0  0
  -29.5788  -22.8619   18.9053 H   0  0  0  0  0  0
  -30.7685  -22.6215   20.1275 H   0  0  0  0  0  0
  -27.5502  -24.8092   20.6237 H   0  0  0  0  0  0
  -28.0732  -24.9807   18.9575 H   0  0  0  0  0  0
  -30.4601  -21.0110   21.7280 H   0  0  0  0  0  0
  -29.1347  -15.3877   21.4849 H   0  0  0  0  0  0
  1 25  1  0  0  0
  1 30  2  0  0  0
  1 85  1  0  0  0
  2  3  1  0  0  0
  2 25  1  0  0  0
  2 86  1  0  0  0
  2 87  1  0  0  0
  3  4  1  0  0  0
  3 88  1  0  0  0
  3 89  1  0  0  0
  4  5  1  0  0  0
  4 90  1  0  0  0
  4 91  1  0  0  0
  5  6  1  0  0  0
  5 26  1  0  0  0
  5 92  1  0  0  0
  6 25  1  0  0  0
  6 93  1  0  0  0
  6 94  1  0  0  0
  7  8  2  0  0  0
  7 26  1  0  0  0
  7 29  1  0  0  0
  8  9  1  0  0  0
  8 22  1  0  0  0
  9 10  1  0  0  0
  9 27  2  0  0  0
 10 11  2  0  0  0
 10 15  1  0  0  0
 11 12  1  0  0  0
 11 95  1  0  0  0
 12 13  2  0  0  0
 12 96  1  0  0  0
 13 14  1  0  0  0
 13 31  1  0  0  0
 14 15  2  0  0  0
 14 97  1  0  0  0
 15 98  1  0  0  0
 16 17  2  0  0  0
 16 21  1  0  0  0
 16 31  1  0  0  0
 17 18  1  0  0  0
 17 99  1  0  0  0
 18 19  2  0  0  0
 18100  1  0  0  0
 19 20  1  0  0  0
 19 24  1  0  0  0
 20 21  2  0  0  0
 20101  1  0  0  0
 21 23  1  0  0  0
 22 28  1  0  0  0
 22 32  2  0  0  0
 26 27  1  0  0  0
 28102  1  0  0  0
 28103  1  0  0  0
 29104  1  0  0  0
 29105  1  0  0  0
 33 34  1  0  0  0
 33 66  1  0  0  0
 33 70  2  0  0  0
 34 36  1  0  0  0
 34 59  1  0  0  0
 34106  1  0  0  0
 35 44  2  0  0  0
 35 45  1  0  0  0
 35 68  1  0  0  0
 36 56  1  0  0  0
 36107  1  0  0  0
 37 39  1  0  0  0
 37 47  1  0  0  0
 37 66  1  0  0  0
 37108  1  0  0  0
 38 43  2  0  0  0
 38 46  1  0  0  0
 38 47  1  0  0  0
 39 64  1  0  0  0
 39 67  2  0  0  0
 40 52  1  0  0  0
 40 53  2  0  0  0
 40 58  1  0  0  0
 41109  1  0  0  0
 41110  1  0  0  0
 41111  1  0  0  0
 41 48  1  0  0  0
 42 43  1  0  0  0
 42 66  1  0  0  0
 42112  1  0  0  0
 42113  1  0  0  0
 43 44  1  0  0  0
 44114  1  0  0  0
 45 46  2  0  0  0
 45115  1  0  0  0
 46116  1  0  0  0
 47117  1  0  0  0
 47118  1  0  0  0
 48 56  1  0  0  0
 48 65  1  0  0  0
 48119  1  0  0  0
 49 50  1  0  0  0
 49 53  1  0  0  0
 49 64  1  0  0  0
 49120  1  0  0  0
 50 51  1  0  0  0
 50121  1  0  0  0
 50122  1  0  0  0
 51 52  1  0  0  0
 51123  1  0  0  0
 51124  1  0  0  0
 52125  1  0  0  0
 52126  1  0  0  0
 53 54  1  0  0  0
 54 55  2  0  0  0
 54127  1  0  0  0
 55 57  1  0  0  0
 55128  1  0  0  0
 56 69  2  0  0  0
 57 58  2  0  0  0
 57129  1  0  0  0
 58130  1  0  0  0
 59 60  1  0  0  0
 59 61  1  0  0  0
 59 62  1  0  0  0
 60131  1  0  0  0
 60132  1  0  0  0
 60133  1  0  0  0
 61134  1  0  0  0
 61135  1  0  0  0
 61136  1  0  0  0
 62137  1  0  0  0
 62138  1  0  0  0
 62139  1  0  0  0
 63 65  1  0  0  0
 63140  1  0  0  0
 63141  1  0  0  0
 63142  1  0  0  0
 64143  1  0  0  0
 65144  1  0  0  0
 68 82  1  0  0  0
 71 72  2  0  0  0
 71 73  1  0  0  0
 71145  1  0  0  0
 72 75  1  0  0  0
 72146  1  0  0  0
 73 76  2  0  0  0
 73147  1  0  0  0
 74 75  2  0  0  0
 74 76  1  0  0  0
 74148  1  0  0  0
 75 83  1  0  0  0
 76 85  1  0  0  0
 77149  1  0  0  0
 77150  1  0  0  0
 77151  1  0  0  0
 77 83  1  0  0  0
 78152  1  0  0  0
 78153  1  0  0  0
 78154  1  0  0  0
 78 84  1  0  0  0
 79 84  1  0  0  0
 79155  1  0  0  0
 79156  1  0  0  0
 79157  1  0  0  0
 80 81  1  0  0  0
 80 83  1  0  0  0
 80158  1  0  0  0
 80159  1  0  0  0
 81 84  1  0  0  0
 81160  1  0  0  0
 81161  1  0  0  0
 82 84  1  0  0  0
 82162  1  0  0  0
 82163  1  0  0  0
 83164  1  0  0  0
 85165  1  0  0  0
M  ISO  4   1 100  68 101  82 101  85 100
M  END
> <chiral flag>
0

> <version>
0

> <s_m_source_file>
/data/baiqing/PycharmProjects/Reinvent-master-3.2/result/LINK_invent/BTK/process_docking_weight1_custom_product_contain_oxygen_bond_distance_aromatic_linkinvent_7_9_3/rearranged_h_0140.sdf

> <i_m_source_file_index>
39

> <r_mmod_Potential_Energy-OPLS-2005>
37.6171417236328

> <r_mmod_Stretch_Energy-OPLS-2005>
55.8087768554688

> <r_mmod_Bend_Energy-OPLS-2005>
118.798141479492

> <r_mmod_Torsional_Energy-OPLS-2005>
259.328796386719

> <r_mmod_Improper_Torsional_Energy-OPLS-2005>
4.5808572769165

> <r_mmod_Van_der_Waal_Energy-OPLS-2005>
152.268188476562

> <r_mmod_Electrostatic_Energy-OPLS-2005>
-382.382659912109

> <r_mmod_Solvation_Energy-OPLS-2005>
-193.041763305664

> <b_mmod_Minimization_Converged-OPLS-2005>
0

> <r_mmod_RMS_Derivative-OPLS-2005>
2.14857077598572

$$$$
39
                    3D
 Structure written by MMmdl.
162170  0  0  1  0            999 V2000
  -30.5504  -14.9496   20.4251 C   0  0  0  0  0  0
  -30.4422  -12.5889   19.4982 C   0  0  0  0  0  0
  -29.5235  -12.5280   18.2565 C   0  0  0  0  0  0
  -28.0563  -12.3183   18.6771 C   0  0  0  0  0  0
  -27.6336  -13.2481   19.8458 C   0  0  2  0  0  0
  -28.6791  -13.2755   20.9818 C   0  0  0  0  0  0
  -25.2470  -13.8205   20.5706 C   0  0  0  0  0  0
  -24.1783  -13.0422   20.9231 C   0  0  0  0  0  0
  -24.6404  -11.6916   20.8774 C   0  0  0  0  0  0
  -23.9078  -10.4288   21.0424 C   0  0  0  0  0  0
  -24.3626   -9.4197   21.9198 C   0  0  0  0  0  0
  -23.6297   -8.2236   22.0771 C   0  0  0  0  0  0
  -22.4278   -8.0277   21.3564 C   0  0  0  0  0  0
  -21.9912   -9.0248   20.4661 C   0  0  0  0  0  0
  -22.7248  -10.2128   20.3069 C   0  0  0  0  0  0
  -21.6845   -6.0731   22.5279 C   0  0  0  0  0  0
  -21.4014   -6.5638   23.8212 C   0  0  0  0  0  0
  -21.3664   -5.6797   24.9178 C   0  0  0  0  0  0
  -21.6039   -4.3062   24.7231 C   0  0  0  0  0  0
  -21.8820   -3.8144   23.4357 C   0  0  0  0  0  0
  -21.9189   -4.6954   22.3407 C   0  0  0  0  0  0
  -22.7803  -13.5203   21.1868 C   0  0  0  0  0  0
  -22.1649   -4.2136   21.0987 F   0  0  0  0  0  0
  -21.5634   -3.4546   25.7749 F   0  0  0  0  0  0
  -29.9491  -13.6918   20.3744 N   0  0  0  0  0  0
  -26.2915  -12.9438   20.3302 N   0  0  0  0  0  0
  -25.9344  -11.6567   20.5778 N   0  0  0  0  0  0
  -22.0461  -12.8193   22.0436 N   0  0  0  0  0  0
  -25.4060  -15.1925   20.4074 N   0  0  0  0  0  0
  -31.7585  -14.9881   20.1661 O   0  0  0  0  0  0
  -21.6641   -6.8874   21.4249 O   0  0  0  0  0  0
  -22.3491  -14.5507   20.6706 O   0  0  0  0  0  0
  -24.6453  -31.8431   23.1877 C   0  0  0  0  0  0
  -25.9205  -32.4688   23.8282 C   0  0  1  0  0  0
  -27.2106  -27.1193   20.1656 C   0  0  0  0  0  0
  -25.5957  -33.8496   24.2196 N   0  0  0  0  0  0
  -23.4497  -30.4644   21.5333 C   0  0  2  0  0  0
  -24.8997  -28.8886   20.1100 C   0  0  0  0  0  0
  -22.7582  -29.4561   22.4857 C   0  0  0  0  0  0
  -18.0297  -28.1425   22.8481 C   0  0  0  0  0  0
  -24.1481  -36.7244   23.2644 C   0  0  0  0  0  0
  -26.0075  -30.7125   21.3880 C   0  0  0  0  0  0
  -26.0772  -29.3230   20.7306 C   0  0  0  0  0  0
  -27.2353  -28.4565   20.7367 C   0  0  0  0  0  0
  -26.0065  -26.7905   19.5016 C   0  0  0  0  0  0
  -24.8777  -27.6385   19.4777 C   0  0  0  0  0  0
  -23.6778  -29.7930   20.1537 C   0  0  0  0  0  0
  -25.4112  -36.3021   24.0318 C   0  0  1  0  0  0
  -20.5918  -28.3752   23.1220 C   0  0  2  0  0  0
  -20.6802  -26.9455   22.5403 C   0  0  0  0  0  0
  -19.5773  -26.6405   21.5221 C   0  0  0  0  0  0
  -18.1943  -26.7962   22.1624 C   0  0  0  0  0  0
  -19.1557  -28.8903   23.2847 C   0  0  0  0  0  0
  -18.9478  -30.1499   23.8880 C   0  0  0  0  0  0
  -17.6478  -30.6624   24.0562 C   0  0  0  0  0  0
  -25.9070  -34.9400   23.5065 C   0  0  0  0  0  0
  -16.5366  -29.9121   23.6348 C   0  0  0  0  0  0
  -16.7281  -28.6535   23.0370 C   0  0  0  0  0  0
  -26.4521  -31.6555   25.0724 C   0  0  0  0  0  0
  -25.3680  -31.3731   26.1398 C   0  0  0  0  0  0
  -27.0400  -30.2947   24.6309 C   0  0  0  0  0  0
  -27.6060  -32.4340   25.7490 C   0  0  0  0  0  0
  -27.5564  -37.1765   24.8465 C   0  0  0  0  0  0
  -21.4273  -29.3067   22.3583 N   0  0  0  0  0  0
  -26.4270  -37.3737   23.9416 N   0  0  0  0  0  0
  -24.7208  -31.0279   22.0919 N   0  0  0  0  0  0
  -23.4213  -28.8116   23.3015 O   0  0  0  0  0  0
  -28.2525  -26.1210   20.2524 O   0  0  0  0  0  0
  -26.5648  -34.8899   22.4644 O   0  0  0  0  0  0
  -23.5565  -32.1331   23.7077 O   0  0  0  0  0  0
  -31.8140  -19.3907   20.9204 C   0  0  0  0  0  0
  -30.9119  -20.4667   20.7660 C   0  0  0  0  0  0
  -31.4260  -18.0369   20.8160 C   0  0  0  0  0  0
  -29.1755  -18.8240   20.4022 C   0  0  0  0  0  0
  -29.5412  -20.2762   20.4828 C   0  0  0  0  0  0
  -30.0916  -17.6520   20.5617 C   0  0  0  0  0  0
  -28.0345  -21.4663   18.8174 C   0  0  0  0  0  0
  -27.3547  -21.3827   21.2069 C   0  0  0  0  0  0
  -29.4923  -23.4463   21.9030 C   0  0  0  0  0  0
  -30.1526  -23.5882   19.4629 C   0  0  0  0  0  0
  -27.9444  -24.5860   20.1961 C   0  0  0  0  0  0
  -28.5508  -21.6091   20.2618 C   0  0  0  0  0  0
  -29.0027  -23.2725   20.4458 C   0  0  0  0  0  0
  -29.7679  -16.1431   20.5284 N   0  0  0  0  0  0
  -31.4767  -12.7405   19.1849 H   0  0  0  0  0  0
  -30.4326  -11.6387   20.0362 H   0  0  0  0  0  0
  -29.8421  -11.7256   17.5901 H   0  0  0  0  0  0
  -29.6143  -13.4549   17.6893 H   0  0  0  0  0  0
  -27.9498  -11.2763   18.9833 H   0  0  0  0  0  0
  -27.3919  -12.4555   17.8227 H   0  0  0  0  0  0
  -27.5971  -14.2525   19.4235 H   0  0  0  0  0  0
  -28.7716  -12.2985   21.4574 H   0  0  0  0  0  0
  -28.3824  -13.9749   21.7640 H   0  0  0  0  0  0
  -25.2768   -9.5661   22.4781 H   0  0  0  0  0  0
  -23.9989   -7.4628   22.7503 H   0  0  0  0  0  0
  -21.0839   -8.8775   19.8974 H   0  0  0  0  0  0
  -22.3706  -10.9671   19.6179 H   0  0  0  0  0  0
  -21.2008   -7.6144   23.9705 H   0  0  0  0  0  0
  -21.1483   -6.0536   25.9078 H   0  0  0  0  0  0
  -22.0595   -2.7601   23.2869 H   0  0  0  0  0  0
  -22.4083  -11.9844   22.4792 H   0  0  0  0  0  0
  -21.1086  -13.1226   22.2670 H   0  0  0  0  0  0
  -24.6212  -15.8290   20.4991 H   0  0  0  0  0  0
  -26.2285  -15.6386   20.0239 H   0  0  0  0  0  0
  -26.7278  -32.5279   23.1022 H   0  0  0  0  0  0
  -25.0107  -33.9617   25.0337 H   0  0  0  0  0  0
  -22.7530  -31.2906   21.3773 H   0  0  0  0  0  0
  -23.3752  -35.9562   23.3295 H   0  0  0  0  0  0
  -24.3567  -36.8898   22.2064 H   0  0  0  0  0  0
  -23.7229  -37.6431   23.6698 H   0  0  0  0  0  0
  -26.1638  -31.4632   20.6124 H   0  0  0  0  0  0
  -26.8791  -30.7656   22.0294 H   0  0  0  0  0  0
  -28.1297  -28.7822   21.2489 H   0  0  0  0  0  0
  -25.8993  -25.8352   19.0120 H   0  0  0  0  0  0
  -23.9780  -27.3069   18.9793 H   0  0  0  0  0  0
  -23.8149  -30.5668   19.3983 H   0  0  0  0  0  0
  -22.7929  -29.2356   19.8416 H   0  0  0  0  0  0
  -25.1288  -36.1853   25.0805 H   0  0  0  0  0  0
  -21.0000  -28.3383   24.1346 H   0  0  0  0  0  0
  -20.5732  -26.2381   23.3637 H   0  0  0  0  0  0
  -21.6662  -26.7496   22.1173 H   0  0  0  0  0  0
  -19.6944  -25.6306   21.1280 H   0  0  0  0  0  0
  -19.6713  -27.3199   20.6740 H   0  0  0  0  0  0
  -17.4216  -26.6720   21.4020 H   0  0  0  0  0  0
  -18.0332  -26.0106   22.9027 H   0  0  0  0  0  0
  -19.7946  -30.7318   24.2266 H   0  0  0  0  0  0
  -17.5022  -31.6292   24.5187 H   0  0  0  0  0  0
  -15.5365  -30.3015   23.7683 H   0  0  0  0  0  0
  -15.8679  -28.0843   22.7111 H   0  0  0  0  0  0
  -24.5918  -30.7021   25.7704 H   0  0  0  0  0  0
  -24.8776  -32.2888   26.4703 H   0  0  0  0  0  0
  -25.7928  -30.8997   27.0254 H   0  0  0  0  0  0
  -26.3017  -29.6651   24.1327 H   0  0  0  0  0  0
  -27.4029  -29.7274   25.4889 H   0  0  0  0  0  0
  -27.8919  -30.4197   23.9625 H   0  0  0  0  0  0
  -27.2681  -33.3713   26.1924 H   0  0  0  0  0  0
  -28.3905  -32.6788   25.0317 H   0  0  0  0  0  0
  -28.0667  -31.8550   26.5504 H   0  0  0  0  0  0
  -28.2557  -38.0091   24.7534 H   0  0  0  0  0  0
  -28.1100  -36.2616   24.6271 H   0  0  0  0  0  0
  -27.2286  -37.1373   25.8874 H   0  0  0  0  0  0
  -20.9516  -29.8745   21.6704 H   0  0  0  0  0  0
  -26.0141  -38.2798   24.1460 H   0  0  0  0  0  0
  -32.8505  -19.6138   21.1311 H   0  0  0  0  0  0
  -31.3207  -21.4559   20.8778 H   0  0  0  0  0  0
  -32.1938  -17.2917   20.9608 H   0  0  0  0  0  0
  -28.1374  -18.6006   20.1992 H   0  0  0  0  0  0
  -27.5388  -20.5082   18.6593 H   0  0  0  0  0  0
  -28.8551  -21.5200   18.1015 H   0  0  0  0  0  0
  -27.3182  -22.2429   18.5567 H   0  0  0  0  0  0
  -26.8691  -20.4240   21.0250 H   0  0  0  0  0  0
  -26.5921  -22.1516   21.0918 H   0  0  0  0  0  0
  -27.6686  -21.3826   22.2508 H   0  0  0  0  0  0
  -30.0385  -24.3788   22.0471 H   0  0  0  0  0  0
  -30.1328  -22.6325   22.2350 H   0  0  0  0  0  0
  -28.6499  -23.4730   22.5938 H   0  0  0  0  0  0
  -30.6782  -24.4996   19.7470 H   0  0  0  0  0  0
  -29.7639  -23.7598   18.4594 H   0  0  0  0  0  0
  -30.8906  -22.7992   19.3697 H   0  0  0  0  0  0
  -27.1126  -24.4454   20.8885 H   0  0  0  0  0  0
  -27.5138  -24.4237   19.2095 H   0  0  0  0  0  0
  -28.7838  -15.9360   20.6021 H   0  0  0  0  0  0
  1 25  1  0  0  0
  1 30  2  0  0  0
  1 84  1  0  0  0
  2  3  1  0  0  0
  2 25  1  0  0  0
  2 85  1  0  0  0
  2 86  1  0  0  0
  3  4  1  0  0  0
  3 87  1  0  0  0
  3 88  1  0  0  0
  4  5  1  0  0  0
  4 89  1  0  0  0
  4 90  1  0  0  0
  5  6  1  0  0  0
  5 26  1  0  0  0
  5 91  1  0  0  0
  6 25  1  0  0  0
  6 92  1  0  0  0
  6 93  1  0  0  0
  7  8  2  0  0  0
  7 26  1  0  0  0
  7 29  1  0  0  0
  8  9  1  0  0  0
  8 22  1  0  0  0
  9 10  1  0  0  0
  9 27  2  0  0  0
 10 11  2  0  0  0
 10 15  1  0  0  0
 11 12  1  0  0  0
 11 94  1  0  0  0
 12 13  2  0  0  0
 12 95  1  0  0  0
 13 14  1  0  0  0
 13 31  1  0  0  0
 14 15  2  0  0  0
 14 96  1  0  0  0
 15 97  1  0  0  0
 16 17  2  0  0  0
 16 21  1  0  0  0
 16 31  1  0  0  0
 17 18  1  0  0  0
 17 98  1  0  0  0
 18 19  2  0  0  0
 18 99  1  0  0  0
 19 20  1  0  0  0
 19 24  1  0  0  0
 20 21  2  0  0  0
 20100  1  0  0  0
 21 23  1  0  0  0
 22 28  1  0  0  0
 22 32  2  0  0  0
 26 27  1  0  0  0
 28101  1  0  0  0
 28102  1  0  0  0
 29103  1  0  0  0
 29104  1  0  0  0
 33 34  1  0  0  0
 33 66  1  0  0  0
 33 70  2  0  0  0
 34 36  1  0  0  0
 34 59  1  0  0  0
 34105  1  0  0  0
 35 44  2  0  0  0
 35 45  1  0  0  0
 35 68  1  0  0  0
 36 56  1  0  0  0
 36106  1  0  0  0
 37 39  1  0  0  0
 37 47  1  0  0  0
 37 66  1  0  0  0
 37107  1  0  0  0
 38 43  2  0  0  0
 38 46  1  0  0  0
 38 47  1  0  0  0
 39 64  1  0  0  0
 39 67  2  0  0  0
 40 52  1  0  0  0
 40 53  2  0  0  0
 40 58  1  0  0  0
 41108  1  0  0  0
 41109  1  0  0  0
 41110  1  0  0  0
 41 48  1  0  0  0
 42 43  1  0  0  0
 42 66  1  0  0  0
 42111  1  0  0  0
 42112  1  0  0  0
 43 44  1  0  0  0
 44113  1  0  0  0
 45 46  2  0  0  0
 45114  1  0  0  0
 46115  1  0  0  0
 47116  1  0  0  0
 47117  1  0  0  0
 48 56  1  0  0  0
 48 65  1  0  0  0
 48118  1  0  0  0
 49 50  1  0  0  0
 49 53  1  0  0  0
 49 64  1  0  0  0
 49119  1  0  0  0
 50 51  1  0  0  0
 50120  1  0  0  0
 50121  1  0  0  0
 51 52  1  0  0  0
 51122  1  0  0  0
 51123  1  0  0  0
 52124  1  0  0  0
 52125  1  0  0  0
 53 54  1  0  0  0
 54 55  2  0  0  0
 54126  1  0  0  0
 55 57  1  0  0  0
 55127  1  0  0  0
 56 69  2  0  0  0
 57 58  2  0  0  0
 57128  1  0  0  0
 58129  1  0  0  0
 59 60  1  0  0  0
 59 61  1  0  0  0
 59 62  1  0  0  0
 60130  1  0  0  0
 60131  1  0  0  0
 60132  1  0  0  0
 61133  1  0  0  0
 61134  1  0  0  0
 61135  1  0  0  0
 62136  1  0  0  0
 62137  1  0  0  0
 62138  1  0  0  0
 63 65  1  0  0  0
 63139  1  0  0  0
 63140  1  0  0  0
 63141  1  0  0  0
 64142  1  0  0  0
 65143  1  0  0  0
 68 81  1  0  0  0
 71 72  2  0  0  0
 71 73  1  0  0  0
 71144  1  0  0  0
 72 75  1  0  0  0
 72145  1  0  0  0
 73 76  2  0  0  0
 73146  1  0  0  0
 74 75  2  0  0  0
 74 76  1  0  0  0
 74147  1  0  0  0
 75 82  1  0  0  0
 76 84  1  0  0  0
 77148  1  0  0  0
 77149  1  0  0  0
 77150  1  0  0  0
 77 82  1  0  0  0
 78 82  1  0  0  0
 78151  1  0  0  0
 78152  1  0  0  0
 78153  1  0  0  0
 79154  1  0  0  0
 79155  1  0  0  0
 79156  1  0  0  0
 79 83  1  0  0  0
 80 83  1  0  0  0
 80157  1  0  0  0
 80158  1  0  0  0
 80159  1  0  0  0
 81 83  1  0  0  0
 81160  1  0  0  0
 81161  1  0  0  0
 82 83  1  0  0  0
 84162  1  0  0  0
M  ISO  4   1 100  68 101  81 101  84 100
M  END
> <chiral flag>
0

> <version>
0

> <s_m_source_file>
/data/baiqing/PycharmProjects/Reinvent-master-3.2/result/LINK_invent/BTK/process_docking_weight1_custom_product_contain_oxygen_bond_distance_aromatic_linkinvent_7_9_3/rearranged_h_0140.sdf

> <i_m_source_file_index>
40

> <r_mmod_Potential_Energy-OPLS-2005>
555.770874023438

> <r_mmod_Stretch_Energy-OPLS-2005>
302.148742675781

> <r_mmod_Bend_Energy-OPLS-2005>
262.072326660156

> <r_mmod_Torsional_Energy-OPLS-2005>
238.027328491211

> <r_mmod_Improper_Torsional_Energy-OPLS-2005>
5.43543386459351

> <r_mmod_Van_der_Waal_Energy-OPLS-2005>
138.976455688477

> <r_mmod_Electrostatic_Energy-OPLS-2005>
-396.226470947266

> <r_mmod_Solvation_Energy-OPLS-2005>
-194.692337036133

> <b_mmod_Minimization_Converged-OPLS-2005>
0

> <r_mmod_RMS_Derivative-OPLS-2005>
2.64489650726318

$$$$
40
                    3D
 Structure written by MMmdl.
161170  0  0  1  0            999 V2000
  -30.5884  -14.7591   20.4197 C   0  0  0  0  0  0
  -30.4381  -12.4447   19.4960 C   0  0  0  0  0  0
  -29.5227  -12.4530   18.2515 C   0  0  0  0  0  0
  -28.0407  -12.3201   18.6530 C   0  0  0  0  0  0
  -27.6421  -13.2314   19.8452 C   0  0  2  0  0  0
  -28.6815  -13.1737   20.9858 C   0  0  0  0  0  0
  -25.2520  -13.8198   20.5689 C   0  0  0  0  0  0
  -24.1801  -13.0452   20.9199 C   0  0  0  0  0  0
  -24.6374  -11.6926   20.8725 C   0  0  0  0  0  0
  -23.9047  -10.4300   21.0391 C   0  0  0  0  0  0
  -24.3596   -9.4218   21.9169 C   0  0  0  0  0  0
  -23.6288   -8.2243   22.0734 C   0  0  0  0  0  0
  -22.4276   -8.0271   21.3521 C   0  0  0  0  0  0
  -21.9903   -9.0242   20.4626 C   0  0  0  0  0  0
  -22.7221  -10.2129   20.3039 C   0  0  0  0  0  0
  -21.6855   -6.0727   22.5267 C   0  0  0  0  0  0
  -21.4018   -6.5631   23.8201 C   0  0  0  0  0  0
  -21.3660   -5.6780   24.9159 C   0  0  0  0  0  0
  -21.6048   -4.3045   24.7212 C   0  0  0  0  0  0
  -21.8824   -3.8134   23.4331 C   0  0  0  0  0  0
  -21.9197   -4.6953   22.3390 C   0  0  0  0  0  0
  -22.7827  -13.5238   21.1874 C   0  0  0  0  0  0
  -22.1670   -4.2136   21.0969 F   0  0  0  0  0  0
  -21.5629   -3.4530   25.7727 F   0  0  0  0  0  0
  -29.9845  -13.5206   20.4080 N   0  0  0  0  0  0
  -26.2932  -12.9403   20.3234 N   0  0  0  0  0  0
  -25.9302  -11.6543   20.5713 N   0  0  0  0  0  0
  -22.0474  -12.8209   22.0416 N   0  0  0  0  0  0
  -25.4259  -15.1921   20.4149 N   0  0  0  0  0  0
  -31.7812  -14.8574   20.1191 O   0  0  0  0  0  0
  -21.6638   -6.8869   21.4227 O   0  0  0  0  0  0
  -22.3512  -14.5555   20.6741 O   0  0  0  0  0  0
  -24.6309  -31.8557   23.1997 C   0  0  0  0  0  0
  -25.9145  -32.4748   23.8336 C   0  0  1  0  0  0
  -27.2246  -27.2745   20.1184 C   0  0  0  0  0  0
  -25.5961  -33.8552   24.2267 N   0  0  0  0  0  0
  -23.4260  -30.4790   21.5421 C   0  0  2  0  0  0
  -24.8721  -28.9276   20.1059 C   0  0  0  0  0  0
  -22.7501  -29.4602   22.4912 C   0  0  0  0  0  0
  -18.0291  -28.1397   22.8480 C   0  0  0  0  0  0
  -24.1499  -36.7269   23.2640 C   0  0  0  0  0  0
  -25.9703  -30.7713   21.3778 C   0  0  0  0  0  0
  -26.0403  -29.3955   20.7175 C   0  0  0  0  0  0
  -27.2136  -28.5786   20.7171 C   0  0  0  0  0  0
  -26.0274  -26.8655   19.4861 C   0  0  0  0  0  0
  -24.8704  -27.6707   19.4805 C   0  0  0  0  0  0
  -23.6426  -29.8140   20.1564 C   0  0  0  0  0  0
  -25.4123  -36.3062   24.0330 C   0  0  1  0  0  0
  -20.5895  -28.3700   23.1274 C   0  0  2  0  0  0
  -20.6784  -26.9422   22.5411 C   0  0  0  0  0  0
  -19.5760  -26.6394   21.5215 C   0  0  0  0  0  0
  -18.1937  -26.7941   22.1619 C   0  0  0  0  0  0
  -19.1544  -28.8868   23.2870 C   0  0  0  0  0  0
  -18.9461  -30.1465   23.8885 C   0  0  0  0  0  0
  -17.6460  -30.6587   24.0571 C   0  0  0  0  0  0
  -25.9066  -34.9433   23.5093 C   0  0  0  0  0  0
  -16.5351  -29.9085   23.6336 C   0  0  0  0  0  0
  -16.7277  -28.6514   23.0339 C   0  0  0  0  0  0
  -26.4522  -31.6565   25.0719 C   0  0  0  0  0  0
  -25.3740  -31.3687   26.1431 C   0  0  0  0  0  0
  -27.0366  -30.2985   24.6194 C   0  0  0  0  0  0
  -27.6088  -32.4288   25.7481 C   0  0  0  0  0  0
  -27.5580  -37.1787   24.8463 C   0  0  0  0  0  0
  -21.4210  -29.3035   22.3656 N   0  0  0  0  0  0
  -26.4289  -37.3768   23.9413 N   0  0  0  0  0  0
  -24.6945  -31.0537   22.0962 N   0  0  0  0  0  0
  -23.4209  -28.8149   23.3013 O   0  0  0  0  0  0
  -28.3502  -26.4257   20.2051 O   0  0  0  0  0  0
  -26.5622  -34.8910   22.4652 O   0  0  0  0  0  0
  -23.5466  -32.1371   23.7305 O   0  0  0  0  0  0
  -29.9744  -18.6005   17.8960 C   0  0  0  0  0  0
  -29.7499  -19.7961   18.5952 C   0  0  0  0  0  0
  -29.5533  -18.4966   20.6313 C   0  0  0  0  0  0
  -29.9932  -17.3428   18.5335 C   0  0  0  0  0  0
  -29.5072  -19.8117   19.9853 C   0  0  0  0  0  0
  -29.8305  -17.2349   19.9452 C   0  0  0  0  0  0
  -28.5787  -23.7736   20.4824 C   0  0  0  0  0  0
  -31.3462  -22.0868   21.2575 C   0  0  0  0  0  0
  -30.8555  -22.7202   19.9461 C   0  0  0  0  0  0
  -30.1545  -21.2737   21.7863 C   0  0  0  0  0  0
  -29.3418  -22.4410   19.9195 C   0  0  1  0  0  0
  -30.1001  -16.1337   17.6225 C   0  0  0  0  0  0
  -28.4416  -25.0744   19.5578 C   0  0  0  0  0  0
  -29.2599  -21.0957   20.6441 N   0  0  0  0  0  0
  -29.7928  -15.8887   20.5976 N   0  0  0  0  0  0
  -28.0984  -23.8074   21.6199 O   0  0  0  0  0  0
  -31.4802  -12.5709   19.1988 H   0  0  0  0  0  0
  -30.3882  -11.4790   20.0016 H   0  0  0  0  0  0
  -29.7972  -11.6333   17.5858 H   0  0  0  0  0  0
  -29.6783  -13.3598   17.6745 H   0  0  0  0  0  0
  -27.8764  -11.2762   18.9211 H   0  0  0  0  0  0
  -27.3967  -12.5148   17.7950 H   0  0  0  0  0  0
  -27.6363  -14.2498   19.4547 H   0  0  0  0  0  0
  -28.7141  -12.1797   21.4348 H   0  0  0  0  0  0
  -28.4132  -13.8616   21.7885 H   0  0  0  0  0  0
  -25.2732   -9.5712   22.4744 H   0  0  0  0  0  0
  -24.0001   -7.4640   22.7458 H   0  0  0  0  0  0
  -21.0830   -8.8761   19.8934 H   0  0  0  0  0  0
  -22.3672  -10.9661   19.6145 H   0  0  0  0  0  0
  -21.2011   -7.6140   23.9709 H   0  0  0  0  0  0
  -21.1484   -6.0499   25.9065 H   0  0  0  0  0  0
  -22.0606   -2.7598   23.2825 H   0  0  0  0  0  0
  -22.4093  -11.9855   22.4767 H   0  0  0  0  0  0
  -21.1087  -13.1222   22.2642 H   0  0  0  0  0  0
  -24.6647  -15.8518   20.5356 H   0  0  0  0  0  0
  -26.2796  -15.6280   20.0900 H   0  0  0  0  0  0
  -26.7208  -32.5404   23.1074 H   0  0  0  0  0  0
  -25.0153  -33.9693   25.0445 H   0  0  0  0  0  0
  -22.7221  -31.3019   21.3991 H   0  0  0  0  0  0
  -23.3771  -35.9588   23.3284 H   0  0  0  0  0  0
  -24.3599  -36.8912   22.2058 H   0  0  0  0  0  0
  -23.7241  -37.6462   23.6671 H   0  0  0  0  0  0
  -26.1104  -31.5342   20.6109 H   0  0  0  0  0  0
  -26.8477  -30.8170   22.0114 H   0  0  0  0  0  0
  -28.1076  -28.9306   21.2119 H   0  0  0  0  0  0
  -25.9359  -25.9015   19.0133 H   0  0  0  0  0  0
  -23.9729  -27.3072   18.9986 H   0  0  0  0  0  0
  -23.7663  -30.5919   19.4019 H   0  0  0  0  0  0
  -22.7608  -29.2481   19.8513 H   0  0  0  0  0  0
  -25.1308  -36.1901   25.0823 H   0  0  0  0  0  0
  -20.9986  -28.3279   24.1396 H   0  0  0  0  0  0
  -20.5707  -26.2306   23.3611 H   0  0  0  0  0  0
  -21.6649  -26.7470   22.1189 H   0  0  0  0  0  0
  -19.6925  -25.6306   21.1244 H   0  0  0  0  0  0
  -19.6705  -27.3208   20.6747 H   0  0  0  0  0  0
  -17.4218  -26.6691   21.4010 H   0  0  0  0  0  0
  -18.0329  -26.0085   22.9016 H   0  0  0  0  0  0
  -19.7934  -30.7292   24.2248 H   0  0  0  0  0  0
  -17.5009  -31.6260   24.5183 H   0  0  0  0  0  0
  -15.5351  -30.2978   23.7675 H   0  0  0  0  0  0
  -15.8677  -28.0843   22.7034 H   0  0  0  0  0  0
  -24.5956  -30.7002   25.7739 H   0  0  0  0  0  0
  -24.8884  -32.2835   26.4833 H   0  0  0  0  0  0
  -25.8068  -30.8879   27.0215 H   0  0  0  0  0  0
  -26.2936  -29.6712   24.1258 H   0  0  0  0  0  0
  -27.4094  -29.7275   25.4709 H   0  0  0  0  0  0
  -27.8802  -30.4263   23.9404 H   0  0  0  0  0  0
  -27.2733  -33.3604   26.2046 H   0  0  0  0  0  0
  -28.3906  -32.6811   25.0301 H   0  0  0  0  0  0
  -28.0751  -31.8408   26.5400 H   0  0  0  0  0  0
  -28.2581  -38.0102   24.7541 H   0  0  0  0  0  0
  -28.1094  -36.2635   24.6252 H   0  0  0  0  0  0
  -27.2299  -37.1390   25.8865 H   0  0  0  0  0  0
  -20.9402  -29.8739   21.6841 H   0  0  0  0  0  0
  -26.0161  -38.2835   24.1432 H   0  0  0  0  0  0
  -30.1079  -18.6613   16.8245 H   0  0  0  0  0  0
  -29.7649  -20.7003   18.0090 H   0  0  0  0  0  0
  -29.3580  -18.4515   21.6924 H   0  0  0  0  0  0
  -31.6597  -22.8379   21.9840 H   0  0  0  0  0  0
  -32.2036  -21.4399   21.0640 H   0  0  0  0  0  0
  -31.3388  -22.2327   19.0980 H   0  0  0  0  0  0
  -31.1137  -23.7787   19.8845 H   0  0  0  0  0  0
  -29.6303  -21.8303   22.5651 H   0  0  0  0  0  0
  -30.4957  -20.3511   22.2565 H   0  0  0  0  0  0
  -29.0052  -22.3354   18.8902 H   0  0  0  0  0  0
  -30.0640  -16.4155   16.5702 H   0  0  0  0  0  0
  -29.2529  -15.4741   17.8001 H   0  0  0  0  0  0
  -31.0334  -15.5939   17.7733 H   0  0  0  0  0  0
  -27.6391  -24.8972   18.8483 H   0  0  0  0  0  0
  -29.3393  -25.1003   18.9404 H   0  0  0  0  0  0
  -28.9304  -15.6953   21.0840 H   0  0  0  0  0  0
  1 25  1  0  0  0
  1 30  2  0  0  0
  1 85  1  0  0  0
  2  3  1  0  0  0
  2 25  1  0  0  0
  2 87  1  0  0  0
  2 88  1  0  0  0
  3  4  1  0  0  0
  3 89  1  0  0  0
  3 90  1  0  0  0
  4  5  1  0  0  0
  4 91  1  0  0  0
  4 92  1  0  0  0
  5  6  1  0  0  0
  5 26  1  0  0  0
  5 93  1  0  0  0
  6 25  1  0  0  0
  6 94  1  0  0  0
  6 95  1  0  0  0
  7  8  2  0  0  0
  7 26  1  0  0  0
  7 29  1  0  0  0
  8  9  1  0  0  0
  8 22  1  0  0  0
  9 10  1  0  0  0
  9 27  2  0  0  0
 10 11  2  0  0  0
 10 15  1  0  0  0
 11 12  1  0  0  0
 11 96  1  0  0  0
 12 13  2  0  0  0
 12 97  1  0  0  0
 13 14  1  0  0  0
 13 31  1  0  0  0
 14 15  2  0  0  0
 14 98  1  0  0  0
 15 99  1  0  0  0
 16 17  2  0  0  0
 16 21  1  0  0  0
 16 31  1  0  0  0
 17 18  1  0  0  0
 17100  1  0  0  0
 18 19  2  0  0  0
 18101  1  0  0  0
 19 20  1  0  0  0
 19 24  1  0  0  0
 20 21  2  0  0  0
 20102  1  0  0  0
 21 23  1  0  0  0
 22 28  1  0  0  0
 22 32  2  0  0  0
 26 27  1  0  0  0
 28103  1  0  0  0
 28104  1  0  0  0
 29105  1  0  0  0
 29106  1  0  0  0
 33 34  1  0  0  0
 33 66  1  0  0  0
 33 70  2  0  0  0
 34 36  1  0  0  0
 34 59  1  0  0  0
 34107  1  0  0  0
 35 44  2  0  0  0
 35 45  1  0  0  0
 35 68  1  0  0  0
 36 56  1  0  0  0
 36108  1  0  0  0
 37 39  1  0  0  0
 37 47  1  0  0  0
 37 66  1  0  0  0
 37109  1  0  0  0
 38 43  2  0  0  0
 38 46  1  0  0  0
 38 47  1  0  0  0
 39 64  1  0  0  0
 39 67  2  0  0  0
 40 52  1  0  0  0
 40 53  2  0  0  0
 40 58  1  0  0  0
 41110  1  0  0  0
 41111  1  0  0  0
 41112  1  0  0  0
 41 48  1  0  0  0
 42 43  1  0  0  0
 42 66  1  0  0  0
 42113  1  0  0  0
 42114  1  0  0  0
 43 44  1  0  0  0
 44115  1  0  0  0
 45 46  2  0  0  0
 45116  1  0  0  0
 46117  1  0  0  0
 47118  1  0  0  0
 47119  1  0  0  0
 48 56  1  0  0  0
 48 65  1  0  0  0
 48120  1  0  0  0
 49 50  1  0  0  0
 49 53  1  0  0  0
 49 64  1  0  0  0
 49121  1  0  0  0
 50 51  1  0  0  0
 50122  1  0  0  0
 50123  1  0  0  0
 51 52  1  0  0  0
 51124  1  0  0  0
 51125  1  0  0  0
 52126  1  0  0  0
 52127  1  0  0  0
 53 54  1  0  0  0
 54 55  2  0  0  0
 54128  1  0  0  0
 55 57  1  0  0  0
 55129  1  0  0  0
 56 69  2  0  0  0
 57 58  2  0  0  0
 57130  1  0  0  0
 58131  1  0  0  0
 59 60  1  0  0  0
 59 61  1  0  0  0
 59 62  1  0  0  0
 60132  1  0  0  0
 60133  1  0  0  0
 60134  1  0  0  0
 61135  1  0  0  0
 61136  1  0  0  0
 61137  1  0  0  0
 62138  1  0  0  0
 62139  1  0  0  0
 62140  1  0  0  0
 63 65  1  0  0  0
 63141  1  0  0  0
 63142  1  0  0  0
 63143  1  0  0  0
 64144  1  0  0  0
 65145  1  0  0  0
 68 83  1  0  0  0
 71 72  2  0  0  0
 71 74  1  0  0  0
 71146  1  0  0  0
 72 75  1  0  0  0
 72147  1  0  0  0
 73 75  2  0  0  0
 73 76  1  0  0  0
 73148  1  0  0  0
 74 76  2  0  0  0
 74 82  1  0  0  0
 75 84  1  0  0  0
 76 85  1  0  0  0
 77 83  1  0  0  0
 77 86  2  0  0  0
 77 81  1  0  0  0
 78 79  1  0  0  0
 78 80  1  0  0  0
 78149  1  0  0  0
 78150  1  0  0  0
 79 81  1  0  0  0
 79151  1  0  0  0
 79152  1  0  0  0
 80 84  1  0  0  0
 80153  1  0  0  0
 80154  1  0  0  0
 81 84  1  0  0  0
 81155  1  0  0  0
 82156  1  0  0  0
 82157  1  0  0  0
 82158  1  0  0  0
 83159  1  0  0  0
 83160  1  0  0  0
 85161  1  0  0  0
M  ISO  4   1 100  68 101  83 101  85 100
M  END
> <chiral flag>
0

> <version>
0

> <s_m_source_file>
/data/baiqing/PycharmProjects/Reinvent-master-3.2/result/LINK_invent/BTK/process_docking_weight1_custom_product_contain_oxygen_bond_distance_aromatic_linkinvent_7_9_3/rearranged_h_0140.sdf

> <i_m_source_file_index>
41

> <r_mmod_Potential_Energy-OPLS-2005>
332.045654296875

> <r_mmod_Stretch_Energy-OPLS-2005>
134.718719482422

> <r_mmod_Bend_Energy-OPLS-2005>
205.012313842773

> <r_mmod_Torsional_Energy-OPLS-2005>
294.986694335938

> <r_mmod_Improper_Torsional_Energy-OPLS-2005>
11.1426668167114

> <r_mmod_Van_der_Waal_Energy-OPLS-2005>
146.816665649414

> <r_mmod_Electrostatic_Energy-OPLS-2005>
-295.089141845703

> <r_mmod_Solvation_Energy-OPLS-2005>
-251.412796020508

> <b_mmod_Minimization_Converged-OPLS-2005>
0

> <r_mmod_RMS_Derivative-OPLS-2005>
1.46046555042267

$$$$
41
                    3D
 Structure written by MMmdl.
174182  0  0  1  0            999 V2000
  -30.6782  -14.5035   20.5515 C   0  0  0  0  0  0
  -30.4120  -12.3107   19.4535 C   0  0  0  0  0  0
  -29.4989  -12.4831   18.2196 C   0  0  0  0  0  0
  -28.0150  -12.3587   18.6178 C   0  0  0  0  0  0
  -27.6522  -13.2083   19.8671 C   0  0  2  0  0  0
  -28.6834  -13.0177   20.9983 C   0  0  0  0  0  0
  -25.2526  -13.8128   20.5645 C   0  0  0  0  0  0
  -24.1794  -13.0436   20.9148 C   0  0  0  0  0  0
  -24.6337  -11.6872   20.8710 C   0  0  0  0  0  0
  -23.9013  -10.4257   21.0400 C   0  0  0  0  0  0
  -24.3561   -9.4184   21.9179 C   0  0  0  0  0  0
  -23.6256   -8.2218   22.0735 C   0  0  0  0  0  0
  -22.4253   -8.0223   21.3514 C   0  0  0  0  0  0
  -21.9865   -9.0200   20.4636 C   0  0  0  0  0  0
  -22.7180  -10.2091   20.3065 C   0  0  0  0  0  0
  -21.6858   -6.0679   22.5265 C   0  0  0  0  0  0
  -21.4005   -6.5596   23.8185 C   0  0  0  0  0  0
  -21.3678   -5.6764   24.9160 C   0  0  0  0  0  0
  -21.6085   -4.3030   24.7224 C   0  0  0  0  0  0
  -21.8826   -3.8102   23.4344 C   0  0  0  0  0  0
  -21.9171   -4.6908   22.3392 C   0  0  0  0  0  0
  -22.7830  -13.5243   21.1791 C   0  0  0  0  0  0
  -22.1666   -4.2081   21.0984 F   0  0  0  0  0  0
  -21.5633   -3.4524   25.7756 F   0  0  0  0  0  0
  -30.0143  -13.3205   20.4491 N   0  0  0  0  0  0
  -26.2947  -12.9313   20.3282 N   0  0  0  0  0  0
  -25.9260  -11.6471   20.5703 N   0  0  0  0  0  0
  -22.0486  -12.8281   22.0389 N   0  0  0  0  0  0
  -25.4340  -15.1851   20.4094 N   0  0  0  0  0  0
  -31.8562  -14.6403   20.2041 O   0  0  0  0  0  0
  -21.6621   -6.8821   21.4226 O   0  0  0  0  0  0
  -22.3554  -14.5553   20.6595 O   0  0  0  0  0  0
  -24.6207  -31.8670   23.2190 C   0  0  0  0  0  0
  -25.9082  -32.4853   23.8436 C   0  0  1  0  0  0
  -27.2114  -27.3709   20.1082 C   0  0  0  0  0  0
  -25.5927  -33.8625   24.2355 N   0  0  0  0  0  0
  -23.4069  -30.5045   21.5587 C   0  0  2  0  0  0
  -24.8565  -28.9855   20.1129 C   0  0  0  0  0  0
  -22.7469  -29.4632   22.4958 C   0  0  0  0  0  0
  -18.0279  -28.1372   22.8507 C   0  0  0  0  0  0
  -24.1482  -36.7336   23.2622 C   0  0  0  0  0  0
  -25.9488  -30.8230   21.3809 C   0  0  0  0  0  0
  -26.0238  -29.4540   20.7266 C   0  0  0  0  0  0
  -27.2014  -28.6520   20.7314 C   0  0  0  0  0  0
  -26.0119  -26.9627   19.4627 C   0  0  0  0  0  0
  -24.8500  -27.7418   19.4742 C   0  0  0  0  0  0
  -23.6276  -29.8641   20.1646 C   0  0  0  0  0  0
  -25.4094  -36.3122   24.0336 C   0  0  1  0  0  0
  -20.5891  -28.3654   23.1369 C   0  0  2  0  0  0
  -20.6847  -26.9373   22.5462 C   0  0  0  0  0  0
  -19.5795  -26.6357   21.5265 C   0  0  0  0  0  0
  -18.1921  -26.7939   22.1593 C   0  0  0  0  0  0
  -19.1525  -28.8823   23.2929 C   0  0  0  0  0  0
  -18.9450  -30.1458   23.8908 C   0  0  0  0  0  0
  -17.6436  -30.6595   24.0544 C   0  0  0  0  0  0
  -25.9001  -34.9500   23.5120 C   0  0  0  0  0  0
  -16.5347  -29.9087   23.6309 C   0  0  0  0  0  0
  -16.7263  -28.6517   23.0323 C   0  0  0  0  0  0
  -26.4499  -31.6639   25.0735 C   0  0  0  0  0  0
  -25.3772  -31.3783   26.1481 C   0  0  0  0  0  0
  -27.0288  -30.3087   24.6094 C   0  0  0  0  0  0
  -27.6067  -32.4308   25.7547 C   0  0  0  0  0  0
  -27.5576  -37.1831   24.8444 C   0  0  0  0  0  0
  -21.4171  -29.3044   22.3752 N   0  0  0  0  0  0
  -26.4275  -37.3820   23.9409 N   0  0  0  0  0  0
  -24.6792  -31.0720   22.1162 N   0  0  0  0  0  0
  -23.4265  -28.8118   23.2922 O   0  0  0  0  0  0
  -28.3360  -26.5293   20.1500 O   0  0  0  0  0  0
  -26.5512  -34.8946   22.4655 O   0  0  0  0  0  0
  -23.5376  -32.1409   23.7570 O   0  0  0  0  0  0
  -29.7062  -17.7394   17.8482 C   0  0  0  0  0  0
  -29.6743  -16.6268   18.6904 C   0  0  0  0  0  0
  -30.0829  -18.0956   20.5954 C   0  0  0  0  0  0
  -29.9265  -19.0346   18.3538 C   0  0  0  0  0  0
  -30.0573  -19.2650   19.7599 C   0  0  0  0  0  0
  -29.9174  -16.7786   20.0645 C   0  0  0  0  0  0
  -30.0260  -20.1009   17.2804 C   0  0  0  0  0  0
  -26.3933  -21.5483   21.1493 C   0  0  0  0  0  0
  -30.5675  -24.4584   19.4165 C   0  0  0  0  0  0
  -28.6805  -23.1388   18.4392 C   0  0  0  0  0  0
  -29.1891  -21.1325   22.5363 C   0  0  0  0  0  0
  -30.2669  -20.7084   20.3525 C   0  0  0  0  0  0
  -27.6735  -20.9013   20.5713 C   0  0  0  0  0  0
  -29.0777  -23.0879   20.9799 C   0  0  0  0  0  0
  -28.1166  -25.1843   19.6229 C   0  0  0  0  0  0
  -29.1273  -23.9660   19.6575 C   0  0  0  0  0  0
  -29.0485  -21.4798   21.0368 C   0  0  1  0  0  0
  -29.9185  -15.5816   20.8584 N   0  0  0  0  0  0
  -31.4654  -12.3883   19.1805 H   0  0  0  0  0  0
  -30.2878  -11.3107   19.8751 H   0  0  0  0  0  0
  -29.7418  -11.7207   17.4775 H   0  0  0  0  0  0
  -29.6869  -13.4436   17.7381 H   0  0  0  0  0  0
  -27.8273  -11.3036   18.8189 H   0  0  0  0  0  0
  -27.3685  -12.6206   17.7785 H   0  0  0  0  0  0
  -27.6936  -14.2509   19.5550 H   0  0  0  0  0  0
  -28.6574  -11.9871   21.3584 H   0  0  0  0  0  0
  -28.4424  -13.6419   21.8608 H   0  0  0  0  0  0
  -25.2694   -9.5661   22.4741 H   0  0  0  0  0  0
  -23.9945   -7.4622   22.7461 H   0  0  0  0  0  0
  -21.0776   -8.8708   19.8959 H   0  0  0  0  0  0
  -22.3620  -10.9604   19.6151 H   0  0  0  0  0  0
  -21.2027   -7.6106   23.9669 H   0  0  0  0  0  0
  -21.1513   -6.0502   25.9065 H   0  0  0  0  0  0
  -22.0598   -2.7556   23.2874 H   0  0  0  0  0  0
  -22.4054  -11.9957   22.4841 H   0  0  0  0  0  0
  -21.1089  -13.1270   22.2549 H   0  0  0  0  0  0
  -24.6750  -15.8450   20.5199 H   0  0  0  0  0  0
  -26.2964  -15.6183   20.1033 H   0  0  0  0  0  0
  -26.7140  -32.5585   23.1189 H   0  0  0  0  0  0
  -25.0257  -33.9829   25.0611 H   0  0  0  0  0  0
  -22.6893  -31.3200   21.4318 H   0  0  0  0  0  0
  -23.3758  -35.9653   23.3288 H   0  0  0  0  0  0
  -24.3561  -36.8925   22.2017 H   0  0  0  0  0  0
  -23.7201  -37.6537   23.6634 H   0  0  0  0  0  0
  -26.0394  -31.5894   20.6102 H   0  0  0  0  0  0
  -26.8444  -30.8950   21.9866 H   0  0  0  0  0  0
  -28.0885  -29.0154   21.2283 H   0  0  0  0  0  0
  -25.9147  -26.0293   18.9280 H   0  0  0  0  0  0
  -23.9568  -27.3863   18.9776 H   0  0  0  0  0  0
  -23.7705  -30.6576   19.4304 H   0  0  0  0  0  0
  -22.7469  -29.3125   19.8316 H   0  0  0  0  0  0
  -25.1282  -36.2011   25.0833 H   0  0  0  0  0  0
  -20.9961  -28.3181   24.1506 H   0  0  0  0  0  0
  -20.5862  -26.2186   23.3617 H   0  0  0  0  0  0
  -21.6730  -26.7500   22.1197 H   0  0  0  0  0  0
  -19.6957  -25.6280   21.1271 H   0  0  0  0  0  0
  -19.6802  -27.3243   20.6871 H   0  0  0  0  0  0
  -17.4290  -26.6871   21.3875 H   0  0  0  0  0  0
  -18.0107  -25.9963   22.8844 H   0  0  0  0  0  0
  -19.7920  -30.7273   24.2303 H   0  0  0  0  0  0
  -17.4945  -31.6289   24.5144 H   0  0  0  0  0  0
  -15.5337  -30.2981   23.7635 H   0  0  0  0  0  0
  -15.8648  -28.0909   22.6996 H   0  0  0  0  0  0
  -24.5988  -30.7056   25.7886 H   0  0  0  0  0  0
  -24.8921  -32.2953   26.4848 H   0  0  0  0  0  0
  -25.8123  -30.9065   27.0295 H   0  0  0  0  0  0
  -26.2835  -29.6889   24.1102 H   0  0  0  0  0  0
  -27.4008  -29.7288   25.4544 H   0  0  0  0  0  0
  -27.8708  -30.4400   23.9289 H   0  0  0  0  0  0
  -27.2719  -33.3619   26.2155 H   0  0  0  0  0  0
  -28.3958  -32.6804   25.0440 H   0  0  0  0  0  0
  -28.0671  -31.8370   26.5466 H   0  0  0  0  0  0
  -28.2600  -38.0132   24.7508 H   0  0  0  0  0  0
  -28.1077  -36.2652   24.6294 H   0  0  0  0  0  0
  -27.2270  -37.1506   25.8841 H   0  0  0  0  0  0
  -20.9243  -29.8819   21.7092 H   0  0  0  0  0  0
  -26.0176  -38.2894   24.1481 H   0  0  0  0  0  0
  -29.5760  -17.5823   16.7870 H   0  0  0  0  0  0
  -29.5016  -15.6512   18.2564 H   0  0  0  0  0  0
  -30.2515  -18.2082   21.6549 H   0  0  0  0  0  0
  -30.4192  -19.6611   16.3628 H   0  0  0  0  0  0
  -30.6958  -20.9232   17.5144 H   0  0  0  0  0  0
  -29.0341  -20.4863   17.0413 H   0  0  0  0  0  0
  -25.5144  -20.9742   20.8498 H   0  0  0  0  0  0
  -26.2472  -22.5629   20.7793 H   0  0  0  0  0  0
  -26.3911  -21.5957   22.2394 H   0  0  0  0  0  0
  -31.3024  -23.6648   19.5608 H   0  0  0  0  0  0
  -30.8184  -25.2651   20.1073 H   0  0  0  0  0  0
  -30.7119  -24.8402   18.4056 H   0  0  0  0  0  0
  -29.1687  -22.1840   18.4010 H   0  0  0  0  0  0
  -28.9173  -23.6410   17.5008 H   0  0  0  0  0  0
  -27.6017  -22.9600   18.4434 H   0  0  0  0  0  0
  -29.0940  -20.0608   22.7051 H   0  0  0  0  0  0
  -28.4274  -21.6195   23.1422 H   0  0  0  0  0  0
  -30.1581  -21.4396   22.9356 H   0  0  0  0  0  0
  -30.6916  -21.3428   19.5840 H   0  0  0  0  0  0
  -31.1127  -20.6688   21.0406 H   0  0  0  0  0  0
  -27.6031  -20.9109   19.4870 H   0  0  0  0  0  0
  -27.6432  -19.8452   20.8367 H   0  0  0  0  0  0
  -28.2140  -23.4355   21.5469 H   0  0  0  0  0  0
  -29.9091  -23.4137   21.6056 H   0  0  0  0  0  0
  -27.1990  -24.7897   20.0630 H   0  0  0  0  0  0
  -27.9105  -25.3713   18.5657 H   0  0  0  0  0  0
  -29.0040  -15.3176   21.1878 H   0  0  0  0  0  0
  1 25  1  0  0  0
  1 30  2  0  0  0
  1 88  1  0  0  0
  2  3  1  0  0  0
  2 25  1  0  0  0
  2 89  1  0  0  0
  2 90  1  0  0  0
  3  4  1  0  0  0
  3 91  1  0  0  0
  3 92  1  0  0  0
  4  5  1  0  0  0
  4 93  1  0  0  0
  4 94  1  0  0  0
  5  6  1  0  0  0
  5 26  1  0  0  0
  5 95  1  0  0  0
  6 25  1  0  0  0
  6 96  1  0  0  0
  6 97  1  0  0  0
  7  8  2  0  0  0
  7 26  1  0  0  0
  7 29  1  0  0  0
  8  9  1  0  0  0
  8 22  1  0  0  0
  9 10  1  0  0  0
  9 27  2  0  0  0
 10 11  2  0  0  0
 10 15  1  0  0  0
 11 12  1  0  0  0
 11 98  1  0  0  0
 12 13  2  0  0  0
 12 99  1  0  0  0
 13 14  1  0  0  0
 13 31  1  0  0  0
 14 15  2  0  0  0
 14100  1  0  0  0
 15101  1  0  0  0
 16 17  2  0  0  0
 16 21  1  0  0  0
 16 31  1  0  0  0
 17 18  1  0  0  0
 17102  1  0  0  0
 18 19  2  0  0  0
 18103  1  0  0  0
 19 20  1  0  0  0
 19 24  1  0  0  0
 20 21  2  0  0  0
 20104  1  0  0  0
 21 23  1  0  0  0
 22 28  1  0  0  0
 22 32  2  0  0  0
 26 27  1  0  0  0
 28105  1  0  0  0
 28106  1  0  0  0
 29107  1  0  0  0
 29108  1  0  0  0
 33 34  1  0  0  0
 33 66  1  0  0  0
 33 70  2  0  0  0
 34 36  1  0  0  0
 34 59  1  0  0  0
 34109  1  0  0  0
 35 44  2  0  0  0
 35 45  1  0  0  0
 35 68  1  0  0  0
 36 56  1  0  0  0
 36110  1  0  0  0
 37 39  1  0  0  0
 37 47  1  0  0  0
 37 66  1  0  0  0
 37111  1  0  0  0
 38 43  2  0  0  0
 38 46  1  0  0  0
 38 47  1  0  0  0
 39 64  1  0  0  0
 39 67  2  0  0  0
 40 52  1  0  0  0
 40 53  2  0  0  0
 40 58  1  0  0  0
 41112  1  0  0  0
 41113  1  0  0  0
 41114  1  0  0  0
 41 48  1  0  0  0
 42 43  1  0  0  0
 42 66  1  0  0  0
 42115  1  0  0  0
 42116  1  0  0  0
 43 44  1  0  0  0
 44117  1  0  0  0
 45 46  2  0  0  0
 45118  1  0  0  0
 46119  1  0  0  0
 47120  1  0  0  0
 47121  1  0  0  0
 48 56  1  0  0  0
 48 65  1  0  0  0
 48122  1  0  0  0
 49 50  1  0  0  0
 49 53  1  0  0  0
 49 64  1  0  0  0
 49123  1  0  0  0
 50 51  1  0  0  0
 50124  1  0  0  0
 50125  1  0  0  0
 51 52  1  0  0  0
 51126  1  0  0  0
 51127  1  0  0  0
 52128  1  0  0  0
 52129  1  0  0  0
 53 54  1  0  0  0
 54 55  2  0  0  0
 54130  1  0  0  0
 55 57  1  0  0  0
 55131  1  0  0  0
 56 69  2  0  0  0
 57 58  2  0  0  0
 57132  1  0  0  0
 58133  1  0  0  0
 59 60  1  0  0  0
 59 61  1  0  0  0
 59 62  1  0  0  0
 60134  1  0  0  0
 60135  1  0  0  0
 60136  1  0  0  0
 61137  1  0  0  0
 61138  1  0  0  0
 61139  1  0  0  0
 62140  1  0  0  0
 62141  1  0  0  0
 62142  1  0  0  0
 63 65  1  0  0  0
 63143  1  0  0  0
 63144  1  0  0  0
 63145  1  0  0  0
 64146  1  0  0  0
 65147  1  0  0  0
 68 85  1  0  0  0
 71 72  2  0  0  0
 71 74  1  0  0  0
 71148  1  0  0  0
 72 76  1  0  0  0
 72149  1  0  0  0
 73 75  1  0  0  0
 73 76  2  0  0  0
 73150  1  0  0  0
 74 75  2  0  0  0
 74 77  1  0  0  0
 75 82  1  0  0  0
 76 88  1  0  0  0
 77151  1  0  0  0
 77152  1  0  0  0
 77153  1  0  0  0
 78 83  1  0  0  0
 78154  1  0  0  0
 78155  1  0  0  0
 78156  1  0  0  0
 79157  1  0  0  0
 79158  1  0  0  0
 79159  1  0  0  0
 79 86  1  0  0  0
 80 86  1  0  0  0
 80160  1  0  0  0
 80161  1  0  0  0
 80162  1  0  0  0
 81163  1  0  0  0
 81164  1  0  0  0
 81165  1  0  0  0
 81 87  1  0  0  0
 82 87  1  0  0  0
 82166  1  0  0  0
 82167  1  0  0  0
 83 87  1  0  0  0
 83168  1  0  0  0
 83169  1  0  0  0
 84 86  1  0  0  0
 84 87  1  0  0  0
 84170  1  0  0  0
 84171  1  0  0  0
 85 86  1  0  0  0
 85172  1  0  0  0
 85173  1  0  0  0
 88174  1  0  0  0
M  ISO  4   1 100  68 101  85 101  88 100
M  END
> <chiral flag>
0

> <version>
0

> <s_m_source_file>
/data/baiqing/PycharmProjects/Reinvent-master-3.2/result/LINK_invent/BTK/process_docking_weight1_custom_product_contain_oxygen_bond_distance_aromatic_linkinvent_7_9_3/rearranged_h_0140.sdf

> <i_m_source_file_index>
42

> <r_mmod_Potential_Energy-OPLS-2005>
184.73974609375

> <r_mmod_Stretch_Energy-OPLS-2005>
74.9349136352539

> <r_mmod_Bend_Energy-OPLS-2005>
181.128768920898

> <r_mmod_Torsional_Energy-OPLS-2005>
281.286499023438

> <r_mmod_Improper_Torsional_Energy-OPLS-2005>
8.22109603881836

> <r_mmod_Van_der_Waal_Energy-OPLS-2005>
180.73844909668

> <r_mmod_Electrostatic_Energy-OPLS-2005>
-377.464721679688

> <r_mmod_Solvation_Energy-OPLS-2005>
-192.796325683594

> <b_mmod_Minimization_Converged-OPLS-2005>
0

> <r_mmod_RMS_Derivative-OPLS-2005>
6.7356538772583

$$$$
42
                    3D
 Structure written by MMmdl.
166174  0  0  1  0            999 V2000
  -30.6701  -14.4734   20.5411 C   0  0  0  0  0  0
  -30.4270  -12.2924   19.4220 C   0  0  0  0  0  0
  -29.4959  -12.4915   18.2071 C   0  0  0  0  0  0
  -28.0171  -12.3444   18.6230 C   0  0  0  0  0  0
  -27.6641  -13.1962   19.8721 C   0  0  2  0  0  0
  -28.7022  -12.9680   20.9936 C   0  0  0  0  0  0
  -25.2640  -13.8127   20.5667 C   0  0  0  0  0  0
  -24.1863  -13.0427   20.9163 C   0  0  0  0  0  0
  -24.6391  -11.6880   20.8739 C   0  0  0  0  0  0
  -23.9041  -10.4281   21.0396 C   0  0  0  0  0  0
  -24.3604   -9.4208   21.9169 C   0  0  0  0  0  0
  -23.6297   -8.2242   22.0747 C   0  0  0  0  0  0
  -22.4286   -8.0276   21.3538 C   0  0  0  0  0  0
  -21.9900   -9.0241   20.4641 C   0  0  0  0  0  0
  -22.7218  -10.2123   20.3050 C   0  0  0  0  0  0
  -21.6856   -6.0727   22.5277 C   0  0  0  0  0  0
  -21.4003   -6.5638   23.8205 C   0  0  0  0  0  0
  -21.3663   -5.6798   24.9170 C   0  0  0  0  0  0
  -21.6049   -4.3063   24.7223 C   0  0  0  0  0  0
  -21.8825   -3.8146   23.4351 C   0  0  0  0  0  0
  -21.9190   -4.6952   22.3401 C   0  0  0  0  0  0
  -22.7905  -13.5248   21.1843 C   0  0  0  0  0  0
  -22.1673   -4.2135   21.0980 F   0  0  0  0  0  0
  -21.5622   -3.4553   25.7733 F   0  0  0  0  0  0
  -30.0357  -13.2739   20.4437 N   0  0  0  0  0  0
  -26.3052  -12.9277   20.3346 N   0  0  0  0  0  0
  -25.9317  -11.6449   20.5763 N   0  0  0  0  0  0
  -22.0562  -12.8219   22.0391 N   0  0  0  0  0  0
  -25.4418  -15.1835   20.4067 N   0  0  0  0  0  0
  -31.8096  -14.6703   20.1085 O   0  0  0  0  0  0
  -21.6658   -6.8875   21.4243 O   0  0  0  0  0  0
  -22.3589  -14.5569   20.6720 O   0  0  0  0  0  0
  -24.6136  -31.8686   23.2092 C   0  0  0  0  0  0
  -25.9035  -32.4824   23.8398 C   0  0  1  0  0  0
  -27.2326  -27.4427   20.1009 C   0  0  0  0  0  0
  -25.5913  -33.8621   24.2348 N   0  0  0  0  0  0
  -23.4008  -30.4927   21.5489 C   0  0  2  0  0  0
  -24.8519  -28.9657   20.1070 C   0  0  0  0  0  0
  -22.7400  -29.4673   22.4973 C   0  0  0  0  0  0
  -18.0265  -28.1378   22.8494 C   0  0  0  0  0  0
  -24.1475  -36.7328   23.2618 C   0  0  0  0  0  0
  -25.9285  -30.8433   21.3570 C   0  0  0  0  0  0
  -26.0113  -29.4798   20.6997 C   0  0  0  0  0  0
  -27.2103  -28.7274   20.6885 C   0  0  0  0  0  0
  -26.0604  -26.9465   19.4905 C   0  0  0  0  0  0
  -24.8731  -27.7017   19.4918 C   0  0  0  0  0  0
  -23.6094  -29.8271   20.1608 C   0  0  0  0  0  0
  -25.4089  -36.3098   24.0316 C   0  0  1  0  0  0
  -20.5852  -28.3687   23.1306 C   0  0  2  0  0  0
  -20.6770  -26.9439   22.5385 C   0  0  0  0  0  0
  -19.5726  -26.6391   21.5210 C   0  0  0  0  0  0
  -18.1922  -26.7904   22.1641 C   0  0  0  0  0  0
  -19.1509  -28.8849   23.2890 C   0  0  0  0  0  0
  -18.9432  -30.1451   23.8896 C   0  0  0  0  0  0
  -17.6426  -30.6567   24.0564 C   0  0  0  0  0  0
  -25.9028  -34.9460   23.5124 C   0  0  0  0  0  0
  -16.5329  -29.9066   23.6325 C   0  0  0  0  0  0
  -16.7250  -28.6487   23.0347 C   0  0  0  0  0  0
  -26.4495  -31.6608   25.0711 C   0  0  0  0  0  0
  -25.3801  -31.3734   26.1494 C   0  0  0  0  0  0
  -27.0316  -30.3028   24.6122 C   0  0  0  0  0  0
  -27.6088  -32.4358   25.7428 C   0  0  0  0  0  0
  -27.5562  -37.1792   24.8430 C   0  0  0  0  0  0
  -21.4117  -29.3084   22.3737 N   0  0  0  0  0  0
  -26.4272  -37.3778   23.9375 N   0  0  0  0  0  0
  -24.6654  -31.0812   22.0991 N   0  0  0  0  0  0
  -23.4160  -28.8179   23.2989 O   0  0  0  0  0  0
  -28.3555  -26.6486   20.1713 O   0  0  0  0  0  0
  -26.5563  -34.8901   22.4659 O   0  0  0  0  0  0
  -23.5333  -32.1468   23.7475 O   0  0  0  0  0  0
  -29.6909  -19.1796   21.5408 C   0  0  0  0  0  0
  -30.2413  -18.7395   19.2223 C   0  0  0  0  0  0
  -29.6907  -17.7921   21.8158 C   0  0  0  0  0  0
  -29.9729  -19.6708   20.2455 C   0  0  0  0  0  0
  -29.9868  -16.8609   20.7857 C   0  0  0  0  0  0
  -30.2356  -17.3523   19.4776 C   0  0  0  0  0  0
  -29.7437  -23.5216   20.4673 C   0  0  0  0  0  0
  -27.8243  -17.2101   23.4198 C   0  0  0  0  0  0
  -30.5861  -25.6511   21.5586 C   0  0  0  0  0  0
  -29.0789  -24.1472   22.8638 C   0  0  0  0  0  0
  -29.3423  -17.3433   23.2280 C   0  0  0  0  0  0
  -29.5832  -22.0546   20.9378 C   0  0  0  0  0  0
  -28.1189  -25.4539   20.9458 C   0  0  0  0  0  0
  -29.3843  -24.6859   21.4418 C   0  0  0  0  0  0
  -29.9152  -15.4612   21.0606 N   0  0  0  0  0  0
  -29.9850  -21.0471   19.9482 N   0  0  0  0  0  0
  -30.1557  -23.7577   19.3261 O   0  0  0  0  0  0
  -30.4152  -16.5003   18.4374 F   0  0  0  0  0  0
  -31.4712  -12.3933   19.1209 H   0  0  0  0  0  0
  -30.3291  -11.2817   19.8205 H   0  0  0  0  0  0
  -29.7418  -11.7674   17.4287 H   0  0  0  0  0  0
  -29.6589  -13.4788   17.7725 H   0  0  0  0  0  0
  -27.8437  -11.2902   18.8425 H   0  0  0  0  0  0
  -27.3604  -12.5916   17.7893 H   0  0  0  0  0  0
  -27.7125  -14.2433   19.5729 H   0  0  0  0  0  0
  -28.6708  -11.9320   21.3321 H   0  0  0  0  0  0
  -28.4635  -13.5594   21.8776 H   0  0  0  0  0  0
  -25.2742   -9.5711   22.4745 H   0  0  0  0  0  0
  -24.0007   -7.4642   22.7479 H   0  0  0  0  0  0
  -21.0820   -8.8775   19.8957 H   0  0  0  0  0  0
  -22.3673  -10.9671   19.6176 H   0  0  0  0  0  0
  -21.2004   -7.6147   23.9705 H   0  0  0  0  0  0
  -21.1481   -6.0529   25.9070 H   0  0  0  0  0  0
  -22.0601   -2.7607   23.2864 H   0  0  0  0  0  0
  -22.4171  -11.9849   22.4747 H   0  0  0  0  0  0
  -21.1196  -13.1258   22.2624 H   0  0  0  0  0  0
  -24.6819  -15.8464   20.5134 H   0  0  0  0  0  0
  -26.2982  -15.6156   20.0873 H   0  0  0  0  0  0
  -26.7108  -32.5539   23.1167 H   0  0  0  0  0  0
  -25.0111  -33.9786   25.0529 H   0  0  0  0  0  0
  -22.6902  -31.3091   21.4122 H   0  0  0  0  0  0
  -23.3696  -35.9698   23.3270 H   0  0  0  0  0  0
  -24.3572  -36.8941   22.2028 H   0  0  0  0  0  0
  -23.7265  -37.6554   23.6637 H   0  0  0  0  0  0
  -26.0423  -31.6156   20.5931 H   0  0  0  0  0  0
  -26.8154  -30.8928   21.9755 H   0  0  0  0  0  0
  -28.1073  -29.1101   21.1568 H   0  0  0  0  0  0
  -26.0626  -25.9728   19.0208 H   0  0  0  0  0  0
  -23.9841  -27.3008   19.0254 H   0  0  0  0  0  0
  -23.7119  -30.6024   19.3996 H   0  0  0  0  0  0
  -22.7336  -29.2447   19.8700 H   0  0  0  0  0  0
  -25.1262  -36.1976   25.0816 H   0  0  0  0  0  0
  -20.9947  -28.3232   24.1423 H   0  0  0  0  0  0
  -20.5731  -26.2287   23.3548 H   0  0  0  0  0  0
  -21.6628  -26.7511   22.1155 H   0  0  0  0  0  0
  -19.6930  -25.6335   21.1172 H   0  0  0  0  0  0
  -19.6619  -27.3277   20.6792 H   0  0  0  0  0  0
  -17.4170  -26.6612   21.4080 H   0  0  0  0  0  0
  -18.0337  -26.0074   22.9066 H   0  0  0  0  0  0
  -19.7908  -30.7287   24.2218 H   0  0  0  0  0  0
  -17.4964  -31.6254   24.5146 H   0  0  0  0  0  0
  -15.5343  -30.3013   23.7628 H   0  0  0  0  0  0
  -15.8666  -28.0797   22.7042 H   0  0  0  0  0  0
  -25.8253  -30.9046   27.0285 H   0  0  0  0  0  0
  -24.6032  -30.6957   25.7908 H   0  0  0  0  0  0
  -24.8941  -32.2898   26.4868 H   0  0  0  0  0  0
  -26.2736  -29.6612   24.1616 H   0  0  0  0  0  0
  -27.4521  -29.7493   25.4532 H   0  0  0  0  0  0
  -27.8418  -30.4269   23.8934 H   0  0  0  0  0  0
  -27.2641  -33.3519   26.2239 H   0  0  0  0  0  0
  -28.3750  -32.7161   25.0184 H   0  0  0  0  0  0
  -28.0967  -31.8408   26.5164 H   0  0  0  0  0  0
  -28.2595  -38.0074   24.7471 H   0  0  0  0  0  0
  -28.1054  -36.2612   24.6268 H   0  0  0  0  0  0
  -27.2288  -37.1466   25.8838 H   0  0  0  0  0  0
  -20.9306  -29.8833   21.6953 H   0  0  0  0  0  0
  -26.0160  -38.2861   24.1361 H   0  0  0  0  0  0
  -29.4629  -19.8596   22.3483 H   0  0  0  0  0  0
  -30.4406  -19.0778   18.2139 H   0  0  0  0  0  0
  -27.5752  -16.9615   24.4525 H   0  0  0  0  0  0
  -27.4086  -16.4308   22.7820 H   0  0  0  0  0  0
  -27.3125  -18.1419   23.1753 H   0  0  0  0  0  0
  -31.4606  -25.1502   21.9799 H   0  0  0  0  0  0
  -30.3512  -26.4963   22.2075 H   0  0  0  0  0  0
  -30.8765  -26.0562   20.5877 H   0  0  0  0  0  0
  -29.9082  -23.5740   23.2774 H   0  0  0  0  0  0
  -28.1932  -23.5100   22.8750 H   0  0  0  0  0  0
  -28.8844  -24.9619   23.5636 H   0  0  0  0  0  0
  -29.7321  -18.0767   23.9365 H   0  0  0  0  0  0
  -29.8498  -16.4091   23.4773 H   0  0  0  0  0  0
  -28.5403  -21.8979   21.2145 H   0  0  0  0  0  0
  -30.1850  -21.9165   21.8354 H   0  0  0  0  0  0
  -27.5307  -25.7412   21.8197 H   0  0  0  0  0  0
  -27.4743  -24.7728   20.3901 H   0  0  0  0  0  0
  -29.0845  -15.1566   21.5429 H   0  0  0  0  0  0
  -30.1103  -21.3793   18.9952 H   0  0  0  0  0  0
  1 25  1  0  0  0
  1 30  2  0  0  0
  1 85  1  0  0  0
  2  3  1  0  0  0
  2 25  1  0  0  0
  2 89  1  0  0  0
  2 90  1  0  0  0
  3  4  1  0  0  0
  3 91  1  0  0  0
  3 92  1  0  0  0
  4  5  1  0  0  0
  4 93  1  0  0  0
  4 94  1  0  0  0
  5  6  1  0  0  0
  5 26  1  0  0  0
  5 95  1  0  0  0
  6 25  1  0  0  0
  6 96  1  0  0  0
  6 97  1  0  0  0
  7  8  2  0  0  0
  7 26  1  0  0  0
  7 29  1  0  0  0
  8  9  1  0  0  0
  8 22  1  0  0  0
  9 10  1  0  0  0
  9 27  2  0  0  0
 10 11  2  0  0  0
 10 15  1  0  0  0
 11 12  1  0  0  0
 11 98  1  0  0  0
 12 13  2  0  0  0
 12 99  1  0  0  0
 13 14  1  0  0  0
 13 31  1  0  0  0
 14 15  2  0  0  0
 14100  1  0  0  0
 15101  1  0  0  0
 16 17  2  0  0  0
 16 21  1  0  0  0
 16 31  1  0  0  0
 17 18  1  0  0  0
 17102  1  0  0  0
 18 19  2  0  0  0
 18103  1  0  0  0
 19 20  1  0  0  0
 19 24  1  0  0  0
 20 21  2  0  0  0
 20104  1  0  0  0
 21 23  1  0  0  0
 22 28  1  0  0  0
 22 32  2  0  0  0
 26 27  1  0  0  0
 28105  1  0  0  0
 28106  1  0  0  0
 29107  1  0  0  0
 29108  1  0  0  0
 33 34  1  0  0  0
 33 66  1  0  0  0
 33 70  2  0  0  0
 34 36  1  0  0  0
 34 59  1  0  0  0
 34109  1  0  0  0
 35 44  2  0  0  0
 35 45  1  0  0  0
 35 68  1  0  0  0
 36 56  1  0  0  0
 36110  1  0  0  0
 37 39  1  0  0  0
 37 47  1  0  0  0
 37 66  1  0  0  0
 37111  1  0  0  0
 38 43  2  0  0  0
 38 46  1  0  0  0
 38 47  1  0  0  0
 39 64  1  0  0  0
 39 67  2  0  0  0
 40 52  1  0  0  0
 40 53  2  0  0  0
 40 58  1  0  0  0
 41112  1  0  0  0
 41113  1  0  0  0
 41114  1  0  0  0
 41 48  1  0  0  0
 42 43  1  0  0  0
 42 66  1  0  0  0
 42115  1  0  0  0
 42116  1  0  0  0
 43 44  1  0  0  0
 44117  1  0  0  0
 45 46  2  0  0  0
 45118  1  0  0  0
 46119  1  0  0  0
 47120  1  0  0  0
 47121  1  0  0  0
 48 56  1  0  0  0
 48 65  1  0  0  0
 48122  1  0  0  0
 49 50  1  0  0  0
 49 53  1  0  0  0
 49 64  1  0  0  0
 49123  1  0  0  0
 50 51  1  0  0  0
 50124  1  0  0  0
 50125  1  0  0  0
 51 52  1  0  0  0
 51126  1  0  0  0
 51127  1  0  0  0
 52128  1  0  0  0
 52129  1  0  0  0
 53 54  1  0  0  0
 54 55  2  0  0  0
 54130  1  0  0  0
 55 57  1  0  0  0
 55131  1  0  0  0
 56 69  2  0  0  0
 57 58  2  0  0  0
 57132  1  0  0  0
 58133  1  0  0  0
 59 60  1  0  0  0
 59 61  1  0  0  0
 59 62  1  0  0  0
 60134  1  0  0  0
 60135  1  0  0  0
 60136  1  0  0  0
 61137  1  0  0  0
 61138  1  0  0  0
 61139  1  0  0  0
 62140  1  0  0  0
 62141  1  0  0  0
 62142  1  0  0  0
 63 65  1  0  0  0
 63143  1  0  0  0
 63144  1  0  0  0
 63145  1  0  0  0
 64146  1  0  0  0
 65147  1  0  0  0
 68 83  1  0  0  0
 71 73  2  0  0  0
 71 74  1  0  0  0
 71148  1  0  0  0
 72 74  2  0  0  0
 72 76  1  0  0  0
 72149  1  0  0  0
 73 75  1  0  0  0
 73 81  1  0  0  0
 74 86  1  0  0  0
 75 76  2  0  0  0
 75 85  1  0  0  0
 76 88  1  0  0  0
 77 82  1  0  0  0
 77 84  1  0  0  0
 77 87  2  0  0  0
 78 81  1  0  0  0
 78150  1  0  0  0
 78151  1  0  0  0
 78152  1  0  0  0
 79153  1  0  0  0
 79154  1  0  0  0
 79155  1  0  0  0
 79 84  1  0  0  0
 80 84  1  0  0  0
 80156  1  0  0  0
 80157  1  0  0  0
 80158  1  0  0  0
 81159  1  0  0  0
 81160  1  0  0  0
 82 86  1  0  0  0
 82161  1  0  0  0
 82162  1  0  0  0
 83 84  1  0  0  0
 83163  1  0  0  0
 83164  1  0  0  0
 85165  1  0  0  0
 86166  1  0  0  0
M  ISO  4   1 100  68 101  83 101  85 100
M  END
> <chiral flag>
0

> <version>
0

> <s_m_source_file>
/data/baiqing/PycharmProjects/Reinvent-master-3.2/result/LINK_invent/BTK/process_docking_weight1_custom_product_contain_oxygen_bond_distance_aromatic_linkinvent_7_9_3/rearranged_h_0140.sdf

> <i_m_source_file_index>
43

> <r_mmod_Potential_Energy-OPLS-2005>
-11.3591318130493

> <r_mmod_Stretch_Energy-OPLS-2005>
41.2894554138184

> <r_mmod_Bend_Energy-OPLS-2005>
106.684730529785

> <r_mmod_Torsional_Energy-OPLS-2005>
258.026275634766

> <r_mmod_Improper_Torsional_Energy-OPLS-2005>
4.03107309341431

> <r_mmod_Van_der_Waal_Energy-OPLS-2005>
162.14225769043

> <r_mmod_Electrostatic_Energy-OPLS-2005>
-371.676483154297

> <r_mmod_Solvation_Energy-OPLS-2005>
-227.558822631836

> <b_mmod_Minimization_Converged-OPLS-2005>
0

> <r_mmod_RMS_Derivative-OPLS-2005>
3.83464050292969

$$$$
43
                    3D
 Structure written by MMmdl.
167175  0  0  1  0            999 V2000
  -30.6863  -14.4790   20.6249 C   0  0  0  0  0  0
  -30.4361  -12.3342   19.4083 C   0  0  0  0  0  0
  -29.4997  -12.5365   18.1985 C   0  0  0  0  0  0
  -28.0203  -12.3835   18.6086 C   0  0  0  0  0  0
  -27.6651  -13.2037   19.8783 C   0  0  2  0  0  0
  -28.7073  -12.9548   20.9912 C   0  0  0  0  0  0
  -25.2605  -13.8149   20.5670 C   0  0  0  0  0  0
  -24.1850  -13.0432   20.9152 C   0  0  0  0  0  0
  -24.6394  -11.6896   20.8703 C   0  0  0  0  0  0
  -23.9052  -10.4294   21.0376 C   0  0  0  0  0  0
  -24.3611   -9.4224   21.9164 C   0  0  0  0  0  0
  -23.6302   -8.2249   22.0746 C   0  0  0  0  0  0
  -22.4282   -8.0283   21.3542 C   0  0  0  0  0  0
  -21.9902   -9.0242   20.4636 C   0  0  0  0  0  0
  -22.7217  -10.2130   20.3039 C   0  0  0  0  0  0
  -21.6850   -6.0736   22.5278 C   0  0  0  0  0  0
  -21.4008   -6.5633   23.8217 C   0  0  0  0  0  0
  -21.3660   -5.6784   24.9165 C   0  0  0  0  0  0
  -21.6053   -4.3050   24.7215 C   0  0  0  0  0  0
  -21.8820   -3.8148   23.4330 C   0  0  0  0  0  0
  -21.9193   -4.6963   22.3389 C   0  0  0  0  0  0
  -22.7872  -13.5237   21.1817 C   0  0  0  0  0  0
  -22.1664   -4.2152   21.0961 F   0  0  0  0  0  0
  -21.5633   -3.4534   25.7724 F   0  0  0  0  0  0
  -30.0370  -13.2929   20.4513 N   0  0  0  0  0  0
  -26.3041  -12.9306   20.3357 N   0  0  0  0  0  0
  -25.9327  -11.6468   20.5731 N   0  0  0  0  0  0
  -22.0479  -12.8263   22.0370 N   0  0  0  0  0  0
  -25.4347  -15.1870   20.4116 N   0  0  0  0  0  0
  -31.7967  -14.7116   20.1340 O   0  0  0  0  0  0
  -21.6642   -6.8883   21.4249 O   0  0  0  0  0  0
  -22.3578  -14.5537   20.6652 O   0  0  0  0  0  0
  -24.6170  -31.8659   23.2115 C   0  0  0  0  0  0
  -25.9070  -32.4815   23.8384 C   0  0  1  0  0  0
  -27.2334  -27.4126   20.0973 C   0  0  0  0  0  0
  -25.5920  -33.8612   24.2310 N   0  0  0  0  0  0
  -23.4039  -30.4922   21.5510 C   0  0  2  0  0  0
  -24.8475  -28.9520   20.1162 C   0  0  0  0  0  0
  -22.7409  -29.4657   22.4983 C   0  0  0  0  0  0
  -18.0273  -28.1385   22.8495 C   0  0  0  0  0  0
  -24.1476  -36.7298   23.2643 C   0  0  0  0  0  0
  -25.9364  -30.8221   21.3712 C   0  0  0  0  0  0
  -26.0081  -29.4565   20.7140 C   0  0  0  0  0  0
  -27.1980  -28.6918   20.7040 C   0  0  0  0  0  0
  -26.0435  -26.9163   19.5134 C   0  0  0  0  0  0
  -24.8604  -27.6795   19.5173 C   0  0  0  0  0  0
  -23.6135  -29.8258   20.1645 C   0  0  0  0  0  0
  -25.4112  -36.3107   24.0329 C   0  0  1  0  0  0
  -20.5863  -28.3678   23.1314 C   0  0  2  0  0  0
  -20.6774  -26.9414   22.5422 C   0  0  0  0  0  0
  -19.5747  -26.6390   21.5219 C   0  0  0  0  0  0
  -18.1921  -26.7939   22.1622 C   0  0  0  0  0  0
  -19.1521  -28.8851   23.2903 C   0  0  0  0  0  0
  -18.9455  -30.1468   23.8903 C   0  0  0  0  0  0
  -17.6453  -30.6599   24.0569 C   0  0  0  0  0  0
  -25.9042  -34.9471   23.5119 C   0  0  0  0  0  0
  -16.5344  -29.9097   23.6344 C   0  0  0  0  0  0
  -16.7262  -28.6511   23.0359 C   0  0  0  0  0  0
  -26.4505  -31.6624   25.0739 C   0  0  0  0  0  0
  -25.3776  -31.3740   26.1501 C   0  0  0  0  0  0
  -27.0370  -30.3053   24.6183 C   0  0  0  0  0  0
  -27.6049  -32.4392   25.7509 C   0  0  0  0  0  0
  -27.5581  -37.1811   24.8467 C   0  0  0  0  0  0
  -21.4132  -29.3034   22.3703 N   0  0  0  0  0  0
  -26.4296  -37.3799   23.9412 N   0  0  0  0  0  0
  -24.6701  -31.0760   22.1013 N   0  0  0  0  0  0
  -23.4173  -28.8209   23.3031 O   0  0  0  0  0  0
  -28.4249  -26.7069   20.1235 O   0  0  0  0  0  0
  -26.5588  -34.8933   22.4671 O   0  0  0  0  0  0
  -23.5365  -32.1410   23.7522 O   0  0  0  0  0  0
  -30.7575  -19.4924   22.2299 C   0  0  0  0  0  0
  -31.0027  -17.1063   22.7278 C   0  0  0  0  0  0
  -29.8348  -17.8247   20.7114 C   0  0  0  0  0  0
  -31.2271  -18.4579   23.0700 C   0  0  0  0  0  0
  -30.0593  -19.1894   21.0378 C   0  0  0  0  0  0
  -30.3093  -16.7786   21.5430 C   0  0  0  0  0  0
  -28.6343  -24.2119   20.2652 C   0  0  0  0  0  0
  -31.0418  -19.2184   25.4887 C   0  0  0  0  0  0
  -29.9513  -22.9464   18.4980 C   0  0  0  0  0  0
  -27.5282  -22.4051   18.9147 C   0  0  0  0  0  0
  -31.9775  -18.8053   24.3451 C   0  0  0  0  0  0
  -29.6046  -20.2897   20.0626 C   0  0  0  0  0  0
  -28.5860  -25.4834   19.3731 C   0  0  0  0  0  0
  -29.3072  -21.7201   20.6304 C   0  0  0  0  0  0
  -28.8593  -22.8160   19.5863 C   0  0  0  0  0  0
  -29.9714  -15.4183   21.2797 N   0  0  0  0  0  0
  -28.4748  -24.2987   21.4885 O   0  0  0  0  0  0
  -31.4757  -12.4614   19.1033 H   0  0  0  0  0  0
  -30.3638  -11.3131   19.7871 H   0  0  0  0  0  0
  -29.7435  -11.8297   17.4042 H   0  0  0  0  0  0
  -29.6584  -13.5317   17.7789 H   0  0  0  0  0  0
  -27.8325  -11.3245   18.7879 H   0  0  0  0  0  0
  -27.3706  -12.6697   17.7803 H   0  0  0  0  0  0
  -27.7164  -14.2577   19.6041 H   0  0  0  0  0  0
  -28.6915  -11.9062   21.2903 H   0  0  0  0  0  0
  -28.4586  -13.5122   21.8954 H   0  0  0  0  0  0
  -25.2752   -9.5719   22.4748 H   0  0  0  0  0  0
  -24.0010   -7.4643   22.7475 H   0  0  0  0  0  0
  -21.0829   -8.8765   19.8949 H   0  0  0  0  0  0
  -22.3665  -10.9675   19.6161 H   0  0  0  0  0  0
  -21.2010   -7.6146   23.9727 H   0  0  0  0  0  0
  -21.1476   -6.0499   25.9070 H   0  0  0  0  0  0
  -22.0605   -2.7616   23.2817 H   0  0  0  0  0  0
  -22.4053  -11.9944   22.4831 H   0  0  0  0  0  0
  -21.1095  -13.1340   22.2495 H   0  0  0  0  0  0
  -24.6771  -15.8492   20.5379 H   0  0  0  0  0  0
  -26.2976  -15.6268   20.1183 H   0  0  0  0  0  0
  -26.7133  -32.5509   23.1132 H   0  0  0  0  0  0
  -25.0147  -33.9764   25.0504 H   0  0  0  0  0  0
  -22.6945  -31.3113   21.4154 H   0  0  0  0  0  0
  -23.3745  -35.9623   23.3318 H   0  0  0  0  0  0
  -24.3569  -36.8900   22.2054 H   0  0  0  0  0  0
  -23.7208  -37.6494   23.6656 H   0  0  0  0  0  0
  -26.0678  -31.5940   20.6114 H   0  0  0  0  0  0
  -26.8156  -30.8614   22.0031 H   0  0  0  0  0  0
  -28.0936  -29.0805   21.1683 H   0  0  0  0  0  0
  -25.9902  -25.9345   19.0681 H   0  0  0  0  0  0
  -23.9627  -27.2760   19.0683 H   0  0  0  0  0  0
  -23.7319  -30.6023   19.4076 H   0  0  0  0  0  0
  -22.7337  -29.2540   19.8639 H   0  0  0  0  0  0
  -25.1296  -36.1966   25.0821 H   0  0  0  0  0  0
  -20.9965  -28.3258   24.1431 H   0  0  0  0  0  0
  -20.5700  -26.2281   23.3609 H   0  0  0  0  0  0
  -21.6644  -26.7485   22.1196 H   0  0  0  0  0  0
  -19.6899  -25.6299   21.1253 H   0  0  0  0  0  0
  -19.6688  -27.3202   20.6748 H   0  0  0  0  0  0
  -17.4206  -26.6711   21.4008 H   0  0  0  0  0  0
  -18.0298  -26.0068   22.9000 H   0  0  0  0  0  0
  -19.7937  -30.7281   24.2245 H   0  0  0  0  0  0
  -17.5024  -31.6275   24.5182 H   0  0  0  0  0  0
  -15.5350  -30.3003   23.7675 H   0  0  0  0  0  0
  -15.8661  -28.0847   22.7063 H   0  0  0  0  0  0
  -24.5896  -30.7158   25.7835 H   0  0  0  0  0  0
  -24.9054  -32.2911   26.5027 H   0  0  0  0  0  0
  -25.8132  -30.8834   27.0213 H   0  0  0  0  0  0
  -26.2936  -29.6773   24.1264 H   0  0  0  0  0  0
  -27.4129  -29.7359   25.4695 H   0  0  0  0  0  0
  -27.8779  -30.4347   23.9366 H   0  0  0  0  0  0
  -27.2607  -33.3656   26.2126 H   0  0  0  0  0  0
  -28.3830  -32.7028   25.0333 H   0  0  0  0  0  0
  -28.0760  -31.8522   26.5402 H   0  0  0  0  0  0
  -28.2610  -38.0101   24.7526 H   0  0  0  0  0  0
  -28.1061  -36.2633   24.6281 H   0  0  0  0  0  0
  -27.2303  -37.1450   25.8872 H   0  0  0  0  0  0
  -20.9294  -29.8734   21.6906 H   0  0  0  0  0  0
  -26.0177  -38.2871   24.1423 H   0  0  0  0  0  0
  -30.9509  -20.5192   22.5073 H   0  0  0  0  0  0
  -31.3473  -16.3221   23.3882 H   0  0  0  0  0  0
  -29.2888  -17.5805   19.8112 H   0  0  0  0  0  0
  -31.6104  -19.4787   26.3813 H   0  0  0  0  0  0
  -30.3667  -18.4053   25.7565 H   0  0  0  0  0  0
  -30.4359  -20.0837   25.2183 H   0  0  0  0  0  0
  -29.7063  -23.6933   17.7436 H   0  0  0  0  0  0
  -30.0874  -22.0199   17.9435 H   0  0  0  0  0  0
  -30.9138  -23.2135   18.9354 H   0  0  0  0  0  0
  -27.1988  -23.1463   18.1851 H   0  0  0  0  0  0
  -26.7270  -22.2925   19.6470 H   0  0  0  0  0  0
  -27.6133  -21.4619   18.3745 H   0  0  0  0  0  0
  -32.6789  -19.6136   24.1317 H   0  0  0  0  0  0
  -32.5844  -17.9530   24.6582 H   0  0  0  0  0  0
  -28.7234  -19.9185   19.5404 H   0  0  0  0  0  0
  -30.3951  -20.3482   19.3150 H   0  0  0  0  0  0
  -27.8651  -25.3668   18.5658 H   0  0  0  0  0  0
  -29.5570  -25.5697   18.8860 H   0  0  0  0  0  0
  -30.2021  -22.0921   21.1310 H   0  0  0  0  0  0
  -28.5480  -21.6321   21.4078 H   0  0  0  0  0  0
  -29.0625  -15.1208   21.5968 H   0  0  0  0  0  0
  1 25  1  0  0  0
  1 30  2  0  0  0
  1 86  1  0  0  0
  2  3  1  0  0  0
  2 25  1  0  0  0
  2 88  1  0  0  0
  2 89  1  0  0  0
  3  4  1  0  0  0
  3 90  1  0  0  0
  3 91  1  0  0  0
  4  5  1  0  0  0
  4 92  1  0  0  0
  4 93  1  0  0  0
  5  6  1  0  0  0
  5 26  1  0  0  0
  5 94  1  0  0  0
  6 25  1  0  0  0
  6 95  1  0  0  0
  6 96  1  0  0  0
  7  8  2  0  0  0
  7 26  1  0  0  0
  7 29  1  0  0  0
  8  9  1  0  0  0
  8 22  1  0  0  0
  9 10  1  0  0  0
  9 27  2  0  0  0
 10 11  2  0  0  0
 10 15  1  0  0  0
 11 12  1  0  0  0
 11 97  1  0  0  0
 12 13  2  0  0  0
 12 98  1  0  0  0
 13 14  1  0  0  0
 13 31  1  0  0  0
 14 15  2  0  0  0
 14 99  1  0  0  0
 15100  1  0  0  0
 16 17  2  0  0  0
 16 21  1  0  0  0
 16 31  1  0  0  0
 17 18  1  0  0  0
 17101  1  0  0  0
 18 19  2  0  0  0
 18102  1  0  0  0
 19 20  1  0  0  0
 19 24  1  0  0  0
 20 21  2  0  0  0
 20103  1  0  0  0
 21 23  1  0  0  0
 22 28  1  0  0  0
 22 32  2  0  0  0
 26 27  1  0  0  0
 28104  1  0  0  0
 28105  1  0  0  0
 29106  1  0  0  0
 29107  1  0  0  0
 33 34  1  0  0  0
 33 66  1  0  0  0
 33 70  2  0  0  0
 34 36  1  0  0  0
 34 59  1  0  0  0
 34108  1  0  0  0
 35 44  2  0  0  0
 35 45  1  0  0  0
 35 68  1  0  0  0
 36 56  1  0  0  0
 36109  1  0  0  0
 37 39  1  0  0  0
 37 47  1  0  0  0
 37 66  1  0  0  0
 37110  1  0  0  0
 38 43  2  0  0  0
 38 46  1  0  0  0
 38 47  1  0  0  0
 39 64  1  0  0  0
 39 67  2  0  0  0
 40 52  1  0  0  0
 40 53  2  0  0  0
 40 58  1  0  0  0
 41111  1  0  0  0
 41112  1  0  0  0
 41113  1  0  0  0
 41 48  1  0  0  0
 42 43  1  0  0  0
 42 66  1  0  0  0
 42114  1  0  0  0
 42115  1  0  0  0
 43 44  1  0  0  0
 44116  1  0  0  0
 45 46  2  0  0  0
 45117  1  0  0  0
 46118  1  0  0  0
 47119  1  0  0  0
 47120  1  0  0  0
 48 56  1  0  0  0
 48 65  1  0  0  0
 48121  1  0  0  0
 49 50  1  0  0  0
 49 53  1  0  0  0
 49 64  1  0  0  0
 49122  1  0  0  0
 50 51  1  0  0  0
 50123  1  0  0  0
 50124  1  0  0  0
 51 52  1  0  0  0
 51125  1  0  0  0
 51126  1  0  0  0
 52127  1  0  0  0
 52128  1  0  0  0
 53 54  1  0  0  0
 54 55  2  0  0  0
 54129  1  0  0  0
 55 57  1  0  0  0
 55130  1  0  0  0
 56 69  2  0  0  0
 57 58  2  0  0  0
 57131  1  0  0  0
 58132  1  0  0  0
 59 60  1  0  0  0
 59 61  1  0  0  0
 59 62  1  0  0  0
 60133  1  0  0  0
 60134  1  0  0  0
 60135  1  0  0  0
 61136  1  0  0  0
 61137  1  0  0  0
 61138  1  0  0  0
 62139  1  0  0  0
 62140  1  0  0  0
 62141  1  0  0  0
 63 65  1  0  0  0
 63142  1  0  0  0
 63143  1  0  0  0
 63144  1  0  0  0
 64145  1  0  0  0
 65146  1  0  0  0
 68 83  1  0  0  0
 71 74  2  0  0  0
 71 75  1  0  0  0
 71147  1  0  0  0
 72 74  1  0  0  0
 72 76  2  0  0  0
 72148  1  0  0  0
 73 75  2  0  0  0
 73 76  1  0  0  0
 73149  1  0  0  0
 74 81  1  0  0  0
 75 82  1  0  0  0
 76 86  1  0  0  0
 77 83  1  0  0  0
 77 85  1  0  0  0
 77 87  2  0  0  0
 78 81  1  0  0  0
 78150  1  0  0  0
 78151  1  0  0  0
 78152  1  0  0  0
 79153  1  0  0  0
 79154  1  0  0  0
 79155  1  0  0  0
 79 85  1  0  0  0
 80 85  1  0  0  0
 80156  1  0  0  0
 80157  1  0  0  0
 80158  1  0  0  0
 81159  1  0  0  0
 81160  1  0  0  0
 82 84  1  0  0  0
 82161  1  0  0  0
 82162  1  0  0  0
 83163  1  0  0  0
 83164  1  0  0  0
 84 85  1  0  0  0
 84165  1  0  0  0
 84166  1  0  0  0
 86167  1  0  0  0
M  ISO  4   1 100  68 101  83 101  86 100
M  END
> <chiral flag>
0

> <version>
0

> <s_m_source_file>
/data/baiqing/PycharmProjects/Reinvent-master-3.2/result/LINK_invent/BTK/process_docking_weight1_custom_product_contain_oxygen_bond_distance_aromatic_linkinvent_7_9_3/rearranged_h_0140.sdf

> <i_m_source_file_index>
44

> <r_mmod_Potential_Energy-OPLS-2005>
32.4364433288574

> <r_mmod_Stretch_Energy-OPLS-2005>
47.5459861755371

> <r_mmod_Bend_Energy-OPLS-2005>
112.034545898438

> <r_mmod_Torsional_Energy-OPLS-2005>
243.906707763672

> <r_mmod_Improper_Torsional_Energy-OPLS-2005>
3.15756154060364

> <r_mmod_Van_der_Waal_Energy-OPLS-2005>
154.133987426758

> <r_mmod_Electrostatic_Energy-OPLS-2005>
-322.019012451172

> <r_mmod_Solvation_Energy-OPLS-2005>
-220.705474853516

> <b_mmod_Minimization_Converged-OPLS-2005>
0

> <r_mmod_RMS_Derivative-OPLS-2005>
2.59328079223633

$$$$
44
                    3D
 Structure written by MMmdl.
167175  0  0  1  0            999 V2000
  -30.6805  -14.5072   20.5666 C   0  0  0  0  0  0
  -30.4334  -12.3269   19.4250 C   0  0  0  0  0  0
  -29.4997  -12.5075   18.2089 C   0  0  0  0  0  0
  -28.0207  -12.3601   18.6198 C   0  0  0  0  0  0
  -27.6614  -13.2053   19.8713 C   0  0  2  0  0  0
  -28.7049  -12.9959   20.9927 C   0  0  0  0  0  0
  -25.2591  -13.8150   20.5667 C   0  0  0  0  0  0
  -24.1845  -13.0435   20.9182 C   0  0  0  0  0  0
  -24.6400  -11.6899   20.8743 C   0  0  0  0  0  0
  -23.9067  -10.4285   21.0412 C   0  0  0  0  0  0
  -24.3623   -9.4204   21.9187 C   0  0  0  0  0  0
  -23.6296   -8.2238   22.0751 C   0  0  0  0  0  0
  -22.4275   -8.0280   21.3545 C   0  0  0  0  0  0
  -21.9916   -9.0251   20.4646 C   0  0  0  0  0  0
  -22.7242  -10.2129   20.3058 C   0  0  0  0  0  0
  -21.6848   -6.0745   22.5283 C   0  0  0  0  0  0
  -21.4008   -6.5646   23.8220 C   0  0  0  0  0  0
  -21.3662   -5.6796   24.9177 C   0  0  0  0  0  0
  -21.6049   -4.3061   24.7227 C   0  0  0  0  0  0
  -21.8818   -3.8153   23.4346 C   0  0  0  0  0  0
  -21.9192   -4.6973   22.3402 C   0  0  0  0  0  0
  -22.7872  -13.5242   21.1848 C   0  0  0  0  0  0
  -22.1659   -4.2162   21.0983 F   0  0  0  0  0  0
  -21.5633   -3.4544   25.7740 F   0  0  0  0  0  0
  -30.0335  -13.3147   20.4400 N   0  0  0  0  0  0
  -26.3030  -12.9315   20.3346 N   0  0  0  0  0  0
  -25.9327  -11.6485   20.5767 N   0  0  0  0  0  0
  -22.0510  -12.8229   22.0404 N   0  0  0  0  0  0
  -25.4320  -15.1865   20.4048 N   0  0  0  0  0  0
  -31.8213  -14.6963   20.1333 O   0  0  0  0  0  0
  -21.6635   -6.8883   21.4242 O   0  0  0  0  0  0
  -22.3557  -14.5558   20.6707 O   0  0  0  0  0  0
  -24.6162  -31.8690   23.2131 C   0  0  0  0  0  0
  -25.9057  -32.4829   23.8421 C   0  0  1  0  0  0
  -27.2404  -27.4317   20.0987 C   0  0  0  0  0  0
  -25.5907  -33.8621   24.2360 N   0  0  0  0  0  0
  -23.4057  -30.4947   21.5526 C   0  0  2  0  0  0
  -24.8557  -28.9614   20.1233 C   0  0  0  0  0  0
  -22.7430  -29.4670   22.4988 C   0  0  0  0  0  0
  -18.0276  -28.1394   22.8486 C   0  0  0  0  0  0
  -24.1491  -36.7310   23.2639 C   0  0  0  0  0  0
  -25.9369  -30.8319   21.3719 C   0  0  0  0  0  0
  -26.0174  -29.4626   20.7281 C   0  0  0  0  0  0
  -27.2156  -28.7042   20.7250 C   0  0  0  0  0  0
  -26.0609  -26.9530   19.4953 C   0  0  0  0  0  0
  -24.8703  -27.7003   19.5084 C   0  0  0  0  0  0
  -23.6191  -29.8318   20.1667 C   0  0  0  0  0  0
  -25.4098  -36.3107   24.0358 C   0  0  1  0  0  0
  -20.5870  -28.3677   23.1317 C   0  0  2  0  0  0
  -20.6776  -26.9412   22.5423 C   0  0  0  0  0  0
  -19.5746  -26.6380   21.5231 C   0  0  0  0  0  0
  -18.1919  -26.7937   22.1627 C   0  0  0  0  0  0
  -19.1525  -28.8848   23.2899 C   0  0  0  0  0  0
  -18.9457  -30.1449   23.8919 C   0  0  0  0  0  0
  -17.6458  -30.6592   24.0574 C   0  0  0  0  0  0
  -25.9023  -34.9475   23.5153 C   0  0  0  0  0  0
  -16.5347  -29.9101   23.6333 C   0  0  0  0  0  0
  -16.7264  -28.6523   23.0342 C   0  0  0  0  0  0
  -26.4477  -31.6591   25.0738 C   0  0  0  0  0  0
  -25.3745  -31.3695   26.1487 C   0  0  0  0  0  0
  -27.0301  -30.3039   24.6097 C   0  0  0  0  0  0
  -27.6070  -32.4284   25.7486 C   0  0  0  0  0  0
  -27.5594  -37.1787   24.8453 C   0  0  0  0  0  0
  -21.4154  -29.3044   22.3725 N   0  0  0  0  0  0
  -26.4282  -37.3795   23.9436 N   0  0  0  0  0  0
  -24.6708  -31.0790   22.1046 N   0  0  0  0  0  0
  -23.4199  -28.8207   23.3031 O   0  0  0  0  0  0
  -28.3270  -26.5909   19.9593 O   0  0  0  0  0  0
  -26.5570  -34.8923   22.4702 O   0  0  0  0  0  0
  -23.5350  -32.1446   23.7519 O   0  0  0  0  0  0
  -29.1300  -17.8086   20.6587 C   0  0  0  0  0  0
  -29.2983  -19.2144   20.7051 C   0  0  0  0  0  0
  -31.3791  -17.4965   21.5055 C   0  0  0  0  0  0
  -30.1678  -16.9285   21.0475 C   0  0  0  0  0  0
  -30.5060  -19.7863   21.1763 C   0  0  0  0  0  0
  -31.5387  -18.9019   21.5748 C   0  0  0  0  0  0
  -29.5087  -25.6410   21.8920 C   0  0  0  0  0  0
  -29.9575  -24.3565   21.8988 C   0  0  0  0  0  0
  -29.9792  -23.5860   23.2097 C   0  0  0  0  0  0
  -32.6618  -24.9913   20.6691 C   0  0  0  0  0  0
  -32.5067  -22.9497   19.2217 C   0  0  0  0  0  0
  -29.4977  -26.6683   20.7596 C   0  0  0  0  0  0
  -29.9070  -22.1000   20.5958 C   0  0  0  0  0  0
  -30.4735  -23.5678   20.6729 C   0  0  2  0  0  0
  -32.0290  -23.5919   20.5393 C   0  0  0  0  0  0
  -29.9168  -15.5147   21.0472 N   0  0  0  0  0  0
  -30.7277  -21.1533   21.3054 O   0  0  0  0  0  0
  -32.7058  -19.4094   22.0427 F   0  0  0  0  0  0
  -31.4765  -12.4398   19.1237 H   0  0  0  0  0  0
  -30.3498  -11.3165   19.8302 H   0  0  0  0  0  0
  -29.7460  -11.7817   17.4334 H   0  0  0  0  0  0
  -29.6588  -13.4928   17.7678 H   0  0  0  0  0  0
  -27.8375  -11.3037   18.8216 H   0  0  0  0  0  0
  -27.3697  -12.6256   17.7856 H   0  0  0  0  0  0
  -27.6997  -14.2512   19.5650 H   0  0  0  0  0  0
  -28.6892  -11.9606   21.3369 H   0  0  0  0  0  0
  -28.4636  -13.5946   21.8725 H   0  0  0  0  0  0
  -25.2767   -9.5683   22.4764 H   0  0  0  0  0  0
  -24.0015   -7.4630   22.7459 H   0  0  0  0  0  0
  -21.0856   -8.8765   19.8944 H   0  0  0  0  0  0
  -22.3705  -10.9671   19.6171 H   0  0  0  0  0  0
  -21.1988   -7.6153   23.9731 H   0  0  0  0  0  0
  -21.1489   -6.0523   25.9086 H   0  0  0  0  0  0
  -22.0596   -2.7618   23.2840 H   0  0  0  0  0  0
  -22.4117  -11.9878   22.4775 H   0  0  0  0  0  0
  -21.1133  -13.1248   22.2616 H   0  0  0  0  0  0
  -24.6633  -15.8412   20.5026 H   0  0  0  0  0  0
  -26.2772  -15.6190   20.0550 H   0  0  0  0  0  0
  -26.7134  -32.5567   23.1191 H   0  0  0  0  0  0
  -25.0080  -33.9771   25.0522 H   0  0  0  0  0  0
  -22.6954  -31.3125   21.4132 H   0  0  0  0  0  0
  -23.3762  -35.9632   23.3256 H   0  0  0  0  0  0
  -24.3625  -36.8958   22.2068 H   0  0  0  0  0  0
  -23.7217  -37.6499   23.6659 H   0  0  0  0  0  0
  -26.0476  -31.5967   20.6015 H   0  0  0  0  0  0
  -26.8256  -30.8914   21.9891 H   0  0  0  0  0  0
  -28.1007  -29.1140   21.1880 H   0  0  0  0  0  0
  -26.0665  -25.9883   19.0072 H   0  0  0  0  0  0
  -23.9795  -27.3059   19.0394 H   0  0  0  0  0  0
  -23.7341  -30.6106   19.4115 H   0  0  0  0  0  0
  -22.7428  -29.2584   19.8598 H   0  0  0  0  0  0
  -25.1267  -36.1968   25.0850 H   0  0  0  0  0  0
  -20.9945  -28.3246   24.1446 H   0  0  0  0  0  0
  -20.5711  -26.2284   23.3613 H   0  0  0  0  0  0
  -21.6639  -26.7473   22.1189 H   0  0  0  0  0  0
  -19.6913  -25.6293   21.1251 H   0  0  0  0  0  0
  -19.6699  -27.3209   20.6783 H   0  0  0  0  0  0
  -17.4197  -26.6699   21.4017 H   0  0  0  0  0  0
  -18.0297  -26.0085   22.9023 H   0  0  0  0  0  0
  -19.7939  -30.7252   24.2298 H   0  0  0  0  0  0
  -17.5026  -31.6283   24.5160 H   0  0  0  0  0  0
  -15.5356  -30.3018   23.7647 H   0  0  0  0  0  0
  -15.8659  -28.0859   22.7038 H   0  0  0  0  0  0
  -24.5923  -30.7036   25.7820 H   0  0  0  0  0  0
  -24.8927  -32.2851   26.4934 H   0  0  0  0  0  0
  -25.8099  -30.8861   27.0243 H   0  0  0  0  0  0
  -26.2834  -29.6808   24.1162 H   0  0  0  0  0  0
  -27.4093  -29.7270   25.4542 H   0  0  0  0  0  0
  -27.8666  -30.4362   23.9231 H   0  0  0  0  0  0
  -27.2712  -33.3580   26.2091 H   0  0  0  0  0  0
  -28.3863  -32.6837   25.0291 H   0  0  0  0  0  0
  -28.0749  -31.8379   26.5375 H   0  0  0  0  0  0
  -28.2535  -38.0156   24.7584 H   0  0  0  0  0  0
  -28.1156  -36.2690   24.6139 H   0  0  0  0  0  0
  -27.2340  -37.1275   25.8859 H   0  0  0  0  0  0
  -20.9311  -29.8775   21.6956 H   0  0  0  0  0  0
  -26.0176  -38.2862   24.1492 H   0  0  0  0  0  0
  -28.1846  -17.4114   20.3173 H   0  0  0  0  0  0
  -28.4731  -19.8407   20.4004 H   0  0  0  0  0  0
  -32.1878  -16.8608   21.8352 H   0  0  0  0  0  0
  -29.1246  -26.0450   22.8186 H   0  0  0  0  0  0
  -29.7238  -24.2225   24.0577 H   0  0  0  0  0  0
  -30.9755  -23.1828   23.3916 H   0  0  0  0  0  0
  -29.2710  -22.7576   23.1959 H   0  0  0  0  0  0
  -33.7504  -24.9259   20.6561 H   0  0  0  0  0  0
  -32.3910  -25.4792   21.6058 H   0  0  0  0  0  0
  -32.3737  -25.6447   19.8459 H   0  0  0  0  0  0
  -33.5888  -23.0286   19.1115 H   0  0  0  0  0  0
  -32.0529  -23.4297   18.3533 H   0  0  0  0  0  0
  -32.2653  -21.8874   19.1780 H   0  0  0  0  0  0
  -30.3295  -26.4659   20.0896 H   0  0  0  0  0  0
  -29.6891  -27.6625   21.1588 H   0  0  0  0  0  0
  -29.8546  -21.7946   19.5498 H   0  0  0  0  0  0
  -28.8819  -22.0724   20.9680 H   0  0  0  0  0  0
  -30.0662  -24.0920   19.8067 H   0  0  0  0  0  0
  -32.4359  -22.9998   21.3601 H   0  0  0  0  0  0
  -28.9718  -15.2350   21.2604 H   0  0  0  0  0  0
  1 25  1  0  0  0
  1 30  2  0  0  0
  1 86  1  0  0  0
  2  3  1  0  0  0
  2 25  1  0  0  0
  2 89  1  0  0  0
  2 90  1  0  0  0
  3  4  1  0  0  0
  3 91  1  0  0  0
  3 92  1  0  0  0
  4  5  1  0  0  0
  4 93  1  0  0  0
  4 94  1  0  0  0
  5  6  1  0  0  0
  5 26  1  0  0  0
  5 95  1  0  0  0
  6 25  1  0  0  0
  6 96  1  0  0  0
  6 97  1  0  0  0
  7  8  2  0  0  0
  7 26  1  0  0  0
  7 29  1  0  0  0
  8  9  1  0  0  0
  8 22  1  0  0  0
  9 10  1  0  0  0
  9 27  2  0  0  0
 10 11  2  0  0  0
 10 15  1  0  0  0
 11 12  1  0  0  0
 11 98  1  0  0  0
 12 13  2  0  0  0
 12 99  1  0  0  0
 13 14  1  0  0  0
 13 31  1  0  0  0
 14 15  2  0  0  0
 14100  1  0  0  0
 15101  1  0  0  0
 16 17  2  0  0  0
 16 21  1  0  0  0
 16 31  1  0  0  0
 17 18  1  0  0  0
 17102  1  0  0  0
 18 19  2  0  0  0
 18103  1  0  0  0
 19 20  1  0  0  0
 19 24  1  0  0  0
 20 21  2  0  0  0
 20104  1  0  0  0
 21 23  1  0  0  0
 22 28  1  0  0  0
 22 32  2  0  0  0
 26 27  1  0  0  0
 28105  1  0  0  0
 28106  1  0  0  0
 29107  1  0  0  0
 29108  1  0  0  0
 33 34  1  0  0  0
 33 66  1  0  0  0
 33 70  2  0  0  0
 34 36  1  0  0  0
 34 59  1  0  0  0
 34109  1  0  0  0
 35 44  2  0  0  0
 35 45  1  0  0  0
 35 68  1  0  0  0
 36 56  1  0  0  0
 36110  1  0  0  0
 37 39  1  0  0  0
 37 47  1  0  0  0
 37 66  1  0  0  0
 37111  1  0  0  0
 38 43  2  0  0  0
 38 46  1  0  0  0
 38 47  1  0  0  0
 39 64  1  0  0  0
 39 67  2  0  0  0
 40 52  1  0  0  0
 40 53  2  0  0  0
 40 58  1  0  0  0
 41112  1  0  0  0
 41113  1  0  0  0
 41114  1  0  0  0
 41 48  1  0  0  0
 42 43  1  0  0  0
 42 66  1  0  0  0
 42115  1  0  0  0
 42116  1  0  0  0
 43 44  1  0  0  0
 44117  1  0  0  0
 45 46  2  0  0  0
 45118  1  0  0  0
 46119  1  0  0  0
 47120  1  0  0  0
 47121  1  0  0  0
 48 56  1  0  0  0
 48 65  1  0  0  0
 48122  1  0  0  0
 49 50  1  0  0  0
 49 53  1  0  0  0
 49 64  1  0  0  0
 49123  1  0  0  0
 50 51  1  0  0  0
 50124  1  0  0  0
 50125  1  0  0  0
 51 52  1  0  0  0
 51126  1  0  0  0
 51127  1  0  0  0
 52128  1  0  0  0
 52129  1  0  0  0
 53 54  1  0  0  0
 54 55  2  0  0  0
 54130  1  0  0  0
 55 57  1  0  0  0
 55131  1  0  0  0
 56 69  2  0  0  0
 57 58  2  0  0  0
 57132  1  0  0  0
 58133  1  0  0  0
 59 60  1  0  0  0
 59 61  1  0  0  0
 59 62  1  0  0  0
 60134  1  0  0  0
 60135  1  0  0  0
 60136  1  0  0  0
 61137  1  0  0  0
 61138  1  0  0  0
 61139  1  0  0  0
 62140  1  0  0  0
 62141  1  0  0  0
 62142  1  0  0  0
 63 65  1  0  0  0
 63143  1  0  0  0
 63144  1  0  0  0
 63145  1  0  0  0
 64146  1  0  0  0
 65147  1  0  0  0
 68 82  1  0  0  0
 71 72  2  0  0  0
 71 74  1  0  0  0
 71148  1  0  0  0
 72 75  1  0  0  0
 72149  1  0  0  0
 73 74  2  0  0  0
 73 76  1  0  0  0
 73150  1  0  0  0
 74 86  1  0  0  0
 75 76  2  0  0  0
 75 87  1  0  0  0
 76 88  1  0  0  0
 77 78  2  0  0  0
 77 82  1  0  0  0
 77151  1  0  0  0
 78 79  1  0  0  0
 78 84  1  0  0  0
 79152  1  0  0  0
 79153  1  0  0  0
 79154  1  0  0  0
 80155  1  0  0  0
 80156  1  0  0  0
 80157  1  0  0  0
 80 85  1  0  0  0
 81 85  1  0  0  0
 81158  1  0  0  0
 81159  1  0  0  0
 81160  1  0  0  0
 82161  1  0  0  0
 82162  1  0  0  0
 83 87  1  0  0  0
 83163  1  0  0  0
 83164  1  0  0  0
 83 84  1  0  0  0
 84 85  1  0  0  0
 84165  1  0  0  0
 85166  1  0  0  0
 86167  1  0  0  0
M  ISO  4   1 100  68 101  82 101  86 100
M  END
> <chiral flag>
0

> <version>
0

> <s_m_source_file>
/data/baiqing/PycharmProjects/Reinvent-master-3.2/result/LINK_invent/BTK/process_docking_weight1_custom_product_contain_oxygen_bond_distance_aromatic_linkinvent_7_9_3/rearranged_h_0140.sdf

> <i_m_source_file_index>
45

> <r_mmod_Potential_Energy-OPLS-2005>
66.7018051147461

> <r_mmod_Stretch_Energy-OPLS-2005>
45.3277053833008

> <r_mmod_Bend_Energy-OPLS-2005>
137.281799316406

> <r_mmod_Torsional_Energy-OPLS-2005>
236.978927612305

> <r_mmod_Improper_Torsional_Energy-OPLS-2005>
4.6539740562439

> <r_mmod_Van_der_Waal_Energy-OPLS-2005>
148.378768920898

> <r_mmod_Electrostatic_Energy-OPLS-2005>
-321.712768554688

> <r_mmod_Solvation_Energy-OPLS-2005>
-201.251922607422

> <b_mmod_Minimization_Converged-OPLS-2005>
0

> <r_mmod_RMS_Derivative-OPLS-2005>
1.58078920841217

$$$$
45
                    3D
 Structure written by MMmdl.
167175  0  0  1  0            999 V2000
  -30.7173  -14.4830   20.5456 C   0  0  0  0  0  0
  -30.4201  -12.3063   19.4177 C   0  0  0  0  0  0
  -29.4824  -12.4367   18.2009 C   0  0  0  0  0  0
  -28.0029  -12.3280   18.6242 C   0  0  0  0  0  0
  -27.6490  -13.1883   19.8681 C   0  0  2  0  0  0
  -28.7032  -13.0263   20.9832 C   0  0  0  0  0  0
  -25.2558  -13.8113   20.5630 C   0  0  0  0  0  0
  -24.1799  -13.0423   20.9195 C   0  0  0  0  0  0
  -24.6332  -11.6883   20.8790 C   0  0  0  0  0  0
  -23.9002  -10.4290   21.0452 C   0  0  0  0  0  0
  -24.3574   -9.4201   21.9212 C   0  0  0  0  0  0
  -23.6265   -8.2229   22.0764 C   0  0  0  0  0  0
  -22.4255   -8.0268   21.3545 C   0  0  0  0  0  0
  -21.9878   -9.0239   20.4642 C   0  0  0  0  0  0
  -22.7193  -10.2129   20.3074 C   0  0  0  0  0  0
  -21.6833   -6.0722   22.5281 C   0  0  0  0  0  0
  -21.3995   -6.5626   23.8213 C   0  0  0  0  0  0
  -21.3670   -5.6781   24.9174 C   0  0  0  0  0  0
  -21.6058   -4.3052   24.7215 C   0  0  0  0  0  0
  -21.8814   -3.8143   23.4338 C   0  0  0  0  0  0
  -21.9187   -4.6957   22.3394 C   0  0  0  0  0  0
  -22.7841  -13.5252   21.1851 C   0  0  0  0  0  0
  -22.1661   -4.2150   21.0970 F   0  0  0  0  0  0
  -21.5639   -3.4530   25.7727 F   0  0  0  0  0  0
  -30.0185  -13.3247   20.3979 N   0  0  0  0  0  0
  -26.2958  -12.9220   20.3399 N   0  0  0  0  0  0
  -25.9254  -11.6419   20.5871 N   0  0  0  0  0  0
  -22.0446  -12.8295   22.0422 N   0  0  0  0  0  0
  -25.4273  -15.1816   20.3895 N   0  0  0  0  0  0
  -31.8850  -14.6169   20.1759 O   0  0  0  0  0  0
  -21.6621   -6.8864   21.4244 O   0  0  0  0  0  0
  -22.3561  -14.5569   20.6706 O   0  0  0  0  0  0
  -24.6157  -31.8689   23.2093 C   0  0  0  0  0  0
  -25.9067  -32.4833   23.8371 C   0  0  1  0  0  0
  -27.2305  -27.4256   20.0848 C   0  0  0  0  0  0
  -25.5923  -33.8632   24.2305 N   0  0  0  0  0  0
  -23.4024  -30.4944   21.5502 C   0  0  2  0  0  0
  -24.8453  -28.9648   20.1086 C   0  0  0  0  0  0
  -22.7425  -29.4674   22.4980 C   0  0  0  0  0  0
  -18.0284  -28.1390   22.8499 C   0  0  0  0  0  0
  -24.1494  -36.7302   23.2637 C   0  0  0  0  0  0
  -25.9333  -30.8287   21.3669 C   0  0  0  0  0  0
  -26.0056  -29.4645   20.7110 C   0  0  0  0  0  0
  -27.1952  -28.6989   20.7027 C   0  0  0  0  0  0
  -26.0477  -26.9539   19.4633 C   0  0  0  0  0  0
  -24.8624  -27.7101   19.4817 C   0  0  0  0  0  0
  -23.6088  -29.8322   20.1622 C   0  0  0  0  0  0
  -25.4122  -36.3118   24.0330 C   0  0  1  0  0  0
  -20.5873  -28.3672   23.1318 C   0  0  2  0  0  0
  -20.6770  -26.9410   22.5414 C   0  0  0  0  0  0
  -19.5740  -26.6396   21.5219 C   0  0  0  0  0  0
  -18.1923  -26.7940   22.1631 C   0  0  0  0  0  0
  -19.1533  -28.8850   23.2903 C   0  0  0  0  0  0
  -18.9464  -30.1462   23.8900 C   0  0  0  0  0  0
  -17.6463  -30.6592   24.0581 C   0  0  0  0  0  0
  -25.9055  -34.9489   23.5115 C   0  0  0  0  0  0
  -16.5355  -29.9095   23.6332 C   0  0  0  0  0  0
  -16.7273  -28.6517   23.0345 C   0  0  0  0  0  0
  -26.4478  -31.6625   25.0718 C   0  0  0  0  0  0
  -25.3734  -31.3756   26.1464 C   0  0  0  0  0  0
  -27.0305  -30.3067   24.6112 C   0  0  0  0  0  0
  -27.6048  -32.4349   25.7468 C   0  0  0  0  0  0
  -27.5582  -37.1812   24.8471 C   0  0  0  0  0  0
  -21.4152  -29.3041   22.3720 N   0  0  0  0  0  0
  -26.4302  -37.3805   23.9412 N   0  0  0  0  0  0
  -24.6685  -31.0788   22.0998 N   0  0  0  0  0  0
  -23.4203  -28.8216   23.3015 O   0  0  0  0  0  0
  -28.4072  -26.6950   20.1273 O   0  0  0  0  0  0
  -26.5609  -34.8937   22.4667 O   0  0  0  0  0  0
  -23.5345  -32.1446   23.7484 O   0  0  0  0  0  0
  -28.2292  -18.2709   19.2306 C   0  0  0  0  0  0
  -28.8920  -17.6890   20.3560 C   0  0  0  0  0  0
  -28.2888  -17.5306   18.0890 C   0  0  0  0  0  0
  -29.3938  -16.4271   20.0750 C   0  0  0  0  0  0
  -29.8582  -22.3510   21.4130 C   0  0  0  0  0  0
  -27.7157  -17.8759   16.7546 C   0  0  0  0  0  0
  -27.6443  -21.2004   20.9769 C   0  0  0  0  0  0
  -28.6166  -21.2369   23.3021 C   0  0  0  0  0  0
  -29.0019  -18.4368   21.6692 C   0  0  0  0  0  0
  -29.2611  -23.7697   21.3524 C   0  0  0  0  0  0
  -29.7396  -19.8034   21.5292 C   0  0  0  0  0  0
  -29.5932  -24.5133   20.0316 C   0  0  0  0  0  0
  -28.4452  -25.3990   19.5087 C   0  0  0  0  0  0
  -28.9538  -21.1383   21.7998 C   0  0  0  0  0  0
  -30.0225  -15.5710   20.9353 N   0  0  0  0  0  0
  -31.0607  -22.2005   21.1769 O   0  0  0  0  0  0
  -29.1813  -16.0733   18.3603 S   0  0  0  0  0  0
  -31.4594  -12.4129   19.1032 H   0  0  0  0  0  0
  -30.3445  -11.3125   19.8619 H   0  0  0  0  0  0
  -29.7100  -11.6549   17.4748 H   0  0  0  0  0  0
  -29.6600  -13.3799   17.6875 H   0  0  0  0  0  0
  -27.8064  -11.2771   18.8420 H   0  0  0  0  0  0
  -27.3502  -12.5850   17.7896 H   0  0  0  0  0  0
  -27.6610  -14.2225   19.5496 H   0  0  0  0  0  0
  -28.6941  -12.0091   21.3753 H   0  0  0  0  0  0
  -28.4757  -13.6788   21.8284 H   0  0  0  0  0  0
  -25.2706   -9.5691   22.4803 H   0  0  0  0  0  0
  -23.9973   -7.4613   22.7478 H   0  0  0  0  0  0
  -21.0814   -8.8747   19.8933 H   0  0  0  0  0  0
  -22.3650  -10.9671   19.6191 H   0  0  0  0  0  0
  -21.1971   -7.6127   23.9712 H   0  0  0  0  0  0
  -21.1510   -6.0508   25.9080 H   0  0  0  0  0  0
  -22.0588   -2.7606   23.2819 H   0  0  0  0  0  0
  -22.4003  -11.9958   22.4857 H   0  0  0  0  0  0
  -21.1070  -13.1373   22.2565 H   0  0  0  0  0  0
  -24.6537  -15.8329   20.4595 H   0  0  0  0  0  0
  -26.2811  -15.6142   20.0577 H   0  0  0  0  0  0
  -26.7139  -32.5532   23.1119 H   0  0  0  0  0  0
  -25.0105  -33.9789   25.0471 H   0  0  0  0  0  0
  -22.6913  -31.3120   21.4147 H   0  0  0  0  0  0
  -23.3763  -35.9632   23.3337 H   0  0  0  0  0  0
  -24.3578  -36.8876   22.2045 H   0  0  0  0  0  0
  -23.7240  -37.6507   23.6631 H   0  0  0  0  0  0
  -26.0558  -31.6003   20.6045 H   0  0  0  0  0  0
  -26.8176  -30.8722   21.9913 H   0  0  0  0  0  0
  -28.0893  -29.0818   21.1758 H   0  0  0  0  0  0
  -26.0014  -26.0088   18.9473 H   0  0  0  0  0  0
  -23.9742  -27.3237   19.0005 H   0  0  0  0  0  0
  -23.7171  -30.6102   19.4053 H   0  0  0  0  0  0
  -22.7321  -29.2537   19.8646 H   0  0  0  0  0  0
  -25.1310  -36.1959   25.0822 H   0  0  0  0  0  0
  -20.9964  -28.3234   24.1435 H   0  0  0  0  0  0
  -20.5691  -26.2281   23.3602 H   0  0  0  0  0  0
  -21.6642  -26.7466   22.1192 H   0  0  0  0  0  0
  -19.6904  -25.6310   21.1236 H   0  0  0  0  0  0
  -19.6676  -27.3226   20.6765 H   0  0  0  0  0  0
  -17.4196  -26.6707   21.4029 H   0  0  0  0  0  0
  -18.0313  -26.0080   22.9019 H   0  0  0  0  0  0
  -19.7948  -30.7293   24.2243 H   0  0  0  0  0  0
  -17.5027  -31.6270   24.5198 H   0  0  0  0  0  0
  -15.5357  -30.3004   23.7668 H   0  0  0  0  0  0
  -15.8675  -28.0861   22.7021 H   0  0  0  0  0  0
  -24.5866  -30.7165   25.7787 H   0  0  0  0  0  0
  -24.8988  -32.2935   26.4942 H   0  0  0  0  0  0
  -25.8066  -30.8874   27.0199 H   0  0  0  0  0  0
  -26.2848  -29.6826   24.1185 H   0  0  0  0  0  0
  -27.4086  -29.7320   25.4569 H   0  0  0  0  0  0
  -27.8681  -30.4392   23.9264 H   0  0  0  0  0  0
  -27.2675  -33.3651   26.2043 H   0  0  0  0  0  0
  -28.3844  -32.6900   25.0284 H   0  0  0  0  0  0
  -28.0730  -31.8482   26.5374 H   0  0  0  0  0  0
  -28.2627  -38.0086   24.7509 H   0  0  0  0  0  0
  -28.1040  -36.2615   24.6310 H   0  0  0  0  0  0
  -27.2291  -37.1480   25.8871 H   0  0  0  0  0  0
  -20.9304  -29.8761   21.6947 H   0  0  0  0  0  0
  -26.0186  -38.2880   24.1402 H   0  0  0  0  0  0
  -27.7441  -19.2308   19.2741 H   0  0  0  0  0  0
  -26.6330  -17.9900   16.8140 H   0  0  0  0  0  0
  -27.9330  -17.1089   16.0118 H   0  0  0  0  0  0
  -28.1283  -18.8168   16.3893 H   0  0  0  0  0  0
  -26.9801  -21.9932   21.3171 H   0  0  0  0  0  0
  -27.0579  -20.2880   21.0657 H   0  0  0  0  0  0
  -27.8372  -21.3793   19.9179 H   0  0  0  0  0  0
  -28.0474  -22.1388   23.5289 H   0  0  0  0  0  0
  -29.5198  -21.2644   23.9115 H   0  0  0  0  0  0
  -28.0208  -20.3903   23.6447 H   0  0  0  0  0  0
  -29.5498  -17.8305   22.3897 H   0  0  0  0  0  0
  -28.0166  -18.5614   22.1163 H   0  0  0  0  0  0
  -29.6409  -24.3423   22.1978 H   0  0  0  0  0  0
  -28.1845  -23.7160   21.4944 H   0  0  0  0  0  0
  -30.2184  -19.8425   20.5486 H   0  0  0  0  0  0
  -30.5794  -19.7783   22.2257 H   0  0  0  0  0  0
  -29.8063  -23.7751   19.2553 H   0  0  0  0  0  0
  -30.5096  -25.0948   20.1366 H   0  0  0  0  0  0
  -27.5301  -24.8255   19.6542 H   0  0  0  0  0  0
  -28.5637  -25.5480   18.4345 H   0  0  0  0  0  0
  -30.4628  -16.0514   21.7057 H   0  0  0  0  0  0
  1 25  1  0  0  0
  1 30  2  0  0  0
  1 85  1  0  0  0
  2  3  1  0  0  0
  2 25  1  0  0  0
  2 88  1  0  0  0
  2 89  1  0  0  0
  3  4  1  0  0  0
  3 90  1  0  0  0
  3 91  1  0  0  0
  4  5  1  0  0  0
  4 92  1  0  0  0
  4 93  1  0  0  0
  5  6  1  0  0  0
  5 26  1  0  0  0
  5 94  1  0  0  0
  6 25  1  0  0  0
  6 95  1  0  0  0
  6 96  1  0  0  0
  7  8  2  0  0  0
  7 26  1  0  0  0
  7 29  1  0  0  0
  8  9  1  0  0  0
  8 22  1  0  0  0
  9 10  1  0  0  0
  9 27  2  0  0  0
 10 11  2  0  0  0
 10 15  1  0  0  0
 11 12  1  0  0  0
 11 97  1  0  0  0
 12 13  2  0  0  0
 12 98  1  0  0  0
 13 14  1  0  0  0
 13 31  1  0  0  0
 14 15  2  0  0  0
 14 99  1  0  0  0
 15100  1  0  0  0
 16 17  2  0  0  0
 16 21  1  0  0  0
 16 31  1  0  0  0
 17 18  1  0  0  0
 17101  1  0  0  0
 18 19  2  0  0  0
 18102  1  0  0  0
 19 20  1  0  0  0
 19 24  1  0  0  0
 20 21  2  0  0  0
 20103  1  0  0  0
 21 23  1  0  0  0
 22 28  1  0  0  0
 22 32  2  0  0  0
 26 27  1  0  0  0
 28104  1  0  0  0
 28105  1  0  0  0
 29106  1  0  0  0
 29107  1  0  0  0
 33 34  1  0  0  0
 33 66  1  0  0  0
 33 70  2  0  0  0
 34 36  1  0  0  0
 34 59  1  0  0  0
 34108  1  0  0  0
 35 44  2  0  0  0
 35 45  1  0  0  0
 35 68  1  0  0  0
 36 56  1  0  0  0
 36109  1  0  0  0
 37 39  1  0  0  0
 37 47  1  0  0  0
 37 66  1  0  0  0
 37110  1  0  0  0
 38 43  2  0  0  0
 38 46  1  0  0  0
 38 47  1  0  0  0
 39 64  1  0  0  0
 39 67  2  0  0  0
 40 52  1  0  0  0
 40 53  2  0  0  0
 40 58  1  0  0  0
 41111  1  0  0  0
 41112  1  0  0  0
 41113  1  0  0  0
 41 48  1  0  0  0
 42 43  1  0  0  0
 42 66  1  0  0  0
 42114  1  0  0  0
 42115  1  0  0  0
 43 44  1  0  0  0
 44116  1  0  0  0
 45 46  2  0  0  0
 45117  1  0  0  0
 46118  1  0  0  0
 47119  1  0  0  0
 47120  1  0  0  0
 48 56  1  0  0  0
 48 65  1  0  0  0
 48121  1  0  0  0
 49 50  1  0  0  0
 49 53  1  0  0  0
 49 64  1  0  0  0
 49122  1  0  0  0
 50 51  1  0  0  0
 50123  1  0  0  0
 50124  1  0  0  0
 51 52  1  0  0  0
 51125  1  0  0  0
 51126  1  0  0  0
 52127  1  0  0  0
 52128  1  0  0  0
 53 54  1  0  0  0
 54 55  2  0  0  0
 54129  1  0  0  0
 55 57  1  0  0  0
 55130  1  0  0  0
 56 69  2  0  0  0
 57 58  2  0  0  0
 57131  1  0  0  0
 58132  1  0  0  0
 59 60  1  0  0  0
 59 61  1  0  0  0
 59 62  1  0  0  0
 60133  1  0  0  0
 60134  1  0  0  0
 60135  1  0  0  0
 61136  1  0  0  0
 61137  1  0  0  0
 61138  1  0  0  0
 62139  1  0  0  0
 62140  1  0  0  0
 62141  1  0  0  0
 63 65  1  0  0  0
 63142  1  0  0  0
 63143  1  0  0  0
 63144  1  0  0  0
 64145  1  0  0  0
 65146  1  0  0  0
 68 83  1  0  0  0
 71 72  1  0  0  0
 71 73  2  0  0  0
 71147  1  0  0  0
 72 74  2  0  0  0
 72 79  1  0  0  0
 73 76  1  0  0  0
 73 87  1  0  0  0
 74 85  1  0  0  0
 74 87  1  0  0  0
 75 80  1  0  0  0
 75 84  1  0  0  0
 75 86  2  0  0  0
 76148  1  0  0  0
 76149  1  0  0  0
 76150  1  0  0  0
 77151  1  0  0  0
 77152  1  0  0  0
 77153  1  0  0  0
 77 84  1  0  0  0
 78 84  1  0  0  0
 78154  1  0  0  0
 78155  1  0  0  0
 78156  1  0  0  0
 79 81  1  0  0  0
 79157  1  0  0  0
 79158  1  0  0  0
 80 82  1  0  0  0
 80159  1  0  0  0
 80160  1  0  0  0
 81 84  1  0  0  0
 81161  1  0  0  0
 81162  1  0  0  0
 82 83  1  0  0  0
 82163  1  0  0  0
 82164  1  0  0  0
 83165  1  0  0  0
 83166  1  0  0  0
 85167  1  0  0  0
M  ISO  4   1 100  68 101  83 101  85 100
M  END
> <chiral flag>
0

> <version>
0

> <s_m_source_file>
/data/baiqing/PycharmProjects/Reinvent-master-3.2/result/LINK_invent/BTK/process_docking_weight1_custom_product_contain_oxygen_bond_distance_aromatic_linkinvent_7_9_3/rearranged_h_0140.sdf

> <i_m_source_file_index>
46

> <r_mmod_Potential_Energy-OPLS-2005>
-4.3019700050354

> <r_mmod_Stretch_Energy-OPLS-2005>
40.9282989501953

> <r_mmod_Bend_Energy-OPLS-2005>
117.397392272949

> <r_mmod_Torsional_Energy-OPLS-2005>
285.439880371094

> <r_mmod_Improper_Torsional_Energy-OPLS-2005>
7.46989250183105

> <r_mmod_Van_der_Waal_Energy-OPLS-2005>
139.634155273438

> <r_mmod_Electrostatic_Energy-OPLS-2005>
-410.302825927734

> <r_mmod_Solvation_Energy-OPLS-2005>
-204.822128295898

> <b_mmod_Minimization_Converged-OPLS-2005>
0

> <r_mmod_RMS_Derivative-OPLS-2005>
2.55742526054382

$$$$
46
                    3D
 Structure written by MMmdl.
160168  0  0  1  0            999 V2000
  -30.6481  -14.6027   20.4952 C   0  0  0  0  0  0
  -30.4254  -12.3526   19.4825 C   0  0  0  0  0  0
  -29.5235  -12.4794   18.2368 C   0  0  0  0  0  0
  -28.0450  -12.3173   18.6384 C   0  0  0  0  0  0
  -27.6523  -13.2103   19.8503 C   0  0  2  0  0  0
  -28.6821  -13.0905   20.9963 C   0  0  0  0  0  0
  -25.2563  -13.8140   20.5642 C   0  0  0  0  0  0
  -24.1830  -13.0437   20.9145 C   0  0  0  0  0  0
  -24.6366  -11.6890   20.8697 C   0  0  0  0  0  0
  -23.9028  -10.4306   21.0409 C   0  0  0  0  0  0
  -24.3577   -9.4229   21.9182 C   0  0  0  0  0  0
  -23.6271   -8.2259   22.0772 C   0  0  0  0  0  0
  -22.4265   -8.0278   21.3554 C   0  0  0  0  0  0
  -21.9871   -9.0247   20.4667 C   0  0  0  0  0  0
  -22.7196  -10.2126   20.3078 C   0  0  0  0  0  0
  -21.6870   -6.0726   22.5283 C   0  0  0  0  0  0
  -21.4003   -6.5634   23.8204 C   0  0  0  0  0  0
  -21.3665   -5.6802   24.9171 C   0  0  0  0  0  0
  -21.6065   -4.3070   24.7237 C   0  0  0  0  0  0
  -21.8815   -3.8145   23.4366 C   0  0  0  0  0  0
  -21.9186   -4.6950   22.3417 C   0  0  0  0  0  0
  -22.7860  -13.5252   21.1831 C   0  0  0  0  0  0
  -22.1668   -4.2133   21.1000 F   0  0  0  0  0  0
  -21.5627   -3.4568   25.7749 F   0  0  0  0  0  0
  -30.0104  -13.3941   20.4447 N   0  0  0  0  0  0
  -26.2966  -12.9323   20.3191 N   0  0  0  0  0  0
  -25.9277  -11.6487   20.5649 N   0  0  0  0  0  0
  -22.0472  -12.8282   22.0379 N   0  0  0  0  0  0
  -25.4329  -15.1861   20.4121 N   0  0  0  0  0  0
  -31.8136  -14.7278   20.1038 O   0  0  0  0  0  0
  -21.6663   -6.8854   21.4245 O   0  0  0  0  0  0
  -22.3590  -14.5595   20.6694 O   0  0  0  0  0  0
  -24.6246  -31.8666   23.2058 C   0  0  0  0  0  0
  -25.9105  -32.4801   23.8399 C   0  0  1  0  0  0
  -27.2209  -27.3821   20.0932 C   0  0  0  0  0  0
  -25.5903  -33.8586   24.2306 N   0  0  0  0  0  0
  -23.4166  -30.4915   21.5484 C   0  0  2  0  0  0
  -24.8584  -28.9495   20.1221 C   0  0  0  0  0  0
  -22.7491  -29.4668   22.4933 C   0  0  0  0  0  0
  -18.0337  -28.1355   22.8492 C   0  0  0  0  0  0
  -24.1492  -36.7300   23.2636 C   0  0  0  0  0  0
  -25.9546  -30.8135   21.3725 C   0  0  0  0  0  0
  -26.0276  -29.4446   20.7172 C   0  0  0  0  0  0
  -27.2171  -28.6684   20.7007 C   0  0  0  0  0  0
  -26.0461  -26.9317   19.4684 C   0  0  0  0  0  0
  -24.8637  -27.6912   19.5011 C   0  0  0  0  0  0
  -23.6291  -29.8283   20.1652 C   0  0  0  0  0  0
  -25.4109  -36.3079   24.0332 C   0  0  1  0  0  0
  -20.5911  -28.3743   23.1258 C   0  0  2  0  0  0
  -20.6882  -26.9460   22.5413 C   0  0  0  0  0  0
  -19.5842  -26.6253   21.5280 C   0  0  0  0  0  0
  -18.2055  -26.7862   22.1724 C   0  0  0  0  0  0
  -19.1561  -28.8884   23.2810 C   0  0  0  0  0  0
  -18.9461  -30.1552   23.8663 C   0  0  0  0  0  0
  -17.6446  -30.6644   24.0341 C   0  0  0  0  0  0
  -25.9041  -34.9450   23.5122 C   0  0  0  0  0  0
  -16.5353  -29.9046   23.6258 C   0  0  0  0  0  0
  -16.7309  -28.6407   23.0404 C   0  0  0  0  0  0
  -26.4498  -31.6594   25.0758 C   0  0  0  0  0  0
  -25.3716  -31.3771   26.1482 C   0  0  0  0  0  0
  -27.0364  -30.3014   24.6209 C   0  0  0  0  0  0
  -27.6079  -32.4317   25.7511 C   0  0  0  0  0  0
  -27.5586  -37.1797   24.8462 C   0  0  0  0  0  0
  -21.4204  -29.3138   22.3716 N   0  0  0  0  0  0
  -26.4284  -37.3783   23.9435 N   0  0  0  0  0  0
  -24.6824  -31.0748   22.0975 N   0  0  0  0  0  0
  -23.4232  -28.8149   23.2964 O   0  0  0  0  0  0
  -28.3267  -26.5536   20.0364 O   0  0  0  0  0  0
  -26.5621  -34.8893   22.4702 O   0  0  0  0  0  0
  -23.5408  -32.1405   23.7407 O   0  0  0  0  0  0
  -30.0854  -18.3369   18.1414 C   0  0  0  0  0  0
  -30.1948  -17.1119   18.8265 C   0  0  0  0  0  0
  -29.6996  -19.5082   18.8197 C   0  0  0  0  0  0
  -29.5120  -18.2255   20.8817 C   0  0  0  0  0  0
  -29.8996  -17.0125   20.2080 C   0  0  0  0  0  0
  -29.4352  -19.4961   20.2094 C   0  0  0  0  0  0
  -26.5835  -24.0341   21.0669 C   0  0  0  0  0  0
  -28.4619  -23.6560   22.6192 C   0  0  0  0  0  0
  -28.8188  -23.2194   20.1248 C   0  0  0  0  0  0
  -29.6837  -21.9473   20.5234 C   0  0  0  0  0  0
  -28.5625  -25.6862   21.1728 C   0  0  0  0  0  0
  -28.1190  -24.1539   21.2001 C   0  0  0  0  0  0
  -29.9019  -15.6952   20.8430 N   0  0  0  0  0  0
  -29.0429  -20.6744   20.8693 O   0  0  0  0  0  0
  -31.4814  -12.4250   19.2125 H   0  0  0  0  0  0
  -30.3059  -11.3652   19.9297 H   0  0  0  0  0  0
  -29.7977  -11.7239   17.4997 H   0  0  0  0  0  0
  -29.6759  -13.4493   17.7604 H   0  0  0  0  0  0
  -27.8903  -11.2656   18.8874 H   0  0  0  0  0  0
  -27.3983  -12.5176   17.7818 H   0  0  0  0  0  0
  -27.6674  -14.2380   19.4829 H   0  0  0  0  0  0
  -28.6752  -12.0853   21.4192 H   0  0  0  0  0  0
  -28.4216  -13.7627   21.8165 H   0  0  0  0  0  0
  -25.2720   -9.5740   22.4729 H   0  0  0  0  0  0
  -24.0002   -7.4691   22.7508 H   0  0  0  0  0  0
  -21.0791   -8.8746   19.8978 H   0  0  0  0  0  0
  -22.3636  -10.9644   19.6181 H   0  0  0  0  0  0
  -21.1978   -7.6136   23.9692 H   0  0  0  0  0  0
  -21.1505   -6.0542   25.9071 H   0  0  0  0  0  0
  -22.0571   -2.7605   23.2881 H   0  0  0  0  0  0
  -22.4093  -11.9977   22.4826 H   0  0  0  0  0  0
  -21.1098  -13.1332   22.2548 H   0  0  0  0  0  0
  -24.6687  -15.8427   20.5344 H   0  0  0  0  0  0
  -26.2936  -15.6263   20.1082 H   0  0  0  0  0  0
  -26.7172  -32.5519   23.1161 H   0  0  0  0  0  0
  -24.9994  -33.9763   25.0390 H   0  0  0  0  0  0
  -22.7110  -31.3126   21.4050 H   0  0  0  0  0  0
  -23.3744  -35.9649   23.3299 H   0  0  0  0  0  0
  -24.3584  -36.8932   22.2055 H   0  0  0  0  0  0
  -23.7247  -37.6499   23.6650 H   0  0  0  0  0  0
  -26.0853  -31.5808   20.6096 H   0  0  0  0  0  0
  -26.8363  -30.8558   22.0007 H   0  0  0  0  0  0
  -28.1269  -29.0486   21.1417 H   0  0  0  0  0  0
  -26.0416  -25.9840   18.9519 H   0  0  0  0  0  0
  -23.9673  -27.3061   19.0352 H   0  0  0  0  0  0
  -23.7555  -30.6035   19.4091 H   0  0  0  0  0  0
  -22.7494  -29.2603   19.8563 H   0  0  0  0  0  0
  -25.1280  -36.1942   25.0821 H   0  0  0  0  0  0
  -20.9973  -28.3347   24.1389 H   0  0  0  0  0  0
  -20.5902  -26.2451   23.3713 H   0  0  0  0  0  0
  -21.6739  -26.7510   22.1188 H   0  0  0  0  0  0
  -19.7020  -25.6077   21.1519 H   0  0  0  0  0  0
  -19.6742  -27.2882   20.6665 H   0  0  0  0  0  0
  -17.4315  -26.6518   21.4177 H   0  0  0  0  0  0
  -18.0464  -26.0064   22.9178 H   0  0  0  0  0  0
  -19.7908  -30.7498   24.1850 H   0  0  0  0  0  0
  -17.4977  -31.6423   24.4710 H   0  0  0  0  0  0
  -15.5353  -30.2950   23.7578 H   0  0  0  0  0  0
  -15.8754  -28.0588   22.7260 H   0  0  0  0  0  0
  -24.5848  -30.7164   25.7813 H   0  0  0  0  0  0
  -24.8945  -32.2964   26.4893 H   0  0  0  0  0  0
  -25.8007  -30.8942   27.0270 H   0  0  0  0  0  0
  -26.2971  -29.6742   24.1200 H   0  0  0  0  0  0
  -27.4040  -29.7287   25.4740 H   0  0  0  0  0  0
  -27.8832  -30.4325   23.9466 H   0  0  0  0  0  0
  -27.2704  -33.3590   26.2163 H   0  0  0  0  0  0
  -28.3848  -32.6941   25.0308 H   0  0  0  0  0  0
  -28.0788  -31.8396   26.5373 H   0  0  0  0  0  0
  -28.2590  -38.0104   24.7520 H   0  0  0  0  0  0
  -28.1097  -36.2636   24.6266 H   0  0  0  0  0  0
  -27.2318  -37.1432   25.8866 H   0  0  0  0  0  0
  -20.9368  -29.8946   21.7014 H   0  0  0  0  0  0
  -26.0168  -38.2865   24.1434 H   0  0  0  0  0  0
  -30.2790  -18.3698   17.0758 H   0  0  0  0  0  0
  -30.4696  -16.2364   18.2534 H   0  0  0  0  0  0
  -29.5877  -20.4193   18.2472 H   0  0  0  0  0  0
  -29.2787  -18.1894   21.9365 H   0  0  0  0  0  0
  -26.2334  -23.0372   21.3319 H   0  0  0  0  0  0
  -26.2438  -24.2075   20.0501 H   0  0  0  0  0  0
  -26.0622  -24.7447   21.7098 H   0  0  0  0  0  0
  -28.1793  -22.6133   22.7526 H   0  0  0  0  0  0
  -27.9391  -24.2342   23.3823 H   0  0  0  0  0  0
  -29.5276  -23.7429   22.8310 H   0  0  0  0  0  0
  -28.1051  -22.9256   19.3536 H   0  0  0  0  0  0
  -29.5023  -23.8722   19.5808 H   0  0  0  0  0  0
  -30.3428  -22.2075   21.3525 H   0  0  0  0  0  0
  -30.3908  -21.8052   19.7079 H   0  0  0  0  0  0
  -29.6409  -25.7203   21.3324 H   0  0  0  0  0  0
  -28.1465  -26.1836   22.0516 H   0  0  0  0  0  0
  -29.0753  -15.4723   21.3806 H   0  0  0  0  0  0
  1 25  1  0  0  0
  1 30  2  0  0  0
  1 83  1  0  0  0
  2  3  1  0  0  0
  2 25  1  0  0  0
  2 85  1  0  0  0
  2 86  1  0  0  0
  3  4  1  0  0  0
  3 87  1  0  0  0
  3 88  1  0  0  0
  4  5  1  0  0  0
  4 89  1  0  0  0
  4 90  1  0  0  0
  5  6  1  0  0  0
  5 26  1  0  0  0
  5 91  1  0  0  0
  6 25  1  0  0  0
  6 92  1  0  0  0
  6 93  1  0  0  0
  7  8  2  0  0  0
  7 26  1  0  0  0
  7 29  1  0  0  0
  8  9  1  0  0  0
  8 22  1  0  0  0
  9 10  1  0  0  0
  9 27  2  0  0  0
 10 11  2  0  0  0
 10 15  1  0  0  0
 11 12  1  0  0  0
 11 94  1  0  0  0
 12 13  2  0  0  0
 12 95  1  0  0  0
 13 14  1  0  0  0
 13 31  1  0  0  0
 14 15  2  0  0  0
 14 96  1  0  0  0
 15 97  1  0  0  0
 16 17  2  0  0  0
 16 21  1  0  0  0
 16 31  1  0  0  0
 17 18  1  0  0  0
 17 98  1  0  0  0
 18 19  2  0  0  0
 18 99  1  0  0  0
 19 20  1  0  0  0
 19 24  1  0  0  0
 20 21  2  0  0  0
 20100  1  0  0  0
 21 23  1  0  0  0
 22 28  1  0  0  0
 22 32  2  0  0  0
 26 27  1  0  0  0
 28101  1  0  0  0
 28102  1  0  0  0
 29103  1  0  0  0
 29104  1  0  0  0
 33 34  1  0  0  0
 33 66  1  0  0  0
 33 70  2  0  0  0
 34 36  1  0  0  0
 34 59  1  0  0  0
 34105  1  0  0  0
 35 44  2  0  0  0
 35 45  1  0  0  0
 35 68  1  0  0  0
 36 56  1  0  0  0
 36106  1  0  0  0
 37 39  1  0  0  0
 37 47  1  0  0  0
 37 66  1  0  0  0
 37107  1  0  0  0
 38 43  2  0  0  0
 38 46  1  0  0  0
 38 47  1  0  0  0
 39 64  1  0  0  0
 39 67  2  0  0  0
 40 52  1  0  0  0
 40 53  2  0  0  0
 40 58  1  0  0  0
 41108  1  0  0  0
 41109  1  0  0  0
 41110  1  0  0  0
 41 48  1  0  0  0
 42 43  1  0  0  0
 42 66  1  0  0  0
 42111  1  0  0  0
 42112  1  0  0  0
 43 44  1  0  0  0
 44113  1  0  0  0
 45 46  2  0  0  0
 45114  1  0  0  0
 46115  1  0  0  0
 47116  1  0  0  0
 47117  1  0  0  0
 48 56  1  0  0  0
 48 65  1  0  0  0
 48118  1  0  0  0
 49 50  1  0  0  0
 49 53  1  0  0  0
 49 64  1  0  0  0
 49119  1  0  0  0
 50 51  1  0  0  0
 50120  1  0  0  0
 50121  1  0  0  0
 51 52  1  0  0  0
 51122  1  0  0  0
 51123  1  0  0  0
 52124  1  0  0  0
 52125  1  0  0  0
 53 54  1  0  0  0
 54 55  2  0  0  0
 54126  1  0  0  0
 55 57  1  0  0  0
 55127  1  0  0  0
 56 69  2  0  0  0
 57 58  2  0  0  0
 57128  1  0  0  0
 58129  1  0  0  0
 59 60  1  0  0  0
 59 61  1  0  0  0
 59 62  1  0  0  0
 60130  1  0  0  0
 60131  1  0  0  0
 60132  1  0  0  0
 61133  1  0  0  0
 61134  1  0  0  0
 61135  1  0  0  0
 62136  1  0  0  0
 62137  1  0  0  0
 62138  1  0  0  0
 63 65  1  0  0  0
 63139  1  0  0  0
 63140  1  0  0  0
 63141  1  0  0  0
 64142  1  0  0  0
 65143  1  0  0  0
 68 81  1  0  0  0
 71 72  2  0  0  0
 71 73  1  0  0  0
 71144  1  0  0  0
 72 75  1  0  0  0
 72145  1  0  0  0
 73 76  2  0  0  0
 73146  1  0  0  0
 74 75  2  0  0  0
 74 76  1  0  0  0
 74147  1  0  0  0
 75 83  1  0  0  0
 76 84  1  0  0  0
 77148  1  0  0  0
 77149  1  0  0  0
 77150  1  0  0  0
 77 82  1  0  0  0
 78 82  1  0  0  0
 78151  1  0  0  0
 78152  1  0  0  0
 78153  1  0  0  0
 79 80  1  0  0  0
 79 82  1  0  0  0
 79154  1  0  0  0
 79155  1  0  0  0
 80 84  1  0  0  0
 80156  1  0  0  0
 80157  1  0  0  0
 81 82  1  0  0  0
 81158  1  0  0  0
 81159  1  0  0  0
 83160  1  0  0  0
M  ISO  4   1 100  68 101  81 101  83 100
M  END
> <chiral flag>
0

> <version>
0

> <s_m_source_file>
/data/baiqing/PycharmProjects/Reinvent-master-3.2/result/LINK_invent/BTK/process_docking_weight1_custom_product_contain_oxygen_bond_distance_aromatic_linkinvent_7_9_3/rearranged_h_0140.sdf

> <i_m_source_file_index>
47

> <r_mmod_Potential_Energy-OPLS-2005>
142.74592590332

> <r_mmod_Stretch_Energy-OPLS-2005>
69.5359497070312

> <r_mmod_Bend_Energy-OPLS-2005>
150.946578979492

> <r_mmod_Torsional_Energy-OPLS-2005>
295.174530029297

> <r_mmod_Improper_Torsional_Energy-OPLS-2005>
5.04557847976685

> <r_mmod_Van_der_Waal_Energy-OPLS-2005>
148.73908996582

> <r_mmod_Electrostatic_Energy-OPLS-2005>
-358.173828125

> <r_mmod_Solvation_Energy-OPLS-2005>
-203.240081787109

> <b_mmod_Minimization_Converged-OPLS-2005>
0

> <r_mmod_RMS_Derivative-OPLS-2005>
5.18304777145386

$$$$
47
                    3D
 Structure written by MMmdl.
168177  0  0  1  0            999 V2000
  -30.7486  -14.4791   20.5650 C   0  0  0  0  0  0
  -30.4124  -12.3113   19.4300 C   0  0  0  0  0  0
  -29.4917  -12.4926   18.2097 C   0  0  0  0  0  0
  -28.0154  -12.3593   18.6286 C   0  0  0  0  0  0
  -27.6563  -13.2238   19.8665 C   0  0  2  0  0  0
  -28.7011  -13.0503   20.9938 C   0  0  0  0  0  0
  -25.2583  -13.8202   20.5714 C   0  0  0  0  0  0
  -24.1835  -13.0425   20.9216 C   0  0  0  0  0  0
  -24.6426  -11.6923   20.8777 C   0  0  0  0  0  0
  -23.9090  -10.4303   21.0402 C   0  0  0  0  0  0
  -24.3616   -9.4212   21.9185 C   0  0  0  0  0  0
  -23.6292   -8.2248   22.0771 C   0  0  0  0  0  0
  -22.4275   -8.0291   21.3565 C   0  0  0  0  0  0
  -21.9904   -9.0255   20.4656 C   0  0  0  0  0  0
  -22.7242  -10.2143   20.3066 C   0  0  0  0  0  0
  -21.6869   -6.0755   22.5287 C   0  0  0  0  0  0
  -21.4013   -6.5656   23.8217 C   0  0  0  0  0  0
  -21.3676   -5.6802   24.9172 C   0  0  0  0  0  0
  -21.6047   -4.3069   24.7208 C   0  0  0  0  0  0
  -21.8815   -3.8156   23.4328 C   0  0  0  0  0  0
  -21.9184   -4.6980   22.3390 C   0  0  0  0  0  0
  -22.7855  -13.5235   21.1831 C   0  0  0  0  0  0
  -22.1653   -4.2173   21.0972 F   0  0  0  0  0  0
  -21.5614   -3.4540   25.7716 F   0  0  0  0  0  0
  -30.0322  -13.3252   20.4299 N   0  0  0  0  0  0
  -26.3016  -12.9411   20.3372 N   0  0  0  0  0  0
  -25.9370  -11.6559   20.5839 N   0  0  0  0  0  0
  -22.0470  -12.8253   22.0404 N   0  0  0  0  0  0
  -25.4279  -15.1912   20.4220 N   0  0  0  0  0  0
  -31.8681  -14.6120   20.0720 O   0  0  0  0  0  0
  -21.6637   -6.8893   21.4258 O   0  0  0  0  0  0
  -22.3553  -14.5518   20.6662 O   0  0  0  0  0  0
  -24.6204  -31.8728   23.2162 C   0  0  0  0  0  0
  -25.9060  -32.4892   23.8492 C   0  0  1  0  0  0
  -27.2302  -27.4227   20.0895 C   0  0  0  0  0  0
  -25.5898  -33.8682   24.2479 N   0  0  0  0  0  0
  -23.4111  -30.5021   21.5589 C   0  0  2  0  0  0
  -24.8584  -28.9859   20.1035 C   0  0  0  0  0  0
  -22.7475  -29.4729   22.5038 C   0  0  0  0  0  0
  -18.0273  -28.1401   22.8473 C   0  0  0  0  0  0
  -24.1471  -36.7298   23.2648 C   0  0  0  0  0  0
  -25.9469  -30.8314   21.3776 C   0  0  0  0  0  0
  -26.0243  -29.4732   20.7113 C   0  0  0  0  0  0
  -27.2171  -28.7012   20.7044 C   0  0  0  0  0  0
  -26.0554  -26.9946   19.4222 C   0  0  0  0  0  0
  -24.8745  -27.7452   19.4497 C   0  0  0  0  0  0
  -23.6184  -29.8503   20.1676 C   0  0  0  0  0  0
  -25.4093  -36.3176   24.0406 C   0  0  1  0  0  0
  -20.5884  -28.3726   23.1266 C   0  0  2  0  0  0
  -20.6804  -26.9473   22.5377 C   0  0  0  0  0  0
  -19.5750  -26.6401   21.5220 C   0  0  0  0  0  0
  -18.1921  -26.7933   22.1621 C   0  0  0  0  0  0
  -19.1516  -28.8877   23.2884 C   0  0  0  0  0  0
  -18.9440  -30.1464   23.8935 C   0  0  0  0  0  0
  -17.6437  -30.6610   24.0557 C   0  0  0  0  0  0
  -25.9017  -34.9522   23.5257 C   0  0  0  0  0  0
  -16.5334  -29.9109   23.6289 C   0  0  0  0  0  0
  -16.7253  -28.6519   23.0334 C   0  0  0  0  0  0
  -26.4442  -31.6622   25.0792 C   0  0  0  0  0  0
  -25.3695  -31.3620   26.1524 C   0  0  0  0  0  0
  -27.0275  -30.3101   24.6102 C   0  0  0  0  0  0
  -27.6113  -32.4278   25.7462 C   0  0  0  0  0  0
  -27.5600  -37.1816   24.8489 C   0  0  0  0  0  0
  -21.4198  -29.3100   22.3714 N   0  0  0  0  0  0
  -26.4311  -37.3831   23.9440 N   0  0  0  0  0  0
  -24.6778  -31.0818   22.1076 N   0  0  0  0  0  0
  -23.4244  -28.8301   23.3129 O   0  0  0  0  0  0
  -28.3218  -26.5673   20.1863 O   0  0  0  0  0  0
  -26.5539  -34.8931   22.4794 O   0  0  0  0  0  0
  -23.5379  -32.1483   23.7514 O   0  0  0  0  0  0
  -30.9995  -19.2921   21.5144 C   0  0  0  0  0  0
  -30.5146  -20.5707   21.1806 C   0  0  0  0  0  0
  -29.2606  -18.2968   20.1817 C   0  0  0  0  0  0
  -30.3440  -18.1289   21.0669 C   0  0  0  0  0  0
  -28.7919  -19.5960   19.8388 C   0  0  0  0  0  0
  -29.3492  -20.7800   20.4065 C   0  0  0  0  0  0
  -29.6401  -23.2072   19.9465 C   0  0  0  0  0  0
  -28.8356  -24.0792   20.9390 C   0  0  2  0  0  0
  -28.0912  -22.7516   21.3550 C   0  0  0  0  0  0
  -27.6566  -19.6963   18.8348 C   0  0  0  0  0  0
  -29.6654  -24.7451   22.0445 C   0  0  0  0  0  0
  -26.5653  -22.6309   21.1555 C   0  0  0  0  0  0
  -28.4068  -22.1560   22.7396 C   0  0  0  0  0  0
  -30.8467  -16.7703   21.5924 C   0  0  0  0  0  0
  -27.9182  -25.1714   20.3287 C   0  0  0  0  0  0
  -28.7531  -22.0836   20.2166 N   0  0  0  0  0  0
  -30.1558  -15.5146   21.1980 N   0  0  0  0  0  0
  -31.4566  -12.3920   19.1183 H   0  0  0  0  0  0
  -30.3085  -11.3092   19.8501 H   0  0  0  0  0  0
  -29.7316  -11.7536   17.4427 H   0  0  0  0  0  0
  -29.6690  -13.4724   17.7641 H   0  0  0  0  0  0
  -27.8362  -11.3081   18.8590 H   0  0  0  0  0  0
  -27.3594  -12.6007   17.7907 H   0  0  0  0  0  0
  -27.6873  -14.2611   19.5348 H   0  0  0  0  0  0
  -28.6701  -12.0334   21.3893 H   0  0  0  0  0  0
  -28.4675  -13.7056   21.8368 H   0  0  0  0  0  0
  -25.2758   -9.5703   22.4767 H   0  0  0  0  0  0
  -23.9990   -7.4670   22.7513 H   0  0  0  0  0  0
  -21.0816   -8.8771   19.8997 H   0  0  0  0  0  0
  -22.3660  -10.9665   19.6182 H   0  0  0  0  0  0
  -21.2007   -7.6162   23.9723 H   0  0  0  0  0  0
  -21.1519   -6.0530   25.9080 H   0  0  0  0  0  0
  -22.0577   -2.7615   23.2804 H   0  0  0  0  0  0
  -22.3996  -11.9910   22.4861 H   0  0  0  0  0  0
  -21.1123  -13.1384   22.2594 H   0  0  0  0  0  0
  -24.6586  -15.8452   20.5264 H   0  0  0  0  0  0
  -26.2931  -15.6393   20.1481 H   0  0  0  0  0  0
  -26.7188  -32.5630   23.1314 H   0  0  0  0  0  0
  -25.0106  -33.9862   25.0671 H   0  0  0  0  0  0
  -22.7009  -31.3233   21.4340 H   0  0  0  0  0  0
  -23.3778  -35.9579   23.3325 H   0  0  0  0  0  0
  -24.3570  -36.8838   22.2045 H   0  0  0  0  0  0
  -23.7118  -37.6494   23.6592 H   0  0  0  0  0  0
  -26.0812  -31.5915   20.6075 H   0  0  0  0  0  0
  -26.8234  -30.8773   22.0101 H   0  0  0  0  0  0
  -28.1026  -29.0628   21.2110 H   0  0  0  0  0  0
  -26.0123  -26.0615   18.8830 H   0  0  0  0  0  0
  -23.9972  -27.3561   18.9520 H   0  0  0  0  0  0
  -23.7266  -30.6357   19.4168 H   0  0  0  0  0  0
  -22.7338  -29.2801   19.8778 H   0  0  0  0  0  0
  -25.1243  -36.2128   25.0898 H   0  0  0  0  0  0
  -20.9958  -28.3280   24.1402 H   0  0  0  0  0  0
  -20.5776  -26.2360   23.3579 H   0  0  0  0  0  0
  -21.6682  -26.7582   22.1125 H   0  0  0  0  0  0
  -19.6919  -25.6301   21.1287 H   0  0  0  0  0  0
  -19.6633  -27.3193   20.6732 H   0  0  0  0  0  0
  -17.4233  -26.6695   21.3995 H   0  0  0  0  0  0
  -18.0265  -26.0102   22.9020 H   0  0  0  0  0  0
  -19.7927  -30.7238   24.2380 H   0  0  0  0  0  0
  -17.4997  -31.6283   24.5149 H   0  0  0  0  0  0
  -15.5337  -30.3020   23.7608 H   0  0  0  0  0  0
  -15.8648  -28.0843   22.7053 H   0  0  0  0  0  0
  -24.5958  -30.6892   25.7794 H   0  0  0  0  0  0
  -24.8734  -32.2680   26.5011 H   0  0  0  0  0  0
  -25.8023  -30.8753   27.0274 H   0  0  0  0  0  0
  -26.2798  -29.6870   24.1178 H   0  0  0  0  0  0
  -27.4121  -29.7340   25.4523 H   0  0  0  0  0  0
  -27.8610  -30.4497   23.9219 H   0  0  0  0  0  0
  -27.2908  -33.3635   26.2042 H   0  0  0  0  0  0
  -28.3836  -32.6714   25.0161 H   0  0  0  0  0  0
  -28.0869  -31.8354   26.5287 H   0  0  0  0  0  0
  -28.2675  -38.0065   24.7570 H   0  0  0  0  0  0
  -28.1059  -36.2625   24.6322 H   0  0  0  0  0  0
  -27.2327  -37.1467   25.8890 H   0  0  0  0  0  0
  -20.9453  -29.8748   21.6808 H   0  0  0  0  0  0
  -26.0261  -38.2955   24.1370 H   0  0  0  0  0  0
  -31.8547  -19.2209   22.1740 H   0  0  0  0  0  0
  -31.0239  -21.4204   21.6071 H   0  0  0  0  0  0
  -28.7754  -17.4230   19.7734 H   0  0  0  0  0  0
  -29.5510  -23.5368   18.9116 H   0  0  0  0  0  0
  -30.6838  -23.0539   20.2259 H   0  0  0  0  0  0
  -28.0481  -19.8895   17.8366 H   0  0  0  0  0  0
  -26.9617  -20.4999   19.0708 H   0  0  0  0  0  0
  -27.0996  -18.7596   18.8104 H   0  0  0  0  0  0
  -29.0722  -24.9532   22.9374 H   0  0  0  0  0  0
  -30.1123  -25.6868   21.7224 H   0  0  0  0  0  0
  -30.4897  -24.0962   22.3377 H   0  0  0  0  0  0
  -26.2386  -21.5993   21.0107 H   0  0  0  0  0  0
  -26.1858  -23.1957   20.3070 H   0  0  0  0  0  0
  -26.0198  -23.0134   22.0205 H   0  0  0  0  0  0
  -28.0540  -21.1263   22.8431 H   0  0  0  0  0  0
  -27.9286  -22.7300   23.5330 H   0  0  0  0  0  0
  -29.4694  -22.1721   22.9670 H   0  0  0  0  0  0
  -30.7918  -16.8280   22.6805 H   0  0  0  0  0  0
  -31.9132  -16.7346   21.3611 H   0  0  0  0  0  0
  -27.0229  -25.1881   20.9518 H   0  0  0  0  0  0
  -27.6128  -24.7976   19.3517 H   0  0  0  0  0  0
  -29.2286  -15.3578   21.5618 H   0  0  0  0  0  0
  1 25  1  0  0  0
  1 30  2  0  0  0
  1 87  1  0  0  0
  2  3  1  0  0  0
  2 25  1  0  0  0
  2 88  1  0  0  0
  2 89  1  0  0  0
  3  4  1  0  0  0
  3 90  1  0  0  0
  3 91  1  0  0  0
  4  5  1  0  0  0
  4 92  1  0  0  0
  4 93  1  0  0  0
  5  6  1  0  0  0
  5 26  1  0  0  0
  5 94  1  0  0  0
  6 25  1  0  0  0
  6 95  1  0  0  0
  6 96  1  0  0  0
  7  8  2  0  0  0
  7 26  1  0  0  0
  7 29  1  0  0  0
  8  9  1  0  0  0
  8 22  1  0  0  0
  9 10  1  0  0  0
  9 27  2  0  0  0
 10 11  2  0  0  0
 10 15  1  0  0  0
 11 12  1  0  0  0
 11 97  1  0  0  0
 12 13  2  0  0  0
 12 98  1  0  0  0
 13 14  1  0  0  0
 13 31  1  0  0  0
 14 15  2  0  0  0
 14 99  1  0  0  0
 15100  1  0  0  0
 16 17  2  0  0  0
 16 21  1  0  0  0
 16 31  1  0  0  0
 17 18  1  0  0  0
 17101  1  0  0  0
 18 19  2  0  0  0
 18102  1  0  0  0
 19 20  1  0  0  0
 19 24  1  0  0  0
 20 21  2  0  0  0
 20103  1  0  0  0
 21 23  1  0  0  0
 22 28  1  0  0  0
 22 32  2  0  0  0
 26 27  1  0  0  0
 28104  1  0  0  0
 28105  1  0  0  0
 29106  1  0  0  0
 29107  1  0  0  0
 33 34  1  0  0  0
 33 66  1  0  0  0
 33 70  2  0  0  0
 34 36  1  0  0  0
 34 59  1  0  0  0
 34108  1  0  0  0
 35 44  2  0  0  0
 35 45  1  0  0  0
 35 68  1  0  0  0
 36 56  1  0  0  0
 36109  1  0  0  0
 37 39  1  0  0  0
 37 47  1  0  0  0
 37 66  1  0  0  0
 37110  1  0  0  0
 38 43  2  0  0  0
 38 46  1  0  0  0
 38 47  1  0  0  0
 39 64  1  0  0  0
 39 67  2  0  0  0
 40 52  1  0  0  0
 40 53  2  0  0  0
 40 58  1  0  0  0
 41111  1  0  0  0
 41112  1  0  0  0
 41113  1  0  0  0
 41 48  1  0  0  0
 42 43  1  0  0  0
 42 66  1  0  0  0
 42114  1  0  0  0
 42115  1  0  0  0
 43 44  1  0  0  0
 44116  1  0  0  0
 45 46  2  0  0  0
 45117  1  0  0  0
 46118  1  0  0  0
 47119  1  0  0  0
 47120  1  0  0  0
 48 56  1  0  0  0
 48 65  1  0  0  0
 48121  1  0  0  0
 49 50  1  0  0  0
 49 53  1  0  0  0
 49 64  1  0  0  0
 49122  1  0  0  0
 50 51  1  0  0  0
 50123  1  0  0  0
 50124  1  0  0  0
 51 52  1  0  0  0
 51125  1  0  0  0
 51126  1  0  0  0
 52127  1  0  0  0
 52128  1  0  0  0
 53 54  1  0  0  0
 54 55  2  0  0  0
 54129  1  0  0  0
 55 57  1  0  0  0
 55130  1  0  0  0
 56 69  2  0  0  0
 57 58  2  0  0  0
 57131  1  0  0  0
 58132  1  0  0  0
 59 60  1  0  0  0
 59 61  1  0  0  0
 59 62  1  0  0  0
 60133  1  0  0  0
 60134  1  0  0  0
 60135  1  0  0  0
 61136  1  0  0  0
 61137  1  0  0  0
 61138  1  0  0  0
 62139  1  0  0  0
 62140  1  0  0  0
 62141  1  0  0  0
 63 65  1  0  0  0
 63142  1  0  0  0
 63143  1  0  0  0
 63144  1  0  0  0
 64145  1  0  0  0
 65146  1  0  0  0
 68 85  1  0  0  0
 71 72  2  0  0  0
 71 74  1  0  0  0
 71147  1  0  0  0
 72 76  1  0  0  0
 72148  1  0  0  0
 73 74  2  0  0  0
 73 75  1  0  0  0
 73149  1  0  0  0
 74 84  1  0  0  0
 75 76  2  0  0  0
 75 80  1  0  0  0
 76 86  1  0  0  0
 77 78  1  0  0  0
 77 86  1  0  0  0
 77150  1  0  0  0
 77151  1  0  0  0
 78 79  1  0  0  0
 78 81  1  0  0  0
 78 85  1  0  0  0
 79 82  1  0  0  0
 79 83  1  0  0  0
 79 86  1  0  0  0
 80152  1  0  0  0
 80153  1  0  0  0
 80154  1  0  0  0
 81155  1  0  0  0
 81156  1  0  0  0
 81157  1  0  0  0
 82158  1  0  0  0
 82159  1  0  0  0
 82160  1  0  0  0
 83161  1  0  0  0
 83162  1  0  0  0
 83163  1  0  0  0
 84 87  1  0  0  0
 84164  1  0  0  0
 84165  1  0  0  0
 85166  1  0  0  0
 85167  1  0  0  0
 87168  1  0  0  0
M  ISO  4   1 100  68 101  85 101  87 100
M  END
> <chiral flag>
0

> <version>
0

> <s_m_source_file>
/data/baiqing/PycharmProjects/Reinvent-master-3.2/result/LINK_invent/BTK/process_docking_weight1_custom_product_contain_oxygen_bond_distance_aromatic_linkinvent_7_9_3/rearranged_h_0140.sdf

> <i_m_source_file_index>
48

> <r_mmod_Potential_Energy-OPLS-2005>
31.4772453308105

> <r_mmod_Stretch_Energy-OPLS-2005>
51.8492736816406

> <r_mmod_Bend_Energy-OPLS-2005>
153.00439453125

> <r_mmod_Torsional_Energy-OPLS-2005>
293.645233154297

> <r_mmod_Improper_Torsional_Energy-OPLS-2005>
9.68487358093262

> <r_mmod_Van_der_Waal_Energy-OPLS-2005>
180.561630249023

> <r_mmod_Electrostatic_Energy-OPLS-2005>
-470.448577880859

> <r_mmod_Solvation_Energy-OPLS-2005>
-209.934921264648

> <b_mmod_Minimization_Converged-OPLS-2005>
0

> <r_mmod_RMS_Derivative-OPLS-2005>
6.78304290771484

$$$$
48
                    3D
 Structure written by MMmdl.
171180  0  0  1  0            999 V2000
  -30.6133  -14.7087   20.4434 C   0  0  0  0  0  0
  -30.4379  -12.4254   19.4713 C   0  0  0  0  0  0
  -29.5262  -12.5403   18.2310 C   0  0  0  0  0  0
  -28.0407  -12.3869   18.6247 C   0  0  0  0  0  0
  -27.6547  -13.2404   19.8656 C   0  0  2  0  0  0
  -28.7001  -13.1240   20.9993 C   0  0  0  0  0  0
  -25.2537  -13.8213   20.5692 C   0  0  0  0  0  0
  -24.1815  -13.0450   20.9182 C   0  0  0  0  0  0
  -24.6398  -11.6925   20.8701 C   0  0  0  0  0  0
  -23.9029  -10.4314   21.0381 C   0  0  0  0  0  0
  -24.3576   -9.4239   21.9181 C   0  0  0  0  0  0
  -23.6287   -8.2252   22.0759 C   0  0  0  0  0  0
  -22.4277   -8.0284   21.3556 C   0  0  0  0  0  0
  -21.9885   -9.0252   20.4669 C   0  0  0  0  0  0
  -22.7178  -10.2146   20.3059 C   0  0  0  0  0  0
  -21.6859   -6.0716   22.5278 C   0  0  0  0  0  0
  -21.4004   -6.5624   23.8203 C   0  0  0  0  0  0
  -21.3663   -5.6779   24.9161 C   0  0  0  0  0  0
  -21.6071   -4.3046   24.7221 C   0  0  0  0  0  0
  -21.8800   -3.8132   23.4335 C   0  0  0  0  0  0
  -21.9185   -4.6941   22.3385 C   0  0  0  0  0  0
  -22.7833  -13.5234   21.1832 C   0  0  0  0  0  0
  -22.1668   -4.2111   21.0946 F   0  0  0  0  0  0
  -21.5641   -3.4519   25.7740 F   0  0  0  0  0  0
  -30.0120  -13.4723   20.4289 N   0  0  0  0  0  0
  -26.2986  -12.9431   20.3297 N   0  0  0  0  0  0
  -25.9338  -11.6562   20.5679 N   0  0  0  0  0  0
  -22.0464  -12.8293   22.0410 N   0  0  0  0  0  0
  -25.4284  -15.1936   20.4152 N   0  0  0  0  0  0
  -31.7774  -14.8391   20.0574 O   0  0  0  0  0  0
  -21.6672   -6.8867   21.4238 O   0  0  0  0  0  0
  -22.3514  -14.5515   20.6630 O   0  0  0  0  0  0
  -24.6312  -31.8567   23.1961 C   0  0  0  0  0  0
  -25.9156  -32.4740   23.8325 C   0  0  1  0  0  0
  -27.2210  -27.2590   20.1367 C   0  0  0  0  0  0
  -25.5958  -33.8553   24.2233 N   0  0  0  0  0  0
  -23.4304  -30.4754   21.5421 C   0  0  2  0  0  0
  -24.8768  -28.9147   20.1172 C   0  0  0  0  0  0
  -22.7499  -29.4599   22.4915 C   0  0  0  0  0  0
  -18.0271  -28.1386   22.8439 C   0  0  0  0  0  0
  -24.1502  -36.7273   23.2636 C   0  0  0  0  0  0
  -25.9769  -30.7599   21.3846 C   0  0  0  0  0  0
  -26.0487  -29.3844   20.7240 C   0  0  0  0  0  0
  -27.2262  -28.5693   20.7213 C   0  0  0  0  0  0
  -26.0277  -26.8555   19.5019 C   0  0  0  0  0  0
  -24.8701  -27.6588   19.4922 C   0  0  0  0  0  0
  -23.6513  -29.8058   20.1606 C   0  0  0  0  0  0
  -25.4122  -36.3060   24.0316 C   0  0  1  0  0  0
  -20.5870  -28.3711   23.1260 C   0  0  2  0  0  0
  -20.6763  -26.9431   22.5414 C   0  0  0  0  0  0
  -19.5768  -26.6368   21.5191 C   0  0  0  0  0  0
  -18.1933  -26.7930   22.1568 C   0  0  0  0  0  0
  -19.1519  -28.8859   23.2829 C   0  0  0  0  0  0
  -18.9459  -30.1457   23.8859 C   0  0  0  0  0  0
  -17.6464  -30.6598   24.0550 C   0  0  0  0  0  0
  -25.9077  -34.9429   23.5066 C   0  0  0  0  0  0
  -16.5342  -29.9087   23.6339 C   0  0  0  0  0  0
  -16.7258  -28.6494   23.0357 C   0  0  0  0  0  0
  -26.4502  -31.6553   25.0732 C   0  0  0  0  0  0
  -25.3711  -31.3760   26.1448 C   0  0  0  0  0  0
  -27.0304  -30.2923   24.6294 C   0  0  0  0  0  0
  -27.6066  -32.4299   25.7503 C   0  0  0  0  0  0
  -27.5605  -37.1758   24.8426 C   0  0  0  0  0  0
  -21.4205  -29.3041   22.3635 N   0  0  0  0  0  0
  -26.4269  -37.3778   23.9432 N   0  0  0  0  0  0
  -24.6971  -31.0499   22.0962 N   0  0  0  0  0  0
  -23.4179  -28.8154   23.3051 O   0  0  0  0  0  0
  -28.3063  -26.3587   20.1445 O   0  0  0  0  0  0
  -26.5648  -34.8904   22.4637 O   0  0  0  0  0  0
  -23.5474  -32.1387   23.7274 O   0  0  0  0  0  0
  -29.5336  -18.3641   20.9960 C   0  0  0  0  0  0
  -29.4723  -19.8147   19.0563 C   0  0  0  0  0  0
  -29.9373  -17.4011   18.8185 C   0  0  0  0  0  0
  -29.3463  -19.7095   20.4578 C   0  0  0  0  0  0
  -29.8222  -17.1837   20.2110 C   0  0  0  0  0  0
  -29.7602  -18.6877   18.2515 C   0  0  0  0  0  0
  -28.6875  -23.6803   20.0796 C   0  0  0  0  0  0
  -31.3383  -21.4969   21.9320 C   0  0  0  0  0  0
  -30.9139  -22.5285   20.8796 C   0  0  0  0  0  0
  -30.0263  -20.9277   22.5163 C   0  0  0  0  0  0
  -29.3827  -22.5467   20.9807 C   0  0  2  0  0  0
  -28.9657  -20.9912   21.3639 C   0  0  1  0  0  0
  -27.1618  -19.5134   22.6033 C   0  0  0  0  0  0
  -26.4788  -20.9224   20.6933 C   0  0  0  0  0  0
  -27.0436  -21.9589   22.8853 C   0  0  0  0  0  0
  -28.0619  -25.0046   20.7481 C   0  0  0  0  0  0
  -27.4614  -20.8558   21.8829 C   0  0  0  0  0  0
  -29.8398  -15.8110   20.7724 N   0  0  0  0  0  0
  -28.6568  -23.5472   18.8532 O   0  0  0  0  0  0
  -29.8489  -18.8407   16.9063 F   0  0  0  0  0  0
  -31.4861  -12.5315   19.1909 H   0  0  0  0  0  0
  -30.3577  -11.4359   19.9237 H   0  0  0  0  0  0
  -29.8156  -11.8007   17.4792 H   0  0  0  0  0  0
  -29.6679  -13.5137   17.7596 H   0  0  0  0  0  0
  -27.8548  -11.3335   18.8252 H   0  0  0  0  0  0
  -27.4112  -12.6595   17.7776 H   0  0  0  0  0  0
  -27.6614  -14.2784   19.5322 H   0  0  0  0  0  0
  -28.7220  -12.1088   21.4028 H   0  0  0  0  0  0
  -28.4489  -13.7820   21.8372 H   0  0  0  0  0  0
  -25.2727   -9.5739   22.4719 H   0  0  0  0  0  0
  -24.0040   -7.4634   22.7458 H   0  0  0  0  0  0
  -21.0834   -8.8726   19.8982 H   0  0  0  0  0  0
  -22.3625  -10.9660   19.6161 H   0  0  0  0  0  0
  -21.2006   -7.6149   23.9683 H   0  0  0  0  0  0
  -21.1527   -6.0526   25.9059 H   0  0  0  0  0  0
  -22.0591   -2.7597   23.2828 H   0  0  0  0  0  0
  -22.4055  -12.0007   22.4888 H   0  0  0  0  0  0
  -21.1070  -13.1376   22.2487 H   0  0  0  0  0  0
  -24.6670  -15.8547   20.5317 H   0  0  0  0  0  0
  -26.2891  -15.6263   20.0996 H   0  0  0  0  0  0
  -26.7223  -32.5395   23.1075 H   0  0  0  0  0  0
  -25.0105  -33.9682   25.0373 H   0  0  0  0  0  0
  -22.7258  -31.2960   21.3959 H   0  0  0  0  0  0
  -23.3798  -35.9570   23.3210 H   0  0  0  0  0  0
  -24.3605  -36.8997   22.2072 H   0  0  0  0  0  0
  -23.7197  -37.6416   23.6719 H   0  0  0  0  0  0
  -26.1281  -31.5212   20.6194 H   0  0  0  0  0  0
  -26.8468  -30.8002   22.0279 H   0  0  0  0  0  0
  -28.1242  -28.9191   21.2084 H   0  0  0  0  0  0
  -25.9847  -25.8914   19.0176 H   0  0  0  0  0  0
  -23.9708  -27.2924   19.0145 H   0  0  0  0  0  0
  -23.7784  -30.5796   19.4038 H   0  0  0  0  0  0
  -22.7708  -29.2415   19.8557 H   0  0  0  0  0  0
  -25.1292  -36.1884   25.0800 H   0  0  0  0  0  0
  -20.9933  -28.3314   24.1395 H   0  0  0  0  0  0
  -20.5644  -26.2343   23.3630 H   0  0  0  0  0  0
  -21.6649  -26.7451   22.1263 H   0  0  0  0  0  0
  -19.6961  -25.6259   21.1282 H   0  0  0  0  0  0
  -19.6759  -27.3131   20.6691 H   0  0  0  0  0  0
  -17.4238  -26.6686   21.3939 H   0  0  0  0  0  0
  -18.0310  -26.0060   22.8946 H   0  0  0  0  0  0
  -19.7939  -30.7242   24.2250 H   0  0  0  0  0  0
  -17.5038  -31.6278   24.5157 H   0  0  0  0  0  0
  -15.5349  -30.2996   23.7687 H   0  0  0  0  0  0
  -15.8650  -28.0821   22.7097 H   0  0  0  0  0  0
  -24.5945  -30.7027   25.7789 H   0  0  0  0  0  0
  -24.8847  -32.2950   26.4736 H   0  0  0  0  0  0
  -25.8031  -30.9062   27.0294 H   0  0  0  0  0  0
  -26.2874  -29.6711   24.1297 H   0  0  0  0  0  0
  -27.3831  -29.7175   25.4858 H   0  0  0  0  0  0
  -27.8842  -30.4060   23.9622 H   0  0  0  0  0  0
  -27.2658  -33.3586   26.2085 H   0  0  0  0  0  0
  -28.3884  -32.6876   25.0346 H   0  0  0  0  0  0
  -28.0749  -31.8444   26.5422 H   0  0  0  0  0  0
  -28.2534  -38.0149   24.7590 H   0  0  0  0  0  0
  -28.1175  -36.2669   24.6062 H   0  0  0  0  0  0
  -27.2351  -37.1206   25.8833 H   0  0  0  0  0  0
  -20.9409  -29.8728   21.6812 H   0  0  0  0  0  0
  -26.0143  -38.2832   24.1506 H   0  0  0  0  0  0
  -29.4188  -18.2064   22.0554 H   0  0  0  0  0  0
  -29.3302  -20.7706   18.5718 H   0  0  0  0  0  0
  -30.1077  -16.5734   18.1455 H   0  0  0  0  0  0
  -31.9765  -21.9310   22.7042 H   0  0  0  0  0  0
  -31.9180  -20.7046   21.4541 H   0  0  0  0  0  0
  -31.2458  -22.2112   19.8917 H   0  0  0  0  0  0
  -31.3475  -23.5120   21.0746 H   0  0  0  0  0  0
  -29.7407  -21.5588   23.3589 H   0  0  0  0  0  0
  -30.1832  -19.9538   22.9741 H   0  0  0  0  0  0
  -29.2175  -23.0631   21.9257 H   0  0  0  0  0  0
  -27.1104  -18.6720   21.9105 H   0  0  0  0  0  0
  -26.1879  -19.5278   23.1001 H   0  0  0  0  0  0
  -27.9002  -19.2844   23.3743 H   0  0  0  0  0  0
  -26.6606  -20.1299   19.9651 H   0  0  0  0  0  0
  -26.5342  -21.8700   20.1645 H   0  0  0  0  0  0
  -25.4480  -20.8054   21.0317 H   0  0  0  0  0  0
  -27.6490  -21.9591   23.7916 H   0  0  0  0  0  0
  -26.0126  -21.8114   23.2113 H   0  0  0  0  0  0
  -27.0764  -22.9559   22.4555 H   0  0  0  0  0  0
  -28.3929  -25.0580   21.7840 H   0  0  0  0  0  0
  -26.9877  -24.8281   20.7998 H   0  0  0  0  0  0
  -29.0232  -15.5761   21.3159 H   0  0  0  0  0  0
  1 25  1  0  0  0
  1 30  2  0  0  0
  1 88  1  0  0  0
  2  3  1  0  0  0
  2 25  1  0  0  0
  2 91  1  0  0  0
  2 92  1  0  0  0
  3  4  1  0  0  0
  3 93  1  0  0  0
  3 94  1  0  0  0
  4  5  1  0  0  0
  4 95  1  0  0  0
  4 96  1  0  0  0
  5  6  1  0  0  0
  5 26  1  0  0  0
  5 97  1  0  0  0
  6 25  1  0  0  0
  6 98  1  0  0  0
  6 99  1  0  0  0
  7  8  2  0  0  0
  7 26  1  0  0  0
  7 29  1  0  0  0
  8  9  1  0  0  0
  8 22  1  0  0  0
  9 10  1  0  0  0
  9 27  2  0  0  0
 10 11  2  0  0  0
 10 15  1  0  0  0
 11 12  1  0  0  0
 11100  1  0  0  0
 12 13  2  0  0  0
 12101  1  0  0  0
 13 14  1  0  0  0
 13 31  1  0  0  0
 14 15  2  0  0  0
 14102  1  0  0  0
 15103  1  0  0  0
 16 17  2  0  0  0
 16 21  1  0  0  0
 16 31  1  0  0  0
 17 18  1  0  0  0
 17104  1  0  0  0
 18 19  2  0  0  0
 18105  1  0  0  0
 19 20  1  0  0  0
 19 24  1  0  0  0
 20 21  2  0  0  0
 20106  1  0  0  0
 21 23  1  0  0  0
 22 28  1  0  0  0
 22 32  2  0  0  0
 26 27  1  0  0  0
 28107  1  0  0  0
 28108  1  0  0  0
 29109  1  0  0  0
 29110  1  0  0  0
 33 34  1  0  0  0
 33 66  1  0  0  0
 33 70  2  0  0  0
 34 36  1  0  0  0
 34 59  1  0  0  0
 34111  1  0  0  0
 35 44  2  0  0  0
 35 45  1  0  0  0
 35 68  1  0  0  0
 36 56  1  0  0  0
 36112  1  0  0  0
 37 39  1  0  0  0
 37 47  1  0  0  0
 37 66  1  0  0  0
 37113  1  0  0  0
 38 43  2  0  0  0
 38 46  1  0  0  0
 38 47  1  0  0  0
 39 64  1  0  0  0
 39 67  2  0  0  0
 40 52  1  0  0  0
 40 53  2  0  0  0
 40 58  1  0  0  0
 41114  1  0  0  0
 41115  1  0  0  0
 41116  1  0  0  0
 41 48  1  0  0  0
 42 43  1  0  0  0
 42 66  1  0  0  0
 42117  1  0  0  0
 42118  1  0  0  0
 43 44  1  0  0  0
 44119  1  0  0  0
 45 46  2  0  0  0
 45120  1  0  0  0
 46121  1  0  0  0
 47122  1  0  0  0
 47123  1  0  0  0
 48 56  1  0  0  0
 48 65  1  0  0  0
 48124  1  0  0  0
 49 50  1  0  0  0
 49 53  1  0  0  0
 49 64  1  0  0  0
 49125  1  0  0  0
 50 51  1  0  0  0
 50126  1  0  0  0
 50127  1  0  0  0
 51 52  1  0  0  0
 51128  1  0  0  0
 51129  1  0  0  0
 52130  1  0  0  0
 52131  1  0  0  0
 53 54  1  0  0  0
 54 55  2  0  0  0
 54132  1  0  0  0
 55 57  1  0  0  0
 55133  1  0  0  0
 56 69  2  0  0  0
 57 58  2  0  0  0
 57134  1  0  0  0
 58135  1  0  0  0
 59 60  1  0  0  0
 59 61  1  0  0  0
 59 62  1  0  0  0
 60136  1  0  0  0
 60137  1  0  0  0
 60138  1  0  0  0
 61139  1  0  0  0
 61140  1  0  0  0
 61141  1  0  0  0
 62142  1  0  0  0
 62143  1  0  0  0
 62144  1  0  0  0
 63 65  1  0  0  0
 63145  1  0  0  0
 63146  1  0  0  0
 63147  1  0  0  0
 64148  1  0  0  0
 65149  1  0  0  0
 68 86  1  0  0  0
 71 74  2  0  0  0
 71 75  1  0  0  0
 71150  1  0  0  0
 72 74  1  0  0  0
 72 76  2  0  0  0
 72151  1  0  0  0
 73 75  2  0  0  0
 73 76  1  0  0  0
 73152  1  0  0  0
 74 82  1  0  0  0
 75 88  1  0  0  0
 76 90  1  0  0  0
 77 86  1  0  0  0
 77 89  2  0  0  0
 77 81  1  0  0  0
 78 79  1  0  0  0
 78 80  1  0  0  0
 78153  1  0  0  0
 78154  1  0  0  0
 79 81  1  0  0  0
 79155  1  0  0  0
 79156  1  0  0  0
 80 82  1  0  0  0
 80157  1  0  0  0
 80158  1  0  0  0
 81 82  1  0  0  0
 81159  1  0  0  0
 82 87  1  0  0  0
 83160  1  0  0  0
 83161  1  0  0  0
 83162  1  0  0  0
 83 87  1  0  0  0
 84 87  1  0  0  0
 84163  1  0  0  0
 84164  1  0  0  0
 84165  1  0  0  0
 85 87  1  0  0  0
 85166  1  0  0  0
 85167  1  0  0  0
 85168  1  0  0  0
 86169  1  0  0  0
 86170  1  0  0  0
 88171  1  0  0  0
M  ISO  4   1 100  68 101  86 101  88 100
M  END
> <chiral flag>
0

> <version>
0

> <s_m_source_file>
/data/baiqing/PycharmProjects/Reinvent-master-3.2/result/LINK_invent/BTK/process_docking_weight1_custom_product_contain_oxygen_bond_distance_aromatic_linkinvent_7_9_3/rearranged_h_0140.sdf

> <i_m_source_file_index>
49

> <r_mmod_Potential_Energy-OPLS-2005>
412.375091552734

> <r_mmod_Stretch_Energy-OPLS-2005>
142.728149414062

> <r_mmod_Bend_Energy-OPLS-2005>
272.230194091797

> <r_mmod_Torsional_Energy-OPLS-2005>
329.777740478516

> <r_mmod_Improper_Torsional_Energy-OPLS-2005>
4.57792472839355

> <r_mmod_Van_der_Waal_Energy-OPLS-2005>
139.95686340332

> <r_mmod_Electrostatic_Energy-OPLS-2005>
-340.558258056641

> <r_mmod_Solvation_Energy-OPLS-2005>
-213.352066040039

> <b_mmod_Minimization_Converged-OPLS-2005>
0

> <r_mmod_RMS_Derivative-OPLS-2005>
6.11027383804321

$$$$
49
                    3D
 Structure written by MMmdl.
162170  0  0  1  0            999 V2000
  -30.7622  -14.4886   20.5672 C   0  0  0  0  0  0
  -30.4130  -12.3261   19.4466 C   0  0  0  0  0  0
  -29.4980  -12.4981   18.2190 C   0  0  0  0  0  0
  -28.0209  -12.3664   18.6284 C   0  0  0  0  0  0
  -27.6577  -13.2260   19.8719 C   0  0  2  0  0  0
  -28.7013  -13.0694   21.0032 C   0  0  0  0  0  0
  -25.2563  -13.8211   20.5685 C   0  0  0  0  0  0
  -24.1822  -13.0442   20.9182 C   0  0  0  0  0  0
  -24.6413  -11.6934   20.8723 C   0  0  0  0  0  0
  -23.9090  -10.4303   21.0391 C   0  0  0  0  0  0
  -24.3632   -9.4213   21.9167 C   0  0  0  0  0  0
  -23.6294   -8.2255   22.0762 C   0  0  0  0  0  0
  -22.4279   -8.0288   21.3560 C   0  0  0  0  0  0
  -21.9911   -9.0261   20.4653 C   0  0  0  0  0  0
  -22.7252  -10.2137   20.3047 C   0  0  0  0  0  0
  -21.6857   -6.0732   22.5285 C   0  0  0  0  0  0
  -21.4013   -6.5642   23.8214 C   0  0  0  0  0  0
  -21.3651   -5.6796   24.9174 C   0  0  0  0  0  0
  -21.6048   -4.3059   24.7231 C   0  0  0  0  0  0
  -21.8821   -3.8147   23.4352 C   0  0  0  0  0  0
  -21.9196   -4.6959   22.3407 C   0  0  0  0  0  0
  -22.7848  -13.5235   21.1836 C   0  0  0  0  0  0
  -22.1661   -4.2145   21.0981 F   0  0  0  0  0  0
  -21.5629   -3.4539   25.7743 F   0  0  0  0  0  0
  -30.0259  -13.3483   20.4377 N   0  0  0  0  0  0
  -26.3017  -12.9419   20.3365 N   0  0  0  0  0  0
  -25.9352  -11.6565   20.5767 N   0  0  0  0  0  0
  -22.0493  -12.8217   22.0395 N   0  0  0  0  0  0
  -25.4218  -15.1921   20.4113 N   0  0  0  0  0  0
  -31.8905  -14.5721   20.0804 O   0  0  0  0  0  0
  -21.6654   -6.8874   21.4250 O   0  0  0  0  0  0
  -22.3527  -14.5538   20.6688 O   0  0  0  0  0  0
  -24.6146  -31.8662   23.2055 C   0  0  0  0  0  0
  -25.9044  -32.4807   23.8355 C   0  0  1  0  0  0
  -27.2387  -27.4406   20.1187 C   0  0  0  0  0  0
  -25.5911  -33.8606   24.2293 N   0  0  0  0  0  0
  -23.3967  -30.4877   21.5499 C   0  0  2  0  0  0
  -24.8455  -28.9491   20.1114 C   0  0  0  0  0  0
  -22.7382  -29.4663   22.5015 C   0  0  0  0  0  0
  -18.0265  -28.1350   22.8471 C   0  0  0  0  0  0
  -24.1520  -36.7293   23.2633 C   0  0  0  0  0  0
  -25.9203  -30.8375   21.3537 C   0  0  0  0  0  0
  -26.0006  -29.4717   20.7054 C   0  0  0  0  0  0
  -27.2033  -28.7320   20.6901 C   0  0  0  0  0  0
  -26.0758  -26.9371   19.5039 C   0  0  0  0  0  0
  -24.8789  -27.6821   19.5004 C   0  0  0  0  0  0
  -23.5998  -29.8092   20.1662 C   0  0  0  0  0  0
  -25.4136  -36.3088   24.0318 C   0  0  1  0  0  0
  -20.5850  -28.3665   23.1279 C   0  0  2  0  0  0
  -20.6794  -26.9398   22.5388 C   0  0  0  0  0  0
  -19.5774  -26.6348   21.5203 C   0  0  0  0  0  0
  -18.1939  -26.7899   22.1585 C   0  0  0  0  0  0
  -19.1512  -28.8811   23.2893 C   0  0  0  0  0  0
  -18.9444  -30.1418   23.8898 C   0  0  0  0  0  0
  -17.6468  -30.6580   24.0540 C   0  0  0  0  0  0
  -25.9044  -34.9470   23.5095 C   0  0  0  0  0  0
  -16.5361  -29.9070   23.6328 C   0  0  0  0  0  0
  -16.7257  -28.6488   23.0327 C   0  0  0  0  0  0
  -26.4486  -31.6595   25.0695 C   0  0  0  0  0  0
  -25.3760  -31.3708   26.1462 C   0  0  0  0  0  0
  -27.0327  -30.3031   24.6074 C   0  0  0  0  0  0
  -27.6038  -32.4321   25.7476 C   0  0  0  0  0  0
  -27.5619  -37.1780   24.8442 C   0  0  0  0  0  0
  -21.4126  -29.3024   22.3708 N   0  0  0  0  0  0
  -26.4314  -37.3779   23.9418 N   0  0  0  0  0  0
  -24.6619  -31.0773   22.0959 N   0  0  0  0  0  0
  -23.4160  -28.8288   23.3110 O   0  0  0  0  0  0
  -28.3990  -26.6992   20.0796 O   0  0  0  0  0  0
  -26.5619  -34.8922   22.4666 O   0  0  0  0  0  0
  -23.5348  -32.1395   23.7483 O   0  0  0  0  0  0
  -30.5555  -20.4673   22.0112 C   0  0  0  0  0  0
  -31.2430  -19.2233   21.9555 C   0  0  0  0  0  0
  -29.2264  -20.3673   21.6983 C   0  0  0  0  0  0
  -30.4573  -18.1633   21.5755 C   0  0  0  0  0  0
  -28.1262  -24.6056   21.4016 C   0  0  0  0  0  0
  -28.7538  -26.8138   22.5747 C   0  0  0  0  0  0
  -26.5395  -22.3234   19.9592 C   0  0  0  0  0  0
  -28.8112  -21.7082   19.1813 C   0  0  0  0  0  0
  -28.2481  -21.5151   21.7014 C   0  0  0  0  0  0
  -31.0454  -16.8069   21.2596 C   0  0  0  0  0  0
  -28.8182  -25.9861   21.2678 C   0  0  2  0  0  0
  -28.0308  -22.3267   20.3667 C   0  0  0  0  0  0
  -30.2123  -15.5864   21.1446 N   0  0  0  0  0  0
  -27.3623  -24.3668   22.3424 O   0  0  0  0  0  0
  -28.5061  -23.6959   20.4407 O   0  0  0  0  0  0
  -28.8023  -18.6964   21.3198 S   0  0  0  0  0  0
  -31.4591  -12.3983   19.1412 H   0  0  0  0  0  0
  -30.3089  -11.3308   19.8793 H   0  0  0  0  0  0
  -29.7462  -11.7511   17.4635 H   0  0  0  0  0  0
  -29.6750  -13.4704   17.7574 H   0  0  0  0  0  0
  -27.8286  -11.3136   18.8333 H   0  0  0  0  0  0
  -27.3783  -12.6350   17.7889 H   0  0  0  0  0  0
  -27.6855  -14.2653   19.5488 H   0  0  0  0  0  0
  -28.6856  -12.0565   21.4066 H   0  0  0  0  0  0
  -28.4692  -13.7302   21.8399 H   0  0  0  0  0  0
  -25.2773   -9.5702   22.4741 H   0  0  0  0  0  0
  -24.0004   -7.4665   22.7494 H   0  0  0  0  0  0
  -21.0840   -8.8772   19.8963 H   0  0  0  0  0  0
  -22.3690  -10.9671   19.6158 H   0  0  0  0  0  0
  -21.2004   -7.6152   23.9712 H   0  0  0  0  0  0
  -21.1470   -6.0527   25.9076 H   0  0  0  0  0  0
  -22.0606   -2.7609   23.2859 H   0  0  0  0  0  0
  -22.4098  -11.9861   22.4767 H   0  0  0  0  0  0
  -21.1120  -13.1246   22.2627 H   0  0  0  0  0  0
  -24.6534  -15.8431   20.5329 H   0  0  0  0  0  0
  -26.2733  -15.6404   20.0964 H   0  0  0  0  0  0
  -26.7127  -32.5515   23.1131 H   0  0  0  0  0  0
  -25.0161  -33.9749   25.0500 H   0  0  0  0  0  0
  -22.6858  -31.3033   21.4108 H   0  0  0  0  0  0
  -23.3799  -35.9612   23.3272 H   0  0  0  0  0  0
  -24.3649  -36.8924   22.2055 H   0  0  0  0  0  0
  -23.7245  -37.6477   23.6672 H   0  0  0  0  0  0
  -26.0193  -31.6000   20.5822 H   0  0  0  0  0  0
  -26.8082  -30.8955   21.9686 H   0  0  0  0  0  0
  -28.1044  -29.1474   21.1149 H   0  0  0  0  0  0
  -26.1002  -25.9680   19.0254 H   0  0  0  0  0  0
  -23.9999  -27.2766   19.0174 H   0  0  0  0  0  0
  -23.6816  -30.5739   19.3926 H   0  0  0  0  0  0
  -22.7293  -29.2119   19.8958 H   0  0  0  0  0  0
  -25.1324  -36.1967   25.0812 H   0  0  0  0  0  0
  -20.9935  -28.3266   24.1411 H   0  0  0  0  0  0
  -20.5734  -26.2277   23.3588 H   0  0  0  0  0  0
  -21.6668  -26.7474   22.1181 H   0  0  0  0  0  0
  -19.6954  -25.6267   21.1231 H   0  0  0  0  0  0
  -19.6721  -27.3168   20.6765 H   0  0  0  0  0  0
  -17.4225  -26.6618   21.3998 H   0  0  0  0  0  0
  -18.0333  -26.0050   22.8979 H   0  0  0  0  0  0
  -19.7946  -30.7196   24.2266 H   0  0  0  0  0  0
  -17.5044  -31.6261   24.5161 H   0  0  0  0  0  0
  -15.5360  -30.2967   23.7661 H   0  0  0  0  0  0
  -15.8653  -28.0820   22.6994 H   0  0  0  0  0  0
  -24.5903  -30.7075   25.7805 H   0  0  0  0  0  0
  -24.8980  -32.2863   26.4939 H   0  0  0  0  0  0
  -25.8091  -30.8856   27.0204 H   0  0  0  0  0  0
  -26.2857  -29.6774   24.1154 H   0  0  0  0  0  0
  -27.4134  -29.7302   25.4532 H   0  0  0  0  0  0
  -27.8684  -30.4350   23.9194 H   0  0  0  0  0  0
  -27.2638  -33.3610   26.2089 H   0  0  0  0  0  0
  -28.3847  -32.6897   25.0298 H   0  0  0  0  0  0
  -28.0739  -31.8438   26.5369 H   0  0  0  0  0  0
  -28.2538  -38.0180   24.7641 H   0  0  0  0  0  0
  -28.1209  -36.2699   24.6096 H   0  0  0  0  0  0
  -27.2360  -37.1245   25.8848 H   0  0  0  0  0  0
  -20.9291  -29.8690   21.6890 H   0  0  0  0  0  0
  -26.0205  -38.2844   24.1491 H   0  0  0  0  0  0
  -31.0655  -21.3879   22.2659 H   0  0  0  0  0  0
  -32.3071  -19.1601   22.1454 H   0  0  0  0  0  0
  -29.2672  -26.3038   23.3922 H   0  0  0  0  0  0
  -27.7245  -26.9879   22.8994 H   0  0  0  0  0  0
  -29.2363  -27.7831   22.4572 H   0  0  0  0  0  0
  -26.1771  -21.3055   19.8161 H   0  0  0  0  0  0
  -26.3847  -22.8558   19.0188 H   0  0  0  0  0  0
  -25.9026  -22.7872   20.7116 H   0  0  0  0  0  0
  -28.4707  -20.6914   18.9750 H   0  0  0  0  0  0
  -29.8836  -21.6600   19.3706 H   0  0  0  0  0  0
  -28.6772  -22.2807   18.2616 H   0  0  0  0  0  0
  -28.5896  -22.1808   22.4947 H   0  0  0  0  0  0
  -27.2861  -21.1514   22.0652 H   0  0  0  0  0  0
  -31.8377  -16.5886   21.9808 H   0  0  0  0  0  0
  -31.5622  -16.9565   20.3063 H   0  0  0  0  0  0
  -29.8719  -25.7597   21.1078 H   0  0  0  0  0  0
  -29.2797  -15.5603   21.5273 H   0  0  0  0  0  0
  1 25  1  0  0  0
  1 30  2  0  0  0
  1 83  1  0  0  0
  2  3  1  0  0  0
  2 25  1  0  0  0
  2 87  1  0  0  0
  2 88  1  0  0  0
  3  4  1  0  0  0
  3 89  1  0  0  0
  3 90  1  0  0  0
  4  5  1  0  0  0
  4 91  1  0  0  0
  4 92  1  0  0  0
  5  6  1  0  0  0
  5 26  1  0  0  0
  5 93  1  0  0  0
  6 25  1  0  0  0
  6 94  1  0  0  0
  6 95  1  0  0  0
  7  8  2  0  0  0
  7 26  1  0  0  0
  7 29  1  0  0  0
  8  9  1  0  0  0
  8 22  1  0  0  0
  9 10  1  0  0  0
  9 27  2  0  0  0
 10 11  2  0  0  0
 10 15  1  0  0  0
 11 12  1  0  0  0
 11 96  1  0  0  0
 12 13  2  0  0  0
 12 97  1  0  0  0
 13 14  1  0  0  0
 13 31  1  0  0  0
 14 15  2  0  0  0
 14 98  1  0  0  0
 15 99  1  0  0  0
 16 17  2  0  0  0
 16 21  1  0  0  0
 16 31  1  0  0  0
 17 18  1  0  0  0
 17100  1  0  0  0
 18 19  2  0  0  0
 18101  1  0  0  0
 19 20  1  0  0  0
 19 24  1  0  0  0
 20 21  2  0  0  0
 20102  1  0  0  0
 21 23  1  0  0  0
 22 28  1  0  0  0
 22 32  2  0  0  0
 26 27  1  0  0  0
 28103  1  0  0  0
 28104  1  0  0  0
 29105  1  0  0  0
 29106  1  0  0  0
 33 34  1  0  0  0
 33 66  1  0  0  0
 33 70  2  0  0  0
 34 36  1  0  0  0
 34 59  1  0  0  0
 34107  1  0  0  0
 35 44  2  0  0  0
 35 45  1  0  0  0
 35 68  1  0  0  0
 36 56  1  0  0  0
 36108  1  0  0  0
 37 39  1  0  0  0
 37 47  1  0  0  0
 37 66  1  0  0  0
 37109  1  0  0  0
 38 43  2  0  0  0
 38 46  1  0  0  0
 38 47  1  0  0  0
 39 64  1  0  0  0
 39 67  2  0  0  0
 40 52  1  0  0  0
 40 53  2  0  0  0
 40 58  1  0  0  0
 41110  1  0  0  0
 41111  1  0  0  0
 41112  1  0  0  0
 41 48  1  0  0  0
 42 43  1  0  0  0
 42 66  1  0  0  0
 42113  1  0  0  0
 42114  1  0  0  0
 43 44  1  0  0  0
 44115  1  0  0  0
 45 46  2  0  0  0
 45116  1  0  0  0
 46117  1  0  0  0
 47118  1  0  0  0
 47119  1  0  0  0
 48 56  1  0  0  0
 48 65  1  0  0  0
 48120  1  0  0  0
 49 50  1  0  0  0
 49 53  1  0  0  0
 49 64  1  0  0  0
 49121  1  0  0  0
 50 51  1  0  0  0
 50122  1  0  0  0
 50123  1  0  0  0
 51 52  1  0  0  0
 51124  1  0  0  0
 51125  1  0  0  0
 52126  1  0  0  0
 52127  1  0  0  0
 53 54  1  0  0  0
 54 55  2  0  0  0
 54128  1  0  0  0
 55 57  1  0  0  0
 55129  1  0  0  0
 56 69  2  0  0  0
 57 58  2  0  0  0
 57130  1  0  0  0
 58131  1  0  0  0
 59 60  1  0  0  0
 59 61  1  0  0  0
 59 62  1  0  0  0
 60132  1  0  0  0
 60133  1  0  0  0
 60134  1  0  0  0
 61135  1  0  0  0
 61136  1  0  0  0
 61137  1  0  0  0
 62138  1  0  0  0
 62139  1  0  0  0
 62140  1  0  0  0
 63 65  1  0  0  0
 63141  1  0  0  0
 63142  1  0  0  0
 63143  1  0  0  0
 64144  1  0  0  0
 65145  1  0  0  0
 68 81  1  0  0  0
 71 72  1  0  0  0
 71 73  2  0  0  0
 71146  1  0  0  0
 72 74  2  0  0  0
 72147  1  0  0  0
 73 79  1  0  0  0
 73 86  1  0  0  0
 74 80  1  0  0  0
 74 86  1  0  0  0
 75 81  1  0  0  0
 75 84  2  0  0  0
 75 85  1  0  0  0
 76148  1  0  0  0
 76149  1  0  0  0
 76150  1  0  0  0
 76 81  1  0  0  0
 77151  1  0  0  0
 77152  1  0  0  0
 77153  1  0  0  0
 77 82  1  0  0  0
 78 82  1  0  0  0
 78154  1  0  0  0
 78155  1  0  0  0
 78156  1  0  0  0
 79 82  1  0  0  0
 79157  1  0  0  0
 79158  1  0  0  0
 80 83  1  0  0  0
 80159  1  0  0  0
 80160  1  0  0  0
 81161  1  0  0  0
 82 85  1  0  0  0
 83162  1  0  0  0
M  ISO  4   1 100  68 101  81 101  83 100
M  END
> <chiral flag>
0

> <version>
0

> <s_m_source_file>
/data/baiqing/PycharmProjects/Reinvent-master-3.2/result/LINK_invent/BTK/process_docking_weight1_custom_product_contain_oxygen_bond_distance_aromatic_linkinvent_7_9_3/rearranged_h_0140.sdf

> <i_m_source_file_index>
50

> <r_mmod_Potential_Energy-OPLS-2005>
-63.1342811584473

> <r_mmod_Stretch_Energy-OPLS-2005>
44.8071975708008

> <r_mmod_Bend_Energy-OPLS-2005>
144.469619750977

> <r_mmod_Torsional_Energy-OPLS-2005>
197.461502075195

> <r_mmod_Improper_Torsional_Energy-OPLS-2005>
3.48333287239075

> <r_mmod_Van_der_Waal_Energy-OPLS-2005>
137.862319946289

> <r_mmod_Electrostatic_Energy-OPLS-2005>
-403.457550048828

> <r_mmod_Solvation_Energy-OPLS-2005>
-204.210556030273

> <b_mmod_Minimization_Converged-OPLS-2005>
0

> <r_mmod_RMS_Derivative-OPLS-2005>
5.46991968154907

$$$$
50
                    3D
 Structure written by MMmdl.
167175  0  0  1  0            999 V2000
  -30.7181  -14.4857   20.5936 C   0  0  0  0  0  0
  -30.4262  -12.3223   19.4282 C   0  0  0  0  0  0
  -29.4969  -12.5068   18.2109 C   0  0  0  0  0  0
  -28.0197  -12.3613   18.6241 C   0  0  0  0  0  0
  -27.6614  -13.2080   19.8741 C   0  0  2  0  0  0
  -28.7044  -13.0041   20.9980 C   0  0  0  0  0  0
  -25.2524  -13.8072   20.5586 C   0  0  0  0  0  0
  -24.1821  -13.0374   20.9194 C   0  0  0  0  0  0
  -24.6407  -11.6860   20.8763 C   0  0  0  0  0  0
  -23.9070  -10.4261   21.0425 C   0  0  0  0  0  0
  -24.3618   -9.4180   21.9203 C   0  0  0  0  0  0
  -23.6289   -8.2219   22.0765 C   0  0  0  0  0  0
  -22.4274   -8.0269   21.3544 C   0  0  0  0  0  0
  -21.9915   -9.0244   20.4646 C   0  0  0  0  0  0
  -22.7247  -10.2118   20.3063 C   0  0  0  0  0  0
  -21.6846   -6.0731   22.5281 C   0  0  0  0  0  0
  -21.4007   -6.5639   23.8212 C   0  0  0  0  0  0
  -21.3660   -5.6794   24.9176 C   0  0  0  0  0  0
  -21.6047   -4.3055   24.7227 C   0  0  0  0  0  0
  -21.8821   -3.8146   23.4347 C   0  0  0  0  0  0
  -21.9193   -4.6962   22.3405 C   0  0  0  0  0  0
  -22.7849  -13.5192   21.1855 C   0  0  0  0  0  0
  -22.1661   -4.2150   21.0983 F   0  0  0  0  0  0
  -21.5632   -3.4543   25.7741 F   0  0  0  0  0  0
  -30.0385  -13.3116   20.4491 N   0  0  0  0  0  0
  -26.3019  -12.9295   20.3347 N   0  0  0  0  0  0
  -25.9341  -11.6456   20.5798 N   0  0  0  0  0  0
  -22.0479  -12.8195   22.0408 N   0  0  0  0  0  0
  -25.4066  -15.1736   20.3758 N   0  0  0  0  0  0
  -31.8285  -14.6661   20.0862 O   0  0  0  0  0  0
  -21.6634   -6.8871   21.4242 O   0  0  0  0  0  0
  -22.3546  -14.5511   20.6715 O   0  0  0  0  0  0
  -24.6156  -31.8676   23.2094 C   0  0  0  0  0  0
  -25.9046  -32.4823   23.8391 C   0  0  1  0  0  0
  -27.2386  -27.4300   20.0982 C   0  0  0  0  0  0
  -25.5903  -33.8621   24.2321 N   0  0  0  0  0  0
  -23.4037  -30.4918   21.5497 C   0  0  2  0  0  0
  -24.8500  -28.9570   20.1154 C   0  0  0  0  0  0
  -22.7419  -29.4656   22.4979 C   0  0  0  0  0  0
  -18.0266  -28.1380   22.8478 C   0  0  0  0  0  0
  -24.1487  -36.7314   23.2640 C   0  0  0  0  0  0
  -25.9335  -30.8328   21.3624 C   0  0  0  0  0  0
  -26.0109  -29.4673   20.7083 C   0  0  0  0  0  0
  -27.2071  -28.7136   20.6924 C   0  0  0  0  0  0
  -26.0544  -26.9350   19.5021 C   0  0  0  0  0  0
  -24.8671  -27.6897   19.5097 C   0  0  0  0  0  0
  -23.6128  -29.8244   20.1649 C   0  0  0  0  0  0
  -25.4110  -36.3119   24.0342 C   0  0  1  0  0  0
  -20.5861  -28.3667   23.1318 C   0  0  2  0  0  0
  -20.6761  -26.9406   22.5415 C   0  0  0  0  0  0
  -19.5739  -26.6392   21.5212 C   0  0  0  0  0  0
  -18.1913  -26.7924   22.1618 C   0  0  0  0  0  0
  -19.1517  -28.8834   23.2894 C   0  0  0  0  0  0
  -18.9453  -30.1436   23.8916 C   0  0  0  0  0  0
  -17.6462  -30.6587   24.0566 C   0  0  0  0  0  0
  -25.9043  -34.9478   23.5128 C   0  0  0  0  0  0
  -16.5348  -29.9090   23.6333 C   0  0  0  0  0  0
  -16.7257  -28.6507   23.0348 C   0  0  0  0  0  0
  -26.4465  -31.6600   25.0725 C   0  0  0  0  0  0
  -25.3726  -31.3709   26.1470 C   0  0  0  0  0  0
  -27.0294  -30.3050   24.6084 C   0  0  0  0  0  0
  -27.6033  -32.4326   25.7492 C   0  0  0  0  0  0
  -27.5581  -37.1812   24.8464 C   0  0  0  0  0  0
  -21.4145  -29.3034   22.3730 N   0  0  0  0  0  0
  -26.4292  -37.3802   23.9410 N   0  0  0  0  0  0
  -24.6694  -31.0785   22.0989 N   0  0  0  0  0  0
  -23.4183  -28.8195   23.3027 O   0  0  0  0  0  0
  -28.4155  -26.7040   20.1084 O   0  0  0  0  0  0
  -26.5605  -34.8925   22.4694 O   0  0  0  0  0  0
  -23.5351  -32.1421   23.7492 O   0  0  0  0  0  0
  -31.8574  -18.8030   21.4441 C   0  0  0  0  0  0
  -31.6280  -17.4155   21.2999 C   0  0  0  0  0  0
  -29.4746  -19.1717   21.6415 C   0  0  0  0  0  0
  -30.7793  -19.6943   21.6290 C   0  0  0  0  0  0
  -29.2248  -17.7880   21.4745 C   0  0  0  0  0  0
  -30.3130  -16.8808   21.3150 C   0  0  0  0  0  0
  -29.6135  -23.1136   20.8700 C   0  0  0  0  0  0
  -26.7601  -18.2787   20.8769 C   0  0  0  0  0  0
  -32.1600  -23.0847   20.7147 C   0  0  0  0  0  0
  -30.7814  -21.5018   19.3461 C   0  0  0  0  0  0
  -31.0023  -21.1883   21.9097 C   0  0  0  0  0  0
  -27.7788  -17.2985   21.4893 C   0  0  0  0  0  0
  -29.6721  -24.5975   20.4313 C   0  0  0  0  0  0
  -28.2956  -25.2748   20.2224 C   0  0  0  0  0  0
  -30.8800  -22.2122   20.7146 C   0  0  0  0  0  0
  -30.0488  -15.4666   21.2393 N   0  0  0  0  0  0
  -28.5615  -22.6363   21.3047 O   0  0  0  0  0  0
  -31.4702  -12.4206   19.1243 H   0  0  0  0  0  0
  -30.3313  -11.3132   19.8317 H   0  0  0  0  0  0
  -29.7396  -11.7747   17.4400 H   0  0  0  0  0  0
  -29.6605  -13.4885   17.7635 H   0  0  0  0  0  0
  -27.8389  -11.3054   18.8296 H   0  0  0  0  0  0
  -27.3666  -12.6232   17.7909 H   0  0  0  0  0  0
  -27.7003  -14.2538   19.5685 H   0  0  0  0  0  0
  -28.6852  -11.9707   21.3477 H   0  0  0  0  0  0
  -28.4552  -13.6078   21.8712 H   0  0  0  0  0  0
  -25.2763   -9.5663   22.4776 H   0  0  0  0  0  0
  -24.0002   -7.4613   22.7487 H   0  0  0  0  0  0
  -21.0849   -8.8765   19.8943 H   0  0  0  0  0  0
  -22.3720  -10.9660   19.6172 H   0  0  0  0  0  0
  -21.1990   -7.6146   23.9717 H   0  0  0  0  0  0
  -21.1483   -6.0523   25.9081 H   0  0  0  0  0  0
  -22.0599   -2.7610   23.2849 H   0  0  0  0  0  0
  -22.4081  -11.9844   22.4779 H   0  0  0  0  0  0
  -21.1094  -13.1221   22.2604 H   0  0  0  0  0  0
  -24.6208  -15.8086   20.4583 H   0  0  0  0  0  0
  -26.2259  -15.6048   19.9707 H   0  0  0  0  0  0
  -26.7117  -32.5538   23.1159 H   0  0  0  0  0  0
  -25.0050  -33.9769   25.0467 H   0  0  0  0  0  0
  -22.6927  -31.3090   21.4103 H   0  0  0  0  0  0
  -23.3751  -35.9646   23.3313 H   0  0  0  0  0  0
  -24.3578  -36.8917   22.2053 H   0  0  0  0  0  0
  -23.7228  -37.6518   23.6643 H   0  0  0  0  0  0
  -26.0447  -31.5995   20.5946 H   0  0  0  0  0  0
  -26.8213  -30.8860   21.9805 H   0  0  0  0  0  0
  -28.1038  -29.1064   21.1512 H   0  0  0  0  0  0
  -26.0284  -25.9708   19.0176 H   0  0  0  0  0  0
  -23.9750  -27.2889   19.0479 H   0  0  0  0  0  0
  -23.7194  -30.5987   19.4043 H   0  0  0  0  0  0
  -22.7375  -29.2435   19.8686 H   0  0  0  0  0  0
  -25.1281  -36.1989   25.0834 H   0  0  0  0  0  0
  -20.9935  -28.3231   24.1447 H   0  0  0  0  0  0
  -20.5674  -26.2275   23.3600 H   0  0  0  0  0  0
  -21.6631  -26.7449   22.1206 H   0  0  0  0  0  0
  -19.6912  -25.6313   21.1215 H   0  0  0  0  0  0
  -19.6689  -27.3223   20.6761 H   0  0  0  0  0  0
  -17.4196  -26.6681   21.4013 H   0  0  0  0  0  0
  -18.0299  -26.0057   22.9005 H   0  0  0  0  0  0
  -19.7937  -30.7230   24.2296 H   0  0  0  0  0  0
  -17.5026  -31.6268   24.5165 H   0  0  0  0  0  0
  -15.5351  -30.3004   23.7649 H   0  0  0  0  0  0
  -15.8654  -28.0841   22.7051 H   0  0  0  0  0  0
  -24.5922  -30.7027   25.7809 H   0  0  0  0  0  0
  -24.8893  -32.2863   26.4894 H   0  0  0  0  0  0
  -25.8081  -30.8907   27.0243 H   0  0  0  0  0  0
  -26.2831  -29.6833   24.1120 H   0  0  0  0  0  0
  -27.4059  -29.7261   25.4525 H   0  0  0  0  0  0
  -27.8667  -30.4383   23.9228 H   0  0  0  0  0  0
  -27.2647  -33.3628   26.2065 H   0  0  0  0  0  0
  -28.3845  -32.6882   25.0322 H   0  0  0  0  0  0
  -28.0691  -31.8456   26.5415 H   0  0  0  0  0  0
  -28.2600  -38.0109   24.7513 H   0  0  0  0  0  0
  -28.1073  -36.2637   24.6286 H   0  0  0  0  0  0
  -27.2296  -37.1459   25.8866 H   0  0  0  0  0  0
  -20.9306  -29.8781   21.6976 H   0  0  0  0  0  0
  -26.0191  -38.2885   24.1412 H   0  0  0  0  0  0
  -32.8728  -19.1752   21.4461 H   0  0  0  0  0  0
  -32.4881  -16.7690   21.2046 H   0  0  0  0  0  0
  -28.6612  -19.8634   21.8021 H   0  0  0  0  0  0
  -25.7680  -17.8320   20.8314 H   0  0  0  0  0  0
  -27.0405  -18.5593   19.8611 H   0  0  0  0  0  0
  -26.6542  -19.1889   21.4656 H   0  0  0  0  0  0
  -32.2021  -23.7697   19.8679 H   0  0  0  0  0  0
  -33.0558  -22.4658   20.6494 H   0  0  0  0  0  0
  -32.2454  -23.6785   21.6265 H   0  0  0  0  0  0
  -30.7426  -22.2156   18.5225 H   0  0  0  0  0  0
  -29.8850  -20.8839   19.2760 H   0  0  0  0  0  0
  -31.6419  -20.8551   19.1732 H   0  0  0  0  0  0
  -31.9921  -21.2668   22.3612 H   0  0  0  0  0  0
  -30.3401  -21.4700   22.7299 H   0  0  0  0  0  0
  -27.4986  -17.0661   22.5170 H   0  0  0  0  0  0
  -27.7130  -16.3673   20.9332 H   0  0  0  0  0  0
  -30.2456  -24.6757   19.5091 H   0  0  0  0  0  0
  -30.2241  -25.1397   21.1988 H   0  0  0  0  0  0
  -27.6268  -25.0459   21.0543 H   0  0  0  0  0  0
  -27.8519  -24.8583   19.3184 H   0  0  0  0  0  0
  -29.1430  -15.1787   21.5732 H   0  0  0  0  0  0
  1 25  1  0  0  0
  1 30  2  0  0  0
  1 86  1  0  0  0
  2  3  1  0  0  0
  2 25  1  0  0  0
  2 88  1  0  0  0
  2 89  1  0  0  0
  3  4  1  0  0  0
  3 90  1  0  0  0
  3 91  1  0  0  0
  4  5  1  0  0  0
  4 92  1  0  0  0
  4 93  1  0  0  0
  5  6  1  0  0  0
  5 26  1  0  0  0
  5 94  1  0  0  0
  6 25  1  0  0  0
  6 95  1  0  0  0
  6 96  1  0  0  0
  7  8  2  0  0  0
  7 26  1  0  0  0
  7 29  1  0  0  0
  8  9  1  0  0  0
  8 22  1  0  0  0
  9 10  1  0  0  0
  9 27  2  0  0  0
 10 11  2  0  0  0
 10 15  1  0  0  0
 11 12  1  0  0  0
 11 97  1  0  0  0
 12 13  2  0  0  0
 12 98  1  0  0  0
 13 14  1  0  0  0
 13 31  1  0  0  0
 14 15  2  0  0  0
 14 99  1  0  0  0
 15100  1  0  0  0
 16 17  2  0  0  0
 16 21  1  0  0  0
 16 31  1  0  0  0
 17 18  1  0  0  0
 17101  1  0  0  0
 18 19  2  0  0  0
 18102  1  0  0  0
 19 20  1  0  0  0
 19 24  1  0  0  0
 20 21  2  0  0  0
 20103  1  0  0  0
 21 23  1  0  0  0
 22 28  1  0  0  0
 22 32  2  0  0  0
 26 27  1  0  0  0
 28104  1  0  0  0
 28105  1  0  0  0
 29106  1  0  0  0
 29107  1  0  0  0
 33 34  1  0  0  0
 33 66  1  0  0  0
 33 70  2  0  0  0
 34 36  1  0  0  0
 34 59  1  0  0  0
 34108  1  0  0  0
 35 44  2  0  0  0
 35 45  1  0  0  0
 35 68  1  0  0  0
 36 56  1  0  0  0
 36109  1  0  0  0
 37 39  1  0  0  0
 37 47  1  0  0  0
 37 66  1  0  0  0
 37110  1  0  0  0
 38 43  2  0  0  0
 38 46  1  0  0  0
 38 47  1  0  0  0
 39 64  1  0  0  0
 39 67  2  0  0  0
 40 52  1  0  0  0
 40 53  2  0  0  0
 40 58  1  0  0  0
 41111  1  0  0  0
 41112  1  0  0  0
 41113  1  0  0  0
 41 48  1  0  0  0
 42 43  1  0  0  0
 42 66  1  0  0  0
 42114  1  0  0  0
 42115  1  0  0  0
 43 44  1  0  0  0
 44116  1  0  0  0
 45 46  2  0  0  0
 45117  1  0  0  0
 46118  1  0  0  0
 47119  1  0  0  0
 47120  1  0  0  0
 48 56  1  0  0  0
 48 65  1  0  0  0
 48121  1  0  0  0
 49 50  1  0  0  0
 49 53  1  0  0  0
 49 64  1  0  0  0
 49122  1  0  0  0
 50 51  1  0  0  0
 50123  1  0  0  0
 50124  1  0  0  0
 51 52  1  0  0  0
 51125  1  0  0  0
 51126  1  0  0  0
 52127  1  0  0  0
 52128  1  0  0  0
 53 54  1  0  0  0
 54 55  2  0  0  0
 54129  1  0  0  0
 55 57  1  0  0  0
 55130  1  0  0  0
 56 69  2  0  0  0
 57 58  2  0  0  0
 57131  1  0  0  0
 58132  1  0  0  0
 59 60  1  0  0  0
 59 61  1  0  0  0
 59 62  1  0  0  0
 60133  1  0  0  0
 60134  1  0  0  0
 60135  1  0  0  0
 61136  1  0  0  0
 61137  1  0  0  0
 61138  1  0  0  0
 62139  1  0  0  0
 62140  1  0  0  0
 62141  1  0  0  0
 63 65  1  0  0  0
 63142  1  0  0  0
 63143  1  0  0  0
 63144  1  0  0  0
 64145  1  0  0  0
 65146  1  0  0  0
 68 84  1  0  0  0
 71 72  2  0  0  0
 71 74  1  0  0  0
 71147  1  0  0  0
 72 76  1  0  0  0
 72148  1  0  0  0
 73 74  2  0  0  0
 73 75  1  0  0  0
 73149  1  0  0  0
 74 81  1  0  0  0
 75 76  2  0  0  0
 75 82  1  0  0  0
 76 86  1  0  0  0
 77 83  1  0  0  0
 77 85  1  0  0  0
 77 87  2  0  0  0
 78 82  1  0  0  0
 78150  1  0  0  0
 78151  1  0  0  0
 78152  1  0  0  0
 79153  1  0  0  0
 79154  1  0  0  0
 79155  1  0  0  0
 79 85  1  0  0  0
 80 85  1  0  0  0
 80156  1  0  0  0
 80157  1  0  0  0
 80158  1  0  0  0
 81 85  1  0  0  0
 81159  1  0  0  0
 81160  1  0  0  0
 82161  1  0  0  0
 82162  1  0  0  0
 83 84  1  0  0  0
 83163  1  0  0  0
 83164  1  0  0  0
 84165  1  0  0  0
 84166  1  0  0  0
 86167  1  0  0  0
M  ISO  4   1 100  68 101  84 101  86 100
M  END
> <chiral flag>
0

> <version>
0

> <s_m_source_file>
/data/baiqing/PycharmProjects/Reinvent-master-3.2/result/LINK_invent/BTK/process_docking_weight1_custom_product_contain_oxygen_bond_distance_aromatic_linkinvent_7_9_3/rearranged_h_0140.sdf

> <i_m_source_file_index>
51

> <r_mmod_Potential_Energy-OPLS-2005>
-36.1891555786133

> <r_mmod_Stretch_Energy-OPLS-2005>
46.0824851989746

> <r_mmod_Bend_Energy-OPLS-2005>
106.871894836426

> <r_mmod_Torsional_Energy-OPLS-2005>
228.971160888672

> <r_mmod_Improper_Torsional_Energy-OPLS-2005>
3.67553186416626

> <r_mmod_Van_der_Waal_Energy-OPLS-2005>
166.596969604492

> <r_mmod_Electrostatic_Energy-OPLS-2005>
-400.811309814453

> <r_mmod_Solvation_Energy-OPLS-2005>
-200.915115356445

> <b_mmod_Minimization_Converged-OPLS-2005>
0

> <r_mmod_RMS_Derivative-OPLS-2005>
1.12479054927826

$$$$
51
                    3D
 Structure written by MMmdl.
169178  0  0  1  0            999 V2000
  -30.7009  -14.4927   20.5884 C   0  0  0  0  0  0
  -30.4280  -12.3240   19.4281 C   0  0  0  0  0  0
  -29.4991  -12.5136   18.2107 C   0  0  0  0  0  0
  -28.0200  -12.3676   18.6214 C   0  0  0  0  0  0
  -27.6614  -13.2093   19.8753 C   0  0  2  0  0  0
  -28.7034  -12.9954   20.9978 C   0  0  0  0  0  0
  -25.2544  -13.8136   20.5610 C   0  0  0  0  0  0
  -24.1827  -13.0420   20.9186 C   0  0  0  0  0  0
  -24.6392  -11.6894   20.8746 C   0  0  0  0  0  0
  -23.9058  -10.4285   21.0406 C   0  0  0  0  0  0
  -24.3611   -9.4202   21.9185 C   0  0  0  0  0  0
  -23.6292   -8.2234   22.0756 C   0  0  0  0  0  0
  -22.4278   -8.0272   21.3541 C   0  0  0  0  0  0
  -21.9912   -9.0242   20.4647 C   0  0  0  0  0  0
  -22.7235  -10.2123   20.3053 C   0  0  0  0  0  0
  -21.6850   -6.0733   22.5278 C   0  0  0  0  0  0
  -21.4000   -6.5634   23.8209 C   0  0  0  0  0  0
  -21.3653   -5.6784   24.9171 C   0  0  0  0  0  0
  -21.6048   -4.3048   24.7220 C   0  0  0  0  0  0
  -21.8824   -3.8145   23.4337 C   0  0  0  0  0  0
  -21.9194   -4.6962   22.3394 C   0  0  0  0  0  0
  -22.7849  -13.5220   21.1844 C   0  0  0  0  0  0
  -22.1668   -4.2151   21.0975 F   0  0  0  0  0  0
  -21.5633   -3.4524   25.7724 F   0  0  0  0  0  0
  -30.0368  -13.3088   20.4513 N   0  0  0  0  0  0
  -26.3011  -12.9331   20.3350 N   0  0  0  0  0  0
  -25.9326  -11.6491   20.5789 N   0  0  0  0  0  0
  -22.0482  -12.8220   22.0401 N   0  0  0  0  0  0
  -25.4169  -15.1831   20.3859 N   0  0  0  0  0  0
  -31.8168  -14.6765   20.0941 O   0  0  0  0  0  0
  -21.6639   -6.8873   21.4241 O   0  0  0  0  0  0
  -22.3542  -14.5527   20.6688 O   0  0  0  0  0  0
  -24.6149  -31.8682   23.2098 C   0  0  0  0  0  0
  -25.9046  -32.4817   23.8390 C   0  0  1  0  0  0
  -27.2342  -27.4347   20.0996 C   0  0  0  0  0  0
  -25.5913  -33.8612   24.2333 N   0  0  0  0  0  0
  -23.4027  -30.4915   21.5490 C   0  0  2  0  0  0
  -24.8522  -28.9526   20.1175 C   0  0  0  0  0  0
  -22.7414  -29.4660   22.4974 C   0  0  0  0  0  0
  -18.0274  -28.1375   22.8490 C   0  0  0  0  0  0
  -24.1476  -36.7289   23.2636 C   0  0  0  0  0  0
  -25.9313  -30.8320   21.3646 C   0  0  0  0  0  0
  -26.0103  -29.4628   20.7191 C   0  0  0  0  0  0
  -27.2068  -28.7087   20.7134 C   0  0  0  0  0  0
  -26.0654  -26.9372   19.4934 C   0  0  0  0  0  0
  -24.8735  -27.6878   19.5029 C   0  0  0  0  0  0
  -23.6141  -29.8216   20.1637 C   0  0  0  0  0  0
  -25.4093  -36.3100   24.0348 C   0  0  1  0  0  0
  -20.5866  -28.3657   23.1316 C   0  0  2  0  0  0
  -20.6756  -26.9393   22.5417 C   0  0  0  0  0  0
  -19.5740  -26.6386   21.5208 C   0  0  0  0  0  0
  -18.1917  -26.7928   22.1615 C   0  0  0  0  0  0
  -19.1524  -28.8831   23.2902 C   0  0  0  0  0  0
  -18.9452  -30.1440   23.8911 C   0  0  0  0  0  0
  -17.6456  -30.6579   24.0567 C   0  0  0  0  0  0
  -25.9037  -34.9472   23.5135 C   0  0  0  0  0  0
  -16.5348  -29.9084   23.6330 C   0  0  0  0  0  0
  -16.7262  -28.6503   23.0347 C   0  0  0  0  0  0
  -26.4483  -31.6581   25.0708 C   0  0  0  0  0  0
  -25.3765  -31.3685   26.1474 C   0  0  0  0  0  0
  -27.0283  -30.3014   24.6061 C   0  0  0  0  0  0
  -27.6076  -32.4281   25.7465 C   0  0  0  0  0  0
  -27.5589  -37.1774   24.8451 C   0  0  0  0  0  0
  -21.4142  -29.3023   22.3718 N   0  0  0  0  0  0
  -26.4259  -37.3810   23.9458 N   0  0  0  0  0  0
  -24.6675  -31.0788   22.0996 N   0  0  0  0  0  0
  -23.4191  -28.8206   23.3014 O   0  0  0  0  0  0
  -28.3781  -26.6745   20.0375 O   0  0  0  0  0  0
  -26.5587  -34.8935   22.4690 O   0  0  0  0  0  0
  -23.5342  -32.1430   23.7499 O   0  0  0  0  0  0
  -31.5056  -18.9632   20.9421 C   0  0  0  0  0  0
  -31.3680  -17.5600   20.8189 C   0  0  0  0  0  0
  -29.3154  -19.0988   21.9638 C   0  0  0  0  0  0
  -30.4843  -19.7538   21.5201 C   0  0  0  0  0  0
  -29.1762  -17.6920   21.8548 C   0  0  0  0  0  0
  -30.2038  -16.8938   21.2814 C   0  0  0  0  0  0
  -30.7238  -21.1918   21.8010 C   0  0  0  0  0  0
  -28.0065  -23.4203   20.5111 C   0  0  0  0  0  0
  -28.6602  -22.0343   20.6715 C   0  0  0  0  0  0
  -29.1244  -24.4246   20.8125 C   0  0  2  0  0  0
  -29.9855  -23.6801   21.8747 C   0  0  0  0  0  0
  -27.9081  -17.0484   22.3868 C   0  0  0  0  0  0
  -29.3879  -23.8291   23.2925 C   0  0  0  0  0  0
  -31.4226  -24.2614   21.8353 C   0  0  0  0  0  0
  -28.6376  -25.8620   21.1883 C   0  0  0  0  0  0
  -29.8999  -22.2361   21.4578 N   0  0  0  0  0  0
  -30.0070  -15.4671   21.2177 N   0  0  0  0  0  0
  -31.8428  -21.4520   22.4710 N   0  3  0  0  0  0
  -31.4721  -12.4259   19.1255 H   0  0  0  0  0  0
  -30.3341  -11.3130   19.8277 H   0  0  0  0  0  0
  -29.7457  -11.7900   17.4327 H   0  0  0  0  0  0
  -29.6638  -13.4996   17.7728 H   0  0  0  0  0  0
  -27.8345  -11.3117   18.8208 H   0  0  0  0  0  0
  -27.3685  -12.6354   17.7889 H   0  0  0  0  0  0
  -27.7038  -14.2572   19.5762 H   0  0  0  0  0  0
  -28.6850  -11.9589   21.3378 H   0  0  0  0  0  0
  -28.4539  -13.5894   21.8778 H   0  0  0  0  0  0
  -25.2758   -9.5677   22.4751 H   0  0  0  0  0  0
  -24.0001   -7.4629   22.7472 H   0  0  0  0  0  0
  -21.0844   -8.8754   19.8951 H   0  0  0  0  0  0
  -22.3697  -10.9653   19.6146 H   0  0  0  0  0  0
  -21.1978   -7.6139   23.9704 H   0  0  0  0  0  0
  -21.1470   -6.0514   25.9075 H   0  0  0  0  0  0
  -22.0606   -2.7611   23.2824 H   0  0  0  0  0  0
  -22.4086  -11.9880   22.4789 H   0  0  0  0  0  0
  -21.1098  -13.1253   22.2597 H   0  0  0  0  0  0
  -24.6305  -15.8203   20.4521 H   0  0  0  0  0  0
  -26.2392  -15.6098   19.9787 H   0  0  0  0  0  0
  -26.7105  -32.5547   23.1146 H   0  0  0  0  0  0
  -25.0095  -33.9759   25.0501 H   0  0  0  0  0  0
  -22.6908  -31.3082   21.4099 H   0  0  0  0  0  0
  -23.3780  -35.9576   23.3226 H   0  0  0  0  0  0
  -24.3601  -36.8969   22.2067 H   0  0  0  0  0  0
  -23.7160  -37.6448   23.6683 H   0  0  0  0  0  0
  -26.0412  -31.5955   20.5931 H   0  0  0  0  0  0
  -26.8211  -30.8894   21.9790 H   0  0  0  0  0  0
  -28.1043  -29.1023   21.1700 H   0  0  0  0  0  0
  -26.0814  -25.9699   19.0110 H   0  0  0  0  0  0
  -23.9845  -27.2927   19.0307 H   0  0  0  0  0  0
  -23.7241  -30.5961   19.4037 H   0  0  0  0  0  0
  -22.7386  -29.2414   19.8675 H   0  0  0  0  0  0
  -25.1256  -36.1939   25.0836 H   0  0  0  0  0  0
  -20.9964  -28.3219   24.1435 H   0  0  0  0  0  0
  -20.5649  -26.2266   23.3602 H   0  0  0  0  0  0
  -21.6629  -26.7429   22.1218 H   0  0  0  0  0  0
  -19.6897  -25.6303   21.1219 H   0  0  0  0  0  0
  -19.6686  -27.3205   20.6745 H   0  0  0  0  0  0
  -17.4198  -26.6692   21.4006 H   0  0  0  0  0  0
  -18.0308  -26.0060   22.8999 H   0  0  0  0  0  0
  -19.7930  -30.7245   24.2285 H   0  0  0  0  0  0
  -17.5017  -31.6262   24.5168 H   0  0  0  0  0  0
  -15.5348  -30.2988   23.7653 H   0  0  0  0  0  0
  -15.8664  -28.0833   22.7043 H   0  0  0  0  0  0
  -24.5912  -30.7058   25.7821 H   0  0  0  0  0  0
  -24.8989  -32.2840   26.4971 H   0  0  0  0  0  0
  -25.8141  -30.8820   27.0202 H   0  0  0  0  0  0
  -26.2789  -29.6775   24.1172 H   0  0  0  0  0  0
  -27.4107  -29.7246   25.4492 H   0  0  0  0  0  0
  -27.8615  -30.4311   23.9149 H   0  0  0  0  0  0
  -27.2723  -33.3597   26.2035 H   0  0  0  0  0  0
  -28.3901  -32.6803   25.0295 H   0  0  0  0  0  0
  -28.0721  -31.8391   26.5387 H   0  0  0  0  0  0
  -28.2528  -38.0150   24.7636 H   0  0  0  0  0  0
  -28.1156  -36.2695   24.6080 H   0  0  0  0  0  0
  -27.2342  -37.1181   25.8854 H   0  0  0  0  0  0
  -20.9297  -29.8743   21.6939 H   0  0  0  0  0  0
  -26.0136  -38.2861   24.1567 H   0  0  0  0  0  0
  -32.4254  -19.4284   20.6142 H   0  0  0  0  0  0
  -32.1930  -17.0168   20.3842 H   0  0  0  0  0  0
  -28.5415  -19.6750   22.4502 H   0  0  0  0  0  0
  -27.1800  -23.5236   21.2148 H   0  0  0  0  0  0
  -27.5997  -23.5652   19.5099 H   0  0  0  0  0  0
  -28.9093  -21.6151   19.6952 H   0  0  0  0  0  0
  -27.9652  -21.3513   21.1591 H   0  0  0  0  0  0
  -29.7374  -24.5196   19.9149 H   0  0  0  0  0  0
  -27.2220  -17.7894   22.7979 H   0  0  0  0  0  0
  -28.1386  -16.3335   23.1772 H   0  0  0  0  0  0
  -27.3897  -16.5270   21.5848 H   0  0  0  0  0  0
  -29.3579  -24.8704   23.6142 H   0  0  0  0  0  0
  -29.9832  -23.2921   24.0314 H   0  0  0  0  0  0
  -28.3717  -23.4390   23.3528 H   0  0  0  0  0  0
  -31.4185  -25.3436   21.7080 H   0  0  0  0  0  0
  -31.9980  -23.8595   21.0005 H   0  0  0  0  0  0
  -31.9730  -24.0758   22.7574 H   0  0  0  0  0  0
  -29.4080  -26.3855   21.7545 H   0  0  0  0  0  0
  -27.7704  -25.8019   21.8497 H   0  0  0  0  0  0
  -29.1338  -15.1448   21.6011 H   0  0  0  0  0  0
  -32.4250  -20.6882   22.7786 H   0  0  0  0  0  0
  -32.1355  -22.3980   22.6454 H   0  0  0  0  0  0
  1 25  1  0  0  0
  1 30  2  0  0  0
  1 87  1  0  0  0
  2  3  1  0  0  0
  2 25  1  0  0  0
  2 89  1  0  0  0
  2 90  1  0  0  0
  3  4  1  0  0  0
  3 91  1  0  0  0
  3 92  1  0  0  0
  4  5  1  0  0  0
  4 93  1  0  0  0
  4 94  1  0  0  0
  5  6  1  0  0  0
  5 26  1  0  0  0
  5 95  1  0  0  0
  6 25  1  0  0  0
  6 96  1  0  0  0
  6 97  1  0  0  0
  7  8  2  0  0  0
  7 26  1  0  0  0
  7 29  1  0  0  0
  8  9  1  0  0  0
  8 22  1  0  0  0
  9 10  1  0  0  0
  9 27  2  0  0  0
 10 11  2  0  0  0
 10 15  1  0  0  0
 11 12  1  0  0  0
 11 98  1  0  0  0
 12 13  2  0  0  0
 12 99  1  0  0  0
 13 14  1  0  0  0
 13 31  1  0  0  0
 14 15  2  0  0  0
 14100  1  0  0  0
 15101  1  0  0  0
 16 17  2  0  0  0
 16 21  1  0  0  0
 16 31  1  0  0  0
 17 18  1  0  0  0
 17102  1  0  0  0
 18 19  2  0  0  0
 18103  1  0  0  0
 19 20  1  0  0  0
 19 24  1  0  0  0
 20 21  2  0  0  0
 20104  1  0  0  0
 21 23  1  0  0  0
 22 28  1  0  0  0
 22 32  2  0  0  0
 26 27  1  0  0  0
 28105  1  0  0  0
 28106  1  0  0  0
 29107  1  0  0  0
 29108  1  0  0  0
 33 34  1  0  0  0
 33 66  1  0  0  0
 33 70  2  0  0  0
 34 36  1  0  0  0
 34 59  1  0  0  0
 34109  1  0  0  0
 35 44  2  0  0  0
 35 45  1  0  0  0
 35 68  1  0  0  0
 36 56  1  0  0  0
 36110  1  0  0  0
 37 39  1  0  0  0
 37 47  1  0  0  0
 37 66  1  0  0  0
 37111  1  0  0  0
 38 43  2  0  0  0
 38 46  1  0  0  0
 38 47  1  0  0  0
 39 64  1  0  0  0
 39 67  2  0  0  0
 40 52  1  0  0  0
 40 53  2  0  0  0
 40 58  1  0  0  0
 41112  1  0  0  0
 41113  1  0  0  0
 41114  1  0  0  0
 41 48  1  0  0  0
 42 43  1  0  0  0
 42 66  1  0  0  0
 42115  1  0  0  0
 42116  1  0  0  0
 43 44  1  0  0  0
 44117  1  0  0  0
 45 46  2  0  0  0
 45118  1  0  0  0
 46119  1  0  0  0
 47120  1  0  0  0
 47121  1  0  0  0
 48 56  1  0  0  0
 48 65  1  0  0  0
 48122  1  0  0  0
 49 50  1  0  0  0
 49 53  1  0  0  0
 49 64  1  0  0  0
 49123  1  0  0  0
 50 51  1  0  0  0
 50124  1  0  0  0
 50125  1  0  0  0
 51 52  1  0  0  0
 51126  1  0  0  0
 51127  1  0  0  0
 52128  1  0  0  0
 52129  1  0  0  0
 53 54  1  0  0  0
 54 55  2  0  0  0
 54130  1  0  0  0
 55 57  1  0  0  0
 55131  1  0  0  0
 56 69  2  0  0  0
 57 58  2  0  0  0
 57132  1  0  0  0
 58133  1  0  0  0
 59 60  1  0  0  0
 59 61  1  0  0  0
 59 62  1  0  0  0
 60134  1  0  0  0
 60135  1  0  0  0
 60136  1  0  0  0
 61137  1  0  0  0
 61138  1  0  0  0
 61139  1  0  0  0
 62140  1  0  0  0
 62141  1  0  0  0
 62142  1  0  0  0
 63 65  1  0  0  0
 63143  1  0  0  0
 63144  1  0  0  0
 63145  1  0  0  0
 64146  1  0  0  0
 65147  1  0  0  0
 68 85  1  0  0  0
 71 72  2  0  0  0
 71 74  1  0  0  0
 71148  1  0  0  0
 72 76  1  0  0  0
 72149  1  0  0  0
 73 74  2  0  0  0
 73 75  1  0  0  0
 73150  1  0  0  0
 74 77  1  0  0  0
 75 76  2  0  0  0
 75 82  1  0  0  0
 76 87  1  0  0  0
 77 86  1  0  0  0
 77 88  2  0  0  0
 78 79  1  0  0  0
 78 80  1  0  0  0
 78151  1  0  0  0
 78152  1  0  0  0
 79 86  1  0  0  0
 79153  1  0  0  0
 79154  1  0  0  0
 80 81  1  0  0  0
 80 85  1  0  0  0
 80155  1  0  0  0
 81 83  1  0  0  0
 81 84  1  0  0  0
 81 86  1  0  0  0
 82156  1  0  0  0
 82157  1  0  0  0
 82158  1  0  0  0
 83159  1  0  0  0
 83160  1  0  0  0
 83161  1  0  0  0
 84162  1  0  0  0
 84163  1  0  0  0
 84164  1  0  0  0
 85165  1  0  0  0
 85166  1  0  0  0
 87167  1  0  0  0
 88168  1  0  0  0
 88169  1  0  0  0
M  CHG  1  88   1
M  ISO  4   1 100  68 101  85 101  87 100
M  END
> <chiral flag>
0

> <version>
0

> <s_m_source_file>
/data/baiqing/PycharmProjects/Reinvent-master-3.2/result/LINK_invent/BTK/process_docking_weight1_custom_product_contain_oxygen_bond_distance_aromatic_linkinvent_7_9_3/rearranged_h_0140.sdf

> <i_m_source_file_index>
52

> <r_mmod_Potential_Energy-OPLS-2005>
-77.3013916015625

> <r_mmod_Stretch_Energy-OPLS-2005>
47.3038139343262

> <r_mmod_Bend_Energy-OPLS-2005>
142.283050537109

> <r_mmod_Torsional_Energy-OPLS-2005>
329.381866455078

> <r_mmod_Improper_Torsional_Energy-OPLS-2005>
4.06935405731201

> <r_mmod_Van_der_Waal_Energy-OPLS-2005>
159.570953369141

> <r_mmod_Electrostatic_Energy-OPLS-2005>
-397.911651611328

> <r_mmod_Solvation_Energy-OPLS-2005>
-374.683990478516

> <b_mmod_Minimization_Converged-OPLS-2005>
0

> <r_mmod_RMS_Derivative-OPLS-2005>
1.39899694919586

$$$$
52
                    3D
 Structure written by MMmdl.
168177  0  0  1  0            999 V2000
  -30.7146  -14.4906   20.6087 C   0  0  0  0  0  0
  -30.4246  -12.3317   19.4309 C   0  0  0  0  0  0
  -29.4965  -12.5120   18.2132 C   0  0  0  0  0  0
  -28.0207  -12.3581   18.6259 C   0  0  0  0  0  0
  -27.6594  -13.2094   19.8731 C   0  0  2  0  0  0
  -28.7008  -13.0128   20.9978 C   0  0  0  0  0  0
  -25.2572  -13.8157   20.5667 C   0  0  0  0  0  0
  -24.1821  -13.0435   20.9166 C   0  0  0  0  0  0
  -24.6380  -11.6899   20.8719 C   0  0  0  0  0  0
  -23.9041  -10.4285   21.0389 C   0  0  0  0  0  0
  -24.3593   -9.4204   21.9169 C   0  0  0  0  0  0
  -23.6277   -8.2241   22.0758 C   0  0  0  0  0  0
  -22.4261   -8.0278   21.3547 C   0  0  0  0  0  0
  -21.9886   -9.0243   20.4644 C   0  0  0  0  0  0
  -22.7211  -10.2124   20.3045 C   0  0  0  0  0  0
  -21.6857   -6.0721   22.5272 C   0  0  0  0  0  0
  -21.4016   -6.5629   23.8205 C   0  0  0  0  0  0
  -21.3661   -5.6787   24.9166 C   0  0  0  0  0  0
  -21.6048   -4.3050   24.7226 C   0  0  0  0  0  0
  -21.8818   -3.8135   23.4346 C   0  0  0  0  0  0
  -21.9194   -4.6946   22.3396 C   0  0  0  0  0  0
  -22.7837  -13.5231   21.1830 C   0  0  0  0  0  0
  -22.1655   -4.2123   21.0974 F   0  0  0  0  0  0
  -21.5637   -3.4542   25.7742 F   0  0  0  0  0  0
  -30.0286  -13.3243   20.4443 N   0  0  0  0  0  0
  -26.3004  -12.9326   20.3344 N   0  0  0  0  0  0
  -25.9309  -11.6484   20.5746 N   0  0  0  0  0  0
  -22.0485  -12.8232   22.0397 N   0  0  0  0  0  0
  -25.4306  -15.1876   20.4068 N   0  0  0  0  0  0
  -31.8380  -14.6653   20.1294 O   0  0  0  0  0  0
  -21.6643   -6.8861   21.4237 O   0  0  0  0  0  0
  -22.3518  -14.5543   20.6694 O   0  0  0  0  0  0
  -24.6147  -31.8672   23.2069 C   0  0  0  0  0  0
  -25.9036  -32.4829   23.8371 C   0  0  1  0  0  0
  -27.2405  -27.4319   20.1011 C   0  0  0  0  0  0
  -25.5889  -33.8629   24.2304 N   0  0  0  0  0  0
  -23.4039  -30.4885   21.5473 C   0  0  2  0  0  0
  -24.8538  -28.9513   20.1137 C   0  0  0  0  0  0
  -22.7420  -29.4644   22.4973 C   0  0  0  0  0  0
  -18.0277  -28.1386   22.8485 C   0  0  0  0  0  0
  -24.1487  -36.7311   23.2647 C   0  0  0  0  0  0
  -25.9325  -30.8314   21.3594 C   0  0  0  0  0  0
  -26.0134  -29.4638   20.7111 C   0  0  0  0  0  0
  -27.2092  -28.7106   20.7038 C   0  0  0  0  0  0
  -26.0668  -26.9288   19.5040 C   0  0  0  0  0  0
  -24.8759  -27.6810   19.5082 C   0  0  0  0  0  0
  -23.6133  -29.8155   20.1630 C   0  0  0  0  0  0
  -25.4108  -36.3120   24.0344 C   0  0  1  0  0  0
  -20.5881  -28.3664   23.1315 C   0  0  2  0  0  0
  -20.6769  -26.9400   22.5424 C   0  0  0  0  0  0
  -19.5750  -26.6386   21.5223 C   0  0  0  0  0  0
  -18.1921  -26.7932   22.1629 C   0  0  0  0  0  0
  -19.1534  -28.8838   23.2897 C   0  0  0  0  0  0
  -18.9467  -30.1449   23.8905 C   0  0  0  0  0  0
  -17.6467  -30.6592   24.0561 C   0  0  0  0  0  0
  -25.9033  -34.9490   23.5120 C   0  0  0  0  0  0
  -16.5354  -29.9093   23.6326 C   0  0  0  0  0  0
  -16.7265  -28.6514   23.0335 C   0  0  0  0  0  0
  -26.4456  -31.6606   25.0702 C   0  0  0  0  0  0
  -25.3727  -31.3720   26.1456 C   0  0  0  0  0  0
  -27.0285  -30.3056   24.6070 C   0  0  0  0  0  0
  -27.6033  -32.4314   25.7464 C   0  0  0  0  0  0
  -27.5576  -37.1810   24.8469 C   0  0  0  0  0  0
  -21.4154  -29.3023   22.3721 N   0  0  0  0  0  0
  -26.4291  -37.3798   23.9415 N   0  0  0  0  0  0
  -24.6692  -31.0756   22.0980 N   0  0  0  0  0  0
  -23.4177  -28.8189   23.3035 O   0  0  0  0  0  0
  -28.3917  -26.6779   20.0657 O   0  0  0  0  0  0
  -26.5612  -34.8941   22.4692 O   0  0  0  0  0  0
  -23.5329  -32.1436   23.7452 O   0  0  0  0  0  0
  -29.7032  -17.9543   21.4534 C   0  0  0  0  0  0
  -31.3931  -19.3239   22.5451 C   0  0  0  0  0  0
  -31.8023  -16.9472   22.1760 C   0  0  0  0  0  0
  -30.1324  -19.2321   21.9169 C   0  0  0  0  0  0
  -30.5283  -16.7995   21.5786 C   0  0  0  0  0  0
  -32.2311  -18.1992   22.6545 C   0  0  0  0  0  0
  -28.6731  -24.2324   20.5304 C   0  0  0  0  0  0
  -32.0376  -21.3999   20.2516 C   0  0  0  0  0  0
  -31.7107  -22.8458   19.9735 C   0  0  0  0  0  0
  -31.0298  -22.1224   21.1191 C   0  0  0  0  0  0
  -27.1406  -22.5836   21.5706 C   0  0  0  0  0  0
  -29.0219  -23.5206   22.9477 C   0  0  0  0  0  0
  -29.1812  -20.4506   21.9018 C   0  0  0  0  0  0
  -28.4611  -25.6673   21.0874 C   0  0  0  0  0  0
  -29.5332  -21.7774   21.1051 C   0  0  1  0  0  0
  -28.6246  -23.0228   21.5300 C   0  0  0  0  0  0
  -30.0347  -15.5025   21.1989 N   0  0  0  0  0  0
  -28.7802  -24.0438   19.3153 O   0  0  0  0  0  0
  -33.4442  -18.3194   23.2480 F   0  0  0  0  0  0
  -31.4695  -12.4308   19.1315 H   0  0  0  0  0  0
  -30.3315  -11.3242   19.8385 H   0  0  0  0  0  0
  -29.7447  -11.7829   17.4416 H   0  0  0  0  0  0
  -29.6574  -13.4968   17.7720 H   0  0  0  0  0  0
  -27.8470  -11.3017   18.8366 H   0  0  0  0  0  0
  -27.3676  -12.6116   17.7902 H   0  0  0  0  0  0
  -27.6964  -14.2532   19.5617 H   0  0  0  0  0  0
  -28.6854  -11.9809   21.3519 H   0  0  0  0  0  0
  -28.4539  -13.6223   21.8672 H   0  0  0  0  0  0
  -25.2740   -9.5689   22.4736 H   0  0  0  0  0  0
  -23.9990   -7.4635   22.7487 H   0  0  0  0  0  0
  -21.0818   -8.8746   19.8949 H   0  0  0  0  0  0
  -22.3661  -10.9653   19.6149 H   0  0  0  0  0  0
  -21.2005   -7.6141   23.9693 H   0  0  0  0  0  0
  -21.1490   -6.0525   25.9068 H   0  0  0  0  0  0
  -22.0597   -2.7598   23.2857 H   0  0  0  0  0  0
  -22.4112  -11.9898   22.4788 H   0  0  0  0  0  0
  -21.1102  -13.1251   22.2603 H   0  0  0  0  0  0
  -24.6687  -15.8484   20.5157 H   0  0  0  0  0  0
  -26.2855  -15.6219   20.0824 H   0  0  0  0  0  0
  -26.7099  -32.5528   23.1114 H   0  0  0  0  0  0
  -25.0042  -33.9766   25.0455 H   0  0  0  0  0  0
  -22.6958  -31.3076   21.4038 H   0  0  0  0  0  0
  -23.3760  -35.9632   23.3322 H   0  0  0  0  0  0
  -24.3581  -36.8912   22.2055 H   0  0  0  0  0  0
  -23.7223  -37.6519   23.6643 H   0  0  0  0  0  0
  -26.0434  -31.5963   20.5895 H   0  0  0  0  0  0
  -26.8213  -30.8882   21.9770 H   0  0  0  0  0  0
  -28.1056  -29.1048   21.1636 H   0  0  0  0  0  0
  -26.0765  -25.9557   19.0331 H   0  0  0  0  0  0
  -23.9840  -27.2793   19.0472 H   0  0  0  0  0  0
  -23.7186  -30.5883   19.4009 H   0  0  0  0  0  0
  -22.7387  -29.2319   19.8671 H   0  0  0  0  0  0
  -25.1284  -36.1992   25.0834 H   0  0  0  0  0  0
  -20.9955  -28.3227   24.1441 H   0  0  0  0  0  0
  -20.5709  -26.2259   23.3604 H   0  0  0  0  0  0
  -21.6631  -26.7453   22.1205 H   0  0  0  0  0  0
  -19.6920  -25.6307   21.1234 H   0  0  0  0  0  0
  -19.6707  -27.3216   20.6777 H   0  0  0  0  0  0
  -17.4201  -26.6684   21.4015 H   0  0  0  0  0  0
  -18.0299  -26.0079   22.9035 H   0  0  0  0  0  0
  -19.7955  -30.7254   24.2274 H   0  0  0  0  0  0
  -17.5044  -31.6282   24.5166 H   0  0  0  0  0  0
  -15.5366  -30.3004   23.7673 H   0  0  0  0  0  0
  -15.8662  -28.0856   22.7025 H   0  0  0  0  0  0
  -24.5884  -30.7082   25.7788 H   0  0  0  0  0  0
  -24.8943  -32.2889   26.4919 H   0  0  0  0  0  0
  -25.8088  -30.8874   27.0203 H   0  0  0  0  0  0
  -26.2827  -29.6832   24.1111 H   0  0  0  0  0  0
  -27.4071  -29.7263   25.4504 H   0  0  0  0  0  0
  -27.8645  -30.4396   23.9200 H   0  0  0  0  0  0
  -27.2651  -33.3597   26.2071 H   0  0  0  0  0  0
  -28.3822  -32.6911   25.0279 H   0  0  0  0  0  0
  -28.0728  -31.8435   26.5358 H   0  0  0  0  0  0
  -28.2609  -38.0094   24.7510 H   0  0  0  0  0  0
  -28.1056  -36.2632   24.6303 H   0  0  0  0  0  0
  -27.2293  -37.1464   25.8872 H   0  0  0  0  0  0
  -20.9322  -29.8754   21.6945 H   0  0  0  0  0  0
  -26.0198  -38.2884   24.1423 H   0  0  0  0  0  0
  -28.7140  -17.8580   21.0269 H   0  0  0  0  0  0
  -31.7249  -20.2615   22.9652 H   0  0  0  0  0  0
  -32.4535  -16.0957   22.3103 H   0  0  0  0  0  0
  -33.0071  -21.1795   20.6936 H   0  0  0  0  0  0
  -31.6620  -20.6480   19.5613 H   0  0  0  0  0  0
  -31.1585  -23.0383   19.0562 H   0  0  0  0  0  0
  -32.4612  -23.5909   20.2281 H   0  0  0  0  0  0
  -31.3995  -22.3811   22.1081 H   0  0  0  0  0  0
  -26.4557  -23.4293   21.6496 H   0  0  0  0  0  0
  -26.9324  -21.9376   22.4239 H   0  0  0  0  0  0
  -26.8665  -22.0327   20.6693 H   0  0  0  0  0  0
  -28.3108  -24.2464   23.3428 H   0  0  0  0  0  0
  -30.0032  -23.9959   22.9575 H   0  0  0  0  0  0
  -29.0521  -22.7155   23.6774 H   0  0  0  0  0  0
  -29.0271  -20.6903   22.9524 H   0  0  0  0  0  0
  -28.2094  -20.0956   21.5603 H   0  0  0  0  0  0
  -29.2992  -25.9164   21.7384 H   0  0  0  0  0  0
  -27.5625  -25.6768   21.7059 H   0  0  0  0  0  0
  -29.3012  -21.5494   20.0628 H   0  0  0  0  0  0
  -29.0644  -15.3114   21.3973 H   0  0  0  0  0  0
  1 25  1  0  0  0
  1 30  2  0  0  0
  1 87  1  0  0  0
  2  3  1  0  0  0
  2 25  1  0  0  0
  2 90  1  0  0  0
  2 91  1  0  0  0
  3  4  1  0  0  0
  3 92  1  0  0  0
  3 93  1  0  0  0
  4  5  1  0  0  0
  4 94  1  0  0  0
  4 95  1  0  0  0
  5  6  1  0  0  0
  5 26  1  0  0  0
  5 96  1  0  0  0
  6 25  1  0  0  0
  6 97  1  0  0  0
  6 98  1  0  0  0
  7  8  2  0  0  0
  7 26  1  0  0  0
  7 29  1  0  0  0
  8  9  1  0  0  0
  8 22  1  0  0  0
  9 10  1  0  0  0
  9 27  2  0  0  0
 10 11  2  0  0  0
 10 15  1  0  0  0
 11 12  1  0  0  0
 11 99  1  0  0  0
 12 13  2  0  0  0
 12100  1  0  0  0
 13 14  1  0  0  0
 13 31  1  0  0  0
 14 15  2  0  0  0
 14101  1  0  0  0
 15102  1  0  0  0
 16 17  2  0  0  0
 16 21  1  0  0  0
 16 31  1  0  0  0
 17 18  1  0  0  0
 17103  1  0  0  0
 18 19  2  0  0  0
 18104  1  0  0  0
 19 20  1  0  0  0
 19 24  1  0  0  0
 20 21  2  0  0  0
 20105  1  0  0  0
 21 23  1  0  0  0
 22 28  1  0  0  0
 22 32  2  0  0  0
 26 27  1  0  0  0
 28106  1  0  0  0
 28107  1  0  0  0
 29108  1  0  0  0
 29109  1  0  0  0
 33 34  1  0  0  0
 33 66  1  0  0  0
 33 70  2  0  0  0
 34 36  1  0  0  0
 34 59  1  0  0  0
 34110  1  0  0  0
 35 44  2  0  0  0
 35 45  1  0  0  0
 35 68  1  0  0  0
 36 56  1  0  0  0
 36111  1  0  0  0
 37 39  1  0  0  0
 37 47  1  0  0  0
 37 66  1  0  0  0
 37112  1  0  0  0
 38 43  2  0  0  0
 38 46  1  0  0  0
 38 47  1  0  0  0
 39 64  1  0  0  0
 39 67  2  0  0  0
 40 52  1  0  0  0
 40 53  2  0  0  0
 40 58  1  0  0  0
 41113  1  0  0  0
 41114  1  0  0  0
 41115  1  0  0  0
 41 48  1  0  0  0
 42 43  1  0  0  0
 42 66  1  0  0  0
 42116  1  0  0  0
 42117  1  0  0  0
 43 44  1  0  0  0
 44118  1  0  0  0
 45 46  2  0  0  0
 45119  1  0  0  0
 46120  1  0  0  0
 47121  1  0  0  0
 47122  1  0  0  0
 48 56  1  0  0  0
 48 65  1  0  0  0
 48123  1  0  0  0
 49 50  1  0  0  0
 49 53  1  0  0  0
 49 64  1  0  0  0
 49124  1  0  0  0
 50 51  1  0  0  0
 50125  1  0  0  0
 50126  1  0  0  0
 51 52  1  0  0  0
 51127  1  0  0  0
 51128  1  0  0  0
 52129  1  0  0  0
 52130  1  0  0  0
 53 54  1  0  0  0
 54 55  2  0  0  0
 54131  1  0  0  0
 55 57  1  0  0  0
 55132  1  0  0  0
 56 69  2  0  0  0
 57 58  2  0  0  0
 57133  1  0  0  0
 58134  1  0  0  0
 59 60  1  0  0  0
 59 61  1  0  0  0
 59 62  1  0  0  0
 60135  1  0  0  0
 60136  1  0  0  0
 60137  1  0  0  0
 61138  1  0  0  0
 61139  1  0  0  0
 61140  1  0  0  0
 62141  1  0  0  0
 62142  1  0  0  0
 62143  1  0  0  0
 63 65  1  0  0  0
 63144  1  0  0  0
 63145  1  0  0  0
 63146  1  0  0  0
 64147  1  0  0  0
 65148  1  0  0  0
 68 84  1  0  0  0
 71 74  2  0  0  0
 71 75  1  0  0  0
 71149  1  0  0  0
 72 74  1  0  0  0
 72 76  2  0  0  0
 72150  1  0  0  0
 73 75  2  0  0  0
 73 76  1  0  0  0
 73151  1  0  0  0
 74 83  1  0  0  0
 75 87  1  0  0  0
 76 89  1  0  0  0
 77 84  1  0  0  0
 77 86  1  0  0  0
 77 88  2  0  0  0
 78 79  1  0  0  0
 78152  1  0  0  0
 78153  1  0  0  0
 78 80  1  0  0  0
 79 80  1  0  0  0
 79154  1  0  0  0
 79155  1  0  0  0
 80 85  1  0  0  0
 80156  1  0  0  0
 81157  1  0  0  0
 81158  1  0  0  0
 81159  1  0  0  0
 81 86  1  0  0  0
 82 86  1  0  0  0
 82160  1  0  0  0
 82161  1  0  0  0
 82162  1  0  0  0
 83163  1  0  0  0
 83164  1  0  0  0
 83 85  1  0  0  0
 84165  1  0  0  0
 84166  1  0  0  0
 85 86  1  0  0  0
 85167  1  0  0  0
 87168  1  0  0  0
M  ISO  4   1 100  68 101  84 101  87 100
M  END
> <chiral flag>
0

> <version>
0

> <s_m_source_file>
/data/baiqing/PycharmProjects/Reinvent-master-3.2/result/LINK_invent/BTK/process_docking_weight1_custom_product_contain_oxygen_bond_distance_aromatic_linkinvent_7_9_3/rearranged_h_0140.sdf

> <i_m_source_file_index>
53

> <r_mmod_Potential_Energy-OPLS-2005>
135.12043762207

> <r_mmod_Stretch_Energy-OPLS-2005>
54.4422569274902

> <r_mmod_Bend_Energy-OPLS-2005>
110.600540161133

> <r_mmod_Torsional_Energy-OPLS-2005>
304.318176269531

> <r_mmod_Improper_Torsional_Energy-OPLS-2005>
4.67228507995605

> <r_mmod_Van_der_Waal_Energy-OPLS-2005>
155.068389892578

> <r_mmod_Electrostatic_Energy-OPLS-2005>
-294.977172851562

> <r_mmod_Solvation_Energy-OPLS-2005>
-212.785308837891

> <b_mmod_Minimization_Converged-OPLS-2005>
0

> <r_mmod_RMS_Derivative-OPLS-2005>
2.83904814720154

$$$$
53
                    3D
 Structure written by MMmdl.
154163  0  0  1  0            999 V2000
  -30.5816  -14.7220   20.4626 C   0  0  0  0  0  0
  -30.4400  -12.4424   19.4693 C   0  0  0  0  0  0
  -29.5188  -12.5068   18.2281 C   0  0  0  0  0  0
  -28.0388  -12.3322   18.6302 C   0  0  0  0  0  0
  -27.6387  -13.2230   19.8373 C   0  0  2  0  0  0
  -28.6752  -13.1459   20.9796 C   0  0  0  0  0  0
  -25.2506  -13.8190   20.5605 C   0  0  0  0  0  0
  -24.1808  -13.0438   20.9171 C   0  0  0  0  0  0
  -24.6358  -11.6904   20.8688 C   0  0  0  0  0  0
  -23.9066  -10.4275   21.0381 C   0  0  0  0  0  0
  -24.3624   -9.4199   21.9178 C   0  0  0  0  0  0
  -23.6282   -8.2248   22.0740 C   0  0  0  0  0  0
  -22.4274   -8.0285   21.3535 C   0  0  0  0  0  0
  -21.9876   -9.0266   20.4660 C   0  0  0  0  0  0
  -22.7204  -10.2143   20.3040 C   0  0  0  0  0  0
  -21.6850   -6.0712   22.5269 C   0  0  0  0  0  0
  -21.4030   -6.5644   23.8213 C   0  0  0  0  0  0
  -21.3635   -5.6801   24.9178 C   0  0  0  0  0  0
  -21.6028   -4.3075   24.7247 C   0  0  0  0  0  0
  -21.8820   -3.8133   23.4387 C   0  0  0  0  0  0
  -21.9204   -4.6922   22.3412 C   0  0  0  0  0  0
  -22.7838  -13.5248   21.1867 C   0  0  0  0  0  0
  -22.1674   -4.2095   21.0995 F   0  0  0  0  0  0
  -21.5583   -3.4577   25.7775 F   0  0  0  0  0  0
  -29.9912  -13.4844   20.4151 N   0  0  0  0  0  0
  -26.2893  -12.9365   20.3154 N   0  0  0  0  0  0
  -25.9292  -11.6524   20.5667 N   0  0  0  0  0  0
  -22.0486  -12.8249   22.0441 N   0  0  0  0  0  0
  -25.4219  -15.1903   20.3931 N   0  0  0  0  0  0
  -31.7713  -14.8665   20.1524 O   0  0  0  0  0  0
  -21.6642   -6.8867   21.4245 O   0  0  0  0  0  0
  -22.3543  -14.5557   20.6715 O   0  0  0  0  0  0
  -24.6273  -31.8537   23.1951 C   0  0  0  0  0  0
  -25.9121  -32.4757   23.8273 C   0  0  1  0  0  0
  -27.2132  -27.2799   20.1198 C   0  0  0  0  0  0
  -25.5900  -33.8555   24.2204 N   0  0  0  0  0  0
  -23.4224  -30.4762   21.5399 C   0  0  2  0  0  0
  -24.8675  -28.9183   20.1123 C   0  0  0  0  0  0
  -22.7481  -29.4588   22.4891 C   0  0  0  0  0  0
  -18.0287  -28.1398   22.8466 C   0  0  0  0  0  0
  -24.1471  -36.7304   23.2630 C   0  0  0  0  0  0
  -25.9670  -30.7730   21.3677 C   0  0  0  0  0  0
  -26.0405  -29.3959   20.7132 C   0  0  0  0  0  0
  -27.2237  -28.5919   20.6969 C   0  0  0  0  0  0
  -26.0186  -26.8502   19.5108 C   0  0  0  0  0  0
  -24.8602  -27.6542   19.4983 C   0  0  0  0  0  0
  -23.6409  -29.8088   20.1571 C   0  0  0  0  0  0
  -25.4095  -36.3071   24.0306 C   0  0  1  0  0  0
  -20.5884  -28.3689   23.1266 C   0  0  2  0  0  0
  -20.6759  -26.9391   22.5434 C   0  0  0  0  0  0
  -19.5769  -26.6399   21.5178 C   0  0  0  0  0  0
  -18.1933  -26.7944   22.1562 C   0  0  0  0  0  0
  -19.1547  -28.8849   23.2874 C   0  0  0  0  0  0
  -18.9473  -30.1438   23.8914 C   0  0  0  0  0  0
  -17.6468  -30.6576   24.0581 C   0  0  0  0  0  0
  -25.9045  -34.9452   23.5072 C   0  0  0  0  0  0
  -16.5369  -29.9069   23.6329 C   0  0  0  0  0  0
  -16.7272  -28.6503   23.0329 C   0  0  0  0  0  0
  -26.4476  -31.6598   25.0679 C   0  0  0  0  0  0
  -25.3703  -31.3867   26.1430 C   0  0  0  0  0  0
  -27.0240  -30.2959   24.6221 C   0  0  0  0  0  0
  -27.6039  -32.4337   25.7422 C   0  0  0  0  0  0
  -27.5587  -37.1772   24.8419 C   0  0  0  0  0  0
  -21.4194  -29.3008   22.3634 N   0  0  0  0  0  0
  -26.4257  -37.3788   23.9431 N   0  0  0  0  0  0
  -24.6925  -31.0515   22.0930 N   0  0  0  0  0  0
  -23.4167  -28.8142   23.3019 O   0  0  0  0  0  0
  -28.3213  -26.4225   20.0817 O   0  0  0  0  0  0
  -26.5677  -34.8929   22.4668 O   0  0  0  0  0  0
  -23.5444  -32.1372   23.7272 O   0  0  0  0  0  0
  -30.5902  -19.4175   20.1925 C   0  0  0  0  0  0
  -30.8972  -18.0081   20.3751 C   0  0  0  0  0  0
  -29.2489  -19.7415   20.1518 C   0  0  0  0  0  0
  -29.8114  -17.1678   20.4881 C   0  0  0  0  0  0
  -27.1183  -21.3393   20.3041 C   0  0  0  0  0  0
  -26.8113  -22.8714   20.2807 C   0  0  0  0  0  0
  -29.1954  -22.5174   20.2296 C   0  0  0  0  0  0
  -28.5648  -21.1240   19.8172 C   0  0  1  0  0  0
  -28.1168  -23.6613   19.9608 C   0  0  2  0  0  0
  -28.2418  -25.0816   20.7287 C   0  0  0  0  0  0
  -29.7206  -15.7810   20.6602 N   0  0  0  0  0  0
  -28.3638  -18.2137   20.3979 S   0  0  0  0  0  0
  -31.4816  -12.5795   19.1735 H   0  0  0  0  0  0
  -30.3872  -11.4633   19.9463 H   0  0  0  0  0  0
  -29.7999  -11.7347   17.5087 H   0  0  0  0  0  0
  -29.6544  -13.4622   17.7173 H   0  0  0  0  0  0
  -27.8851  -11.2798   18.8761 H   0  0  0  0  0  0
  -27.3965  -12.5447   17.7769 H   0  0  0  0  0  0
  -27.6306  -14.2440   19.4543 H   0  0  0  0  0  0
  -28.6963  -12.1522   21.4278 H   0  0  0  0  0  0
  -28.3972  -13.8344   21.7810 H   0  0  0  0  0  0
  -25.2781   -9.5677   22.4760 H   0  0  0  0  0  0
  -23.9966   -7.4640   22.7458 H   0  0  0  0  0  0
  -21.0776   -8.8817   19.9007 H   0  0  0  0  0  0
  -22.3657  -10.9699   19.6158 H   0  0  0  0  0  0
  -21.2063   -7.6153   23.9710 H   0  0  0  0  0  0
  -21.1419   -6.0546   25.9088 H   0  0  0  0  0  0
  -22.0606   -2.7576   23.2941 H   0  0  0  0  0  0
  -22.4135  -11.9954   22.4901 H   0  0  0  0  0  0
  -21.1097  -13.1266   22.2616 H   0  0  0  0  0  0
  -24.6470  -15.8402   20.4764 H   0  0  0  0  0  0
  -26.2463  -15.6172   19.9904 H   0  0  0  0  0  0
  -26.7181  -32.5421   23.1006 H   0  0  0  0  0  0
  -24.9889  -33.9656   25.0234 H   0  0  0  0  0  0
  -22.7201  -31.2991   21.3936 H   0  0  0  0  0  0
  -23.3737  -35.9631   23.3251 H   0  0  0  0  0  0
  -24.3553  -36.8992   22.2057 H   0  0  0  0  0  0
  -23.7216  -37.6473   23.6713 H   0  0  0  0  0  0
  -26.0941  -31.5288   20.5914 H   0  0  0  0  0  0
  -26.8481  -30.8264   21.9972 H   0  0  0  0  0  0
  -28.1328  -28.9588   21.1537 H   0  0  0  0  0  0
  -25.9774  -25.8747   19.0448 H   0  0  0  0  0  0
  -23.9613  -27.2862   19.0218 H   0  0  0  0  0  0
  -23.7736  -30.5857   19.4044 H   0  0  0  0  0  0
  -22.7548  -29.2511   19.8470 H   0  0  0  0  0  0
  -25.1256  -36.1890   25.0791 H   0  0  0  0  0  0
  -20.9982  -28.3316   24.1382 H   0  0  0  0  0  0
  -20.5545  -26.2309   23.3646 H   0  0  0  0  0  0
  -21.6643  -26.7356   22.1307 H   0  0  0  0  0  0
  -19.6942  -25.6311   21.1164 H   0  0  0  0  0  0
  -19.6742  -27.3241   20.6741 H   0  0  0  0  0  0
  -17.4212  -26.6724   21.3966 H   0  0  0  0  0  0
  -18.0335  -26.0060   22.8922 H   0  0  0  0  0  0
  -19.7942  -30.7259   24.2309 H   0  0  0  0  0  0
  -17.5004  -31.6221   24.5241 H   0  0  0  0  0  0
  -15.5358  -30.2972   23.7649 H   0  0  0  0  0  0
  -15.8666  -28.0812   22.7037 H   0  0  0  0  0  0
  -24.5830  -30.7238   25.7837 H   0  0  0  0  0  0
  -24.8945  -32.3094   26.4767 H   0  0  0  0  0  0
  -25.7989  -30.9126   27.0267 H   0  0  0  0  0  0
  -26.2799  -29.6765   24.1207 H   0  0  0  0  0  0
  -27.3783  -29.7200   25.4783 H   0  0  0  0  0  0
  -27.8749  -30.4116   23.9504 H   0  0  0  0  0  0
  -27.2611  -33.3574   26.2092 H   0  0  0  0  0  0
  -28.3775  -32.7023   25.0218 H   0  0  0  0  0  0
  -28.0802  -31.8436   26.5263 H   0  0  0  0  0  0
  -28.2569  -38.0106   24.7498 H   0  0  0  0  0  0
  -28.1106  -36.2642   24.6134 H   0  0  0  0  0  0
  -27.2347  -37.1305   25.8831 H   0  0  0  0  0  0
  -20.9405  -29.8657   21.6760 H   0  0  0  0  0  0
  -26.0129  -38.2833   24.1549 H   0  0  0  0  0  0
  -31.3833  -20.1415   20.0625 H   0  0  0  0  0  0
  -31.9224  -17.6683   20.4042 H   0  0  0  0  0  0
  -26.4033  -20.7682   19.7067 H   0  0  0  0  0  0
  -27.0204  -20.9801   21.3304 H   0  0  0  0  0  0
  -26.4167  -23.1548   21.2587 H   0  0  0  0  0  0
  -26.0204  -23.1048   19.5638 H   0  0  0  0  0  0
  -30.1230  -22.7041   19.6853 H   0  0  0  0  0  0
  -29.4547  -22.5025   21.2904 H   0  0  0  0  0  0
  -28.5030  -21.1498   18.7275 H   0  0  0  0  0  0
  -28.1250  -23.8619   18.8858 H   0  0  0  0  0  0
  -29.1722  -25.0238   21.2932 H   0  0  0  0  0  0
  -27.4843  -25.1255   21.5123 H   0  0  0  0  0  0
  -28.7852  -15.4627   20.8505 H   0  0  0  0  0  0
  1 25  1  0  0  0
  1 30  2  0  0  0
  1 81  1  0  0  0
  2  3  1  0  0  0
  2 25  1  0  0  0
  2 83  1  0  0  0
  2 84  1  0  0  0
  3  4  1  0  0  0
  3 85  1  0  0  0
  3 86  1  0  0  0
  4  5  1  0  0  0
  4 87  1  0  0  0
  4 88  1  0  0  0
  5  6  1  0  0  0
  5 26  1  0  0  0
  5 89  1  0  0  0
  6 25  1  0  0  0
  6 90  1  0  0  0
  6 91  1  0  0  0
  7  8  2  0  0  0
  7 26  1  0  0  0
  7 29  1  0  0  0
  8  9  1  0  0  0
  8 22  1  0  0  0
  9 10  1  0  0  0
  9 27  2  0  0  0
 10 11  2  0  0  0
 10 15  1  0  0  0
 11 12  1  0  0  0
 11 92  1  0  0  0
 12 13  2  0  0  0
 12 93  1  0  0  0
 13 14  1  0  0  0
 13 31  1  0  0  0
 14 15  2  0  0  0
 14 94  1  0  0  0
 15 95  1  0  0  0
 16 17  2  0  0  0
 16 21  1  0  0  0
 16 31  1  0  0  0
 17 18  1  0  0  0
 17 96  1  0  0  0
 18 19  2  0  0  0
 18 97  1  0  0  0
 19 20  1  0  0  0
 19 24  1  0  0  0
 20 21  2  0  0  0
 20 98  1  0  0  0
 21 23  1  0  0  0
 22 28  1  0  0  0
 22 32  2  0  0  0
 26 27  1  0  0  0
 28 99  1  0  0  0
 28100  1  0  0  0
 29101  1  0  0  0
 29102  1  0  0  0
 33 34  1  0  0  0
 33 66  1  0  0  0
 33 70  2  0  0  0
 34 36  1  0  0  0
 34 59  1  0  0  0
 34103  1  0  0  0
 35 44  2  0  0  0
 35 45  1  0  0  0
 35 68  1  0  0  0
 36 56  1  0  0  0
 36104  1  0  0  0
 37 39  1  0  0  0
 37 47  1  0  0  0
 37 66  1  0  0  0
 37105  1  0  0  0
 38 43  2  0  0  0
 38 46  1  0  0  0
 38 47  1  0  0  0
 39 64  1  0  0  0
 39 67  2  0  0  0
 40 52  1  0  0  0
 40 53  2  0  0  0
 40 58  1  0  0  0
 41106  1  0  0  0
 41107  1  0  0  0
 41108  1  0  0  0
 41 48  1  0  0  0
 42 43  1  0  0  0
 42 66  1  0  0  0
 42109  1  0  0  0
 42110  1  0  0  0
 43 44  1  0  0  0
 44111  1  0  0  0
 45 46  2  0  0  0
 45112  1  0  0  0
 46113  1  0  0  0
 47114  1  0  0  0
 47115  1  0  0  0
 48 56  1  0  0  0
 48 65  1  0  0  0
 48116  1  0  0  0
 49 50  1  0  0  0
 49 53  1  0  0  0
 49 64  1  0  0  0
 49117  1  0  0  0
 50 51  1  0  0  0
 50118  1  0  0  0
 50119  1  0  0  0
 51 52  1  0  0  0
 51120  1  0  0  0
 51121  1  0  0  0
 52122  1  0  0  0
 52123  1  0  0  0
 53 54  1  0  0  0
 54 55  2  0  0  0
 54124  1  0  0  0
 55 57  1  0  0  0
 55125  1  0  0  0
 56 69  2  0  0  0
 57 58  2  0  0  0
 57126  1  0  0  0
 58127  1  0  0  0
 59 60  1  0  0  0
 59 61  1  0  0  0
 59 62  1  0  0  0
 60128  1  0  0  0
 60129  1  0  0  0
 60130  1  0  0  0
 61131  1  0  0  0
 61132  1  0  0  0
 61133  1  0  0  0
 62134  1  0  0  0
 62135  1  0  0  0
 62136  1  0  0  0
 63 65  1  0  0  0
 63137  1  0  0  0
 63138  1  0  0  0
 63139  1  0  0  0
 64140  1  0  0  0
 65141  1  0  0  0
 68 80  1  0  0  0
 71 72  1  0  0  0
 71 73  2  0  0  0
 71142  1  0  0  0
 72 74  2  0  0  0
 72143  1  0  0  0
 73 82  1  0  0  0
 73 78  1  0  0  0
 74 81  1  0  0  0
 74 82  1  0  0  0
 75 76  1  0  0  0
 75 78  1  0  0  0
 75144  1  0  0  0
 75145  1  0  0  0
 76 79  1  0  0  0
 76146  1  0  0  0
 76147  1  0  0  0
 77 78  1  0  0  0
 77 79  1  0  0  0
 77148  1  0  0  0
 77149  1  0  0  0
 78150  1  0  0  0
 79 80  1  0  0  0
 79151  1  0  0  0
 80152  1  0  0  0
 80153  1  0  0  0
 81154  1  0  0  0
M  ISO  4   1 100  68 101  80 101  81 100
M  END
> <chiral flag>
0

> <version>
0

> <s_m_source_file>
/data/baiqing/PycharmProjects/Reinvent-master-3.2/result/LINK_invent/BTK/process_docking_weight1_custom_product_contain_oxygen_bond_distance_aromatic_linkinvent_7_9_3/rearranged_h_0140.sdf

> <i_m_source_file_index>
54

> <r_mmod_Potential_Energy-OPLS-2005>
191.710372924805

> <r_mmod_Stretch_Energy-OPLS-2005>
93.3689346313477

> <r_mmod_Bend_Energy-OPLS-2005>
192.894012451172

> <r_mmod_Torsional_Energy-OPLS-2005>
281.347961425781

> <r_mmod_Improper_Torsional_Energy-OPLS-2005>
5.92706203460693

> <r_mmod_Van_der_Waal_Energy-OPLS-2005>
106.976135253906

> <r_mmod_Electrostatic_Energy-OPLS-2005>
-366.571929931641

> <r_mmod_Solvation_Energy-OPLS-2005>
-197.049133300781

> <b_mmod_Minimization_Converged-OPLS-2005>
0

> <r_mmod_RMS_Derivative-OPLS-2005>
5.33656024932861

$$$$
54
                    3D
 Structure written by MMmdl.
158167  0  0  1  0            999 V2000
  -30.6351  -14.7836   20.4492 C   0  0  0  0  0  0
  -30.4243  -12.4816   19.4817 C   0  0  0  0  0  0
  -29.5073  -12.5059   18.2401 C   0  0  0  0  0  0
  -28.0376  -12.3209   18.6598 C   0  0  0  0  0  0
  -27.6361  -13.2386   19.8458 C   0  0  2  0  0  0
  -28.6823  -13.2112   20.9810 C   0  0  0  0  0  0
  -25.2500  -13.8211   20.5709 C   0  0  0  0  0  0
  -24.1800  -13.0447   20.9223 C   0  0  0  0  0  0
  -24.6398  -11.6926   20.8759 C   0  0  0  0  0  0
  -23.9072  -10.4297   21.0402 C   0  0  0  0  0  0
  -24.3621   -9.4213   21.9183 C   0  0  0  0  0  0
  -23.6290   -8.2252   22.0753 C   0  0  0  0  0  0
  -22.4276   -8.0290   21.3544 C   0  0  0  0  0  0
  -21.9913   -9.0260   20.4647 C   0  0  0  0  0  0
  -22.7240  -10.2135   20.3053 C   0  0  0  0  0  0
  -21.6849   -6.0737   22.5275 C   0  0  0  0  0  0
  -21.4015   -6.5642   23.8208 C   0  0  0  0  0  0
  -21.3657   -5.6794   24.9170 C   0  0  0  0  0  0
  -21.6036   -4.3055   24.7223 C   0  0  0  0  0  0
  -21.8819   -3.8149   23.4345 C   0  0  0  0  0  0
  -21.9193   -4.6964   22.3399 C   0  0  0  0  0  0
  -22.7815  -13.5225   21.1873 C   0  0  0  0  0  0
  -22.1661   -4.2146   21.0975 F   0  0  0  0  0  0
  -21.5621   -3.4543   25.7739 F   0  0  0  0  0  0
  -29.9731  -13.5707   20.3841 N   0  0  0  0  0  0
  -26.2919  -12.9426   20.3278 N   0  0  0  0  0  0
  -25.9330  -11.6564   20.5771 N   0  0  0  0  0  0
  -22.0466  -12.8218   22.0426 N   0  0  0  0  0  0
  -25.4197  -15.1935   20.4137 N   0  0  0  0  0  0
  -31.8328  -14.8016   20.1456 O   0  0  0  0  0  0
  -21.6642   -6.8887   21.4241 O   0  0  0  0  0  0
  -22.3490  -14.5524   20.6710 O   0  0  0  0  0  0
  -24.6369  -31.8534   23.2010 C   0  0  0  0  0  0
  -25.9183  -32.4743   23.8345 C   0  0  1  0  0  0
  -27.1957  -27.2079   20.1169 C   0  0  0  0  0  0
  -25.5968  -33.8544   24.2256 N   0  0  0  0  0  0
  -23.4340  -30.4840   21.5467 C   0  0  2  0  0  0
  -24.8775  -28.9408   20.1045 C   0  0  0  0  0  0
  -22.7528  -29.4603   22.4891 C   0  0  0  0  0  0
  -18.0301  -28.1386   22.8475 C   0  0  0  0  0  0
  -24.1497  -36.7287   23.2638 C   0  0  0  0  0  0
  -25.9900  -30.7441   21.3990 C   0  0  0  0  0  0
  -26.0528  -29.3674   20.7339 C   0  0  0  0  0  0
  -27.2092  -28.5097   20.7422 C   0  0  0  0  0  0
  -26.0161  -26.9156   19.3954 C   0  0  0  0  0  0
  -24.8689  -27.7227   19.4215 C   0  0  0  0  0  0
  -23.6544  -29.8344   20.1579 C   0  0  0  0  0  0
  -25.4121  -36.3057   24.0327 C   0  0  1  0  0  0
  -20.5911  -28.3712   23.1250 C   0  0  2  0  0  0
  -20.6808  -26.9432   22.5384 C   0  0  0  0  0  0
  -19.5768  -26.6382   21.5208 C   0  0  0  0  0  0
  -18.1950  -26.7923   22.1620 C   0  0  0  0  0  0
  -19.1557  -28.8864   23.2861 C   0  0  0  0  0  0
  -18.9469  -30.1462   23.8876 C   0  0  0  0  0  0
  -17.6462  -30.6582   24.0550 C   0  0  0  0  0  0
  -25.9071  -34.9427   23.5089 C   0  0  0  0  0  0
  -16.5357  -29.9082   23.6310 C   0  0  0  0  0  0
  -16.7288  -28.6500   23.0323 C   0  0  0  0  0  0
  -26.4521  -31.6580   25.0754 C   0  0  0  0  0  0
  -25.3725  -31.3762   26.1465 C   0  0  0  0  0  0
  -27.0361  -30.2967   24.6307 C   0  0  0  0  0  0
  -27.6050  -32.4353   25.7528 C   0  0  0  0  0  0
  -27.5582  -37.1805   24.8461 C   0  0  0  0  0  0
  -21.4224  -29.3075   22.3635 N   0  0  0  0  0  0
  -26.4287  -37.3771   23.9410 N   0  0  0  0  0  0
  -24.7062  -31.0462   22.1027 N   0  0  0  0  0  0
  -23.4209  -28.8109   23.2978 O   0  0  0  0  0  0
  -28.2422  -26.2323   20.2293 O   0  0  0  0  0  0
  -26.5634  -34.8902   22.4655 O   0  0  0  0  0  0
  -23.5504  -32.1392   23.7257 O   0  0  0  0  0  0
  -28.5666  -19.2205   22.0426 C   0  0  0  0  0  0
  -28.6182  -20.5814   21.5896 C   0  0  0  0  0  0
  -29.7962  -19.8443   19.6102 C   0  0  0  0  0  0
  -29.1354  -18.1708   21.2757 C   0  0  0  0  0  0
  -29.7547  -18.4793   20.0883 C   0  0  0  0  0  0
  -29.2227  -20.9516   20.3516 C   0  0  0  0  0  0
  -29.1820  -16.6439   21.5360 C   0  0  0  0  0  0
  -30.2991  -17.1517   19.5037 C   0  0  0  0  0  0
  -26.7129  -24.1778   20.5154 C   0  0  0  0  0  0
  -28.1683  -24.5929   18.4109 C   0  0  0  0  0  0
  -29.0944  -23.5976   20.5268 C   0  0  0  0  0  0
  -28.0543  -24.7247   19.9453 C   0  0  0  0  0  0
  -29.9164  -15.9898   20.4036 N   0  0  0  0  0  0
  -29.2176  -22.2789   19.8051 O   0  0  0  0  0  0
  -31.4652  -12.5906   19.1756 H   0  0  0  0  0  0
  -30.3687  -11.5156   19.9866 H   0  0  0  0  0  0
  -29.7991  -11.7234   17.5392 H   0  0  0  0  0  0
  -29.6243  -13.4527   17.7108 H   0  0  0  0  0  0
  -27.9129  -11.2762   18.9476 H   0  0  0  0  0  0
  -27.3737  -12.4831   17.8100 H   0  0  0  0  0  0
  -27.6195  -14.2523   19.4453 H   0  0  0  0  0  0
  -28.7319  -12.2238   21.4428 H   0  0  0  0  0  0
  -28.4129  -13.9072   21.7755 H   0  0  0  0  0  0
  -25.2762   -9.5685   22.4760 H   0  0  0  0  0  0
  -23.9989   -7.4647   22.7481 H   0  0  0  0  0  0
  -21.0835   -8.8784   19.8959 H   0  0  0  0  0  0
  -22.3695  -10.9678   19.6170 H   0  0  0  0  0  0
  -21.2016   -7.6153   23.9705 H   0  0  0  0  0  0
  -21.1471   -6.0532   25.9069 H   0  0  0  0  0  0
  -22.0601   -2.7613   23.2847 H   0  0  0  0  0  0
  -22.4083  -11.9882   22.4818 H   0  0  0  0  0  0
  -21.1079  -13.1231   22.2635 H   0  0  0  0  0  0
  -24.6547  -15.8493   20.5305 H   0  0  0  0  0  0
  -26.2716  -15.6333   20.0886 H   0  0  0  0  0  0
  -26.7242  -32.5361   23.1068 H   0  0  0  0  0  0
  -25.0092  -33.9685   25.0378 H   0  0  0  0  0  0
  -22.7321  -31.3082   21.4057 H   0  0  0  0  0  0
  -23.3751  -35.9629   23.3284 H   0  0  0  0  0  0
  -24.3581  -36.8925   22.2054 H   0  0  0  0  0  0
  -23.7249  -37.6488   23.6666 H   0  0  0  0  0  0
  -26.1447  -31.5047   20.6323 H   0  0  0  0  0  0
  -26.8610  -30.7812   22.0414 H   0  0  0  0  0  0
  -28.0929  -28.8219   21.2816 H   0  0  0  0  0  0
  -25.9205  -26.0358   18.7882 H   0  0  0  0  0  0
  -23.9866  -27.4059   18.8818 H   0  0  0  0  0  0
  -23.7899  -30.6194   19.4136 H   0  0  0  0  0  0
  -22.7694  -29.2813   19.8412 H   0  0  0  0  0  0
  -25.1293  -36.1906   25.0823 H   0  0  0  0  0  0
  -21.0001  -28.3268   24.1372 H   0  0  0  0  0  0
  -20.5750  -26.2325   23.3584 H   0  0  0  0  0  0
  -21.6673  -26.7474   22.1158 H   0  0  0  0  0  0
  -19.6923  -25.6293   21.1235 H   0  0  0  0  0  0
  -19.6679  -27.3194   20.6726 H   0  0  0  0  0  0
  -17.4234  -26.6700   21.3996 H   0  0  0  0  0  0
  -18.0311  -26.0050   22.8995 H   0  0  0  0  0  0
  -19.7942  -30.7285   24.2245 H   0  0  0  0  0  0
  -17.4998  -31.6264   24.5154 H   0  0  0  0  0  0
  -15.5349  -30.2974   23.7597 H   0  0  0  0  0  0
  -15.8685  -28.0832   22.7011 H   0  0  0  0  0  0
  -24.5903  -30.7103   25.7802 H   0  0  0  0  0  0
  -24.8925  -32.2952   26.4845 H   0  0  0  0  0  0
  -25.8038  -30.8972   27.0266 H   0  0  0  0  0  0
  -26.2967  -29.6714   24.1296 H   0  0  0  0  0  0
  -27.3939  -29.7242   25.4873 H   0  0  0  0  0  0
  -27.8896  -30.4181   23.9636 H   0  0  0  0  0  0
  -27.2611  -33.3661   26.2060 H   0  0  0  0  0  0
  -28.3872  -32.6916   25.0365 H   0  0  0  0  0  0
  -28.0698  -31.8514   26.5487 H   0  0  0  0  0  0
  -28.2591  -38.0111   24.7497 H   0  0  0  0  0  0
  -28.1085  -36.2635   24.6286 H   0  0  0  0  0  0
  -27.2296  -37.1449   25.8865 H   0  0  0  0  0  0
  -20.9400  -29.8857   21.6888 H   0  0  0  0  0  0
  -26.0157  -38.2847   24.1400 H   0  0  0  0  0  0
  -28.0748  -18.9896   22.9765 H   0  0  0  0  0  0
  -28.1474  -21.3398   22.1989 H   0  0  0  0  0  0
  -30.2693  -20.0494   18.6598 H   0  0  0  0  0  0
  -28.1649  -16.2536   21.5934 H   0  0  0  0  0  0
  -29.6751  -16.4415   22.4874 H   0  0  0  0  0  0
  -31.3824  -17.2299   19.4011 H   0  0  0  0  0  0
  -29.8881  -16.9887   18.5069 H   0  0  0  0  0  0
  -26.6998  -23.0869   20.4922 H   0  0  0  0  0  0
  -25.8071  -24.4454   19.9859 H   0  0  0  0  0  0
  -26.5896  -24.4710   21.5573 H   0  0  0  0  0  0
  -27.5966  -25.3244   17.8477 H   0  0  0  0  0  0
  -27.8579  -23.6053   18.0690 H   0  0  0  0  0  0
  -29.2038  -24.7310   18.1018 H   0  0  0  0  0  0
  -28.9204  -23.4290   21.5902 H   0  0  0  0  0  0
  -30.0935  -24.0317   20.4816 H   0  0  0  0  0  0
  1 25  1  0  0  0
  1 30  2  0  0  0
  1 83  1  0  0  0
  2  3  1  0  0  0
  2 25  1  0  0  0
  2 85  1  0  0  0
  2 86  1  0  0  0
  3  4  1  0  0  0
  3 87  1  0  0  0
  3 88  1  0  0  0
  4  5  1  0  0  0
  4 89  1  0  0  0
  4 90  1  0  0  0
  5  6  1  0  0  0
  5 26  1  0  0  0
  5 91  1  0  0  0
  6 25  1  0  0  0
  6 92  1  0  0  0
  6 93  1  0  0  0
  7  8  2  0  0  0
  7 26  1  0  0  0
  7 29  1  0  0  0
  8  9  1  0  0  0
  8 22  1  0  0  0
  9 10  1  0  0  0
  9 27  2  0  0  0
 10 11  2  0  0  0
 10 15  1  0  0  0
 11 12  1  0  0  0
 11 94  1  0  0  0
 12 13  2  0  0  0
 12 95  1  0  0  0
 13 14  1  0  0  0
 13 31  1  0  0  0
 14 15  2  0  0  0
 14 96  1  0  0  0
 15 97  1  0  0  0
 16 17  2  0  0  0
 16 21  1  0  0  0
 16 31  1  0  0  0
 17 18  1  0  0  0
 17 98  1  0  0  0
 18 19  2  0  0  0
 18 99  1  0  0  0
 19 20  1  0  0  0
 19 24  1  0  0  0
 20 21  2  0  0  0
 20100  1  0  0  0
 21 23  1  0  0  0
 22 28  1  0  0  0
 22 32  2  0  0  0
 26 27  1  0  0  0
 28101  1  0  0  0
 28102  1  0  0  0
 29103  1  0  0  0
 29104  1  0  0  0
 33 34  1  0  0  0
 33 66  1  0  0  0
 33 70  2  0  0  0
 34 36  1  0  0  0
 34 59  1  0  0  0
 34105  1  0  0  0
 35 44  2  0  0  0
 35 45  1  0  0  0
 35 68  1  0  0  0
 36 56  1  0  0  0
 36106  1  0  0  0
 37 39  1  0  0  0
 37 47  1  0  0  0
 37 66  1  0  0  0
 37107  1  0  0  0
 38 43  2  0  0  0
 38 46  1  0  0  0
 38 47  1  0  0  0
 39 64  1  0  0  0
 39 67  2  0  0  0
 40 52  1  0  0  0
 40 53  2  0  0  0
 40 58  1  0  0  0
 41108  1  0  0  0
 41109  1  0  0  0
 41110  1  0  0  0
 41 48  1  0  0  0
 42 43  1  0  0  0
 42 66  1  0  0  0
 42111  1  0  0  0
 42112  1  0  0  0
 43 44  1  0  0  0
 44113  1  0  0  0
 45 46  2  0  0  0
 45114  1  0  0  0
 46115  1  0  0  0
 47116  1  0  0  0
 47117  1  0  0  0
 48 56  1  0  0  0
 48 65  1  0  0  0
 48118  1  0  0  0
 49 50  1  0  0  0
 49 53  1  0  0  0
 49 64  1  0  0  0
 49119  1  0  0  0
 50 51  1  0  0  0
 50120  1  0  0  0
 50121  1  0  0  0
 51 52  1  0  0  0
 51122  1  0  0  0
 51123  1  0  0  0
 52124  1  0  0  0
 52125  1  0  0  0
 53 54  1  0  0  0
 54 55  2  0  0  0
 54126  1  0  0  0
 55 57  1  0  0  0
 55127  1  0  0  0
 56 69  2  0  0  0
 57 58  2  0  0  0
 57128  1  0  0  0
 58129  1  0  0  0
 59 60  1  0  0  0
 59 61  1  0  0  0
 59 62  1  0  0  0
 60130  1  0  0  0
 60131  1  0  0  0
 60132  1  0  0  0
 61133  1  0  0  0
 61134  1  0  0  0
 61135  1  0  0  0
 62136  1  0  0  0
 62137  1  0  0  0
 62138  1  0  0  0
 63 65  1  0  0  0
 63139  1  0  0  0
 63140  1  0  0  0
 63141  1  0  0  0
 64142  1  0  0  0
 65143  1  0  0  0
 68 82  1  0  0  0
 71 72  2  0  0  0
 71 74  1  0  0  0
 71144  1  0  0  0
 72 76  1  0  0  0
 72145  1  0  0  0
 73 75  1  0  0  0
 73 76  2  0  0  0
 73146  1  0  0  0
 74 75  2  0  0  0
 74 77  1  0  0  0
 75 78  1  0  0  0
 76 84  1  0  0  0
 77 83  1  0  0  0
 77147  1  0  0  0
 77148  1  0  0  0
 78 83  1  0  0  0
 78149  1  0  0  0
 78150  1  0  0  0
 79151  1  0  0  0
 79152  1  0  0  0
 79153  1  0  0  0
 79 82  1  0  0  0
 80 82  1  0  0  0
 80154  1  0  0  0
 80155  1  0  0  0
 80156  1  0  0  0
 81 82  1  0  0  0
 81 84  1  0  0  0
 81157  1  0  0  0
 81158  1  0  0  0
M  ISO  4   1 100  68 101  82 101  83 100
M  END
> <chiral flag>
0

> <version>
0

> <s_m_source_file>
/data/baiqing/PycharmProjects/Reinvent-master-3.2/result/LINK_invent/BTK/process_docking_weight1_custom_product_contain_oxygen_bond_distance_aromatic_linkinvent_7_9_3/rearranged_h_0140.sdf

> <i_m_source_file_index>
55

> <r_mmod_Potential_Energy-OPLS-2005>
406.407775878906

> <r_mmod_Stretch_Energy-OPLS-2005>
153.261276245117

> <r_mmod_Bend_Energy-OPLS-2005>
256.181762695312

> <r_mmod_Torsional_Energy-OPLS-2005>
261.705993652344

> <r_mmod_Improper_Torsional_Energy-OPLS-2005>
15.9197177886963

> <r_mmod_Van_der_Waal_Energy-OPLS-2005>
144.24284362793

> <r_mmod_Electrostatic_Energy-OPLS-2005>
-346.610198974609

> <r_mmod_Solvation_Energy-OPLS-2005>
-198.389404296875

> <b_mmod_Minimization_Converged-OPLS-2005>
0

> <r_mmod_RMS_Derivative-OPLS-2005>
1.9904420375824

$$$$
55
                    3D
 Structure written by MMmdl.
172180  0  0  1  0            999 V2000
  -30.6726  -14.5391   20.4876 C   0  0  0  0  0  0
  -30.4171  -12.3214   19.4478 C   0  0  0  0  0  0
  -29.5006  -12.4970   18.2186 C   0  0  0  0  0  0
  -28.0183  -12.3639   18.6232 C   0  0  0  0  0  0
  -27.6547  -13.2179   19.8675 C   0  0  2  0  0  0
  -28.6991  -13.0488   20.9964 C   0  0  0  0  0  0
  -25.2567  -13.8179   20.5648 C   0  0  0  0  0  0
  -24.1844  -13.0429   20.9124 C   0  0  0  0  0  0
  -24.6415  -11.6901   20.8702 C   0  0  0  0  0  0
  -23.9095  -10.4269   21.0373 C   0  0  0  0  0  0
  -24.3646   -9.4181   21.9147 C   0  0  0  0  0  0
  -23.6315   -8.2230   22.0743 C   0  0  0  0  0  0
  -22.4289   -8.0253   21.3550 C   0  0  0  0  0  0
  -21.9927   -9.0233   20.4665 C   0  0  0  0  0  0
  -22.7263  -10.2094   20.3040 C   0  0  0  0  0  0
  -21.6850   -6.0712   22.5261 C   0  0  0  0  0  0
  -21.4016   -6.5628   23.8179 C   0  0  0  0  0  0
  -21.3677   -5.6791   24.9154 C   0  0  0  0  0  0
  -21.6065   -4.3052   24.7214 C   0  0  0  0  0  0
  -21.8833   -3.8124   23.4343 C   0  0  0  0  0  0
  -21.9192   -4.6942   22.3390 C   0  0  0  0  0  0
  -22.7865  -13.5187   21.1791 C   0  0  0  0  0  0
  -22.1655   -4.2119   21.0961 F   0  0  0  0  0  0
  -21.5658   -3.4535   25.7730 F   0  0  0  0  0  0
  -30.0263  -13.3397   20.4370 N   0  0  0  0  0  0
  -26.2996  -12.9366   20.3329 N   0  0  0  0  0  0
  -25.9343  -11.6516   20.5770 N   0  0  0  0  0  0
  -22.0560  -12.8177   22.0389 N   0  0  0  0  0  0
  -25.4303  -15.1911   20.4062 N   0  0  0  0  0  0
  -31.8495  -14.6594   20.1420 O   0  0  0  0  0  0
  -21.6667   -6.8852   21.4221 O   0  0  0  0  0  0
  -22.3512  -14.5451   20.6586 O   0  0  0  0  0  0
  -24.6170  -31.8624   23.2043 C   0  0  0  0  0  0
  -25.9048  -32.4784   23.8338 C   0  0  1  0  0  0
  -27.2391  -27.3908   20.1185 C   0  0  0  0  0  0
  -25.5887  -33.8583   24.2272 N   0  0  0  0  0  0
  -23.4074  -30.4828   21.5448 C   0  0  2  0  0  0
  -24.8564  -28.9445   20.1081 C   0  0  0  0  0  0
  -22.7432  -29.4617   22.4967 C   0  0  0  0  0  0
  -18.0265  -28.1377   22.8499 C   0  0  0  0  0  0
  -24.1504  -36.7326   23.2647 C   0  0  0  0  0  0
  -25.9391  -30.8138   21.3668 C   0  0  0  0  0  0
  -26.0133  -29.4446   20.7180 C   0  0  0  0  0  0
  -27.1996  -28.6722   20.7258 C   0  0  0  0  0  0
  -26.0695  -26.9305   19.4708 C   0  0  0  0  0  0
  -24.8818  -27.6882   19.4791 C   0  0  0  0  0  0
  -23.6193  -29.8147   20.1584 C   0  0  0  0  0  0
  -25.4120  -36.3091   24.0330 C   0  0  1  0  0  0
  -20.5861  -28.3662   23.1326 C   0  0  2  0  0  0
  -20.6786  -26.9402   22.5446 C   0  0  0  0  0  0
  -19.5762  -26.6383   21.5247 C   0  0  0  0  0  0
  -18.1915  -26.7921   22.1629 C   0  0  0  0  0  0
  -19.1516  -28.8835   23.2900 C   0  0  0  0  0  0
  -18.9460  -30.1450   23.8894 C   0  0  0  0  0  0
  -17.6460  -30.6583   24.0574 C   0  0  0  0  0  0
  -25.9043  -34.9457   23.5106 C   0  0  0  0  0  0
  -16.5342  -29.9096   23.6326 C   0  0  0  0  0  0
  -16.7254  -28.6518   23.0328 C   0  0  0  0  0  0
  -26.4462  -31.6568   25.0683 C   0  0  0  0  0  0
  -25.3731  -31.3699   26.1441 C   0  0  0  0  0  0
  -27.0281  -30.2990   24.6089 C   0  0  0  0  0  0
  -27.6029  -32.4287   25.7442 C   0  0  0  0  0  0
  -27.5577  -37.1815   24.8457 C   0  0  0  0  0  0
  -21.4153  -29.3004   22.3717 N   0  0  0  0  0  0
  -26.4288  -37.3790   23.9408 N   0  0  0  0  0  0
  -24.6717  -31.0711   22.0953 N   0  0  0  0  0  0
  -23.4197  -28.8159   23.3011 O   0  0  0  0  0  0
  -28.4085  -26.6454   20.2116 O   0  0  0  0  0  0
  -26.5635  -34.8918   22.4686 O   0  0  0  0  0  0
  -23.5355  -32.1368   23.7420 O   0  0  0  0  0  0
  -29.4744  -19.4587   20.3545 C   0  0  0  0  0  0
  -30.6311  -20.5803   22.1374 C   0  0  0  0  0  0
  -30.8900  -18.2775   21.9063 C   0  0  0  0  0  0
  -29.7755  -20.6764   21.0193 C   0  0  0  0  0  0
  -30.0636  -18.2335   20.7705 C   0  0  0  0  0  0
  -27.8168  -24.1991   20.5984 C   0  0  0  0  0  0
  -30.6703  -18.1835   17.7399 C   0  0  0  0  0  0
  -26.8950  -23.1403   23.4625 C   0  0  0  0  0  0
  -31.0763  -24.1171   21.7986 C   0  0  0  0  0  0
  -29.2658  -22.0364   20.4549 C   0  0  0  0  0  0
  -28.5200  -25.2798   19.7211 C   0  0  0  0  0  0
  -30.7736  -16.9515   18.6581 C   0  0  0  0  0  0
  -27.6167  -22.3384   22.3531 C   0  0  0  0  0  0
  -29.6723  -23.8040   22.3558 C   0  0  0  0  0  0
  -29.8784  -16.9418   19.9332 C   0  0  2  0  0  0
  -28.6198  -23.1120   21.4243 C   0  0  0  0  0  0
  -31.1578  -19.4160   22.5808 N   0  0  0  0  0  0
  -29.8641  -15.6221   20.6473 N   0  0  0  0  0  0
  -26.5840  -24.1438   20.5632 O   0  0  0  0  0  0
  -31.4659  -12.3983   19.1543 H   0  0  0  0  0  0
  -30.2936  -11.3228   19.8669 H   0  0  0  0  0  0
  -29.7481  -11.7591   17.4535 H   0  0  0  0  0  0
  -29.6725  -13.4772   17.7709 H   0  0  0  0  0  0
  -27.8264  -11.3114   18.8274 H   0  0  0  0  0  0
  -27.3740  -12.6326   17.7855 H   0  0  0  0  0  0
  -27.6792  -14.2577   19.5399 H   0  0  0  0  0  0
  -28.6797  -12.0302   21.3857 H   0  0  0  0  0  0
  -28.4698  -13.6981   21.8424 H   0  0  0  0  0  0
  -25.2804   -9.5640   22.4701 H   0  0  0  0  0  0
  -24.0024   -7.4627   22.7474 H   0  0  0  0  0  0
  -21.0851   -8.8758   19.8988 H   0  0  0  0  0  0
  -22.3726  -10.9627   19.6147 H   0  0  0  0  0  0
  -21.1996   -7.6129   23.9661 H   0  0  0  0  0  0
  -21.1507   -6.0528   25.9054 H   0  0  0  0  0  0
  -22.0600   -2.7584   23.2847 H   0  0  0  0  0  0
  -22.4237  -11.9877   22.4809 H   0  0  0  0  0  0
  -21.1170  -13.1160   22.2602 H   0  0  0  0  0  0
  -24.6714  -15.8519   20.5298 H   0  0  0  0  0  0
  -26.2872  -15.6285   20.0907 H   0  0  0  0  0  0
  -26.7116  -32.5478   23.1091 H   0  0  0  0  0  0
  -25.0009  -33.9723   25.0395 H   0  0  0  0  0  0
  -22.6981  -31.3011   21.4035 H   0  0  0  0  0  0
  -23.3736  -35.9689   23.3309 H   0  0  0  0  0  0
  -24.3609  -36.8946   22.2062 H   0  0  0  0  0  0
  -23.7263  -37.6542   23.6655 H   0  0  0  0  0  0
  -26.0663  -31.5725   20.5924 H   0  0  0  0  0  0
  -26.8239  -30.8648   21.9896 H   0  0  0  0  0  0
  -28.0847  -29.0455   21.2197 H   0  0  0  0  0  0
  -26.0464  -25.9765   18.9670 H   0  0  0  0  0  0
  -23.9980  -27.2942   18.9967 H   0  0  0  0  0  0
  -23.7361  -30.5911   19.4019 H   0  0  0  0  0  0
  -22.7422  -29.2401   19.8536 H   0  0  0  0  0  0
  -25.1294  -36.1974   25.0819 H   0  0  0  0  0  0
  -20.9932  -28.3242   24.1454 H   0  0  0  0  0  0
  -20.5751  -26.2248   23.3621 H   0  0  0  0  0  0
  -21.6642  -26.7483   22.1189 H   0  0  0  0  0  0
  -19.6937  -25.6311   21.1232 H   0  0  0  0  0  0
  -19.6700  -27.3238   20.6811 H   0  0  0  0  0  0
  -17.4202  -26.6663   21.4010 H   0  0  0  0  0  0
  -18.0300  -26.0063   22.9023 H   0  0  0  0  0  0
  -19.7939  -30.7277   24.2226 H   0  0  0  0  0  0
  -17.5013  -31.6258   24.5209 H   0  0  0  0  0  0
  -15.5343  -30.3010   23.7652 H   0  0  0  0  0  0
  -15.8643  -28.0866   22.7003 H   0  0  0  0  0  0
  -24.5875  -30.7073   25.7802 H   0  0  0  0  0  0
  -24.8954  -32.2865   26.4906 H   0  0  0  0  0  0
  -25.8072  -30.8850   27.0193 H   0  0  0  0  0  0
  -26.2811  -29.6758   24.1143 H   0  0  0  0  0  0
  -27.4037  -29.7228   25.4564 H   0  0  0  0  0  0
  -27.8672  -30.4295   23.9244 H   0  0  0  0  0  0
  -27.2631  -33.3591   26.2006 H   0  0  0  0  0  0
  -28.3821  -32.6827   25.0245 H   0  0  0  0  0  0
  -28.0696  -31.8409   26.5359 H   0  0  0  0  0  0
  -28.2596  -38.0119   24.7497 H   0  0  0  0  0  0
  -28.1055  -36.2631   24.6261 H   0  0  0  0  0  0
  -27.2292  -37.1465   25.8865 H   0  0  0  0  0  0
  -20.9313  -29.8713   21.6937 H   0  0  0  0  0  0
  -26.0177  -38.2877   24.1389 H   0  0  0  0  0  0
  -28.8440  -19.4743   19.4781 H   0  0  0  0  0  0
  -30.9339  -21.4471   22.6989 H   0  0  0  0  0  0
  -31.3705  -17.3801   22.2696 H   0  0  0  0  0  0
  -29.6402  -18.3671   17.4357 H   0  0  0  0  0  0
  -31.2540  -18.0306   16.8318 H   0  0  0  0  0  0
  -31.0570  -19.0847   18.2161 H   0  0  0  0  0  0
  -26.2017  -22.4940   24.0039 H   0  0  0  0  0  0
  -26.3091  -23.9717   23.0744 H   0  0  0  0  0  0
  -27.5948  -23.5439   24.1916 H   0  0  0  0  0  0
  -31.7113  -24.4978   22.5981 H   0  0  0  0  0  0
  -31.0721  -24.8797   21.0254 H   0  0  0  0  0  0
  -31.5805  -23.2369   21.3990 H   0  0  0  0  0  0
  -28.5239  -21.7883   19.6942 H   0  0  0  0  0  0
  -30.0737  -22.4874   19.8804 H   0  0  0  0  0  0
  -28.1209  -25.2272   18.7091 H   0  0  0  0  0  0
  -29.5722  -25.0291   19.6191 H   0  0  0  0  0  0
  -31.8196  -16.8584   18.9482 H   0  0  0  0  0  0
  -30.5342  -16.0768   18.0514 H   0  0  0  0  0  0
  -26.8604  -21.8505   21.7363 H   0  0  0  0  0  0
  -28.1240  -21.5160   22.8524 H   0  0  0  0  0  0
  -29.2522  -24.7391   22.7332 H   0  0  0  0  0  0
  -29.8140  -23.1990   23.2520 H   0  0  0  0  0  0
  -28.8545  -17.0188   19.5623 H   0  0  0  0  0  0
  -28.9617  -15.3759   21.0263 H   0  0  0  0  0  0
  1 25  1  0  0  0
  1 30  2  0  0  0
  1 88  1  0  0  0
  2  3  1  0  0  0
  2 25  1  0  0  0
  2 90  1  0  0  0
  2 91  1  0  0  0
  3  4  1  0  0  0
  3 92  1  0  0  0
  3 93  1  0  0  0
  4  5  1  0  0  0
  4 94  1  0  0  0
  4 95  1  0  0  0
  5  6  1  0  0  0
  5 26  1  0  0  0
  5 96  1  0  0  0
  6 25  1  0  0  0
  6 97  1  0  0  0
  6 98  1  0  0  0
  7  8  2  0  0  0
  7 26  1  0  0  0
  7 29  1  0  0  0
  8  9  1  0  0  0
  8 22  1  0  0  0
  9 10  1  0  0  0
  9 27  2  0  0  0
 10 11  2  0  0  0
 10 15  1  0  0  0
 11 12  1  0  0  0
 11 99  1  0  0  0
 12 13  2  0  0  0
 12100  1  0  0  0
 13 14  1  0  0  0
 13 31  1  0  0  0
 14 15  2  0  0  0
 14101  1  0  0  0
 15102  1  0  0  0
 16 17  2  0  0  0
 16 21  1  0  0  0
 16 31  1  0  0  0
 17 18  1  0  0  0
 17103  1  0  0  0
 18 19  2  0  0  0
 18104  1  0  0  0
 19 20  1  0  0  0
 19 24  1  0  0  0
 20 21  2  0  0  0
 20105  1  0  0  0
 21 23  1  0  0  0
 22 28  1  0  0  0
 22 32  2  0  0  0
 26 27  1  0  0  0
 28106  1  0  0  0
 28107  1  0  0  0
 29108  1  0  0  0
 29109  1  0  0  0
 33 34  1  0  0  0
 33 66  1  0  0  0
 33 70  2  0  0  0
 34 36  1  0  0  0
 34 59  1  0  0  0
 34110  1  0  0  0
 35 44  2  0  0  0
 35 45  1  0  0  0
 35 68  1  0  0  0
 36 56  1  0  0  0
 36111  1  0  0  0
 37 39  1  0  0  0
 37 47  1  0  0  0
 37 66  1  0  0  0
 37112  1  0  0  0
 38 43  2  0  0  0
 38 46  1  0  0  0
 38 47  1  0  0  0
 39 64  1  0  0  0
 39 67  2  0  0  0
 40 52  1  0  0  0
 40 53  2  0  0  0
 40 58  1  0  0  0
 41113  1  0  0  0
 41114  1  0  0  0
 41115  1  0  0  0
 41 48  1  0  0  0
 42 43  1  0  0  0
 42 66  1  0  0  0
 42116  1  0  0  0
 42117  1  0  0  0
 43 44  1  0  0  0
 44118  1  0  0  0
 45 46  2  0  0  0
 45119  1  0  0  0
 46120  1  0  0  0
 47121  1  0  0  0
 47122  1  0  0  0
 48 56  1  0  0  0
 48 65  1  0  0  0
 48123  1  0  0  0
 49 50  1  0  0  0
 49 53  1  0  0  0
 49 64  1  0  0  0
 49124  1  0  0  0
 50 51  1  0  0  0
 50125  1  0  0  0
 50126  1  0  0  0
 51 52  1  0  0  0
 51127  1  0  0  0
 51128  1  0  0  0
 52129  1  0  0  0
 52130  1  0  0  0
 53 54  1  0  0  0
 54 55  2  0  0  0
 54131  1  0  0  0
 55 57  1  0  0  0
 55132  1  0  0  0
 56 69  2  0  0  0
 57 58  2  0  0  0
 57133  1  0  0  0
 58134  1  0  0  0
 59 60  1  0  0  0
 59 61  1  0  0  0
 59 62  1  0  0  0
 60135  1  0  0  0
 60136  1  0  0  0
 60137  1  0  0  0
 61138  1  0  0  0
 61139  1  0  0  0
 61140  1  0  0  0
 62141  1  0  0  0
 62142  1  0  0  0
 62143  1  0  0  0
 63 65  1  0  0  0
 63144  1  0  0  0
 63145  1  0  0  0
 63146  1  0  0  0
 64147  1  0  0  0
 65148  1  0  0  0
 68 81  1  0  0  0
 71 74  2  0  0  0
 71 75  1  0  0  0
 71149  1  0  0  0
 72 74  1  0  0  0
 72 87  2  0  0  0
 72150  1  0  0  0
 73 75  2  0  0  0
 73 87  1  0  0  0
 73151  1  0  0  0
 74 80  1  0  0  0
 75 85  1  0  0  0
 76 81  1  0  0  0
 76 86  1  0  0  0
 76 89  2  0  0  0
 77 82  1  0  0  0
 77152  1  0  0  0
 77153  1  0  0  0
 77154  1  0  0  0
 78 83  1  0  0  0
 78155  1  0  0  0
 78156  1  0  0  0
 78157  1  0  0  0
 79 84  1  0  0  0
 79158  1  0  0  0
 79159  1  0  0  0
 79160  1  0  0  0
 80161  1  0  0  0
 80162  1  0  0  0
 80 86  1  0  0  0
 81163  1  0  0  0
 81164  1  0  0  0
 82165  1  0  0  0
 82166  1  0  0  0
 82 85  1  0  0  0
 83 86  1  0  0  0
 83167  1  0  0  0
 83168  1  0  0  0
 84 86  1  0  0  0
 84169  1  0  0  0
 84170  1  0  0  0
 85 88  1  0  0  0
 85171  1  0  0  0
 88172  1  0  0  0
M  ISO  4   1 100  68 101  81 101  88 100
M  END
> <chiral flag>
0

> <version>
0

> <s_m_source_file>
/data/baiqing/PycharmProjects/Reinvent-master-3.2/result/LINK_invent/BTK/process_docking_weight1_custom_product_contain_oxygen_bond_distance_aromatic_linkinvent_7_9_3/rearranged_h_0140.sdf

> <i_m_source_file_index>
56

> <r_mmod_Potential_Energy-OPLS-2005>
4.92280149459839

> <r_mmod_Stretch_Energy-OPLS-2005>
62.914909362793

> <r_mmod_Bend_Energy-OPLS-2005>
149.751541137695

> <r_mmod_Torsional_Energy-OPLS-2005>
231.568008422852

> <r_mmod_Improper_Torsional_Energy-OPLS-2005>
10.0989847183228

> <r_mmod_Van_der_Waal_Energy-OPLS-2005>
163.642883300781

> <r_mmod_Electrostatic_Energy-OPLS-2005>
-412.668487548828

> <r_mmod_Solvation_Energy-OPLS-2005>
-226.894973754883

> <b_mmod_Minimization_Converged-OPLS-2005>
0

> <r_mmod_RMS_Derivative-OPLS-2005>
3.78720307350159

$$$$
56
                    3D
 Structure written by MMmdl.
171179  0  0  1  0            999 V2000
  -30.6789  -14.4813   20.6409 C   0  0  0  0  0  0
  -30.4372  -12.3341   19.4244 C   0  0  0  0  0  0
  -29.5058  -12.5101   18.2064 C   0  0  0  0  0  0
  -28.0270  -12.3506   18.6180 C   0  0  0  0  0  0
  -27.6605  -13.1962   19.8673 C   0  0  2  0  0  0
  -28.6953  -12.9704   20.9919 C   0  0  0  0  0  0
  -25.2583  -13.8147   20.5641 C   0  0  0  0  0  0
  -24.1828  -13.0448   20.9187 C   0  0  0  0  0  0
  -24.6361  -11.6917   20.8726 C   0  0  0  0  0  0
  -23.9032  -10.4302   21.0412 C   0  0  0  0  0  0
  -24.3604   -9.4223   21.9173 C   0  0  0  0  0  0
  -23.6285   -8.2259   22.0754 C   0  0  0  0  0  0
  -22.4246   -8.0300   21.3571 C   0  0  0  0  0  0
  -21.9874   -9.0267   20.4655 C   0  0  0  0  0  0
  -22.7211  -10.2135   20.3044 C   0  0  0  0  0  0
  -21.6840   -6.0747   22.5287 C   0  0  0  0  0  0
  -21.4011   -6.5648   23.8229 C   0  0  0  0  0  0
  -21.3653   -5.6787   24.9199 C   0  0  0  0  0  0
  -21.6032   -4.3048   24.7237 C   0  0  0  0  0  0
  -21.8808   -3.8161   23.4354 C   0  0  0  0  0  0
  -21.9187   -4.6981   22.3422 C   0  0  0  0  0  0
  -22.7849  -13.5268   21.1858 C   0  0  0  0  0  0
  -22.1658   -4.2175   21.1000 F   0  0  0  0  0  0
  -21.5637   -3.4521   25.7754 F   0  0  0  0  0  0
  -30.0242  -13.3036   20.4485 N   0  0  0  0  0  0
  -26.2992  -12.9284   20.3271 N   0  0  0  0  0  0
  -25.9262  -11.6467   20.5674 N   0  0  0  0  0  0
  -22.0482  -12.8278   22.0403 N   0  0  0  0  0  0
  -25.4333  -15.1869   20.4077 N   0  0  0  0  0  0
  -31.7991  -14.7081   20.1655 O   0  0  0  0  0  0
  -21.6622   -6.8893   21.4255 O   0  0  0  0  0  0
  -22.3568  -14.5591   20.6735 O   0  0  0  0  0  0
  -24.6147  -31.8684   23.2099 C   0  0  0  0  0  0
  -25.9031  -32.4843   23.8377 C   0  0  1  0  0  0
  -27.2114  -27.4091   20.1093 C   0  0  0  0  0  0
  -25.5876  -33.8636   24.2314 N   0  0  0  0  0  0
  -23.4026  -30.4939   21.5537 C   0  0  2  0  0  0
  -24.8461  -28.9655   20.1127 C   0  0  0  0  0  0
  -22.7403  -29.4665   22.5007 C   0  0  0  0  0  0
  -18.0270  -28.1360   22.8511 C   0  0  0  0  0  0
  -24.1479  -36.7317   23.2635 C   0  0  0  0  0  0
  -25.9329  -30.8339   21.3602 C   0  0  0  0  0  0
  -26.0107  -29.4665   20.7083 C   0  0  0  0  0  0
  -27.2018  -28.6987   20.6979 C   0  0  0  0  0  0
  -26.0350  -26.9475   19.4792 C   0  0  0  0  0  0
  -24.8551  -27.7087   19.4904 C   0  0  0  0  0  0
  -23.6077  -29.8304   20.1674 C   0  0  0  0  0  0
  -25.4104  -36.3135   24.0341 C   0  0  1  0  0  0
  -20.5864  -28.3646   23.1338 C   0  0  2  0  0  0
  -20.6753  -26.9382   22.5421 C   0  0  0  0  0  0
  -19.5727  -26.6381   21.5214 C   0  0  0  0  0  0
  -18.1914  -26.7904   22.1644 C   0  0  0  0  0  0
  -19.1518  -28.8822   23.2925 C   0  0  0  0  0  0
  -18.9446  -30.1431   23.8936 C   0  0  0  0  0  0
  -17.6448  -30.6582   24.0558 C   0  0  0  0  0  0
  -25.9038  -34.9493   23.5135 C   0  0  0  0  0  0
  -16.5343  -29.9083   23.6313 C   0  0  0  0  0  0
  -16.7261  -28.6484   23.0365 C   0  0  0  0  0  0
  -26.4445  -31.6623   25.0704 C   0  0  0  0  0  0
  -25.3696  -31.3749   26.1450 C   0  0  0  0  0  0
  -27.0232  -30.3060   24.6061 C   0  0  0  0  0  0
  -27.6057  -32.4310   25.7453 C   0  0  0  0  0  0
  -27.5589  -37.1802   24.8467 C   0  0  0  0  0  0
  -21.4130  -29.3020   22.3747 N   0  0  0  0  0  0
  -26.4296  -37.3816   23.9428 N   0  0  0  0  0  0
  -24.6695  -31.0779   22.1008 N   0  0  0  0  0  0
  -23.4176  -28.8175   23.3024 O   0  0  0  0  0  0
  -28.3339  -26.6047   20.1531 O   0  0  0  0  0  0
  -26.5621  -34.8941   22.4710 O   0  0  0  0  0  0
  -23.5334  -32.1443   23.7489 O   0  0  0  0  0  0
  -30.8883  -19.2384   22.9222 C   0  0  0  0  0  0
  -31.6316  -18.1129   23.3180 C   0  0  0  0  0  0
  -29.6063  -17.8487   21.3953 C   0  0  0  0  0  0
  -29.8663  -19.1232   21.9593 C   0  0  0  0  0  0
  -31.3531  -16.8372   22.7819 C   0  0  0  0  0  0
  -30.3492  -16.7009   21.7850 C   0  0  0  0  0  0
  -32.1026  -15.6422   23.3493 C   0  0  0  0  0  0
  -31.0915  -21.5860   20.7808 C   0  0  0  0  0  0
  -29.2764  -20.9063   19.2092 C   0  0  0  0  0  0
  -29.4252  -24.2191   18.8177 C   0  0  0  0  0  0
  -30.5022  -24.7709   21.0343 C   0  0  0  0  0  0
  -29.0021  -20.3566   21.6298 C   0  0  0  0  0  0
  -28.8029  -22.8086   20.9064 C   0  0  0  0  0  0
  -28.1025  -25.2636   20.6673 C   0  0  0  0  0  0
  -29.5643  -21.4412   20.6312 C   0  0  0  0  0  0
  -29.2317  -24.2324   20.3432 C   0  0  0  0  0  0
  -29.9532  -15.4246   21.2764 N   0  0  0  0  0  0
  -31.4801  -12.4582   19.1328 H   0  0  0  0  0  0
  -30.3655  -11.3217   19.8263 H   0  0  0  0  0  0
  -29.7617  -11.7842   17.4324 H   0  0  0  0  0  0
  -29.6616  -13.4941   17.7588 H   0  0  0  0  0  0
  -27.8523  -11.2945   18.8304 H   0  0  0  0  0  0
  -27.3758  -12.6041   17.7811 H   0  0  0  0  0  0
  -27.7097  -14.2425   19.5649 H   0  0  0  0  0  0
  -28.6827  -11.9278   21.3143 H   0  0  0  0  0  0
  -28.4313  -13.5396   21.8841 H   0  0  0  0  0  0
  -25.2769   -9.5710   22.4729 H   0  0  0  0  0  0
  -24.0037   -7.4618   22.7427 H   0  0  0  0  0  0
  -21.0828   -8.8755   19.8930 H   0  0  0  0  0  0
  -22.3686  -10.9666   19.6138 H   0  0  0  0  0  0
  -21.1990   -7.6140   23.9762 H   0  0  0  0  0  0
  -21.1479   -6.0504   25.9100 H   0  0  0  0  0  0
  -22.0587   -2.7618   23.2839 H   0  0  0  0  0  0
  -22.4067  -11.9961   22.4850 H   0  0  0  0  0  0
  -21.1079  -13.1319   22.2566 H   0  0  0  0  0  0
  -24.6633  -15.8396   20.5031 H   0  0  0  0  0  0
  -26.2790  -15.6205   20.0590 H   0  0  0  0  0  0
  -26.7097  -32.5561   23.1138 H   0  0  0  0  0  0
  -24.9935  -33.9781   25.0398 H   0  0  0  0  0  0
  -22.6910  -31.3118   21.4183 H   0  0  0  0  0  0
  -23.3758  -35.9633   23.3292 H   0  0  0  0  0  0
  -24.3574  -36.8934   22.2051 H   0  0  0  0  0  0
  -23.7194  -37.6503   23.6646 H   0  0  0  0  0  0
  -26.0363  -31.5970   20.5875 H   0  0  0  0  0  0
  -26.8243  -30.8939   21.9718 H   0  0  0  0  0  0
  -28.0988  -29.0800   21.1639 H   0  0  0  0  0  0
  -26.0122  -25.9924   18.9758 H   0  0  0  0  0  0
  -23.9615  -27.3240   19.0187 H   0  0  0  0  0  0
  -23.7074  -30.6064   19.4074 H   0  0  0  0  0  0
  -22.7300  -29.2485   19.8788 H   0  0  0  0  0  0
  -25.1269  -36.1998   25.0829 H   0  0  0  0  0  0
  -20.9956  -28.3177   24.1459 H   0  0  0  0  0  0
  -20.5643  -26.2231   23.3589 H   0  0  0  0  0  0
  -21.6623  -26.7416   22.1214 H   0  0  0  0  0  0
  -19.6879  -25.6292   21.1236 H   0  0  0  0  0  0
  -19.6657  -27.3206   20.6750 H   0  0  0  0  0  0
  -17.4163  -26.6660   21.4063 H   0  0  0  0  0  0
  -18.0334  -26.0040   22.9039 H   0  0  0  0  0  0
  -19.7921  -30.7240   24.2322 H   0  0  0  0  0  0
  -17.5003  -31.6268   24.5140 H   0  0  0  0  0  0
  -15.5347  -30.3000   23.7603 H   0  0  0  0  0  0
  -15.8660  -28.0805   22.7084 H   0  0  0  0  0  0
  -24.5877  -30.7090   25.7781 H   0  0  0  0  0  0
  -24.8856  -32.2903   26.4865 H   0  0  0  0  0  0
  -25.8011  -30.8934   27.0236 H   0  0  0  0  0  0
  -26.2739  -29.6869   24.1119 H   0  0  0  0  0  0
  -27.4002  -29.7263   25.4497 H   0  0  0  0  0  0
  -27.8582  -30.4375   23.9181 H   0  0  0  0  0  0
  -27.2758  -33.3689   26.1947 H   0  0  0  0  0  0
  -28.3905  -32.6738   25.0269 H   0  0  0  0  0  0
  -28.0671  -31.8455   26.5426 H   0  0  0  0  0  0
  -28.2611  -38.0099   24.7554 H   0  0  0  0  0  0
  -28.1078  -36.2637   24.6247 H   0  0  0  0  0  0
  -27.2313  -37.1401   25.8870 H   0  0  0  0  0  0
  -20.9268  -29.8743   21.6989 H   0  0  0  0  0  0
  -26.0192  -38.2895   24.1443 H   0  0  0  0  0  0
  -31.0931  -20.1969   23.3775 H   0  0  0  0  0  0
  -32.4026  -18.2332   24.0653 H   0  0  0  0  0  0
  -28.8048  -17.7481   20.6757 H   0  0  0  0  0  0
  -32.6176  -15.8990   24.2762 H   0  0  0  0  0  0
  -32.8457  -15.2774   22.6417 H   0  0  0  0  0  0
  -31.4119  -14.8290   23.5771 H   0  0  0  0  0  0
  -31.6053  -20.6337   20.6562 H   0  0  0  0  0  0
  -31.3633  -21.9811   21.7593 H   0  0  0  0  0  0
  -31.5123  -22.2372   20.0182 H   0  0  0  0  0  0
  -29.7951  -19.9616   19.0358 H   0  0  0  0  0  0
  -29.6081  -21.5796   18.4239 H   0  0  0  0  0  0
  -28.2121  -20.7241   19.0491 H   0  0  0  0  0  0
  -30.2995  -23.6416   18.5261 H   0  0  0  0  0  0
  -29.5816  -25.2239   18.4270 H   0  0  0  0  0  0
  -28.5518  -23.8102   18.3097 H   0  0  0  0  0  0
  -31.3982  -24.2161   20.7790 H   0  0  0  0  0  0
  -30.3987  -24.7584   22.1199 H   0  0  0  0  0  0
  -30.6987  -25.8024   20.7404 H   0  0  0  0  0  0
  -28.8276  -20.8295   22.5974 H   0  0  0  0  0  0
  -28.0081  -20.0282   21.3186 H   0  0  0  0  0  0
  -28.7388  -22.9392   21.9873 H   0  0  0  0  0  0
  -27.7712  -22.6291   20.5971 H   0  0  0  0  0  0
  -27.9842  -25.3425   21.7495 H   0  0  0  0  0  0
  -27.1607  -24.8426   20.3233 H   0  0  0  0  0  0
  -28.9855  -15.1823   21.4216 H   0  0  0  0  0  0
  1 25  1  0  0  0
  1 30  2  0  0  0
  1 87  1  0  0  0
  2  3  1  0  0  0
  2 25  1  0  0  0
  2 88  1  0  0  0
  2 89  1  0  0  0
  3  4  1  0  0  0
  3 90  1  0  0  0
  3 91  1  0  0  0
  4  5  1  0  0  0
  4 92  1  0  0  0
  4 93  1  0  0  0
  5  6  1  0  0  0
  5 26  1  0  0  0
  5 94  1  0  0  0
  6 25  1  0  0  0
  6 95  1  0  0  0
  6 96  1  0  0  0
  7  8  2  0  0  0
  7 26  1  0  0  0
  7 29  1  0  0  0
  8  9  1  0  0  0
  8 22  1  0  0  0
  9 10  1  0  0  0
  9 27  2  0  0  0
 10 11  2  0  0  0
 10 15  1  0  0  0
 11 12  1  0  0  0
 11 97  1  0  0  0
 12 13  2  0  0  0
 12 98  1  0  0  0
 13 14  1  0  0  0
 13 31  1  0  0  0
 14 15  2  0  0  0
 14 99  1  0  0  0
 15100  1  0  0  0
 16 17  2  0  0  0
 16 21  1  0  0  0
 16 31  1  0  0  0
 17 18  1  0  0  0
 17101  1  0  0  0
 18 19  2  0  0  0
 18102  1  0  0  0
 19 20  1  0  0  0
 19 24  1  0  0  0
 20 21  2  0  0  0
 20103  1  0  0  0
 21 23  1  0  0  0
 22 28  1  0  0  0
 22 32  2  0  0  0
 26 27  1  0  0  0
 28104  1  0  0  0
 28105  1  0  0  0
 29106  1  0  0  0
 29107  1  0  0  0
 33 34  1  0  0  0
 33 66  1  0  0  0
 33 70  2  0  0  0
 34 36  1  0  0  0
 34 59  1  0  0  0
 34108  1  0  0  0
 35 44  2  0  0  0
 35 45  1  0  0  0
 35 68  1  0  0  0
 36 56  1  0  0  0
 36109  1  0  0  0
 37 39  1  0  0  0
 37 47  1  0  0  0
 37 66  1  0  0  0
 37110  1  0  0  0
 38 43  2  0  0  0
 38 46  1  0  0  0
 38 47  1  0  0  0
 39 64  1  0  0  0
 39 67  2  0  0  0
 40 52  1  0  0  0
 40 53  2  0  0  0
 40 58  1  0  0  0
 41111  1  0  0  0
 41112  1  0  0  0
 41113  1  0  0  0
 41 48  1  0  0  0
 42 43  1  0  0  0
 42 66  1  0  0  0
 42114  1  0  0  0
 42115  1  0  0  0
 43 44  1  0  0  0
 44116  1  0  0  0
 45 46  2  0  0  0
 45117  1  0  0  0
 46118  1  0  0  0
 47119  1  0  0  0
 47120  1  0  0  0
 48 56  1  0  0  0
 48 65  1  0  0  0
 48121  1  0  0  0
 49 50  1  0  0  0
 49 53  1  0  0  0
 49 64  1  0  0  0
 49122  1  0  0  0
 50 51  1  0  0  0
 50123  1  0  0  0
 50124  1  0  0  0
 51 52  1  0  0  0
 51125  1  0  0  0
 51126  1  0  0  0
 52127  1  0  0  0
 52128  1  0  0  0
 53 54  1  0  0  0
 54 55  2  0  0  0
 54129  1  0  0  0
 55 57  1  0  0  0
 55130  1  0  0  0
 56 69  2  0  0  0
 57 58  2  0  0  0
 57131  1  0  0  0
 58132  1  0  0  0
 59 60  1  0  0  0
 59 61  1  0  0  0
 59 62  1  0  0  0
 60133  1  0  0  0
 60134  1  0  0  0
 60135  1  0  0  0
 61136  1  0  0  0
 61137  1  0  0  0
 61138  1  0  0  0
 62139  1  0  0  0
 62140  1  0  0  0
 62141  1  0  0  0
 63 65  1  0  0  0
 63142  1  0  0  0
 63143  1  0  0  0
 63144  1  0  0  0
 64145  1  0  0  0
 65146  1  0  0  0
 68 84  1  0  0  0
 71 72  2  0  0  0
 71 74  1  0  0  0
 71147  1  0  0  0
 72 75  1  0  0  0
 72148  1  0  0  0
 73 74  2  0  0  0
 73 76  1  0  0  0
 73149  1  0  0  0
 74 82  1  0  0  0
 75 76  2  0  0  0
 75 77  1  0  0  0
 76 87  1  0  0  0
 77150  1  0  0  0
 77151  1  0  0  0
 77152  1  0  0  0
 78153  1  0  0  0
 78154  1  0  0  0
 78155  1  0  0  0
 78 85  1  0  0  0
 79 85  1  0  0  0
 79156  1  0  0  0
 79157  1  0  0  0
 79158  1  0  0  0
 80159  1  0  0  0
 80160  1  0  0  0
 80161  1  0  0  0
 80 86  1  0  0  0
 81 86  1  0  0  0
 81162  1  0  0  0
 81163  1  0  0  0
 81164  1  0  0  0
 82 85  1  0  0  0
 82165  1  0  0  0
 82166  1  0  0  0
 83 85  1  0  0  0
 83 86  1  0  0  0
 83167  1  0  0  0
 83168  1  0  0  0
 84 86  1  0  0  0
 84169  1  0  0  0
 84170  1  0  0  0
 87171  1  0  0  0
M  ISO  4   1 100  68 101  84 101  87 100
M  END
> <chiral flag>
0

> <version>
0

> <s_m_source_file>
/data/baiqing/PycharmProjects/Reinvent-master-3.2/result/LINK_invent/BTK/process_docking_weight1_custom_product_contain_oxygen_bond_distance_aromatic_linkinvent_7_9_3/rearranged_h_0140.sdf

> <i_m_source_file_index>
57

> <r_mmod_Potential_Energy-OPLS-2005>
55.4208793640137

> <r_mmod_Stretch_Energy-OPLS-2005>
51.9926681518555

> <r_mmod_Bend_Energy-OPLS-2005>
129.102890014648

> <r_mmod_Torsional_Energy-OPLS-2005>
260.676605224609

> <r_mmod_Improper_Torsional_Energy-OPLS-2005>
3.89276432991028

> <r_mmod_Van_der_Waal_Energy-OPLS-2005>
163.6728515625

> <r_mmod_Electrostatic_Energy-OPLS-2005>
-386.504455566406

> <r_mmod_Solvation_Energy-OPLS-2005>
-185.844024658203

> <b_mmod_Minimization_Converged-OPLS-2005>
0

> <r_mmod_RMS_Derivative-OPLS-2005>
3.69946837425232

$$$$
57
                    3D
 Structure written by MMmdl.
184193  0  0  1  0            999 V2000
  -30.7790  -14.3670   20.6684 C   0  0  0  0  0  0
  -30.4049  -12.2937   19.3871 C   0  0  0  0  0  0
  -29.4779  -12.5523   18.1859 C   0  0  0  0  0  0
  -27.9996  -12.4183   18.5975 C   0  0  0  0  0  0
  -27.6649  -13.2156   19.8863 C   0  0  2  0  0  0
  -28.7071  -12.9538   20.9949 C   0  0  0  0  0  0
  -25.2589  -13.8186   20.5682 C   0  0  0  0  0  0
  -24.1827  -13.0430   20.9161 C   0  0  0  0  0  0
  -24.6398  -11.6914   20.8708 C   0  0  0  0  0  0
  -23.9060  -10.4292   21.0390 C   0  0  0  0  0  0
  -24.3624   -9.4212   21.9159 C   0  0  0  0  0  0
  -23.6297   -8.2248   22.0744 C   0  0  0  0  0  0
  -22.4276   -8.0284   21.3545 C   0  0  0  0  0  0
  -21.9914   -9.0251   20.4635 C   0  0  0  0  0  0
  -22.7241  -10.2126   20.3032 C   0  0  0  0  0  0
  -21.6848   -6.0732   22.5271 C   0  0  0  0  0  0
  -21.4024   -6.5640   23.8206 C   0  0  0  0  0  0
  -21.3665   -5.6795   24.9170 C   0  0  0  0  0  0
  -21.6038   -4.3057   24.7225 C   0  0  0  0  0  0
  -21.8820   -3.8147   23.4346 C   0  0  0  0  0  0
  -21.9202   -4.6959   22.3402 C   0  0  0  0  0  0
  -22.7855  -13.5225   21.1834 C   0  0  0  0  0  0
  -22.1658   -4.2150   21.0972 F   0  0  0  0  0  0
  -21.5635   -3.4539   25.7736 F   0  0  0  0  0  0
  -30.0436  -13.2464   20.4475 N   0  0  0  0  0  0
  -26.3049  -12.9370   20.3433 N   0  0  0  0  0  0
  -25.9338  -11.6513   20.5767 N   0  0  0  0  0  0
  -22.0509  -12.8192   22.0396 N   0  0  0  0  0  0
  -25.4268  -15.1897   20.4090 N   0  0  0  0  0  0
  -31.8306  -14.6103   20.0666 O   0  0  0  0  0  0
  -21.6640   -6.8874   21.4232 O   0  0  0  0  0  0
  -22.3523  -14.5525   20.6687 O   0  0  0  0  0  0
  -24.6161  -31.8698   23.2111 C   0  0  0  0  0  0
  -25.9034  -32.4838   23.8392 C   0  0  1  0  0  0
  -27.2299  -27.4833   20.0780 C   0  0  0  0  0  0
  -25.5898  -33.8635   24.2329 N   0  0  0  0  0  0
  -23.4020  -30.4979   21.5467 C   0  0  2  0  0  0
  -24.8446  -28.9817   20.0993 C   0  0  0  0  0  0
  -22.7432  -29.4679   22.4943 C   0  0  0  0  0  0
  -18.0301  -28.1388   22.8448 C   0  0  0  0  0  0
  -24.1504  -36.7346   23.2631 C   0  0  0  0  0  0
  -25.9232  -30.8684   21.3419 C   0  0  0  0  0  0
  -26.0051  -29.5060   20.6863 C   0  0  0  0  0  0
  -27.2031  -28.7637   20.6663 C   0  0  0  0  0  0
  -26.0625  -26.9797   19.4634 C   0  0  0  0  0  0
  -24.8689  -27.7220   19.4786 C   0  0  0  0  0  0
  -23.6027  -29.8403   20.1560 C   0  0  0  0  0  0
  -25.4127  -36.3154   24.0329 C   0  0  1  0  0  0
  -20.5894  -28.3657   23.1327 C   0  0  2  0  0  0
  -20.6760  -26.9398   22.5408 C   0  0  0  0  0  0
  -19.5735  -26.6385   21.5211 C   0  0  0  0  0  0
  -18.1900  -26.7928   22.1604 C   0  0  0  0  0  0
  -19.1543  -28.8830   23.2847 C   0  0  0  0  0  0
  -18.9491  -30.1432   23.8863 C   0  0  0  0  0  0
  -17.6485  -30.6539   24.0578 C   0  0  0  0  0  0
  -25.9063  -34.9491   23.5145 C   0  0  0  0  0  0
  -16.5365  -29.9065   23.6341 C   0  0  0  0  0  0
  -16.7294  -28.6515   23.0314 C   0  0  0  0  0  0
  -26.4486  -31.6615   25.0686 C   0  0  0  0  0  0
  -25.3748  -31.3661   26.1418 C   0  0  0  0  0  0
  -27.0290  -30.3093   24.5945 C   0  0  0  0  0  0
  -27.6071  -32.4326   25.7458 C   0  0  0  0  0  0
  -27.5603  -37.1802   24.8463 C   0  0  0  0  0  0
  -21.4154  -29.3046   22.3724 N   0  0  0  0  0  0
  -26.4331  -37.3825   23.9398 N   0  0  0  0  0  0
  -24.6666  -31.0877   22.0959 N   0  0  0  0  0  0
  -23.4234  -28.8201   23.2932 O   0  0  0  0  0  0
  -28.3755  -26.7231   20.1382 O   0  0  0  0  0  0
  -26.5602  -34.8949   22.4689 O   0  0  0  0  0  0
  -23.5379  -32.1426   23.7538 O   0  0  0  0  0  0
  -31.1889  -22.9284   23.8175 C   0  0  0  0  0  0
  -30.0198  -23.6785   23.6012 C   0  0  0  0  0  0
  -32.6050  -17.3476   23.4206 C   0  0  0  0  0  0
  -32.1052  -16.1052   22.9399 C   0  0  0  0  0  0
  -32.2938  -24.1404   22.0460 C   0  0  0  0  0  0
  -32.3292  -23.0910   22.9975 C   0  0  0  0  0  0
  -29.9625  -24.6742   22.5954 C   0  0  0  0  0  0
  -31.1452  -24.9369   21.8683 C   0  0  0  0  0  0
  -31.8905  -18.4290   22.9752 C   0  0  0  0  0  0
  -30.9911  -16.2279   22.1470 C   0  0  0  0  0  0
  -28.7116  -24.3376   19.8835 C   0  0  0  0  0  0
  -34.7816  -22.7212   22.4149 C   0  0  0  0  0  0
  -33.9703  -21.9629   24.5810 C   0  0  0  0  0  0
  -28.9107  -26.9165   22.8365 C   0  0  0  0  0  0
  -27.4712  -24.9407   23.1554 C   0  0  0  0  0  0
  -32.4666  -20.9125   21.0522 C   0  0  0  0  0  0
  -34.4130  -19.8346   22.1865 C   0  0  0  0  0  0
  -32.1184  -19.8765   23.3063 C   0  0  0  0  0  0
  -28.2012  -25.4608   20.8097 C   0  0  1  0  0  0
  -33.5227  -22.1020   23.1005 C   0  0  0  0  0  0
  -28.6706  -25.4798   22.3246 C   0  0  0  0  0  0
  -33.1406  -20.6922   22.4346 C   0  0  0  0  0  0
  -30.2825  -15.2273   21.5685 N   0  0  0  0  0  0
  -31.1882  -25.9367   20.9545 F   0  0  0  0  0  0
  -30.5459  -17.9120   21.9826 S   0  0  0  0  0  0
  -31.4499  -12.3758   19.0809 H   0  0  0  0  0  0
  -30.2837  -11.2696   19.7453 H   0  0  0  0  0  0
  -29.7050  -11.8671   17.3684 H   0  0  0  0  0  0
  -29.6572  -13.5579   17.7997 H   0  0  0  0  0  0
  -27.7810  -11.3590   18.7405 H   0  0  0  0  0  0
  -27.3579  -12.7542   17.7816 H   0  0  0  0  0  0
  -27.7203  -14.2738   19.6305 H   0  0  0  0  0  0
  -28.6708  -11.9098   21.3087 H   0  0  0  0  0  0
  -28.4699  -13.5288   21.8889 H   0  0  0  0  0  0
  -25.2767   -9.5688   22.4734 H   0  0  0  0  0  0
  -24.0006   -7.4642   22.7469 H   0  0  0  0  0  0
  -21.0848   -8.8759   19.8943 H   0  0  0  0  0  0
  -22.3692  -10.9659   19.6146 H   0  0  0  0  0  0
  -21.2009   -7.6148   23.9709 H   0  0  0  0  0  0
  -21.1489   -6.0524   25.9072 H   0  0  0  0  0  0
  -22.0596   -2.7609   23.2842 H   0  0  0  0  0  0
  -22.4151  -11.9851   22.4761 H   0  0  0  0  0  0
  -21.1117  -13.1191   22.2608 H   0  0  0  0  0  0
  -24.6586  -15.8453   20.5062 H   0  0  0  0  0  0
  -26.2867  -15.6309   20.1066 H   0  0  0  0  0  0
  -26.7103  -32.5607   23.1177 H   0  0  0  0  0  0
  -25.0051  -33.9835   25.0478 H   0  0  0  0  0  0
  -22.6891  -31.3121   21.4069 H   0  0  0  0  0  0
  -23.3770  -35.9682   23.3315 H   0  0  0  0  0  0
  -24.3608  -36.8979   22.2059 H   0  0  0  0  0  0
  -23.7270  -37.6543   23.6648 H   0  0  0  0  0  0
  -26.0078  -31.6412   20.5763 H   0  0  0  0  0  0
  -26.8240  -30.9408   21.9362 H   0  0  0  0  0  0
  -28.0970  -29.1540   21.1307 H   0  0  0  0  0  0
  -26.0662  -26.0101   18.9868 H   0  0  0  0  0  0
  -23.9818  -27.3236   19.0034 H   0  0  0  0  0  0
  -23.6974  -30.6189   19.3970 H   0  0  0  0  0  0
  -22.7292  -29.2554   19.8678 H   0  0  0  0  0  0
  -25.1302  -36.2030   25.0829 H   0  0  0  0  0  0
  -20.9984  -28.3191   24.1458 H   0  0  0  0  0  0
  -20.5723  -26.2228   23.3563 H   0  0  0  0  0  0
  -21.6599  -26.7441   22.1153 H   0  0  0  0  0  0
  -19.6915  -25.6323   21.1186 H   0  0  0  0  0  0
  -19.6685  -27.3216   20.6757 H   0  0  0  0  0  0
  -17.4182  -26.6718   21.3977 H   0  0  0  0  0  0
  -18.0238  -26.0097   22.9021 H   0  0  0  0  0  0
  -19.7966  -30.7226   24.2208 H   0  0  0  0  0  0
  -17.5064  -31.6230   24.5162 H   0  0  0  0  0  0
  -15.5361  -30.2945   23.7702 H   0  0  0  0  0  0
  -15.8702  -28.0857   22.6982 H   0  0  0  0  0  0
  -24.5928  -30.7039   25.7678 H   0  0  0  0  0  0
  -24.8892  -32.2789   26.4889 H   0  0  0  0  0  0
  -25.8108  -30.8758   27.0128 H   0  0  0  0  0  0
  -26.2748  -29.6804   24.1200 H   0  0  0  0  0  0
  -27.4367  -29.7384   25.4276 H   0  0  0  0  0  0
  -27.8431  -30.4448   23.8821 H   0  0  0  0  0  0
  -27.2707  -33.3641   26.2040 H   0  0  0  0  0  0
  -28.3878  -32.6904   25.0277 H   0  0  0  0  0  0
  -28.0738  -31.8426   26.5380 H   0  0  0  0  0  0
  -28.2594  -38.0108   24.7528 H   0  0  0  0  0  0
  -28.1103  -36.2639   24.6253 H   0  0  0  0  0  0
  -27.2287  -37.1440   25.8849 H   0  0  0  0  0  0
  -20.9290  -29.8797   21.6990 H   0  0  0  0  0  0
  -26.0230  -38.2896   24.1427 H   0  0  0  0  0  0
  -31.1698  -22.1806   24.5957 H   0  0  0  0  0  0
  -29.1741  -23.4492   24.2310 H   0  0  0  0  0  0
  -33.4701  -17.4027   24.0670 H   0  0  0  0  0  0
  -32.5782  -15.1679   23.1999 H   0  0  0  0  0  0
  -33.1277  -24.3357   21.3888 H   0  0  0  0  0  0
  -28.2177  -24.4162   18.9134 H   0  0  0  0  0  0
  -28.4651  -23.3550   20.2825 H   0  0  0  0  0  0
  -29.7809  -24.3656   19.6849 H   0  0  0  0  0  0
  -35.0075  -23.7126   22.8145 H   0  0  0  0  0  0
  -34.6926  -22.8183   21.3324 H   0  0  0  0  0  0
  -35.6781  -22.1302   22.5959 H   0  0  0  0  0  0
  -34.3137  -22.9157   24.9815 H   0  0  0  0  0  0
  -34.8031  -21.2688   24.6869 H   0  0  0  0  0  0
  -33.1934  -21.6219   25.2590 H   0  0  0  0  0  0
  -29.2667  -26.9184   23.8664 H   0  0  0  0  0  0
  -27.9872  -27.4932   22.8300 H   0  0  0  0  0  0
  -29.6498  -27.4511   22.2409 H   0  0  0  0  0  0
  -27.6345  -25.0269   24.2295 H   0  0  0  0  0  0
  -27.2549  -23.8976   22.9235 H   0  0  0  0  0  0
  -26.5623  -25.5044   22.9488 H   0  0  0  0  0  0
  -32.2808  -19.9724   20.5298 H   0  0  0  0  0  0
  -33.0781  -21.5238   20.3915 H   0  0  0  0  0  0
  -31.4990  -21.4098   21.1429 H   0  0  0  0  0  0
  -34.1859  -18.8728   21.7291 H   0  0  0  0  0  0
  -34.9533  -19.6328   23.1122 H   0  0  0  0  0  0
  -35.1066  -20.3084   21.4940 H   0  0  0  0  0  0
  -32.4240  -19.8908   24.3471 H   0  0  0  0  0  0
  -31.1466  -20.3664   23.2910 H   0  0  0  0  0  0
  -27.1359  -25.2377   20.8443 H   0  0  0  0  0  0
  -29.3395  -15.0685   21.8922 H   0  0  0  0  0  0
  1 25  1  0  0  0
  1 30  2  0  0  0
  1 93  1  0  0  0
  2  3  1  0  0  0
  2 25  1  0  0  0
  2 96  1  0  0  0
  2 97  1  0  0  0
  3  4  1  0  0  0
  3 98  1  0  0  0
  3 99  1  0  0  0
  4  5  1  0  0  0
  4100  1  0  0  0
  4101  1  0  0  0
  5  6  1  0  0  0
  5 26  1  0  0  0
  5102  1  0  0  0
  6 25  1  0  0  0
  6103  1  0  0  0
  6104  1  0  0  0
  7  8  2  0  0  0
  7 26  1  0  0  0
  7 29  1  0  0  0
  8  9  1  0  0  0
  8 22  1  0  0  0
  9 10  1  0  0  0
  9 27  2  0  0  0
 10 11  2  0  0  0
 10 15  1  0  0  0
 11 12  1  0  0  0
 11105  1  0  0  0
 12 13  2  0  0  0
 12106  1  0  0  0
 13 14  1  0  0  0
 13 31  1  0  0  0
 14 15  2  0  0  0
 14107  1  0  0  0
 15108  1  0  0  0
 16 17  2  0  0  0
 16 21  1  0  0  0
 16 31  1  0  0  0
 17 18  1  0  0  0
 17109  1  0  0  0
 18 19  2  0  0  0
 18110  1  0  0  0
 19 20  1  0  0  0
 19 24  1  0  0  0
 20 21  2  0  0  0
 20111  1  0  0  0
 21 23  1  0  0  0
 22 28  1  0  0  0
 22 32  2  0  0  0
 26 27  1  0  0  0
 28112  1  0  0  0
 28113  1  0  0  0
 29114  1  0  0  0
 29115  1  0  0  0
 33 34  1  0  0  0
 33 66  1  0  0  0
 33 70  2  0  0  0
 34 36  1  0  0  0
 34 59  1  0  0  0
 34116  1  0  0  0
 35 44  2  0  0  0
 35 45  1  0  0  0
 35 68  1  0  0  0
 36 56  1  0  0  0
 36117  1  0  0  0
 37 39  1  0  0  0
 37 47  1  0  0  0
 37 66  1  0  0  0
 37118  1  0  0  0
 38 43  2  0  0  0
 38 46  1  0  0  0
 38 47  1  0  0  0
 39 64  1  0  0  0
 39 67  2  0  0  0
 40 52  1  0  0  0
 40 53  2  0  0  0
 40 58  1  0  0  0
 41119  1  0  0  0
 41120  1  0  0  0
 41121  1  0  0  0
 41 48  1  0  0  0
 42 43  1  0  0  0
 42 66  1  0  0  0
 42122  1  0  0  0
 42123  1  0  0  0
 43 44  1  0  0  0
 44124  1  0  0  0
 45 46  2  0  0  0
 45125  1  0  0  0
 46126  1  0  0  0
 47127  1  0  0  0
 47128  1  0  0  0
 48 56  1  0  0  0
 48 65  1  0  0  0
 48129  1  0  0  0
 49 50  1  0  0  0
 49 53  1  0  0  0
 49 64  1  0  0  0
 49130  1  0  0  0
 50 51  1  0  0  0
 50131  1  0  0  0
 50132  1  0  0  0
 51 52  1  0  0  0
 51133  1  0  0  0
 51134  1  0  0  0
 52135  1  0  0  0
 52136  1  0  0  0
 53 54  1  0  0  0
 54 55  2  0  0  0
 54137  1  0  0  0
 55 57  1  0  0  0
 55138  1  0  0  0
 56 69  2  0  0  0
 57 58  2  0  0  0
 57139  1  0  0  0
 58140  1  0  0  0
 59 60  1  0  0  0
 59 61  1  0  0  0
 59 62  1  0  0  0
 60141  1  0  0  0
 60142  1  0  0  0
 60143  1  0  0  0
 61144  1  0  0  0
 61145  1  0  0  0
 61146  1  0  0  0
 62147  1  0  0  0
 62148  1  0  0  0
 62149  1  0  0  0
 63 65  1  0  0  0
 63150  1  0  0  0
 63151  1  0  0  0
 63152  1  0  0  0
 64153  1  0  0  0
 65154  1  0  0  0
 68 89  1  0  0  0
 71 72  2  0  0  0
 71 76  1  0  0  0
 71155  1  0  0  0
 72 77  1  0  0  0
 72156  1  0  0  0
 73 74  1  0  0  0
 73 79  2  0  0  0
 73157  1  0  0  0
 74 80  2  0  0  0
 74158  1  0  0  0
 75 76  2  0  0  0
 75 78  1  0  0  0
 75159  1  0  0  0
 76 90  1  0  0  0
 77 78  2  0  0  0
 77 91  1  0  0  0
 78 94  1  0  0  0
 79 88  1  0  0  0
 79 95  1  0  0  0
 80 93  1  0  0  0
 80 95  1  0  0  0
 81160  1  0  0  0
 81161  1  0  0  0
 81162  1  0  0  0
 81 89  1  0  0  0
 82163  1  0  0  0
 82164  1  0  0  0
 82165  1  0  0  0
 82 90  1  0  0  0
 83 90  1  0  0  0
 83166  1  0  0  0
 83167  1  0  0  0
 83168  1  0  0  0
 84169  1  0  0  0
 84170  1  0  0  0
 84171  1  0  0  0
 84 91  1  0  0  0
 85 91  1  0  0  0
 85172  1  0  0  0
 85173  1  0  0  0
 85174  1  0  0  0
 86175  1  0  0  0
 86176  1  0  0  0
 86177  1  0  0  0
 86 92  1  0  0  0
 87 92  1  0  0  0
 87178  1  0  0  0
 87179  1  0  0  0
 87180  1  0  0  0
 88 92  1  0  0  0
 88181  1  0  0  0
 88182  1  0  0  0
 89 91  1  0  0  0
 89183  1  0  0  0
 90 92  1  0  0  0
 93184  1  0  0  0
M  ISO  4   1 100  68 101  89 101  93 100
M  END
> <chiral flag>
0

> <version>
0

> <s_m_source_file>
/data/baiqing/PycharmProjects/Reinvent-master-3.2/result/LINK_invent/BTK/process_docking_weight1_custom_product_contain_oxygen_bond_distance_aromatic_linkinvent_7_9_3/rearranged_h_0140.sdf

> <i_m_source_file_index>
58

> <r_mmod_Potential_Energy-OPLS-2005>
43.1386260986328

> <r_mmod_Stretch_Energy-OPLS-2005>
52.9403839111328

> <r_mmod_Bend_Energy-OPLS-2005>
133.258285522461

> <r_mmod_Torsional_Energy-OPLS-2005>
271.827758789062

> <r_mmod_Improper_Torsional_Energy-OPLS-2005>
2.10440516471863

> <r_mmod_Van_der_Waal_Energy-OPLS-2005>
196.3056640625

> <r_mmod_Electrostatic_Energy-OPLS-2005>
-436.707794189453

> <r_mmod_Solvation_Energy-OPLS-2005>
-186.082244873047

> <b_mmod_Minimization_Converged-OPLS-2005>
0

> <r_mmod_RMS_Derivative-OPLS-2005>
5.0752649307251

$$$$
58
                    3D
 Structure written by MMmdl.
177185  0  0  1  0            999 V2000
  -30.6957  -14.4697   20.4157 C   0  0  0  0  0  0
  -30.4173  -12.2564   19.4434 C   0  0  0  0  0  0
  -29.4945  -12.4250   18.2190 C   0  0  0  0  0  0
  -28.0137  -12.3321   18.6228 C   0  0  0  0  0  0
  -27.6560  -13.2008   19.8597 C   0  0  2  0  0  0
  -28.7049  -13.0423   20.9881 C   0  0  0  0  0  0
  -25.2552  -13.8180   20.5666 C   0  0  0  0  0  0
  -24.1808  -13.0459   20.9196 C   0  0  0  0  0  0
  -24.6353  -11.6920   20.8738 C   0  0  0  0  0  0
  -23.9023  -10.4295   21.0391 C   0  0  0  0  0  0
  -24.3571   -9.4218   21.9168 C   0  0  0  0  0  0
  -23.6261   -8.2238   22.0733 C   0  0  0  0  0  0
  -22.4237   -8.0257   21.3546 C   0  0  0  0  0  0
  -21.9879   -9.0237   20.4649 C   0  0  0  0  0  0
  -22.7192  -10.2117   20.3047 C   0  0  0  0  0  0
  -21.6864   -6.0692   22.5263 C   0  0  0  0  0  0
  -21.4030   -6.5606   23.8195 C   0  0  0  0  0  0
  -21.3667   -5.6762   24.9165 C   0  0  0  0  0  0
  -21.6036   -4.3020   24.7228 C   0  0  0  0  0  0
  -21.8820   -3.8111   23.4356 C   0  0  0  0  0  0
  -21.9203   -4.6925   22.3402 C   0  0  0  0  0  0
  -22.7811  -13.5265   21.1858 C   0  0  0  0  0  0
  -22.1646   -4.2109   21.0974 F   0  0  0  0  0  0
  -21.5652   -3.4506   25.7740 F   0  0  0  0  0  0
  -30.0394  -13.2833   20.4173 N   0  0  0  0  0  0
  -26.2974  -12.9332   20.3293 N   0  0  0  0  0  0
  -25.9279  -11.6508   20.5753 N   0  0  0  0  0  0
  -22.0444  -12.8266   22.0411 N   0  0  0  0  0  0
  -25.4275  -15.1895   20.4061 N   0  0  0  0  0  0
  -31.9121  -14.5834   20.2493 O   0  0  0  0  0  0
  -21.6632   -6.8835   21.4224 O   0  0  0  0  0  0
  -22.3506  -14.5570   20.6713 O   0  0  0  0  0  0
  -24.6158  -31.8683   23.2119 C   0  0  0  0  0  0
  -25.9065  -32.4814   23.8407 C   0  0  1  0  0  0
  -27.2401  -27.4547   20.0673 C   0  0  0  0  0  0
  -25.5919  -33.8615   24.2338 N   0  0  0  0  0  0
  -23.4024  -30.4950   21.5492 C   0  0  2  0  0  0
  -24.8464  -28.9595   20.1176 C   0  0  0  0  0  0
  -22.7399  -29.4674   22.4951 C   0  0  0  0  0  0
  -18.0277  -28.1395   22.8477 C   0  0  0  0  0  0
  -24.1482  -36.7313   23.2627 C   0  0  0  0  0  0
  -25.9303  -30.8370   21.3621 C   0  0  0  0  0  0
  -26.0063  -29.4724   20.7090 C   0  0  0  0  0  0
  -27.2021  -28.7213   20.6916 C   0  0  0  0  0  0
  -26.0515  -26.9353   19.5101 C   0  0  0  0  0  0
  -24.8595  -27.6828   19.5287 C   0  0  0  0  0  0
  -23.6124  -29.8310   20.1631 C   0  0  0  0  0  0
  -25.4093  -36.3097   24.0335 C   0  0  1  0  0  0
  -20.5863  -28.3687   23.1298 C   0  0  2  0  0  0
  -20.6771  -26.9415   22.5416 C   0  0  0  0  0  0
  -19.5749  -26.6394   21.5204 C   0  0  0  0  0  0
  -18.1922  -26.7947   22.1607 C   0  0  0  0  0  0
  -19.1528  -28.8853   23.2892 C   0  0  0  0  0  0
  -18.9462  -30.1454   23.8923 C   0  0  0  0  0  0
  -17.6465  -30.6598   24.0575 C   0  0  0  0  0  0
  -25.9035  -34.9469   23.5130 C   0  0  0  0  0  0
  -16.5352  -29.9107   23.6325 C   0  0  0  0  0  0
  -16.7265  -28.6524   23.0334 C   0  0  0  0  0  0
  -26.4499  -31.6589   25.0731 C   0  0  0  0  0  0
  -25.3792  -31.3712   26.1505 C   0  0  0  0  0  0
  -27.0323  -30.3028   24.6112 C   0  0  0  0  0  0
  -27.6074  -32.4310   25.7501 C   0  0  0  0  0  0
  -27.5585  -37.1784   24.8441 C   0  0  0  0  0  0
  -21.4124  -29.3058   22.3696 N   0  0  0  0  0  0
  -26.4263  -37.3796   23.9436 N   0  0  0  0  0  0
  -24.6675  -31.0809   22.1004 N   0  0  0  0  0  0
  -23.4164  -28.8203   23.2989 O   0  0  0  0  0  0
  -28.4265  -26.7509   20.0708 O   0  0  0  0  0  0
  -26.5587  -34.8917   22.4684 O   0  0  0  0  0  0
  -23.5355  -32.1434   23.7523 O   0  0  0  0  0  0
  -30.1508  -19.2140   18.1676 C   0  0  0  0  0  0
  -30.6470  -18.0557   17.5530 C   0  0  0  0  0  0
  -29.6086  -17.9133   20.1535 C   0  0  0  0  0  0
  -29.6301  -19.1490   19.4715 C   0  0  0  0  0  0
  -30.6104  -16.8104   18.2097 C   0  0  0  0  0  0
  -30.0935  -16.7319   19.5455 C   0  0  0  0  0  0
  -31.0548  -15.6308   17.3542 C   0  0  0  0  0  0
  -27.1366  -22.9974   19.5190 C   0  0  0  0  0  0
  -31.4397  -21.2090   20.3439 C   0  0  0  0  0  0
  -29.6745  -22.0956   21.8386 C   0  0  0  0  0  0
  -28.8178  -27.2331   17.6840 C   0  0  0  0  0  0
  -30.5086  -26.1938   19.1829 C   0  0  0  0  0  0
  -29.0036  -20.3948   20.0819 C   0  0  0  0  0  0
  -29.7234  -22.7740   19.3762 C   0  0  0  0  0  0
  -28.4941  -24.8337   18.4420 C   0  0  0  0  0  0
  -28.4950  -23.7271   19.5349 C   0  0  1  0  0  0
  -29.9437  -21.6102   20.3982 C   0  0  0  0  0  0
  -29.0073  -26.2440   18.8532 C   0  0  0  0  0  0
  -29.8796  -15.5245   20.2797 N   0  0  0  0  0  0
  -31.4656  -12.3304   19.1473 H   0  0  0  0  0  0
  -30.2893  -11.2669   19.8808 H   0  0  0  0  0  0
  -29.7275  -11.6698   17.4692 H   0  0  0  0  0  0
  -29.6696  -13.3824   17.7413 H   0  0  0  0  0  0
  -27.7988  -11.2820   18.8265 H   0  0  0  0  0  0
  -27.3823  -12.6125   17.7794 H   0  0  0  0  0  0
  -27.6806  -14.2350   19.5183 H   0  0  0  0  0  0
  -28.6668  -12.0417   21.4230 H   0  0  0  0  0  0
  -28.4966  -13.7372   21.8025 H   0  0  0  0  0  0
  -25.2716   -9.5707   22.4748 H   0  0  0  0  0  0
  -23.9985   -7.4636   22.7444 H   0  0  0  0  0  0
  -21.0820   -8.8759   19.8953 H   0  0  0  0  0  0
  -22.3654  -10.9646   19.6144 H   0  0  0  0  0  0
  -21.2007   -7.6109   23.9683 H   0  0  0  0  0  0
  -21.1489   -6.0491   25.9061 H   0  0  0  0  0  0
  -22.0605   -2.7571   23.2874 H   0  0  0  0  0  0
  -22.4029  -11.9906   22.4810 H   0  0  0  0  0  0
  -21.1070  -13.1309   22.2611 H   0  0  0  0  0  0
  -24.6650  -15.8477   20.5184 H   0  0  0  0  0  0
  -26.2740  -15.6282   20.0640 H   0  0  0  0  0  0
  -26.7135  -32.5532   23.1167 H   0  0  0  0  0  0
  -25.0137  -33.9781   25.0532 H   0  0  0  0  0  0
  -22.6917  -31.3134   21.4107 H   0  0  0  0  0  0
  -23.3751  -35.9632   23.3238 H   0  0  0  0  0  0
  -24.3607  -36.8992   22.2057 H   0  0  0  0  0  0
  -23.7224  -37.6493   23.6686 H   0  0  0  0  0  0
  -26.0450  -31.6057   20.5972 H   0  0  0  0  0  0
  -26.8172  -30.8876   21.9817 H   0  0  0  0  0  0
  -28.1019  -29.1158   21.1423 H   0  0  0  0  0  0
  -26.0246  -25.9489   19.0824 H   0  0  0  0  0  0
  -23.9587  -27.2662   19.1005 H   0  0  0  0  0  0
  -23.7374  -30.6105   19.4099 H   0  0  0  0  0  0
  -22.7334  -29.2626   19.8544 H   0  0  0  0  0  0
  -25.1252  -36.1938   25.0819 H   0  0  0  0  0  0
  -20.9979  -28.3280   24.1408 H   0  0  0  0  0  0
  -20.5673  -26.2291   23.3607 H   0  0  0  0  0  0
  -21.6647  -26.7459   22.1213 H   0  0  0  0  0  0
  -19.6907  -25.6307   21.1229 H   0  0  0  0  0  0
  -19.6692  -27.3207   20.6736 H   0  0  0  0  0  0
  -17.4193  -26.6706   21.3999 H   0  0  0  0  0  0
  -18.0302  -26.0090   22.9000 H   0  0  0  0  0  0
  -19.7946  -30.7242   24.2308 H   0  0  0  0  0  0
  -17.5039  -31.6284   24.5170 H   0  0  0  0  0  0
  -15.5353  -30.3018   23.7650 H   0  0  0  0  0  0
  -15.8669  -28.0855   22.7030 H   0  0  0  0  0  0
  -24.5933  -30.7074   25.7881 H   0  0  0  0  0  0
  -24.9019  -32.2879   26.4992 H   0  0  0  0  0  0
  -25.8184  -30.8876   27.0243 H   0  0  0  0  0  0
  -26.2848  -29.6785   24.1210 H   0  0  0  0  0  0
  -27.4126  -29.7284   25.4567 H   0  0  0  0  0  0
  -27.8671  -30.4331   23.9227 H   0  0  0  0  0  0
  -27.2684  -33.3601   26.2111 H   0  0  0  0  0  0
  -28.3884  -32.6897   25.0334 H   0  0  0  0  0  0
  -28.0748  -31.8421   26.5410 H   0  0  0  0  0  0
  -28.2522  -38.0157   24.7598 H   0  0  0  0  0  0
  -28.1154  -36.2700   24.6098 H   0  0  0  0  0  0
  -27.2344  -37.1259   25.8847 H   0  0  0  0  0  0
  -20.9257  -29.8803   21.6959 H   0  0  0  0  0  0
  -26.0136  -38.2845   24.1523 H   0  0  0  0  0  0
  -30.1575  -20.1499   17.6262 H   0  0  0  0  0  0
  -31.0184  -18.1259   16.5394 H   0  0  0  0  0  0
  -29.1770  -17.8661   21.1442 H   0  0  0  0  0  0
  -31.8154  -15.9480   16.6405 H   0  0  0  0  0  0
  -30.2113  -15.2670   16.7687 H   0  0  0  0  0  0
  -31.4972  -14.8024   17.8921 H   0  0  0  0  0  0
  -27.0201  -22.3333   20.3747 H   0  0  0  0  0  0
  -27.0027  -22.4107   18.6094 H   0  0  0  0  0  0
  -26.3060  -23.7003   19.5743 H   0  0  0  0  0  0
  -31.6407  -20.3097   20.9288 H   0  0  0  0  0  0
  -32.0820  -21.9960   20.7420 H   0  0  0  0  0  0
  -31.7803  -21.0223   19.3256 H   0  0  0  0  0  0
  -29.9126  -21.3160   22.5634 H   0  0  0  0  0  0
  -28.6309  -22.3630   21.9971 H   0  0  0  0  0  0
  -30.2746  -22.9717   22.0874 H   0  0  0  0  0  0
  -29.4000  -26.9300   16.8131 H   0  0  0  0  0  0
  -29.1353  -28.2394   17.9571 H   0  0  0  0  0  0
  -27.7777  -27.2910   17.3611 H   0  0  0  0  0  0
  -31.0882  -25.7918   18.3514 H   0  0  0  0  0  0
  -30.7099  -25.5778   20.0580 H   0  0  0  0  0  0
  -30.8955  -27.1902   19.3992 H   0  0  0  0  0  0
  -28.4701  -20.0934   20.9841 H   0  0  0  0  0  0
  -28.2248  -20.6765   19.3797 H   0  0  0  0  0  0
  -30.6131  -23.4025   19.4052 H   0  0  0  0  0  0
  -29.7297  -22.3525   18.3702 H   0  0  0  0  0  0
  -27.4975  -24.9323   18.0173 H   0  0  0  0  0  0
  -29.0772  -24.4880   17.5861 H   0  0  0  0  0  0
  -28.5701  -24.2240   20.5015 H   0  0  0  0  0  0
  -28.9285  -15.3636   20.5739 H   0  0  0  0  0  0
  1 25  1  0  0  0
  1 30  2  0  0  0
  1 89  1  0  0  0
  2  3  1  0  0  0
  2 25  1  0  0  0
  2 90  1  0  0  0
  2 91  1  0  0  0
  3  4  1  0  0  0
  3 92  1  0  0  0
  3 93  1  0  0  0
  4  5  1  0  0  0
  4 94  1  0  0  0
  4 95  1  0  0  0
  5  6  1  0  0  0
  5 26  1  0  0  0
  5 96  1  0  0  0
  6 25  1  0  0  0
  6 97  1  0  0  0
  6 98  1  0  0  0
  7  8  2  0  0  0
  7 26  1  0  0  0
  7 29  1  0  0  0
  8  9  1  0  0  0
  8 22  1  0  0  0
  9 10  1  0  0  0
  9 27  2  0  0  0
 10 11  2  0  0  0
 10 15  1  0  0  0
 11 12  1  0  0  0
 11 99  1  0  0  0
 12 13  2  0  0  0
 12100  1  0  0  0
 13 14  1  0  0  0
 13 31  1  0  0  0
 14 15  2  0  0  0
 14101  1  0  0  0
 15102  1  0  0  0
 16 17  2  0  0  0
 16 21  1  0  0  0
 16 31  1  0  0  0
 17 18  1  0  0  0
 17103  1  0  0  0
 18 19  2  0  0  0
 18104  1  0  0  0
 19 20  1  0  0  0
 19 24  1  0  0  0
 20 21  2  0  0  0
 20105  1  0  0  0
 21 23  1  0  0  0
 22 28  1  0  0  0
 22 32  2  0  0  0
 26 27  1  0  0  0
 28106  1  0  0  0
 28107  1  0  0  0
 29108  1  0  0  0
 29109  1  0  0  0
 33 34  1  0  0  0
 33 66  1  0  0  0
 33 70  2  0  0  0
 34 36  1  0  0  0
 34 59  1  0  0  0
 34110  1  0  0  0
 35 44  2  0  0  0
 35 45  1  0  0  0
 35 68  1  0  0  0
 36 56  1  0  0  0
 36111  1  0  0  0
 37 39  1  0  0  0
 37 47  1  0  0  0
 37 66  1  0  0  0
 37112  1  0  0  0
 38 43  2  0  0  0
 38 46  1  0  0  0
 38 47  1  0  0  0
 39 64  1  0  0  0
 39 67  2  0  0  0
 40 52  1  0  0  0
 40 53  2  0  0  0
 40 58  1  0  0  0
 41113  1  0  0  0
 41114  1  0  0  0
 41115  1  0  0  0
 41 48  1  0  0  0
 42 43  1  0  0  0
 42 66  1  0  0  0
 42116  1  0  0  0
 42117  1  0  0  0
 43 44  1  0  0  0
 44118  1  0  0  0
 45 46  2  0  0  0
 45119  1  0  0  0
 46120  1  0  0  0
 47121  1  0  0  0
 47122  1  0  0  0
 48 56  1  0  0  0
 48 65  1  0  0  0
 48123  1  0  0  0
 49 50  1  0  0  0
 49 53  1  0  0  0
 49 64  1  0  0  0
 49124  1  0  0  0
 50 51  1  0  0  0
 50125  1  0  0  0
 50126  1  0  0  0
 51 52  1  0  0  0
 51127  1  0  0  0
 51128  1  0  0  0
 52129  1  0  0  0
 52130  1  0  0  0
 53 54  1  0  0  0
 54 55  2  0  0  0
 54131  1  0  0  0
 55 57  1  0  0  0
 55132  1  0  0  0
 56 69  2  0  0  0
 57 58  2  0  0  0
 57133  1  0  0  0
 58134  1  0  0  0
 59 60  1  0  0  0
 59 61  1  0  0  0
 59 62  1  0  0  0
 60135  1  0  0  0
 60136  1  0  0  0
 60137  1  0  0  0
 61138  1  0  0  0
 61139  1  0  0  0
 61140  1  0  0  0
 62141  1  0  0  0
 62142  1  0  0  0
 62143  1  0  0  0
 63 65  1  0  0  0
 63144  1  0  0  0
 63145  1  0  0  0
 63146  1  0  0  0
 64147  1  0  0  0
 65148  1  0  0  0
 68 88  1  0  0  0
 71 72  2  0  0  0
 71 74  1  0  0  0
 71149  1  0  0  0
 72 75  1  0  0  0
 72150  1  0  0  0
 73 74  2  0  0  0
 73 76  1  0  0  0
 73151  1  0  0  0
 74 83  1  0  0  0
 75 76  2  0  0  0
 75 77  1  0  0  0
 76 89  1  0  0  0
 77152  1  0  0  0
 77153  1  0  0  0
 77154  1  0  0  0
 78155  1  0  0  0
 78156  1  0  0  0
 78157  1  0  0  0
 78 86  1  0  0  0
 79158  1  0  0  0
 79159  1  0  0  0
 79160  1  0  0  0
 79 87  1  0  0  0
 80 87  1  0  0  0
 80161  1  0  0  0
 80162  1  0  0  0
 80163  1  0  0  0
 81164  1  0  0  0
 81165  1  0  0  0
 81166  1  0  0  0
 81 88  1  0  0  0
 82 88  1  0  0  0
 82167  1  0  0  0
 82168  1  0  0  0
 82169  1  0  0  0
 83 87  1  0  0  0
 83170  1  0  0  0
 83171  1  0  0  0
 84 86  1  0  0  0
 84 87  1  0  0  0
 84172  1  0  0  0
 84173  1  0  0  0
 85 86  1  0  0  0
 85 88  1  0  0  0
 85174  1  0  0  0
 85175  1  0  0  0
 86176  1  0  0  0
 89177  1  0  0  0
M  ISO  4   1 100  68 101  88 101  89 100
M  END
> <chiral flag>
0

> <version>
0

> <s_m_source_file>
/data/baiqing/PycharmProjects/Reinvent-master-3.2/result/LINK_invent/BTK/process_docking_weight1_custom_product_contain_oxygen_bond_distance_aromatic_linkinvent_7_9_3/rearranged_h_0140.sdf

> <i_m_source_file_index>
59

> <r_mmod_Potential_Energy-OPLS-2005>
86.5327301025391

> <r_mmod_Stretch_Energy-OPLS-2005>
42.1659126281738

> <r_mmod_Bend_Energy-OPLS-2005>
136.410232543945

> <r_mmod_Torsional_Energy-OPLS-2005>
289.967620849609

> <r_mmod_Improper_Torsional_Energy-OPLS-2005>
9.88167572021484

> <r_mmod_Van_der_Waal_Energy-OPLS-2005>
164.802383422852

> <r_mmod_Electrostatic_Energy-OPLS-2005>
-396.879852294922

> <r_mmod_Solvation_Energy-OPLS-2005>
-185.140930175781

> <b_mmod_Minimization_Converged-OPLS-2005>
0

> <r_mmod_RMS_Derivative-OPLS-2005>
3.39731359481812

$$$$
59
                    3D
 Structure written by MMmdl.
162171  0  0  1  0            999 V2000
  -30.5381  -14.9817   20.4165 C   0  0  0  0  0  0
  -30.4401  -12.6131   19.4901 C   0  0  0  0  0  0
  -29.5191  -12.5280   18.2515 C   0  0  0  0  0  0
  -28.0550  -12.3080   18.6769 C   0  0  0  0  0  0
  -27.6259  -13.2495   19.8324 C   0  0  2  0  0  0
  -28.6714  -13.3014   20.9656 C   0  0  0  0  0  0
  -25.2450  -13.8213   20.5717 C   0  0  0  0  0  0
  -24.1771  -13.0435   20.9238 C   0  0  0  0  0  0
  -24.6388  -11.6921   20.8758 C   0  0  0  0  0  0
  -23.9071  -10.4292   21.0408 C   0  0  0  0  0  0
  -24.3617   -9.4209   21.9187 C   0  0  0  0  0  0
  -23.6292   -8.2245   22.0758 C   0  0  0  0  0  0
  -22.4279   -8.0277   21.3545 C   0  0  0  0  0  0
  -21.9913   -9.0252   20.4649 C   0  0  0  0  0  0
  -22.7241  -10.2132   20.3059 C   0  0  0  0  0  0
  -21.6855   -6.0730   22.5275 C   0  0  0  0  0  0
  -21.4014   -6.5635   23.8208 C   0  0  0  0  0  0
  -21.3662   -5.6791   24.9172 C   0  0  0  0  0  0
  -21.6045   -4.3055   24.7226 C   0  0  0  0  0  0
  -21.8818   -3.8142   23.4350 C   0  0  0  0  0  0
  -21.9193   -4.6956   22.3402 C   0  0  0  0  0  0
  -22.7791  -13.5206   21.1889 C   0  0  0  0  0  0
  -22.1662   -4.2139   21.0981 F   0  0  0  0  0  0
  -21.5630   -3.4540   25.7743 F   0  0  0  0  0  0
  -29.9375  -13.7221   20.3526 N   0  0  0  0  0  0
  -26.2873  -12.9448   20.3238 N   0  0  0  0  0  0
  -25.9322  -11.6577   20.5740 N   0  0  0  0  0  0
  -22.0437  -12.8195   22.0439 N   0  0  0  0  0  0
  -25.4089  -15.1945   20.4131 N   0  0  0  0  0  0
  -31.7547  -15.0180   20.2001 O   0  0  0  0  0  0
  -21.6644   -6.8873   21.4239 O   0  0  0  0  0  0
  -22.3480  -14.5513   20.6733 O   0  0  0  0  0  0
  -24.6468  -31.8415   23.1864 C   0  0  0  0  0  0
  -25.9227  -32.4679   23.8261 C   0  0  1  0  0  0
  -27.2109  -27.1046   20.1564 C   0  0  0  0  0  0
  -25.5963  -33.8488   24.2173 N   0  0  0  0  0  0
  -23.4517  -30.4608   21.5330 C   0  0  2  0  0  0
  -24.9014  -28.8844   20.1114 C   0  0  0  0  0  0
  -22.7588  -29.4531   22.4850 C   0  0  0  0  0  0
  -18.0309  -28.1397   22.8478 C   0  0  0  0  0  0
  -24.1495  -36.7251   23.2640 C   0  0  0  0  0  0
  -26.0112  -30.7052   21.3911 C   0  0  0  0  0  0
  -26.0812  -29.3137   20.7329 C   0  0  0  0  0  0
  -27.2387  -28.4415   20.7354 C   0  0  0  0  0  0
  -26.0069  -26.7906   19.4882 C   0  0  0  0  0  0
  -24.8795  -27.6381   19.4714 C   0  0  0  0  0  0
  -23.6803  -29.7907   20.1529 C   0  0  0  0  0  0
  -25.4128  -36.3023   24.0308 C   0  0  1  0  0  0
  -20.5926  -28.3727   23.1231 C   0  0  2  0  0  0
  -20.6798  -26.9427   22.5406 C   0  0  0  0  0  0
  -19.5768  -26.6385   21.5219 C   0  0  0  0  0  0
  -18.1947  -26.7935   22.1627 C   0  0  0  0  0  0
  -19.1568  -28.8881   23.2845 C   0  0  0  0  0  0
  -18.9478  -30.1472   23.8875 C   0  0  0  0  0  0
  -17.6475  -30.6592   24.0559 C   0  0  0  0  0  0
  -25.9083  -34.9398   23.5054 C   0  0  0  0  0  0
  -16.5366  -29.9083   23.6337 C   0  0  0  0  0  0
  -16.7294  -28.6503   23.0362 C   0  0  0  0  0  0
  -26.4540  -31.6552   25.0713 C   0  0  0  0  0  0
  -25.3712  -31.3745   26.1396 C   0  0  0  0  0  0
  -27.0412  -30.2942   24.6316 C   0  0  0  0  0  0
  -27.6063  -32.4328   25.7501 C   0  0  0  0  0  0
  -27.5578  -37.1778   24.8462 C   0  0  0  0  0  0
  -21.4277  -29.3044   22.3598 N   0  0  0  0  0  0
  -26.4291  -37.3738   23.9403 N   0  0  0  0  0  0
  -24.7233  -31.0245   22.0913 N   0  0  0  0  0  0
  -23.4217  -28.8080   23.3010 O   0  0  0  0  0  0
  -28.2446  -26.0893   20.2008 O   0  0  0  0  0  0
  -26.5674  -34.8896   22.4636 O   0  0  0  0  0  0
  -23.5579  -32.1312   23.7060 O   0  0  0  0  0  0
  -31.6297  -19.3547   21.5398 C   0  0  0  0  0  0
  -31.3064  -18.0287   21.1869 C   0  0  0  0  0  0
  -29.2093  -18.8904   20.3595 C   0  0  0  0  0  0
  -30.7630  -20.4676   21.3647 C   0  0  0  0  0  0
  -29.5231  -20.3311   20.6661 C   0  0  0  0  0  0
  -30.0624  -17.6873   20.6272 C   0  0  0  0  0  0
  -28.9050  -23.2815   20.1324 C   0  0  0  0  0  0
  -31.6008  -22.9874   23.7483 C   0  0  0  0  0  0
  -30.3212  -22.4309   23.1213 C   0  0  0  0  0  0
  -32.3292  -21.8250   23.0740 C   0  0  0  0  0  0
  -31.1937  -21.7791   22.0270 C   0  0  0  0  0  0
  -27.4275  -21.2772   19.4197 C   0  0  0  0  0  0
  -27.8731  -24.5704   20.3850 C   0  0  0  0  0  0
  -28.5221  -21.6654   20.4313 C   0  0  1  0  0  0
  -29.7520  -16.1819   20.4548 N   0  0  0  0  0  0
  -29.9938  -23.5339   19.6093 O   0  0  0  0  0  0
  -31.4707  -12.7778   19.1720 H   0  0  0  0  0  0
  -30.4434  -11.6690   20.0370 H   0  0  0  0  0  0
  -29.8422  -11.7219   17.5913 H   0  0  0  0  0  0
  -29.5980  -13.4492   17.6720 H   0  0  0  0  0  0
  -27.9607  -11.2699   18.9968 H   0  0  0  0  0  0
  -27.3875  -12.4238   17.8222 H   0  0  0  0  0  0
  -27.5803  -14.2457   19.3919 H   0  0  0  0  0  0
  -28.7710  -12.3339   21.4596 H   0  0  0  0  0  0
  -28.3690  -14.0142   21.7348 H   0  0  0  0  0  0
  -25.2756   -9.5689   22.4771 H   0  0  0  0  0  0
  -23.9996   -7.4640   22.7485 H   0  0  0  0  0  0
  -21.0841   -8.8773   19.8959 H   0  0  0  0  0  0
  -22.3693  -10.9673   19.6175 H   0  0  0  0  0  0
  -21.2006   -7.6144   23.9706 H   0  0  0  0  0  0
  -21.1486   -6.0525   25.9074 H   0  0  0  0  0  0
  -22.0595   -2.7604   23.2856 H   0  0  0  0  0  0
  -22.4055  -11.9860   22.4831 H   0  0  0  0  0  0
  -21.1052  -13.1220   22.2641 H   0  0  0  0  0  0
  -24.6346  -15.8404   20.5241 H   0  0  0  0  0  0
  -26.2442  -15.6392   20.0565 H   0  0  0  0  0  0
  -26.7289  -32.5271   23.0983 H   0  0  0  0  0  0
  -25.0072  -33.9600   25.0295 H   0  0  0  0  0  0
  -22.7552  -31.2873   21.3768 H   0  0  0  0  0  0
  -23.3762  -35.9577   23.3287 H   0  0  0  0  0  0
  -24.3577  -36.8910   22.2058 H   0  0  0  0  0  0
  -23.7245  -37.6437   23.6698 H   0  0  0  0  0  0
  -26.1717  -31.4578   20.6180 H   0  0  0  0  0  0
  -26.8800  -30.7556   22.0355 H   0  0  0  0  0  0
  -28.1378  -28.7665   21.2398 H   0  0  0  0  0  0
  -25.9034  -25.8501   18.9705 H   0  0  0  0  0  0
  -23.9833  -27.3093   18.9631 H   0  0  0  0  0  0
  -23.8186  -30.5661   19.3984 H   0  0  0  0  0  0
  -22.7947  -29.2349   19.8406 H   0  0  0  0  0  0
  -25.1313  -36.1852   25.0799 H   0  0  0  0  0  0
  -21.0012  -28.3321   24.1356 H   0  0  0  0  0  0
  -20.5718  -26.2331   23.3625 H   0  0  0  0  0  0
  -21.6658  -26.7446   22.1185 H   0  0  0  0  0  0
  -19.6938  -25.6293   21.1258 H   0  0  0  0  0  0
  -19.6712  -27.3187   20.6742 H   0  0  0  0  0  0
  -17.4221  -26.6686   21.4025 H   0  0  0  0  0  0
  -18.0335  -26.0079   22.9023 H   0  0  0  0  0  0
  -19.7951  -30.7293   24.2244 H   0  0  0  0  0  0
  -17.5023  -31.6272   24.5159 H   0  0  0  0  0  0
  -15.5363  -30.2976   23.7674 H   0  0  0  0  0  0
  -15.8692  -28.0812   22.7096 H   0  0  0  0  0  0
  -24.5911  -30.7078   25.7704 H   0  0  0  0  0  0
  -24.8878  -32.2925   26.4747 H   0  0  0  0  0  0
  -25.7978  -30.8966   27.0223 H   0  0  0  0  0  0
  -26.3039  -29.6647   24.1323 H   0  0  0  0  0  0
  -27.4014  -29.7260   25.4901 H   0  0  0  0  0  0
  -27.8950  -30.4165   23.9647 H   0  0  0  0  0  0
  -27.2658  -33.3659   26.2002 H   0  0  0  0  0  0
  -28.3912  -32.6841   25.0356 H   0  0  0  0  0  0
  -28.0687  -31.8506   26.5483 H   0  0  0  0  0  0
  -28.2572  -38.0092   24.7516 H   0  0  0  0  0  0
  -28.1098  -36.2622   24.6287 H   0  0  0  0  0  0
  -27.2293  -37.1413   25.8863 H   0  0  0  0  0  0
  -20.9499  -29.8740   21.6755 H   0  0  0  0  0  0
  -26.0160  -38.2804   24.1415 H   0  0  0  0  0  0
  -32.5878  -19.4958   22.0182 H   0  0  0  0  0  0
  -32.0269  -17.2583   21.4206 H   0  0  0  0  0  0
  -28.2439  -18.6885   19.9199 H   0  0  0  0  0  0
  -31.6234  -22.9756   24.8387 H   0  0  0  0  0  0
  -31.8868  -23.9610   23.3458 H   0  0  0  0  0  0
  -29.6158  -23.1918   22.7933 H   0  0  0  0  0  0
  -29.8346  -21.6957   23.7651 H   0  0  0  0  0  0
  -32.3592  -20.9522   23.7293 H   0  0  0  0  0  0
  -33.3165  -22.0579   22.6739 H   0  0  0  0  0  0
  -31.4550  -22.4934   21.2487 H   0  0  0  0  0  0
  -26.8103  -20.4632   19.7988 H   0  0  0  0  0  0
  -27.8669  -20.9553   18.4752 H   0  0  0  0  0  0
  -26.7490  -22.1014   19.1991 H   0  0  0  0  0  0
  -27.5061  -24.4671   21.4063 H   0  0  0  0  0  0
  -27.0137  -24.3486   19.7580 H   0  0  0  0  0  0
  -28.0115  -21.7425   21.3914 H   0  0  0  0  0  0
  -28.7662  -15.9810   20.3920 H   0  0  0  0  0  0
  1 25  1  0  0  0
  1 30  2  0  0  0
  1 85  1  0  0  0
  2  3  1  0  0  0
  2 25  1  0  0  0
  2 87  1  0  0  0
  2 88  1  0  0  0
  3  4  1  0  0  0
  3 89  1  0  0  0
  3 90  1  0  0  0
  4  5  1  0  0  0
  4 91  1  0  0  0
  4 92  1  0  0  0
  5  6  1  0  0  0
  5 26  1  0  0  0
  5 93  1  0  0  0
  6 25  1  0  0  0
  6 94  1  0  0  0
  6 95  1  0  0  0
  7  8  2  0  0  0
  7 26  1  0  0  0
  7 29  1  0  0  0
  8  9  1  0  0  0
  8 22  1  0  0  0
  9 10  1  0  0  0
  9 27  2  0  0  0
 10 11  2  0  0  0
 10 15  1  0  0  0
 11 12  1  0  0  0
 11 96  1  0  0  0
 12 13  2  0  0  0
 12 97  1  0  0  0
 13 14  1  0  0  0
 13 31  1  0  0  0
 14 15  2  0  0  0
 14 98  1  0  0  0
 15 99  1  0  0  0
 16 17  2  0  0  0
 16 21  1  0  0  0
 16 31  1  0  0  0
 17 18  1  0  0  0
 17100  1  0  0  0
 18 19  2  0  0  0
 18101  1  0  0  0
 19 20  1  0  0  0
 19 24  1  0  0  0
 20 21  2  0  0  0
 20102  1  0  0  0
 21 23  1  0  0  0
 22 28  1  0  0  0
 22 32  2  0  0  0
 26 27  1  0  0  0
 28103  1  0  0  0
 28104  1  0  0  0
 29105  1  0  0  0
 29106  1  0  0  0
 33 34  1  0  0  0
 33 66  1  0  0  0
 33 70  2  0  0  0
 34 36  1  0  0  0
 34 59  1  0  0  0
 34107  1  0  0  0
 35 44  2  0  0  0
 35 45  1  0  0  0
 35 68  1  0  0  0
 36 56  1  0  0  0
 36108  1  0  0  0
 37 39  1  0  0  0
 37 47  1  0  0  0
 37 66  1  0  0  0
 37109  1  0  0  0
 38 43  2  0  0  0
 38 46  1  0  0  0
 38 47  1  0  0  0
 39 64  1  0  0  0
 39 67  2  0  0  0
 40 52  1  0  0  0
 40 53  2  0  0  0
 40 58  1  0  0  0
 41110  1  0  0  0
 41111  1  0  0  0
 41112  1  0  0  0
 41 48  1  0  0  0
 42 43  1  0  0  0
 42 66  1  0  0  0
 42113  1  0  0  0
 42114  1  0  0  0
 43 44  1  0  0  0
 44115  1  0  0  0
 45 46  2  0  0  0
 45116  1  0  0  0
 46117  1  0  0  0
 47118  1  0  0  0
 47119  1  0  0  0
 48 56  1  0  0  0
 48 65  1  0  0  0
 48120  1  0  0  0
 49 50  1  0  0  0
 49 53  1  0  0  0
 49 64  1  0  0  0
 49121  1  0  0  0
 50 51  1  0  0  0
 50122  1  0  0  0
 50123  1  0  0  0
 51 52  1  0  0  0
 51124  1  0  0  0
 51125  1  0  0  0
 52126  1  0  0  0
 52127  1  0  0  0
 53 54  1  0  0  0
 54 55  2  0  0  0
 54128  1  0  0  0
 55 57  1  0  0  0
 55129  1  0  0  0
 56 69  2  0  0  0
 57 58  2  0  0  0
 57130  1  0  0  0
 58131  1  0  0  0
 59 60  1  0  0  0
 59 61  1  0  0  0
 59 62  1  0  0  0
 60132  1  0  0  0
 60133  1  0  0  0
 60134  1  0  0  0
 61135  1  0  0  0
 61136  1  0  0  0
 61137  1  0  0  0
 62138  1  0  0  0
 62139  1  0  0  0
 62140  1  0  0  0
 63 65  1  0  0  0
 63141  1  0  0  0
 63142  1  0  0  0
 63143  1  0  0  0
 64144  1  0  0  0
 65145  1  0  0  0
 68 83  1  0  0  0
 71 72  2  0  0  0
 71 74  1  0  0  0
 71146  1  0  0  0
 72 76  1  0  0  0
 72147  1  0  0  0
 73 75  1  0  0  0
 73 76  2  0  0  0
 73148  1  0  0  0
 74 75  2  0  0  0
 74 81  1  0  0  0
 75 84  1  0  0  0
 76 85  1  0  0  0
 77 83  1  0  0  0
 77 84  1  0  0  0
 77 86  2  0  0  0
 78 79  1  0  0  0
 78 80  1  0  0  0
 78149  1  0  0  0
 78150  1  0  0  0
 79 81  1  0  0  0
 79151  1  0  0  0
 79152  1  0  0  0
 80 81  1  0  0  0
 80153  1  0  0  0
 80154  1  0  0  0
 81155  1  0  0  0
 82156  1  0  0  0
 82157  1  0  0  0
 82158  1  0  0  0
 82 84  1  0  0  0
 83159  1  0  0  0
 83160  1  0  0  0
 84161  1  0  0  0
 85162  1  0  0  0
M  ISO  4   1 100  68 101  83 101  85 100
M  END
> <chiral flag>
0

> <version>
0

> <s_m_source_file>
/data/baiqing/PycharmProjects/Reinvent-master-3.2/result/LINK_invent/BTK/process_docking_weight1_custom_product_contain_oxygen_bond_distance_aromatic_linkinvent_7_9_3/rearranged_h_0140.sdf

> <i_m_source_file_index>
60

> <r_mmod_Potential_Energy-OPLS-2005>
658.320861816406

> <r_mmod_Stretch_Energy-OPLS-2005>
305.190460205078

> <r_mmod_Bend_Energy-OPLS-2005>
279.398406982422

> <r_mmod_Torsional_Energy-OPLS-2005>
256.353424072266

> <r_mmod_Improper_Torsional_Energy-OPLS-2005>
7.58221387863159

> <r_mmod_Van_der_Waal_Energy-OPLS-2005>
138.494857788086

> <r_mmod_Electrostatic_Energy-OPLS-2005>
-320.156768798828

> <r_mmod_Solvation_Energy-OPLS-2005>
-228.903472900391

> <b_mmod_Minimization_Converged-OPLS-2005>
0

> <r_mmod_RMS_Derivative-OPLS-2005>
0.689169883728027

$$$$
60
                    3D
 Structure written by MMmdl.
159167  0  0  1  0            999 V2000
  -30.6144  -14.7192   20.4197 C   0  0  0  0  0  0
  -30.4288  -12.4237   19.4726 C   0  0  0  0  0  0
  -29.5059  -12.4675   18.2343 C   0  0  0  0  0  0
  -28.0277  -12.3168   18.6461 C   0  0  0  0  0  0
  -27.6397  -13.2269   19.8431 C   0  0  2  0  0  0
  -28.6843  -13.1583   20.9789 C   0  0  0  0  0  0
  -25.2488  -13.8200   20.5690 C   0  0  0  0  0  0
  -24.1771  -13.0423   20.9216 C   0  0  0  0  0  0
  -24.6372  -11.6911   20.8735 C   0  0  0  0  0  0
  -23.9059  -10.4279   21.0385 C   0  0  0  0  0  0
  -24.3616   -9.4203   21.9179 C   0  0  0  0  0  0
  -23.6288   -8.2235   22.0755 C   0  0  0  0  0  0
  -22.4275   -8.0260   21.3527 C   0  0  0  0  0  0
  -21.9915   -9.0232   20.4636 C   0  0  0  0  0  0
  -22.7223  -10.2113   20.3041 C   0  0  0  0  0  0
  -21.6864   -6.0727   22.5275 C   0  0  0  0  0  0
  -21.4009   -6.5636   23.8208 C   0  0  0  0  0  0
  -21.3653   -5.6780   24.9170 C   0  0  0  0  0  0
  -21.6052   -4.3045   24.7216 C   0  0  0  0  0  0
  -21.8822   -3.8133   23.4329 C   0  0  0  0  0  0
  -21.9187   -4.6962   22.3391 C   0  0  0  0  0  0
  -22.7807  -13.5214   21.1873 C   0  0  0  0  0  0
  -22.1660   -4.2145   21.0968 F   0  0  0  0  0  0
  -21.5633   -3.4527   25.7727 F   0  0  0  0  0  0
  -29.9907  -13.4931   20.3985 N   0  0  0  0  0  0
  -26.2912  -12.9398   20.3249 N   0  0  0  0  0  0
  -25.9295  -11.6542   20.5751 N   0  0  0  0  0  0
  -22.0462  -12.8165   22.0422 N   0  0  0  0  0  0
  -25.4146  -15.1911   20.4131 N   0  0  0  0  0  0
  -31.8021  -14.8119   20.0996 O   0  0  0  0  0  0
  -21.6626   -6.8859   21.4234 O   0  0  0  0  0  0
  -22.3484  -14.5511   20.6730 O   0  0  0  0  0  0
  -24.6342  -31.8545   23.1964 C   0  0  0  0  0  0
  -25.9184  -32.4729   23.8284 C   0  0  1  0  0  0
  -27.2188  -27.2550   20.1241 C   0  0  0  0  0  0
  -25.6007  -33.8523   24.2233 N   0  0  0  0  0  0
  -23.4285  -30.4817   21.5384 C   0  0  2  0  0  0
  -24.8753  -28.9299   20.1061 C   0  0  0  0  0  0
  -22.7536  -29.4601   22.4880 C   0  0  0  0  0  0
  -18.0309  -28.1394   22.8526 C   0  0  0  0  0  0
  -24.1489  -36.7188   23.2645 C   0  0  0  0  0  0
  -25.9757  -30.7669   21.3760 C   0  0  0  0  0  0
  -26.0484  -29.3908   20.7156 C   0  0  0  0  0  0
  -27.2221  -28.5657   20.7158 C   0  0  0  0  0  0
  -26.0199  -26.8722   19.4793 C   0  0  0  0  0  0
  -24.8670  -27.6779   19.4780 C   0  0  0  0  0  0
  -23.6471  -29.8178   20.1532 C   0  0  0  0  0  0
  -25.4129  -36.3035   24.0340 C   0  0  1  0  0  0
  -20.5928  -28.3695   23.1278 C   0  0  2  0  0  0
  -20.6786  -26.9399   22.5420 C   0  0  0  0  0  0
  -19.5731  -26.6398   21.5237 C   0  0  0  0  0  0
  -18.1923  -26.7941   22.1660 C   0  0  0  0  0  0
  -19.1581  -28.8855   23.2898 C   0  0  0  0  0  0
  -18.9503  -30.1459   23.8916 C   0  0  0  0  0  0
  -17.6504  -30.6595   24.0582 C   0  0  0  0  0  0
  -25.9088  -34.9421   23.5081 C   0  0  0  0  0  0
  -16.5391  -29.9095   23.6340 C   0  0  0  0  0  0
  -16.7306  -28.6515   23.0366 C   0  0  0  0  0  0
  -26.4536  -31.6533   25.0670 C   0  0  0  0  0  0
  -25.3748  -31.3684   26.1389 C   0  0  0  0  0  0
  -27.0384  -30.2965   24.6107 C   0  0  0  0  0  0
  -27.6100  -32.4243   25.7469 C   0  0  0  0  0  0
  -27.5567  -37.1740   24.8496 C   0  0  0  0  0  0
  -21.4239  -29.3044   22.3646 N   0  0  0  0  0  0
  -26.4286  -37.3750   23.9439 N   0  0  0  0  0  0
  -24.6972  -31.0522   22.0929 N   0  0  0  0  0  0
  -23.4260  -28.8114   23.2945 O   0  0  0  0  0  0
  -28.3069  -26.3429   20.1787 O   0  0  0  0  0  0
  -26.5610  -34.8925   22.4622 O   0  0  0  0  0  0
  -23.5503  -32.1347   23.7296 O   0  0  0  0  0  0
  -29.4606  -20.4417   21.8815 C   0  0  0  0  0  0
  -29.8377  -19.0543   21.8601 C   0  0  0  0  0  0
  -29.1238  -20.8353   20.6108 C   0  0  0  0  0  0
  -29.7128  -18.5811   20.5827 C   0  0  0  0  0  0
  -31.4441  -22.8479   19.3488 C   0  0  0  0  0  0
  -29.5381  -23.8404   21.7468 C   0  0  0  0  0  0
  -28.5397  -22.1685   19.9899 C   0  0  0  0  0  0
  -30.1033  -17.2200   19.8979 C   0  0  0  0  0  0
  -30.3229  -23.9044   19.3249 C   0  0  0  0  0  0
  -28.0479  -24.8715   19.9430 C   0  0  0  0  0  0
  -29.1090  -23.6769   20.2703 C   0  0  2  0  0  0
  -29.8337  -15.8563   20.5306 N   0  0  0  0  0  0
  -29.2622  -19.6773   19.8125 O   0  0  0  0  0  0
  -31.4691  -12.5397   19.1626 H   0  0  0  0  0  0
  -30.3690  -11.4499   19.9615 H   0  0  0  0  0  0
  -29.7707  -11.6691   17.5369 H   0  0  0  0  0  0
  -29.6514  -13.4043   17.6940 H   0  0  0  0  0  0
  -27.8697  -11.2697   18.9106 H   0  0  0  0  0  0
  -27.3732  -12.5077   17.7950 H   0  0  0  0  0  0
  -27.6378  -14.2461   19.4573 H   0  0  0  0  0  0
  -28.7080  -12.1632   21.4245 H   0  0  0  0  0  0
  -28.4282  -13.8500   21.7819 H   0  0  0  0  0  0
  -25.2770   -9.5678   22.4740 H   0  0  0  0  0  0
  -23.9986   -7.4639   22.7489 H   0  0  0  0  0  0
  -21.0848   -8.8741   19.8947 H   0  0  0  0  0  0
  -22.3683  -10.9645   19.6135 H   0  0  0  0  0  0
  -21.2003   -7.6143   23.9715 H   0  0  0  0  0  0
  -21.1488   -6.0509   25.9075 H   0  0  0  0  0  0
  -22.0609   -2.7598   23.2833 H   0  0  0  0  0  0
  -22.4109  -11.9804   22.4732 H   0  0  0  0  0  0
  -21.1096  -13.1173   22.2699 H   0  0  0  0  0  0
  -24.6484  -15.8391   20.5639 H   0  0  0  0  0  0
  -26.2441  -15.6418   20.0493 H   0  0  0  0  0  0
  -26.7241  -32.5369   23.1003 H   0  0  0  0  0  0
  -25.0301  -33.9617   25.0484 H   0  0  0  0  0  0
  -22.7262  -31.3054   21.3923 H   0  0  0  0  0  0
  -23.3806  -35.9464   23.3342 H   0  0  0  0  0  0
  -24.3574  -36.8752   22.2045 H   0  0  0  0  0  0
  -23.7166  -37.6379   23.6629 H   0  0  0  0  0  0
  -26.1232  -31.5329   20.6135 H   0  0  0  0  0  0
  -26.8497  -30.8078   22.0142 H   0  0  0  0  0  0
  -28.1169  -28.9158   21.2114 H   0  0  0  0  0  0
  -25.9325  -25.9210   18.9814 H   0  0  0  0  0  0
  -23.9686  -27.3241   18.9917 H   0  0  0  0  0  0
  -23.7796  -30.5957   19.3997 H   0  0  0  0  0  0
  -22.7634  -29.2577   19.8432 H   0  0  0  0  0  0
  -25.1306  -36.1877   25.0827 H   0  0  0  0  0  0
  -21.0047  -28.3281   24.1390 H   0  0  0  0  0  0
  -20.5728  -26.2271   23.3615 H   0  0  0  0  0  0
  -21.6631  -26.7413   22.1164 H   0  0  0  0  0  0
  -19.6877  -25.6324   21.1206 H   0  0  0  0  0  0
  -19.6666  -27.3271   20.6813 H   0  0  0  0  0  0
  -17.4192  -26.6766   21.4052 H   0  0  0  0  0  0
  -18.0290  -26.0051   22.9017 H   0  0  0  0  0  0
  -19.7977  -30.7270   24.2291 H   0  0  0  0  0  0
  -17.5061  -31.6285   24.5167 H   0  0  0  0  0  0
  -15.5384  -30.3006   23.7653 H   0  0  0  0  0  0
  -15.8708  -28.0839   22.7049 H   0  0  0  0  0  0
  -24.5998  -30.6937   25.7731 H   0  0  0  0  0  0
  -24.8852  -32.2845   26.4717 H   0  0  0  0  0  0
  -25.8075  -30.8970   27.0220 H   0  0  0  0  0  0
  -26.2960  -29.6684   24.1172 H   0  0  0  0  0  0
  -27.4172  -29.7239   25.4571 H   0  0  0  0  0  0
  -27.8786  -30.4267   23.9281 H   0  0  0  0  0  0
  -27.2741  -33.3576   26.1997 H   0  0  0  0  0  0
  -28.3965  -32.6707   25.0325 H   0  0  0  0  0  0
  -28.0688  -31.8363   26.5427 H   0  0  0  0  0  0
  -28.2615  -38.0008   24.7565 H   0  0  0  0  0  0
  -28.1040  -36.2546   24.6352 H   0  0  0  0  0  0
  -27.2267  -37.1402   25.8893 H   0  0  0  0  0  0
  -20.9420  -29.8802   21.6879 H   0  0  0  0  0  0
  -26.0181  -38.2824   24.1496 H   0  0  0  0  0  0
  -29.4418  -21.0743   22.7582 H   0  0  0  0  0  0
  -30.2015  -18.4711   22.6949 H   0  0  0  0  0  0
  -31.0898  -21.8632   19.0446 H   0  0  0  0  0  0
  -31.9101  -22.7572   20.3301 H   0  0  0  0  0  0
  -32.2213  -23.1200   18.6349 H   0  0  0  0  0  0
  -30.3527  -23.1730   22.0234 H   0  0  0  0  0  0
  -28.7105  -23.6424   22.4286 H   0  0  0  0  0  0
  -29.8857  -24.8542   21.9527 H   0  0  0  0  0  0
  -27.4979  -22.1892   20.3149 H   0  0  0  0  0  0
  -28.4595  -22.0305   18.9107 H   0  0  0  0  0  0
  -31.1734  -17.2761   19.6984 H   0  0  0  0  0  0
  -29.6540  -17.1917   18.9038 H   0  0  0  0  0  0
  -30.7723  -24.8748   19.5348 H   0  0  0  0  0  0
  -29.9615  -23.9645   18.2968 H   0  0  0  0  0  0
  -27.7991  -24.7693   18.8864 H   0  0  0  0  0  0
  -27.1319  -24.6071   20.4714 H   0  0  0  0  0  0
  -28.8746  -15.6940   20.7973 H   0  0  0  0  0  0
  1 25  1  0  0  0
  1 30  2  0  0  0
  1 82  1  0  0  0
  2  3  1  0  0  0
  2 25  1  0  0  0
  2 84  1  0  0  0
  2 85  1  0  0  0
  3  4  1  0  0  0
  3 86  1  0  0  0
  3 87  1  0  0  0
  4  5  1  0  0  0
  4 88  1  0  0  0
  4 89  1  0  0  0
  5  6  1  0  0  0
  5 26  1  0  0  0
  5 90  1  0  0  0
  6 25  1  0  0  0
  6 91  1  0  0  0
  6 92  1  0  0  0
  7  8  2  0  0  0
  7 26  1  0  0  0
  7 29  1  0  0  0
  8  9  1  0  0  0
  8 22  1  0  0  0
  9 10  1  0  0  0
  9 27  2  0  0  0
 10 11  2  0  0  0
 10 15  1  0  0  0
 11 12  1  0  0  0
 11 93  1  0  0  0
 12 13  2  0  0  0
 12 94  1  0  0  0
 13 14  1  0  0  0
 13 31  1  0  0  0
 14 15  2  0  0  0
 14 95  1  0  0  0
 15 96  1  0  0  0
 16 17  2  0  0  0
 16 21  1  0  0  0
 16 31  1  0  0  0
 17 18  1  0  0  0
 17 97  1  0  0  0
 18 19  2  0  0  0
 18 98  1  0  0  0
 19 20  1  0  0  0
 19 24  1  0  0  0
 20 21  2  0  0  0
 20 99  1  0  0  0
 21 23  1  0  0  0
 22 28  1  0  0  0
 22 32  2  0  0  0
 26 27  1  0  0  0
 28100  1  0  0  0
 28101  1  0  0  0
 29102  1  0  0  0
 29103  1  0  0  0
 33 34  1  0  0  0
 33 66  1  0  0  0
 33 70  2  0  0  0
 34 36  1  0  0  0
 34 59  1  0  0  0
 34104  1  0  0  0
 35 44  2  0  0  0
 35 45  1  0  0  0
 35 68  1  0  0  0
 36 56  1  0  0  0
 36105  1  0  0  0
 37 39  1  0  0  0
 37 47  1  0  0  0
 37 66  1  0  0  0
 37106  1  0  0  0
 38 43  2  0  0  0
 38 46  1  0  0  0
 38 47  1  0  0  0
 39 64  1  0  0  0
 39 67  2  0  0  0
 40 52  1  0  0  0
 40 53  2  0  0  0
 40 58  1  0  0  0
 41107  1  0  0  0
 41108  1  0  0  0
 41109  1  0  0  0
 41 48  1  0  0  0
 42 43  1  0  0  0
 42 66  1  0  0  0
 42110  1  0  0  0
 42111  1  0  0  0
 43 44  1  0  0  0
 44112  1  0  0  0
 45 46  2  0  0  0
 45113  1  0  0  0
 46114  1  0  0  0
 47115  1  0  0  0
 47116  1  0  0  0
 48 56  1  0  0  0
 48 65  1  0  0  0
 48117  1  0  0  0
 49 50  1  0  0  0
 49 53  1  0  0  0
 49 64  1  0  0  0
 49118  1  0  0  0
 50 51  1  0  0  0
 50119  1  0  0  0
 50120  1  0  0  0
 51 52  1  0  0  0
 51121  1  0  0  0
 51122  1  0  0  0
 52123  1  0  0  0
 52124  1  0  0  0
 53 54  1  0  0  0
 54 55  2  0  0  0
 54125  1  0  0  0
 55 57  1  0  0  0
 55126  1  0  0  0
 56 69  2  0  0  0
 57 58  2  0  0  0
 57127  1  0  0  0
 58128  1  0  0  0
 59 60  1  0  0  0
 59 61  1  0  0  0
 59 62  1  0  0  0
 60129  1  0  0  0
 60130  1  0  0  0
 60131  1  0  0  0
 61132  1  0  0  0
 61133  1  0  0  0
 61134  1  0  0  0
 62135  1  0  0  0
 62136  1  0  0  0
 62137  1  0  0  0
 63 65  1  0  0  0
 63138  1  0  0  0
 63139  1  0  0  0
 63140  1  0  0  0
 64141  1  0  0  0
 65142  1  0  0  0
 68 80  1  0  0  0
 71 72  1  0  0  0
 71 73  2  0  0  0
 71143  1  0  0  0
 72 74  2  0  0  0
 72144  1  0  0  0
 73 77  1  0  0  0
 73 83  1  0  0  0
 74 78  1  0  0  0
 74 83  1  0  0  0
 75 79  1  0  0  0
 75145  1  0  0  0
 75146  1  0  0  0
 75147  1  0  0  0
 76148  1  0  0  0
 76149  1  0  0  0
 76150  1  0  0  0
 76 81  1  0  0  0
 77 81  1  0  0  0
 77151  1  0  0  0
 77152  1  0  0  0
 78 82  1  0  0  0
 78153  1  0  0  0
 78154  1  0  0  0
 79 81  1  0  0  0
 79155  1  0  0  0
 79156  1  0  0  0
 80 81  1  0  0  0
 80157  1  0  0  0
 80158  1  0  0  0
 82159  1  0  0  0
M  ISO  4   1 100  68 101  80 101  82 100
M  END
> <chiral flag>
0

> <version>
0

> <s_m_source_file>
/data/baiqing/PycharmProjects/Reinvent-master-3.2/result/LINK_invent/BTK/process_docking_weight1_custom_product_contain_oxygen_bond_distance_aromatic_linkinvent_7_9_3/rearranged_h_0140.sdf

> <i_m_source_file_index>
61

> <r_mmod_Potential_Energy-OPLS-2005>
121.912055969238

> <r_mmod_Stretch_Energy-OPLS-2005>
126.028579711914

> <r_mmod_Bend_Energy-OPLS-2005>
172.108596801758

> <r_mmod_Torsional_Energy-OPLS-2005>
224.803344726562

> <r_mmod_Improper_Torsional_Energy-OPLS-2005>
8.24130916595459

> <r_mmod_Van_der_Waal_Energy-OPLS-2005>
119.897499084473

> <r_mmod_Electrostatic_Energy-OPLS-2005>
-409.547760009766

> <r_mmod_Solvation_Energy-OPLS-2005>
-203.446243286133

> <b_mmod_Minimization_Converged-OPLS-2005>
0

> <r_mmod_RMS_Derivative-OPLS-2005>
3.89785313606262

$$$$
61
                    3D
 Structure written by MMmdl.
165173  0  0  1  0            999 V2000
  -30.6909  -14.4352   20.5981 C   0  0  0  0  0  0
  -30.4291  -12.2849   19.4241 C   0  0  0  0  0  0
  -29.4976  -12.4877   18.2093 C   0  0  0  0  0  0
  -28.0113  -12.3826   18.6119 C   0  0  0  0  0  0
  -27.6641  -13.2029   19.8837 C   0  0  2  0  0  0
  -28.7016  -12.9344   20.9964 C   0  0  0  0  0  0
  -25.2585  -13.8150   20.5677 C   0  0  0  0  0  0
  -24.1843  -13.0445   20.9160 C   0  0  0  0  0  0
  -24.6393  -11.6906   20.8731 C   0  0  0  0  0  0
  -23.9060  -10.4303   21.0386 C   0  0  0  0  0  0
  -24.3598   -9.4218   21.9176 C   0  0  0  0  0  0
  -23.6274   -8.2253   22.0743 C   0  0  0  0  0  0
  -22.4257   -8.0290   21.3542 C   0  0  0  0  0  0
  -21.9896   -9.0262   20.4641 C   0  0  0  0  0  0
  -22.7220  -10.2147   20.3042 C   0  0  0  0  0  0
  -21.6863   -6.0730   22.5284 C   0  0  0  0  0  0
  -21.4021   -6.5627   23.8217 C   0  0  0  0  0  0
  -21.3662   -5.6776   24.9175 C   0  0  0  0  0  0
  -21.6039   -4.3039   24.7227 C   0  0  0  0  0  0
  -21.8819   -3.8138   23.4349 C   0  0  0  0  0  0
  -21.9196   -4.6957   22.3405 C   0  0  0  0  0  0
  -22.7854  -13.5247   21.1802 C   0  0  0  0  0  0
  -22.1657   -4.2136   21.0980 F   0  0  0  0  0  0
  -21.5622   -3.4521   25.7745 F   0  0  0  0  0  0
  -30.0350  -13.2517   20.4587 N   0  0  0  0  0  0
  -26.3037  -12.9324   20.3399 N   0  0  0  0  0  0
  -25.9317  -11.6489   20.5779 N   0  0  0  0  0  0
  -22.0452  -12.8290   22.0372 N   0  0  0  0  0  0
  -25.4279  -15.1872   20.4074 N   0  0  0  0  0  0
  -31.8206  -14.6374   20.1402 O   0  0  0  0  0  0
  -21.6629   -6.8882   21.4250 O   0  0  0  0  0  0
  -22.3584  -14.5562   20.6614 O   0  0  0  0  0  0
  -24.6209  -31.8709   23.2173 C   0  0  0  0  0  0
  -25.9122  -32.4836   23.8419 C   0  0  1  0  0  0
  -27.2060  -27.4260   20.0842 C   0  0  0  0  0  0
  -25.6014  -33.8630   24.2347 N   0  0  0  0  0  0
  -23.4052  -30.5035   21.5619 C   0  0  2  0  0  0
  -24.8400  -28.9894   20.1130 C   0  0  0  0  0  0
  -22.7443  -29.4694   22.5029 C   0  0  0  0  0  0
  -18.0292  -28.1370   22.8459 C   0  0  0  0  0  0
  -24.1471  -36.7325   23.2619 C   0  0  0  0  0  0
  -25.9411  -30.8359   21.3707 C   0  0  0  0  0  0
  -26.0097  -29.4756   20.7113 C   0  0  0  0  0  0
  -27.1983  -28.7049   20.6909 C   0  0  0  0  0  0
  -26.0108  -26.9851   19.4529 C   0  0  0  0  0  0
  -24.8359  -27.7449   19.4770 C   0  0  0  0  0  0
  -23.6103  -29.8618   20.1693 C   0  0  0  0  0  0
  -25.4104  -36.3136   24.0332 C   0  0  1  0  0  0
  -20.5889  -28.3722   23.1336 C   0  0  2  0  0  0
  -20.6854  -26.9483   22.5395 C   0  0  0  0  0  0
  -19.5827  -26.6462   21.5186 C   0  0  0  0  0  0
  -18.1983  -26.7927   22.1589 C   0  0  0  0  0  0
  -19.1526  -28.8865   23.2890 C   0  0  0  0  0  0
  -18.9414  -30.1479   23.8875 C   0  0  0  0  0  0
  -17.6397  -30.6563   24.0542 C   0  0  0  0  0  0
  -25.9049  -34.9491   23.5109 C   0  0  0  0  0  0
  -16.5316  -29.9035   23.6291 C   0  0  0  0  0  0
  -16.7269  -28.6478   23.0275 C   0  0  0  0  0  0
  -26.4512  -31.6619   25.0753 C   0  0  0  0  0  0
  -25.3795  -31.3748   26.1515 C   0  0  0  0  0  0
  -27.0344  -30.3062   24.6147 C   0  0  0  0  0  0
  -27.6090  -32.4317   25.7535 C   0  0  0  0  0  0
  -27.5575  -37.1825   24.8460 C   0  0  0  0  0  0
  -21.4168  -29.3110   22.3798 N   0  0  0  0  0  0
  -26.4278  -37.3838   23.9403 N   0  0  0  0  0  0
  -24.6749  -31.0819   22.1085 N   0  0  0  0  0  0
  -23.4219  -28.8192   23.3032 O   0  0  0  0  0  0
  -28.3461  -26.6314   20.1266 O   0  0  0  0  0  0
  -26.5540  -34.8951   22.4628 O   0  0  0  0  0  0
  -23.5405  -32.1437   23.7586 O   0  0  0  0  0  0
  -30.3892  -18.8512   19.6505 C   0  0  0  0  0  0
  -30.0629  -17.6507   22.1604 C   0  0  0  0  0  0
  -30.2599  -17.4497   19.7365 C   0  0  0  0  0  0
  -30.1296  -16.8277   21.0102 C   0  0  0  0  0  0
  -30.1414  -19.0591   22.0511 C   0  0  0  0  0  0
  -30.2870  -19.6810   20.7933 C   0  0  0  0  0  0
  -30.2008  -16.6786   18.4258 C   0  0  0  0  0  0
  -27.7942  -22.2281   21.0500 C   0  0  0  0  0  0
  -27.7064  -22.6506   18.5919 C   0  0  0  0  0  0
  -29.1610  -24.1711   20.0887 C   0  0  0  0  0  0
  -28.0928  -25.2508   19.8146 C   0  0  0  0  0  0
  -29.7890  -21.7081   19.5681 C   0  0  0  0  0  0
  -28.6286  -22.7104   19.8406 C   0  0  0  0  0  0
  -30.0424  -19.8668   23.1849 N   0  0  0  0  0  0
  -29.9628  -15.4146   21.1685 N   0  0  0  0  0  0
  -30.2995  -21.0682   20.7452 O   0  0  0  0  0  0
  -31.4709  -12.4054   19.1182 H   0  0  0  0  0  0
  -30.3483  -11.2696   19.8181 H   0  0  0  0  0  0
  -29.7257  -11.7511   17.4387 H   0  0  0  0  0  0
  -29.6884  -13.4627   17.7605 H   0  0  0  0  0  0
  -27.7824  -11.3290   18.7778 H   0  0  0  0  0  0
  -27.3789  -12.6976   17.7801 H   0  0  0  0  0  0
  -27.7231  -14.2583   19.6144 H   0  0  0  0  0  0
  -28.6638  -11.8833   21.2876 H   0  0  0  0  0  0
  -28.4683  -13.4908   21.9047 H   0  0  0  0  0  0
  -25.2734   -9.5679   22.4765 H   0  0  0  0  0  0
  -23.9966   -7.4630   22.7462 H   0  0  0  0  0  0
  -21.0818   -8.8784   19.8952 H   0  0  0  0  0  0
  -22.3664  -10.9677   19.6146 H   0  0  0  0  0  0
  -21.2018   -7.6134   23.9728 H   0  0  0  0  0  0
  -21.1477   -6.0493   25.9080 H   0  0  0  0  0  0
  -22.0596   -2.7605   23.2838 H   0  0  0  0  0  0
  -22.4069  -11.9992   22.4824 H   0  0  0  0  0  0
  -21.1076  -13.1333   22.2605 H   0  0  0  0  0  0
  -24.6612  -15.8416   20.5194 H   0  0  0  0  0  0
  -26.2868  -15.6314   20.1090 H   0  0  0  0  0  0
  -26.7243  -32.5489   23.1223 H   0  0  0  0  0  0
  -25.0334  -33.9771   25.0614 H   0  0  0  0  0  0
  -22.6908  -31.3190   21.4340 H   0  0  0  0  0  0
  -23.3748  -35.9647   23.3294 H   0  0  0  0  0  0
  -24.3566  -36.8899   22.2028 H   0  0  0  0  0  0
  -23.7194  -37.6535   23.6597 H   0  0  0  0  0  0
  -26.0551  -31.6056   20.6065 H   0  0  0  0  0  0
  -26.8321  -30.8826   21.9846 H   0  0  0  0  0  0
  -28.1008  -29.0806   21.1532 H   0  0  0  0  0  0
  -25.9367  -26.0468   18.9252 H   0  0  0  0  0  0
  -23.9408  -27.3808   18.9892 H   0  0  0  0  0  0
  -23.7332  -30.6465   19.4210 H   0  0  0  0  0  0
  -22.7280  -29.2965   19.8624 H   0  0  0  0  0  0
  -25.1285  -36.1999   25.0835 H   0  0  0  0  0  0
  -20.9935  -28.3338   24.1477 H   0  0  0  0  0  0
  -20.5801  -26.2318   23.3570 H   0  0  0  0  0  0
  -21.6753  -26.7612   22.1197 H   0  0  0  0  0  0
  -19.7076  -25.6440   21.1100 H   0  0  0  0  0  0
  -19.6723  -27.3375   20.6795 H   0  0  0  0  0  0
  -17.4295  -26.6686   21.3952 H   0  0  0  0  0  0
  -18.0402  -26.0025   22.8939 H   0  0  0  0  0  0
  -19.7875  -30.7317   24.2237 H   0  0  0  0  0  0
  -17.4909  -31.6201   24.5197 H   0  0  0  0  0  0
  -15.5302  -30.2879   23.7645 H   0  0  0  0  0  0
  -15.8688  -28.0786   22.6941 H   0  0  0  0  0  0
  -24.5971  -30.7083   25.7884 H   0  0  0  0  0  0
  -24.9009  -32.2909   26.4962 H   0  0  0  0  0  0
  -25.8178  -30.8928   27.0261 H   0  0  0  0  0  0
  -26.2914  -29.6830   24.1173 H   0  0  0  0  0  0
  -27.4085  -29.7277   25.4596 H   0  0  0  0  0  0
  -27.8749  -30.4375   23.9345 H   0  0  0  0  0  0
  -27.2740  -33.3590   26.2181 H   0  0  0  0  0  0
  -28.3908  -32.6897   25.0390 H   0  0  0  0  0  0
  -28.0780  -31.8394   26.5389 H   0  0  0  0  0  0
  -28.2629  -38.0097   24.7541 H   0  0  0  0  0  0
  -28.1032  -36.2630   24.6267 H   0  0  0  0  0  0
  -27.2285  -37.1498   25.8863 H   0  0  0  0  0  0
  -20.9322  -29.8914   21.7098 H   0  0  0  0  0  0
  -26.0158  -38.2910   24.1435 H   0  0  0  0  0  0
  -30.5368  -19.2815   18.6708 H   0  0  0  0  0  0
  -29.9286  -17.1986   23.1319 H   0  0  0  0  0  0
  -29.4478  -15.8899   18.4614 H   0  0  0  0  0  0
  -31.1675  -16.2371   18.1850 H   0  0  0  0  0  0
  -29.9273  -17.3369   17.6023 H   0  0  0  0  0  0
  -26.9162  -22.8501   21.2173 H   0  0  0  0  0  0
  -28.3696  -22.2421   21.9760 H   0  0  0  0  0  0
  -27.4296  -21.2092   20.9041 H   0  0  0  0  0  0
  -26.8007  -23.2452   18.7052 H   0  0  0  0  0  0
  -27.3603  -21.6366   18.3869 H   0  0  0  0  0  0
  -28.2263  -22.9953   17.6975 H   0  0  0  0  0  0
  -29.5262  -24.2584   21.1127 H   0  0  0  0  0  0
  -30.0126  -24.3821   19.4417 H   0  0  0  0  0  0
  -27.1945  -24.9366   20.3511 H   0  0  0  0  0  0
  -27.8900  -25.2232   18.7438 H   0  0  0  0  0  0
  -30.6116  -22.1870   19.0378 H   0  0  0  0  0  0
  -29.3926  -20.9773   18.8694 H   0  0  0  0  0  0
  -29.8059  -20.8343   22.9857 H   0  0  0  0  0  0
  -29.5342  -19.5024   23.9824 H   0  0  0  0  0  0
  -29.1222  -15.1110   21.6381 H   0  0  0  0  0  0
  1 25  1  0  0  0
  1 30  2  0  0  0
  1 85  1  0  0  0
  2  3  1  0  0  0
  2 25  1  0  0  0
  2 87  1  0  0  0
  2 88  1  0  0  0
  3  4  1  0  0  0
  3 89  1  0  0  0
  3 90  1  0  0  0
  4  5  1  0  0  0
  4 91  1  0  0  0
  4 92  1  0  0  0
  5  6  1  0  0  0
  5 26  1  0  0  0
  5 93  1  0  0  0
  6 25  1  0  0  0
  6 94  1  0  0  0
  6 95  1  0  0  0
  7  8  2  0  0  0
  7 26  1  0  0  0
  7 29  1  0  0  0
  8  9  1  0  0  0
  8 22  1  0  0  0
  9 10  1  0  0  0
  9 27  2  0  0  0
 10 11  2  0  0  0
 10 15  1  0  0  0
 11 12  1  0  0  0
 11 96  1  0  0  0
 12 13  2  0  0  0
 12 97  1  0  0  0
 13 14  1  0  0  0
 13 31  1  0  0  0
 14 15  2  0  0  0
 14 98  1  0  0  0
 15 99  1  0  0  0
 16 17  2  0  0  0
 16 21  1  0  0  0
 16 31  1  0  0  0
 17 18  1  0  0  0
 17100  1  0  0  0
 18 19  2  0  0  0
 18101  1  0  0  0
 19 20  1  0  0  0
 19 24  1  0  0  0
 20 21  2  0  0  0
 20102  1  0  0  0
 21 23  1  0  0  0
 22 28  1  0  0  0
 22 32  2  0  0  0
 26 27  1  0  0  0
 28103  1  0  0  0
 28104  1  0  0  0
 29105  1  0  0  0
 29106  1  0  0  0
 33 34  1  0  0  0
 33 66  1  0  0  0
 33 70  2  0  0  0
 34 36  1  0  0  0
 34 59  1  0  0  0
 34107  1  0  0  0
 35 44  2  0  0  0
 35 45  1  0  0  0
 35 68  1  0  0  0
 36 56  1  0  0  0
 36108  1  0  0  0
 37 39  1  0  0  0
 37 47  1  0  0  0
 37 66  1  0  0  0
 37109  1  0  0  0
 38 43  2  0  0  0
 38 46  1  0  0  0
 38 47  1  0  0  0
 39 64  1  0  0  0
 39 67  2  0  0  0
 40 52  1  0  0  0
 40 53  2  0  0  0
 40 58  1  0  0  0
 41110  1  0  0  0
 41111  1  0  0  0
 41112  1  0  0  0
 41 48  1  0  0  0
 42 43  1  0  0  0
 42 66  1  0  0  0
 42113  1  0  0  0
 42114  1  0  0  0
 43 44  1  0  0  0
 44115  1  0  0  0
 45 46  2  0  0  0
 45116  1  0  0  0
 46117  1  0  0  0
 47118  1  0  0  0
 47119  1  0  0  0
 48 56  1  0  0  0
 48 65  1  0  0  0
 48120  1  0  0  0
 49 50  1  0  0  0
 49 53  1  0  0  0
 49 64  1  0  0  0
 49121  1  0  0  0
 50 51  1  0  0  0
 50122  1  0  0  0
 50123  1  0  0  0
 51 52  1  0  0  0
 51124  1  0  0  0
 51125  1  0  0  0
 52126  1  0  0  0
 52127  1  0  0  0
 53 54  1  0  0  0
 54 55  2  0  0  0
 54128  1  0  0  0
 55 57  1  0  0  0
 55129  1  0  0  0
 56 69  2  0  0  0
 57 58  2  0  0  0
 57130  1  0  0  0
 58131  1  0  0  0
 59 60  1  0  0  0
 59 61  1  0  0  0
 59 62  1  0  0  0
 60132  1  0  0  0
 60133  1  0  0  0
 60134  1  0  0  0
 61135  1  0  0  0
 61136  1  0  0  0
 61137  1  0  0  0
 62138  1  0  0  0
 62139  1  0  0  0
 62140  1  0  0  0
 63 65  1  0  0  0
 63141  1  0  0  0
 63142  1  0  0  0
 63143  1  0  0  0
 64144  1  0  0  0
 65145  1  0  0  0
 68 81  1  0  0  0
 71 73  2  0  0  0
 71 76  1  0  0  0
 71146  1  0  0  0
 72 74  2  0  0  0
 72 75  1  0  0  0
 72147  1  0  0  0
 73 74  1  0  0  0
 73 77  1  0  0  0
 74 85  1  0  0  0
 75 76  2  0  0  0
 75 84  1  0  0  0
 76 86  1  0  0  0
 77148  1  0  0  0
 77149  1  0  0  0
 77150  1  0  0  0
 78151  1  0  0  0
 78152  1  0  0  0
 78153  1  0  0  0
 78 83  1  0  0  0
 79 83  1  0  0  0
 79154  1  0  0  0
 79155  1  0  0  0
 79156  1  0  0  0
 80 81  1  0  0  0
 80 83  1  0  0  0
 80157  1  0  0  0
 80158  1  0  0  0
 81159  1  0  0  0
 81160  1  0  0  0
 82 83  1  0  0  0
 82 86  1  0  0  0
 82161  1  0  0  0
 82162  1  0  0  0
 84163  1  0  0  0
 84164  1  0  0  0
 85165  1  0  0  0
M  ISO  4   1 100  68 101  81 101  85 100
M  END
> <chiral flag>
0

> <version>
0

> <s_m_source_file>
/data/baiqing/PycharmProjects/Reinvent-master-3.2/result/LINK_invent/BTK/process_docking_weight1_custom_product_contain_oxygen_bond_distance_aromatic_linkinvent_7_9_3/rearranged_h_0140.sdf

> <i_m_source_file_index>
62

> <r_mmod_Potential_Energy-OPLS-2005>
16.8649139404297

> <r_mmod_Stretch_Energy-OPLS-2005>
42.9217796325684

> <r_mmod_Bend_Energy-OPLS-2005>
115.962539672852

> <r_mmod_Torsional_Energy-OPLS-2005>
258.960418701172

> <r_mmod_Improper_Torsional_Energy-OPLS-2005>
7.66641902923584

> <r_mmod_Van_der_Waal_Energy-OPLS-2005>
190.583801269531

> <r_mmod_Electrostatic_Energy-OPLS-2005>
-398.100189208984

> <r_mmod_Solvation_Energy-OPLS-2005>
-216.896347045898

> <b_mmod_Minimization_Converged-OPLS-2005>
0

> <r_mmod_RMS_Derivative-OPLS-2005>
4.08328008651733

$$$$
62
                    3D
 Structure written by MMmdl.
156165  0  0  1  0            999 V2000
  -30.6843  -14.5008   20.4652 C   0  0  0  0  0  0
  -30.4219  -12.2904   19.4386 C   0  0  0  0  0  0
  -29.5015  -12.4764   18.2132 C   0  0  0  0  0  0
  -28.0216  -12.3366   18.6187 C   0  0  0  0  0  0
  -27.6549  -13.2015   19.8531 C   0  0  2  0  0  0
  -28.7020  -13.0452   20.9829 C   0  0  0  0  0  0
  -25.2572  -13.8154   20.5644 C   0  0  0  0  0  0
  -24.1850  -13.0434   20.9148 C   0  0  0  0  0  0
  -24.6390  -11.6897   20.8697 C   0  0  0  0  0  0
  -23.9039  -10.4302   21.0364 C   0  0  0  0  0  0
  -24.3600   -9.4211   21.9133 C   0  0  0  0  0  0
  -23.6278   -8.2261   22.0736 C   0  0  0  0  0  0
  -22.4274   -8.0269   21.3525 C   0  0  0  0  0  0
  -21.9868   -9.0229   20.4652 C   0  0  0  0  0  0
  -22.7196  -10.2118   20.3028 C   0  0  0  0  0  0
  -21.6873   -6.0715   22.5260 C   0  0  0  0  0  0
  -21.4043   -6.5623   23.8188 C   0  0  0  0  0  0
  -21.3660   -5.6777   24.9142 C   0  0  0  0  0  0
  -21.6020   -4.3029   24.7197 C   0  0  0  0  0  0
  -21.8833   -3.8127   23.4327 C   0  0  0  0  0  0
  -21.9206   -4.6946   22.3386 C   0  0  0  0  0  0
  -22.7882  -13.5219   21.1812 C   0  0  0  0  0  0
  -22.1673   -4.2122   21.0962 F   0  0  0  0  0  0
  -21.5607   -3.4521   25.7712 F   0  0  0  0  0  0
  -30.0362  -13.3065   20.4271 N   0  0  0  0  0  0
  -26.2999  -12.9301   20.3265 N   0  0  0  0  0  0
  -25.9320  -11.6482   20.5754 N   0  0  0  0  0  0
  -22.0534  -12.8265   22.0413 N   0  0  0  0  0  0
  -25.4287  -15.1870   20.4008 N   0  0  0  0  0  0
  -31.8785  -14.6095   20.1736 O   0  0  0  0  0  0
  -21.6646   -6.8865   21.4237 O   0  0  0  0  0  0
  -22.3558  -14.5505   20.6618 O   0  0  0  0  0  0
  -24.6143  -31.8671   23.2079 C   0  0  0  0  0  0
  -25.9052  -32.4827   23.8357 C   0  0  1  0  0  0
  -27.2375  -27.4519   20.0714 C   0  0  0  0  0  0
  -25.5916  -33.8616   24.2302 N   0  0  0  0  0  0
  -23.3994  -30.4899   21.5526 C   0  0  2  0  0  0
  -24.8455  -28.9526   20.1181 C   0  0  0  0  0  0
  -22.7382  -29.4662   22.5016 C   0  0  0  0  0  0
  -18.0259  -28.1348   22.8472 C   0  0  0  0  0  0
  -24.1482  -36.7316   23.2631 C   0  0  0  0  0  0
  -25.9281  -30.8335   21.3604 C   0  0  0  0  0  0
  -26.0077  -29.4706   20.7062 C   0  0  0  0  0  0
  -27.2105  -28.7289   20.6755 C   0  0  0  0  0  0
  -26.0609  -26.9481   19.4778 C   0  0  0  0  0  0
  -24.8642  -27.6888   19.5042 C   0  0  0  0  0  0
  -23.6064  -29.8190   20.1695 C   0  0  0  0  0  0
  -25.4105  -36.3099   24.0320 C   0  0  1  0  0  0
  -20.5852  -28.3643   23.1333 C   0  0  2  0  0  0
  -20.6755  -26.9381   22.5389 C   0  0  0  0  0  0
  -19.5755  -26.6419   21.5170 C   0  0  0  0  0  0
  -18.1908  -26.7929   22.1550 C   0  0  0  0  0  0
  -19.1508  -28.8805   23.2920 C   0  0  0  0  0  0
  -18.9427  -30.1415   23.8938 C   0  0  0  0  0  0
  -17.6422  -30.6553   24.0569 C   0  0  0  0  0  0
  -25.9038  -34.9481   23.5110 C   0  0  0  0  0  0
  -16.5321  -29.9049   23.6310 C   0  0  0  0  0  0
  -16.7247  -28.6474   23.0314 C   0  0  0  0  0  0
  -26.4471  -31.6597   25.0678 C   0  0  0  0  0  0
  -25.3728  -31.3726   26.1420 C   0  0  0  0  0  0
  -27.0289  -30.3019   24.6077 C   0  0  0  0  0  0
  -27.6034  -32.4308   25.7450 C   0  0  0  0  0  0
  -27.5589  -37.1810   24.8461 C   0  0  0  0  0  0
  -21.4117  -29.3028   22.3761 N   0  0  0  0  0  0
  -26.4302  -37.3795   23.9402 N   0  0  0  0  0  0
  -24.6659  -31.0763   22.0992 N   0  0  0  0  0  0
  -23.4161  -28.8201   23.3036 O   0  0  0  0  0  0
  -28.3973  -26.7078   20.0338 O   0  0  0  0  0  0
  -26.5599  -34.8951   22.4667 O   0  0  0  0  0  0
  -23.5349  -32.1398   23.7522 O   0  0  0  0  0  0
  -28.1595  -19.1745   22.9813 C   0  0  0  0  0  0
  -28.0938  -20.3037   22.1253 C   0  0  0  0  0  0
  -29.7232  -19.3680   20.4867 C   0  0  0  0  0  0
  -29.0374  -18.1830   22.5588 C   0  0  0  0  0  0
  -29.7351  -18.2360   21.3218 C   0  0  0  0  0  0
  -28.9212  -20.4610   20.9571 C   0  0  0  0  0  0
  -28.8535  -22.9487   20.8422 C   0  0  0  0  0  0
  -29.6280  -16.8585   22.9596 C   0  0  0  0  0  0
  -30.3560  -16.8567   21.5262 C   0  0  1  0  0  0
  -29.8744  -15.8154   20.5133 C   0  0  0  0  0  0
  -28.8640  -24.2222   19.9615 C   0  0  0  0  0  0
  -28.3248  -25.4593   20.7389 C   0  0  0  0  0  0
  -28.9594  -21.7242   20.2697 N   0  0  0  0  0  0
  -28.7705  -23.0922   22.0659 O   0  0  0  0  0  0
  -31.4661  -12.3712   19.1362 H   0  0  0  0  0  0
  -30.3071  -11.2926   19.8629 H   0  0  0  0  0  0
  -29.7467  -11.7426   17.4432 H   0  0  0  0  0  0
  -29.6740  -13.4581   17.7683 H   0  0  0  0  0  0
  -27.8432  -11.2856   18.8410 H   0  0  0  0  0  0
  -27.3765  -12.5809   17.7736 H   0  0  0  0  0  0
  -27.6693  -14.2292   19.4966 H   0  0  0  0  0  0
  -28.6780  -12.0381   21.3992 H   0  0  0  0  0  0
  -28.4789  -13.7183   21.8114 H   0  0  0  0  0  0
  -25.2727   -9.5710   22.4713 H   0  0  0  0  0  0
  -23.9973   -7.4664   22.7476 H   0  0  0  0  0  0
  -21.0778   -8.8738   19.8990 H   0  0  0  0  0  0
  -22.3585  -10.9647   19.6159 H   0  0  0  0  0  0
  -21.2077   -7.6130   23.9687 H   0  0  0  0  0  0
  -21.1464   -6.0493   25.9036 H   0  0  0  0  0  0
  -22.0629   -2.7595   23.2815 H   0  0  0  0  0  0
  -22.4147  -11.9922   22.4831 H   0  0  0  0  0  0
  -21.1176  -13.1342   22.2674 H   0  0  0  0  0  0
  -24.6541  -15.8374   20.4808 H   0  0  0  0  0  0
  -26.2767  -15.6254   20.0639 H   0  0  0  0  0  0
  -26.7128  -32.5534   23.1129 H   0  0  0  0  0  0
  -25.0080  -33.9749   25.0458 H   0  0  0  0  0  0
  -22.6891  -31.3067   21.4143 H   0  0  0  0  0  0
  -23.3756  -35.9648   23.3293 H   0  0  0  0  0  0
  -24.3581  -36.8913   22.2048 H   0  0  0  0  0  0
  -23.7235  -37.6524   23.6642 H   0  0  0  0  0  0
  -26.0359  -31.6040   20.5967 H   0  0  0  0  0  0
  -26.8185  -30.8829   21.9778 H   0  0  0  0  0  0
  -28.1143  -29.1309   21.1124 H   0  0  0  0  0  0
  -26.0720  -25.9842   18.9891 H   0  0  0  0  0  0
  -23.9711  -27.2852   19.0491 H   0  0  0  0  0  0
  -23.7169  -30.5920   19.4072 H   0  0  0  0  0  0
  -22.7275  -29.2394   19.8779 H   0  0  0  0  0  0
  -25.1290  -36.1965   25.0819 H   0  0  0  0  0  0
  -20.9908  -28.3216   24.1462 H   0  0  0  0  0  0
  -20.5604  -26.2249   23.3568 H   0  0  0  0  0  0
  -21.6635  -26.7404   22.1206 H   0  0  0  0  0  0
  -19.6944  -25.6371   21.1119 H   0  0  0  0  0  0
  -19.6723  -27.3288   20.6747 H   0  0  0  0  0  0
  -17.4222  -26.6740   21.3896 H   0  0  0  0  0  0
  -18.0280  -26.0003   22.8862 H   0  0  0  0  0  0
  -19.7899  -30.7217   24.2312 H   0  0  0  0  0  0
  -17.4957  -31.6224   24.5207 H   0  0  0  0  0  0
  -15.5319  -30.2946   23.7623 H   0  0  0  0  0  0
  -15.8640  -28.0820   22.6983 H   0  0  0  0  0  0
  -24.5922  -30.7033   25.7774 H   0  0  0  0  0  0
  -24.8906  -32.2901   26.4806 H   0  0  0  0  0  0
  -25.8080  -30.8947   27.0206 H   0  0  0  0  0  0
  -26.2834  -29.6787   24.1122 H   0  0  0  0  0  0
  -27.4016  -29.7243   25.4553 H   0  0  0  0  0  0
  -27.8688  -30.4287   23.9240 H   0  0  0  0  0  0
  -27.2636  -33.3602   26.2034 H   0  0  0  0  0  0
  -28.3861  -32.6864   25.0292 H   0  0  0  0  0  0
  -28.0690  -31.8419   26.5364 H   0  0  0  0  0  0
  -28.2603  -38.0106   24.7522 H   0  0  0  0  0  0
  -28.1077  -36.2648   24.6273 H   0  0  0  0  0  0
  -27.2307  -37.1440   25.8859 H   0  0  0  0  0  0
  -20.9253  -29.8773   21.7023 H   0  0  0  0  0  0
  -26.0187  -38.2869   24.1423 H   0  0  0  0  0  0
  -27.5836  -19.0945   23.8912 H   0  0  0  0  0  0
  -27.4166  -21.0937   22.4091 H   0  0  0  0  0  0
  -30.3245  -19.4182   19.5911 H   0  0  0  0  0  0
  -28.8790  -16.0823   23.1146 H   0  0  0  0  0  0
  -30.3087  -16.9671   23.8063 H   0  0  0  0  0  0
  -31.4385  -16.9402   21.6114 H   0  0  0  0  0  0
  -29.9475  -16.2343   19.5092 H   0  0  0  0  0  0
  -28.8151  -15.6392   20.6689 H   0  0  0  0  0  0
  -29.8869  -24.4173   19.6375 H   0  0  0  0  0  0
  -28.2785  -24.0628   19.0543 H   0  0  0  0  0  0
  -28.9158  -25.6041   21.6433 H   0  0  0  0  0  0
  -27.3111  -25.2516   21.0899 H   0  0  0  0  0  0
  -29.1934  -21.7007   19.2835 H   0  0  0  0  0  0
  1 25  1  0  0  0
  1 30  2  0  0  0
  1 80  1  0  0  0
  2  3  1  0  0  0
  2 25  1  0  0  0
  2 85  1  0  0  0
  2 86  1  0  0  0
  3  4  1  0  0  0
  3 87  1  0  0  0
  3 88  1  0  0  0
  4  5  1  0  0  0
  4 89  1  0  0  0
  4 90  1  0  0  0
  5  6  1  0  0  0
  5 26  1  0  0  0
  5 91  1  0  0  0
  6 25  1  0  0  0
  6 92  1  0  0  0
  6 93  1  0  0  0
  7  8  2  0  0  0
  7 26  1  0  0  0
  7 29  1  0  0  0
  8  9  1  0  0  0
  8 22  1  0  0  0
  9 10  1  0  0  0
  9 27  2  0  0  0
 10 11  2  0  0  0
 10 15  1  0  0  0
 11 12  1  0  0  0
 11 94  1  0  0  0
 12 13  2  0  0  0
 12 95  1  0  0  0
 13 14  1  0  0  0
 13 31  1  0  0  0
 14 15  2  0  0  0
 14 96  1  0  0  0
 15 97  1  0  0  0
 16 17  2  0  0  0
 16 21  1  0  0  0
 16 31  1  0  0  0
 17 18  1  0  0  0
 17 98  1  0  0  0
 18 19  2  0  0  0
 18 99  1  0  0  0
 19 20  1  0  0  0
 19 24  1  0  0  0
 20 21  2  0  0  0
 20100  1  0  0  0
 21 23  1  0  0  0
 22 28  1  0  0  0
 22 32  2  0  0  0
 26 27  1  0  0  0
 28101  1  0  0  0
 28102  1  0  0  0
 29103  1  0  0  0
 29104  1  0  0  0
 33 34  1  0  0  0
 33 66  1  0  0  0
 33 70  2  0  0  0
 34 36  1  0  0  0
 34 59  1  0  0  0
 34105  1  0  0  0
 35 44  2  0  0  0
 35 45  1  0  0  0
 35 68  1  0  0  0
 36 56  1  0  0  0
 36106  1  0  0  0
 37 39  1  0  0  0
 37 47  1  0  0  0
 37 66  1  0  0  0
 37107  1  0  0  0
 38 43  2  0  0  0
 38 46  1  0  0  0
 38 47  1  0  0  0
 39 64  1  0  0  0
 39 67  2  0  0  0
 40 52  1  0  0  0
 40 53  2  0  0  0
 40 58  1  0  0  0
 41108  1  0  0  0
 41109  1  0  0  0
 41110  1  0  0  0
 41 48  1  0  0  0
 42 43  1  0  0  0
 42 66  1  0  0  0
 42111  1  0  0  0
 42112  1  0  0  0
 43 44  1  0  0  0
 44113  1  0  0  0
 45 46  2  0  0  0
 45114  1  0  0  0
 46115  1  0  0  0
 47116  1  0  0  0
 47117  1  0  0  0
 48 56  1  0  0  0
 48 65  1  0  0  0
 48118  1  0  0  0
 49 50  1  0  0  0
 49 53  1  0  0  0
 49 64  1  0  0  0
 49119  1  0  0  0
 50 51  1  0  0  0
 50120  1  0  0  0
 50121  1  0  0  0
 51 52  1  0  0  0
 51122  1  0  0  0
 51123  1  0  0  0
 52124  1  0  0  0
 52125  1  0  0  0
 53 54  1  0  0  0
 54 55  2  0  0  0
 54126  1  0  0  0
 55 57  1  0  0  0
 55127  1  0  0  0
 56 69  2  0  0  0
 57 58  2  0  0  0
 57128  1  0  0  0
 58129  1  0  0  0
 59 60  1  0  0  0
 59 61  1  0  0  0
 59 62  1  0  0  0
 60130  1  0  0  0
 60131  1  0  0  0
 60132  1  0  0  0
 61133  1  0  0  0
 61134  1  0  0  0
 61135  1  0  0  0
 62136  1  0  0  0
 62137  1  0  0  0
 62138  1  0  0  0
 63 65  1  0  0  0
 63139  1  0  0  0
 63140  1  0  0  0
 63141  1  0  0  0
 64142  1  0  0  0
 65143  1  0  0  0
 68 82  1  0  0  0
 71 72  2  0  0  0
 71 74  1  0  0  0
 71144  1  0  0  0
 72 76  1  0  0  0
 72145  1  0  0  0
 73 75  1  0  0  0
 73 76  2  0  0  0
 73146  1  0  0  0
 74 75  2  0  0  0
 74 78  1  0  0  0
 75 79  1  0  0  0
 76 83  1  0  0  0
 77 81  1  0  0  0
 77 83  1  0  0  0
 77 84  2  0  0  0
 78 79  1  0  0  0
 78147  1  0  0  0
 78148  1  0  0  0
 79 80  1  0  0  0
 79149  1  0  0  0
 80150  1  0  0  0
 80151  1  0  0  0
 81 82  1  0  0  0
 81152  1  0  0  0
 81153  1  0  0  0
 82154  1  0  0  0
 82155  1  0  0  0
 83156  1  0  0  0
M  ISO  4   1 100  68 101  80 100  82 101
M  END
> <chiral flag>
0

> <version>
0

> <s_m_source_file>
/data/baiqing/PycharmProjects/Reinvent-master-3.2/result/LINK_invent/BTK/process_docking_weight1_custom_product_contain_oxygen_bond_distance_aromatic_linkinvent_7_9_3/rearranged_h_0140.sdf

> <i_m_source_file_index>
63

> <r_mmod_Potential_Energy-OPLS-2005>
340.192230224609

> <r_mmod_Stretch_Energy-OPLS-2005>
57.9210052490234

> <r_mmod_Bend_Energy-OPLS-2005>
460.021392822266

> <r_mmod_Torsional_Energy-OPLS-2005>
231.522491455078

> <r_mmod_Improper_Torsional_Energy-OPLS-2005>
9.01153469085693

> <r_mmod_Van_der_Waal_Energy-OPLS-2005>
155.407974243164

> <r_mmod_Electrostatic_Energy-OPLS-2005>
-373.915496826172

> <r_mmod_Solvation_Energy-OPLS-2005>
-219.554748535156

> <b_mmod_Minimization_Converged-OPLS-2005>
0

> <r_mmod_RMS_Derivative-OPLS-2005>
4.0276780128479

$$$$
63
                    3D
 Structure written by MMmdl.
164172  0  0  1  0            999 V2000
  -30.6702  -14.4992   20.6418 C   0  0  0  0  0  0
  -30.4433  -12.3445   19.4241 C   0  0  0  0  0  0
  -29.5054  -12.5375   18.2125 C   0  0  0  0  0  0
  -28.0270  -12.3792   18.6209 C   0  0  0  0  0  0
  -27.6712  -13.2045   19.8856 C   0  0  2  0  0  0
  -28.7098  -12.9490   21.0011 C   0  0  0  0  0  0
  -25.2609  -13.8137   20.5646 C   0  0  0  0  0  0
  -24.1855  -13.0425   20.9134 C   0  0  0  0  0  0
  -24.6412  -11.6892   20.8721 C   0  0  0  0  0  0
  -23.9064  -10.4287   21.0402 C   0  0  0  0  0  0
  -24.3617   -9.4201   21.9181 C   0  0  0  0  0  0
  -23.6287   -8.2244   22.0757 C   0  0  0  0  0  0
  -22.4268   -8.0283   21.3549 C   0  0  0  0  0  0
  -21.9905   -9.0254   20.4650 C   0  0  0  0  0  0
  -22.7237  -10.2128   20.3049 C   0  0  0  0  0  0
  -21.6847   -6.0731   22.5280 C   0  0  0  0  0  0
  -21.4016   -6.5634   23.8212 C   0  0  0  0  0  0
  -21.3658   -5.6787   24.9174 C   0  0  0  0  0  0
  -21.6043   -4.3050   24.7226 C   0  0  0  0  0  0
  -21.8814   -3.8141   23.4348 C   0  0  0  0  0  0
  -21.9194   -4.6961   22.3404 C   0  0  0  0  0  0
  -22.7873  -13.5234   21.1808 C   0  0  0  0  0  0
  -22.1659   -4.2139   21.0982 F   0  0  0  0  0  0
  -21.5631   -3.4536   25.7742 F   0  0  0  0  0  0
  -30.0473  -13.2938   20.4794 N   0  0  0  0  0  0
  -26.3079  -12.9317   20.3394 N   0  0  0  0  0  0
  -25.9348  -11.6473   20.5765 N   0  0  0  0  0  0
  -22.0519  -12.8240   22.0380 N   0  0  0  0  0  0
  -25.4297  -15.1853   20.4062 N   0  0  0  0  0  0
  -31.6872  -14.8168   20.0161 O   0  0  0  0  0  0
  -21.6637   -6.8877   21.4241 O   0  0  0  0  0  0
  -22.3546  -14.5543   20.6659 O   0  0  0  0  0  0
  -24.6187  -31.8631   23.2049 C   0  0  0  0  0  0
  -25.9064  -32.4787   23.8360 C   0  0  1  0  0  0
  -27.2420  -27.3872   20.0970 C   0  0  0  0  0  0
  -25.5909  -33.8588   24.2294 N   0  0  0  0  0  0
  -23.4088  -30.4845   21.5464 C   0  0  2  0  0  0
  -24.8554  -28.9411   20.1143 C   0  0  0  0  0  0
  -22.7434  -29.4631   22.4974 C   0  0  0  0  0  0
  -18.0273  -28.1366   22.8490 C   0  0  0  0  0  0
  -24.1483  -36.7296   23.2641 C   0  0  0  0  0  0
  -25.9424  -30.8123   21.3654 C   0  0  0  0  0  0
  -26.0171  -29.4426   20.7118 C   0  0  0  0  0  0
  -27.2076  -28.6731   20.6994 C   0  0  0  0  0  0
  -26.0509  -26.9040   19.5049 C   0  0  0  0  0  0
  -24.8701  -27.6730   19.5090 C   0  0  0  0  0  0
  -23.6189  -29.8120   20.1630 C   0  0  0  0  0  0
  -25.4106  -36.3086   24.0336 C   0  0  1  0  0  0
  -20.5868  -28.3652   23.1314 C   0  0  2  0  0  0
  -20.6755  -26.9386   22.5413 C   0  0  0  0  0  0
  -19.5734  -26.6377   21.5205 C   0  0  0  0  0  0
  -18.1917  -26.7913   22.1623 C   0  0  0  0  0  0
  -19.1524  -28.8829   23.2895 C   0  0  0  0  0  0
  -18.9453  -30.1438   23.8898 C   0  0  0  0  0  0
  -17.6456  -30.6577   24.0561 C   0  0  0  0  0  0
  -25.9039  -34.9454   23.5114 C   0  0  0  0  0  0
  -16.5344  -29.9072   23.6332 C   0  0  0  0  0  0
  -16.7264  -28.6489   23.0353 C   0  0  0  0  0  0
  -26.4481  -31.6583   25.0714 C   0  0  0  0  0  0
  -25.3748  -31.3703   26.1468 C   0  0  0  0  0  0
  -27.0319  -30.3019   24.6120 C   0  0  0  0  0  0
  -27.6042  -32.4317   25.7482 C   0  0  0  0  0  0
  -27.5576  -37.1801   24.8474 C   0  0  0  0  0  0
  -21.4158  -29.3019   22.3723 N   0  0  0  0  0  0
  -26.4288  -37.3779   23.9419 N   0  0  0  0  0  0
  -24.6747  -31.0704   22.0956 N   0  0  0  0  0  0
  -23.4195  -28.8186   23.3037 O   0  0  0  0  0  0
  -28.4241  -26.6550   20.1407 O   0  0  0  0  0  0
  -26.5608  -34.8920   22.4679 O   0  0  0  0  0  0
  -23.5375  -32.1407   23.7424 O   0  0  0  0  0  0
  -27.2725  -17.5344   22.1602 C   0  0  0  0  0  0
  -28.1680  -16.4588   22.2203 C   0  0  0  0  0  0
  -29.7171  -17.6734   20.7880 C   0  0  0  0  0  0
  -27.5654  -18.6800   21.3986 C   0  0  0  0  0  0
  -28.8270  -18.8021   20.7489 C   0  0  0  0  0  0
  -29.3762  -16.4801   21.4990 C   0  0  0  0  0  0
  -28.6720  -24.1248   20.2526 C   0  0  0  0  0  0
  -26.4571  -19.7140   21.2769 C   0  0  0  0  0  0
  -27.4640  -22.5077   18.7596 C   0  0  0  0  0  0
  -29.9653  -22.7685   18.5352 C   0  0  0  0  0  0
  -29.1693  -20.0587   19.8992 C   0  0  0  0  0  0
  -28.5919  -25.4248   19.3836 C   0  0  0  0  0  0
  -29.0328  -21.5094   20.5298 C   0  0  0  0  0  0
  -28.7872  -22.7242   19.5336 C   0  0  0  0  0  0
  -30.1599  -15.2787   21.6193 N   0  0  0  0  0  0
  -28.6439  -24.1973   21.4857 O   0  0  0  0  0  0
  -31.4840  -12.4785   19.1236 H   0  0  0  0  0  0
  -30.3754  -11.3233   19.8024 H   0  0  0  0  0  0
  -29.7561  -11.8237   17.4265 H   0  0  0  0  0  0
  -29.6616  -13.5285   17.7839 H   0  0  0  0  0  0
  -27.8449  -11.3205   18.8088 H   0  0  0  0  0  0
  -27.3746  -12.6559   17.7916 H   0  0  0  0  0  0
  -27.7258  -14.2590   19.6141 H   0  0  0  0  0  0
  -28.6936  -11.8970   21.2915 H   0  0  0  0  0  0
  -28.4421  -13.4924   21.9055 H   0  0  0  0  0  0
  -25.2768   -9.5671   22.4744 H   0  0  0  0  0  0
  -23.9988   -7.4638   22.7483 H   0  0  0  0  0  0
  -21.0826   -8.8775   19.8967 H   0  0  0  0  0  0
  -22.3701  -10.9661   19.6152 H   0  0  0  0  0  0
  -21.2007   -7.6143   23.9711 H   0  0  0  0  0  0
  -21.1485   -6.0520   25.9073 H   0  0  0  0  0  0
  -22.0600   -2.7604   23.2854 H   0  0  0  0  0  0
  -22.4132  -11.9902   22.4766 H   0  0  0  0  0  0
  -21.1149  -13.1287   22.2606 H   0  0  0  0  0  0
  -24.6698  -15.8421   20.5398 H   0  0  0  0  0  0
  -26.3062  -15.6372   20.1765 H   0  0  0  0  0  0
  -26.7135  -32.5487   23.1118 H   0  0  0  0  0  0
  -25.0072  -33.9738   25.0449 H   0  0  0  0  0  0
  -22.6997  -31.3024   21.4032 H   0  0  0  0  0  0
  -23.3737  -35.9638   23.3312 H   0  0  0  0  0  0
  -24.3575  -36.8900   22.2053 H   0  0  0  0  0  0
  -23.7244  -37.6507   23.6649 H   0  0  0  0  0  0
  -26.0673  -31.5755   20.5960 H   0  0  0  0  0  0
  -26.8261  -30.8625   21.9895 H   0  0  0  0  0  0
  -28.1032  -29.0601   21.1645 H   0  0  0  0  0  0
  -25.9953  -25.9251   19.0551 H   0  0  0  0  0  0
  -23.9743  -27.2741   19.0530 H   0  0  0  0  0  0
  -23.7299  -30.5836   19.4006 H   0  0  0  0  0  0
  -22.7422  -29.2322   19.8675 H   0  0  0  0  0  0
  -25.1281  -36.1936   25.0830 H   0  0  0  0  0  0
  -20.9956  -28.3195   24.1437 H   0  0  0  0  0  0
  -20.5635  -26.2258   23.3597 H   0  0  0  0  0  0
  -21.6627  -26.7409   22.1218 H   0  0  0  0  0  0
  -19.6893  -25.6294   21.1219 H   0  0  0  0  0  0
  -19.6667  -27.3201   20.6745 H   0  0  0  0  0  0
  -17.4185  -26.6666   21.4026 H   0  0  0  0  0  0
  -18.0316  -26.0045   22.9011 H   0  0  0  0  0  0
  -19.7932  -30.7253   24.2262 H   0  0  0  0  0  0
  -17.5014  -31.6259   24.5155 H   0  0  0  0  0  0
  -15.5347  -30.2975   23.7660 H   0  0  0  0  0  0
  -15.8664  -28.0814   22.7064 H   0  0  0  0  0  0
  -24.5908  -30.7057   25.7823 H   0  0  0  0  0  0
  -24.8958  -32.2861   26.4935 H   0  0  0  0  0  0
  -25.8108  -30.8866   27.0216 H   0  0  0  0  0  0
  -26.2870  -29.6774   24.1170 H   0  0  0  0  0  0
  -27.4075  -29.7266   25.4593 H   0  0  0  0  0  0
  -27.8712  -30.4333   23.9286 H   0  0  0  0  0  0
  -27.2636  -33.3601   26.2078 H   0  0  0  0  0  0
  -28.3833  -32.6902   25.0300 H   0  0  0  0  0  0
  -28.0726  -31.8435   26.5383 H   0  0  0  0  0  0
  -28.2607  -38.0086   24.7506 H   0  0  0  0  0  0
  -28.1056  -36.2618   24.6305 H   0  0  0  0  0  0
  -27.2303  -37.1460   25.8882 H   0  0  0  0  0  0
  -20.9322  -29.8740   21.6945 H   0  0  0  0  0  0
  -26.0166  -38.2860   24.1403 H   0  0  0  0  0  0
  -26.3283  -17.4541   22.6824 H   0  0  0  0  0  0
  -27.8854  -15.5940   22.8044 H   0  0  0  0  0  0
  -30.6556  -17.7179   20.2530 H   0  0  0  0  0  0
  -26.5195  -20.4511   22.0768 H   0  0  0  0  0  0
  -25.4788  -19.2383   21.3553 H   0  0  0  0  0  0
  -26.4754  -20.2229   20.3144 H   0  0  0  0  0  0
  -27.4731  -21.6057   18.1515 H   0  0  0  0  0  0
  -27.2524  -23.3197   18.0652 H   0  0  0  0  0  0
  -26.6151  -22.4354   19.4395 H   0  0  0  0  0  0
  -30.0489  -21.8360   17.9763 H   0  0  0  0  0  0
  -30.9141  -22.9253   19.0501 H   0  0  0  0  0  0
  -29.8597  -23.5610   17.7943 H   0  0  0  0  0  0
  -28.5432  -19.9718   19.0150 H   0  0  0  0  0  0
  -30.1882  -19.9494   19.5268 H   0  0  0  0  0  0
  -27.8658  -25.3182   18.5832 H   0  0  0  0  0  0
  -29.5514  -25.5194   18.8769 H   0  0  0  0  0  0
  -28.2362  -21.5343   21.2641 H   0  0  0  0  0  0
  -29.9289  -21.7031   21.1213 H   0  0  0  0  0  0
  -29.7601  -14.6703   22.3180 H   0  0  0  0  0  0
  1 25  1  0  0  0
  1 30  2  0  0  0
  1 85  1  0  0  0
  2  3  1  0  0  0
  2 25  1  0  0  0
  2 87  1  0  0  0
  2 88  1  0  0  0
  3  4  1  0  0  0
  3 89  1  0  0  0
  3 90  1  0  0  0
  4  5  1  0  0  0
  4 91  1  0  0  0
  4 92  1  0  0  0
  5  6  1  0  0  0
  5 26  1  0  0  0
  5 93  1  0  0  0
  6 25  1  0  0  0
  6 94  1  0  0  0
  6 95  1  0  0  0
  7  8  2  0  0  0
  7 26  1  0  0  0
  7 29  1  0  0  0
  8  9  1  0  0  0
  8 22  1  0  0  0
  9 10  1  0  0  0
  9 27  2  0  0  0
 10 11  2  0  0  0
 10 15  1  0  0  0
 11 12  1  0  0  0
 11 96  1  0  0  0
 12 13  2  0  0  0
 12 97  1  0  0  0
 13 14  1  0  0  0
 13 31  1  0  0  0
 14 15  2  0  0  0
 14 98  1  0  0  0
 15 99  1  0  0  0
 16 17  2  0  0  0
 16 21  1  0  0  0
 16 31  1  0  0  0
 17 18  1  0  0  0
 17100  1  0  0  0
 18 19  2  0  0  0
 18101  1  0  0  0
 19 20  1  0  0  0
 19 24  1  0  0  0
 20 21  2  0  0  0
 20102  1  0  0  0
 21 23  1  0  0  0
 22 28  1  0  0  0
 22 32  2  0  0  0
 26 27  1  0  0  0
 28103  1  0  0  0
 28104  1  0  0  0
 29105  1  0  0  0
 29106  1  0  0  0
 33 34  1  0  0  0
 33 66  1  0  0  0
 33 70  2  0  0  0
 34 36  1  0  0  0
 34 59  1  0  0  0
 34107  1  0  0  0
 35 44  2  0  0  0
 35 45  1  0  0  0
 35 68  1  0  0  0
 36 56  1  0  0  0
 36108  1  0  0  0
 37 39  1  0  0  0
 37 47  1  0  0  0
 37 66  1  0  0  0
 37109  1  0  0  0
 38 43  2  0  0  0
 38 46  1  0  0  0
 38 47  1  0  0  0
 39 64  1  0  0  0
 39 67  2  0  0  0
 40 52  1  0  0  0
 40 53  2  0  0  0
 40 58  1  0  0  0
 41110  1  0  0  0
 41111  1  0  0  0
 41112  1  0  0  0
 41 48  1  0  0  0
 42 43  1  0  0  0
 42 66  1  0  0  0
 42113  1  0  0  0
 42114  1  0  0  0
 43 44  1  0  0  0
 44115  1  0  0  0
 45 46  2  0  0  0
 45116  1  0  0  0
 46117  1  0  0  0
 47118  1  0  0  0
 47119  1  0  0  0
 48 56  1  0  0  0
 48 65  1  0  0  0
 48120  1  0  0  0
 49 50  1  0  0  0
 49 53  1  0  0  0
 49 64  1  0  0  0
 49121  1  0  0  0
 50 51  1  0  0  0
 50122  1  0  0  0
 50123  1  0  0  0
 51 52  1  0  0  0
 51124  1  0  0  0
 51125  1  0  0  0
 52126  1  0  0  0
 52127  1  0  0  0
 53 54  1  0  0  0
 54 55  2  0  0  0
 54128  1  0  0  0
 55 57  1  0  0  0
 55129  1  0  0  0
 56 69  2  0  0  0
 57 58  2  0  0  0
 57130  1  0  0  0
 58131  1  0  0  0
 59 60  1  0  0  0
 59 61  1  0  0  0
 59 62  1  0  0  0
 60132  1  0  0  0
 60133  1  0  0  0
 60134  1  0  0  0
 61135  1  0  0  0
 61136  1  0  0  0
 61137  1  0  0  0
 62138  1  0  0  0
 62139  1  0  0  0
 62140  1  0  0  0
 63 65  1  0  0  0
 63141  1  0  0  0
 63142  1  0  0  0
 63143  1  0  0  0
 64144  1  0  0  0
 65145  1  0  0  0
 68 82  1  0  0  0
 71 72  2  0  0  0
 71 74  1  0  0  0
 71146  1  0  0  0
 72 76  1  0  0  0
 72147  1  0  0  0
 73 75  1  0  0  0
 73 76  2  0  0  0
 73148  1  0  0  0
 74 75  2  0  0  0
 74 78  1  0  0  0
 75 81  1  0  0  0
 76 85  1  0  0  0
 77 82  1  0  0  0
 77 84  1  0  0  0
 77 86  2  0  0  0
 78149  1  0  0  0
 78150  1  0  0  0
 78151  1  0  0  0
 79152  1  0  0  0
 79153  1  0  0  0
 79154  1  0  0  0
 79 84  1  0  0  0
 80 84  1  0  0  0
 80155  1  0  0  0
 80156  1  0  0  0
 80157  1  0  0  0
 81 83  1  0  0  0
 81158  1  0  0  0
 81159  1  0  0  0
 82160  1  0  0  0
 82161  1  0  0  0
 83 84  1  0  0  0
 83162  1  0  0  0
 83163  1  0  0  0
 85164  1  0  0  0
M  ISO  4   1 100  68 101  82 101  85 100
M  END
> <chiral flag>
0

> <version>
0

> <s_m_source_file>
/data/baiqing/PycharmProjects/Reinvent-master-3.2/result/LINK_invent/BTK/process_docking_weight1_custom_product_contain_oxygen_bond_distance_aromatic_linkinvent_7_9_3/rearranged_h_0140.sdf

> <i_m_source_file_index>
64

> <r_mmod_Potential_Energy-OPLS-2005>
77.7473831176758

> <r_mmod_Stretch_Energy-OPLS-2005>
62.9382514953613

> <r_mmod_Bend_Energy-OPLS-2005>
140.752822875977

> <r_mmod_Torsional_Energy-OPLS-2005>
253.3115234375

> <r_mmod_Improper_Torsional_Energy-OPLS-2005>
7.36744022369385

> <r_mmod_Van_der_Waal_Energy-OPLS-2005>
145.776733398438

> <r_mmod_Electrostatic_Energy-OPLS-2005>
-335.106018066406

> <r_mmod_Solvation_Energy-OPLS-2005>
-217.633071899414

> <b_mmod_Minimization_Converged-OPLS-2005>
0

> <r_mmod_RMS_Derivative-OPLS-2005>
1.38126528263092

$$$$
64
                    3D
 Structure written by MMmdl.
162170  0  0  1  0            999 V2000
  -30.6300  -14.6007   20.5200 C   0  0  0  0  0  0
  -30.4404  -12.3734   19.4414 C   0  0  0  0  0  0
  -29.5060  -12.5092   18.2186 C   0  0  0  0  0  0
  -28.0277  -12.3525   18.6293 C   0  0  0  0  0  0
  -27.6578  -13.2109   19.8679 C   0  0  2  0  0  0
  -28.7015  -13.0357   20.9941 C   0  0  0  0  0  0
  -25.2585  -13.8165   20.5681 C   0  0  0  0  0  0
  -24.1837  -13.0442   20.9179 C   0  0  0  0  0  0
  -24.6394  -11.6907   20.8728 C   0  0  0  0  0  0
  -23.9059  -10.4295   21.0401 C   0  0  0  0  0  0
  -24.3611   -9.4210   21.9181 C   0  0  0  0  0  0
  -23.6288   -8.2245   22.0751 C   0  0  0  0  0  0
  -22.4269   -8.0283   21.3543 C   0  0  0  0  0  0
  -21.9904   -9.0259   20.4646 C   0  0  0  0  0  0
  -22.7232  -10.2138   20.3054 C   0  0  0  0  0  0
  -21.6854   -6.0735   22.5280 C   0  0  0  0  0  0
  -21.4017   -6.5638   23.8214 C   0  0  0  0  0  0
  -21.3654   -5.6788   24.9173 C   0  0  0  0  0  0
  -21.6042   -4.3053   24.7223 C   0  0  0  0  0  0
  -21.8821   -3.8145   23.4343 C   0  0  0  0  0  0
  -21.9196   -4.6964   22.3402 C   0  0  0  0  0  0
  -22.7861  -13.5246   21.1840 C   0  0  0  0  0  0
  -22.1664   -4.2150   21.0980 F   0  0  0  0  0  0
  -21.5625   -3.4536   25.7736 F   0  0  0  0  0  0
  -30.0216  -13.3775   20.4380 N   0  0  0  0  0  0
  -26.3009  -12.9332   20.3328 N   0  0  0  0  0  0
  -25.9319  -11.6493   20.5744 N   0  0  0  0  0  0
  -22.0491  -12.8248   22.0395 N   0  0  0  0  0  0
  -25.4326  -15.1883   20.4102 N   0  0  0  0  0  0
  -31.7803  -14.7790   20.1075 O   0  0  0  0  0  0
  -21.6637   -6.8878   21.4241 O   0  0  0  0  0  0
  -22.3551  -14.5555   20.6689 O   0  0  0  0  0  0
  -24.6230  -31.8625   23.2056 C   0  0  0  0  0  0
  -25.9093  -32.4792   23.8372 C   0  0  1  0  0  0
  -27.2270  -27.3512   20.1076 C   0  0  0  0  0  0
  -25.5919  -33.8591   24.2298 N   0  0  0  0  0  0
  -23.4146  -30.4873   21.5478 C   0  0  2  0  0  0
  -24.8600  -28.9468   20.1121 C   0  0  0  0  0  0
  -22.7456  -29.4639   22.4953 C   0  0  0  0  0  0
  -18.0281  -28.1389   22.8489 C   0  0  0  0  0  0
  -24.1484  -36.7297   23.2638 C   0  0  0  0  0  0
  -25.9526  -30.8036   21.3709 C   0  0  0  0  0  0
  -26.0275  -29.4330   20.7136 C   0  0  0  0  0  0
  -27.2133  -28.6459   20.7033 C   0  0  0  0  0  0
  -26.0353  -26.9096   19.4854 C   0  0  0  0  0  0
  -24.8639  -27.6884   19.4918 C   0  0  0  0  0  0
  -23.6274  -29.8245   20.1618 C   0  0  0  0  0  0
  -25.4106  -36.3089   24.0331 C   0  0  1  0  0  0
  -20.5879  -28.3687   23.1297 C   0  0  2  0  0  0
  -20.6772  -26.9416   22.5413 C   0  0  0  0  0  0
  -19.5748  -26.6392   21.5214 C   0  0  0  0  0  0
  -18.1928  -26.7934   22.1626 C   0  0  0  0  0  0
  -19.1532  -28.8855   23.2890 C   0  0  0  0  0  0
  -18.9456  -30.1456   23.8908 C   0  0  0  0  0  0
  -17.6456  -30.6592   24.0564 C   0  0  0  0  0  0
  -25.9043  -34.9457   23.5112 C   0  0  0  0  0  0
  -16.5348  -29.9092   23.6326 C   0  0  0  0  0  0
  -16.7269  -28.6509   23.0350 C   0  0  0  0  0  0
  -26.4492  -31.6592   25.0728 C   0  0  0  0  0  0
  -25.3732  -31.3725   26.1460 C   0  0  0  0  0  0
  -27.0333  -30.3024   24.6159 C   0  0  0  0  0  0
  -27.6060  -32.4319   25.7495 C   0  0  0  0  0  0
  -27.5576  -37.1799   24.8463 C   0  0  0  0  0  0
  -21.4174  -29.3044   22.3695 N   0  0  0  0  0  0
  -26.4287  -37.3781   23.9410 N   0  0  0  0  0  0
  -24.6822  -31.0663   22.0991 N   0  0  0  0  0  0
  -23.4192  -28.8177   23.3019 O   0  0  0  0  0  0
  -28.3616  -26.5346   20.1515 O   0  0  0  0  0  0
  -26.5609  -34.8918   22.4677 O   0  0  0  0  0  0
  -23.5403  -32.1410   23.7405 O   0  0  0  0  0  0
  -30.8844  -19.2055   20.0534 C   0  0  0  0  0  0
  -30.8858  -17.7825   20.0984 C   0  0  0  0  0  0
  -28.9314  -17.8552   21.5028 C   0  0  0  0  0  0
  -29.9273  -19.9950   20.7472 C   0  0  0  0  0  0
  -28.9338  -19.2813   21.4740 C   0  0  0  0  0  0
  -29.9136  -17.0689   20.8443 C   0  0  0  0  0  0
  -27.8720  -20.0220   22.2693 C   0  0  0  0  0  0
  -30.5957  -24.4958   19.6075 C   0  0  0  0  0  0
  -29.6579  -24.4611   21.9434 C   0  0  0  0  0  0
  -30.1255  -21.5484   20.8386 C   0  0  0  0  0  0
  -29.0417  -22.5805   20.3109 C   0  0  0  0  0  0
  -28.1762  -25.0821   20.0030 C   0  0  0  0  0  0
  -29.3645  -24.1416   20.4638 C   0  0  0  0  0  0
  -29.8319  -15.6188   20.9577 N   0  0  0  0  0  0
  -31.4800  -12.5043   19.1358 H   0  0  0  0  0  0
  -30.3788  -11.3702   19.8658 H   0  0  0  0  0  0
  -29.7644  -11.7664   17.4625 H   0  0  0  0  0  0
  -29.6533  -13.4838   17.7501 H   0  0  0  0  0  0
  -27.8539  -11.2977   18.8457 H   0  0  0  0  0  0
  -27.3757  -12.6012   17.7912 H   0  0  0  0  0  0
  -27.6864  -14.2512   19.5429 H   0  0  0  0  0  0
  -28.7055  -12.0053   21.3528 H   0  0  0  0  0  0
  -28.4476  -13.6458   21.8620 H   0  0  0  0  0  0
  -25.2756   -9.5695   22.4752 H   0  0  0  0  0  0
  -24.0001   -7.4641   22.7469 H   0  0  0  0  0  0
  -21.0834   -8.8779   19.8954 H   0  0  0  0  0  0
  -22.3688  -10.9677   19.6160 H   0  0  0  0  0  0
  -21.2013   -7.6147   23.9719 H   0  0  0  0  0  0
  -21.1470   -6.0516   25.9077 H   0  0  0  0  0  0
  -22.0605   -2.7609   23.2842 H   0  0  0  0  0  0
  -22.4093  -11.9907   22.4792 H   0  0  0  0  0  0
  -21.1113  -13.1288   22.2593 H   0  0  0  0  0  0
  -24.6679  -15.8454   20.5198 H   0  0  0  0  0  0
  -26.2831  -15.6246   20.0771 H   0  0  0  0  0  0
  -26.7162  -32.5476   23.1125 H   0  0  0  0  0  0
  -25.0058  -33.9742   25.0438 H   0  0  0  0  0  0
  -22.7066  -31.3068   21.4082 H   0  0  0  0  0  0
  -23.3745  -35.9630   23.3300 H   0  0  0  0  0  0
  -24.3576  -36.8915   22.2053 H   0  0  0  0  0  0
  -23.7236  -37.6499   23.6658 H   0  0  0  0  0  0
  -26.0761  -31.5686   20.6029 H   0  0  0  0  0  0
  -26.8360  -30.8547   21.9959 H   0  0  0  0  0  0
  -28.1100  -29.0145   21.1815 H   0  0  0  0  0  0
  -25.9823  -25.9505   18.9924 H   0  0  0  0  0  0
  -23.9681  -27.3102   19.0188 H   0  0  0  0  0  0
  -23.7467  -30.6033   19.4076 H   0  0  0  0  0  0
  -22.7473  -29.2547   19.8584 H   0  0  0  0  0  0
  -25.1284  -36.1943   25.0823 H   0  0  0  0  0  0
  -20.9971  -28.3259   24.1417 H   0  0  0  0  0  0
  -20.5683  -26.2294   23.3606 H   0  0  0  0  0  0
  -21.6640  -26.7458   22.1201 H   0  0  0  0  0  0
  -19.6909  -25.6303   21.1244 H   0  0  0  0  0  0
  -19.6688  -27.3202   20.6743 H   0  0  0  0  0  0
  -17.4197  -26.6683   21.4029 H   0  0  0  0  0  0
  -18.0329  -26.0079   22.9026 H   0  0  0  0  0  0
  -19.7929  -30.7271   24.2289 H   0  0  0  0  0  0
  -17.5008  -31.6274   24.5162 H   0  0  0  0  0  0
  -15.5349  -30.2998   23.7642 H   0  0  0  0  0  0
  -15.8668  -28.0831   22.7061 H   0  0  0  0  0  0
  -24.5904  -30.7079   25.7789 H   0  0  0  0  0  0
  -24.8926  -32.2891   26.4889 H   0  0  0  0  0  0
  -25.8058  -30.8900   27.0232 H   0  0  0  0  0  0
  -26.2903  -29.6776   24.1188 H   0  0  0  0  0  0
  -27.4053  -29.7274   25.4648 H   0  0  0  0  0  0
  -27.8759  -30.4324   23.9362 H   0  0  0  0  0  0
  -27.2681  -33.3617   26.2082 H   0  0  0  0  0  0
  -28.3865  -32.6880   25.0319 H   0  0  0  0  0  0
  -28.0734  -31.8437   26.5402 H   0  0  0  0  0  0
  -28.2593  -38.0098   24.7511 H   0  0  0  0  0  0
  -28.1072  -36.2628   24.6284 H   0  0  0  0  0  0
  -27.2295  -37.1443   25.8867 H   0  0  0  0  0  0
  -20.9342  -29.8770   21.6916 H   0  0  0  0  0  0
  -26.0169  -38.2855   24.1417 H   0  0  0  0  0  0
  -31.6746  -19.6970   19.5031 H   0  0  0  0  0  0
  -31.6573  -17.2527   19.5586 H   0  0  0  0  0  0
  -28.1614  -17.3524   22.0722 H   0  0  0  0  0  0
  -27.3879  -19.3664   22.9937 H   0  0  0  0  0  0
  -27.0994  -20.4052   21.6025 H   0  0  0  0  0  0
  -28.2981  -20.8581   22.8242 H   0  0  0  0  0  0
  -31.4897  -23.9622   19.9285 H   0  0  0  0  0  0
  -30.8245  -25.5606   19.6650 H   0  0  0  0  0  0
  -30.4276  -24.2563   18.5568 H   0  0  0  0  0  0
  -30.5555  -23.9585   22.3029 H   0  0  0  0  0  0
  -28.8278  -24.1607   22.5840 H   0  0  0  0  0  0
  -29.8162  -25.5292   22.0963 H   0  0  0  0  0  0
  -31.0687  -21.7734   20.3421 H   0  0  0  0  0  0
  -30.3171  -21.7529   21.8911 H   0  0  0  0  0  0
  -28.0995  -22.3851   20.8201 H   0  0  0  0  0  0
  -28.8481  -22.3646   19.2596 H   0  0  0  0  0  0
  -27.2897  -24.7830   20.5653 H   0  0  0  0  0  0
  -27.9608  -24.8714   18.9545 H   0  0  0  0  0  0
  -28.9661  -15.2818   21.3494 H   0  0  0  0  0  0
  1 25  1  0  0  0
  1 30  2  0  0  0
  1 84  1  0  0  0
  2  3  1  0  0  0
  2 25  1  0  0  0
  2 85  1  0  0  0
  2 86  1  0  0  0
  3  4  1  0  0  0
  3 87  1  0  0  0
  3 88  1  0  0  0
  4  5  1  0  0  0
  4 89  1  0  0  0
  4 90  1  0  0  0
  5  6  1  0  0  0
  5 26  1  0  0  0
  5 91  1  0  0  0
  6 25  1  0  0  0
  6 92  1  0  0  0
  6 93  1  0  0  0
  7  8  2  0  0  0
  7 26  1  0  0  0
  7 29  1  0  0  0
  8  9  1  0  0  0
  8 22  1  0  0  0
  9 10  1  0  0  0
  9 27  2  0  0  0
 10 11  2  0  0  0
 10 15  1  0  0  0
 11 12  1  0  0  0
 11 94  1  0  0  0
 12 13  2  0  0  0
 12 95  1  0  0  0
 13 14  1  0  0  0
 13 31  1  0  0  0
 14 15  2  0  0  0
 14 96  1  0  0  0
 15 97  1  0  0  0
 16 17  2  0  0  0
 16 21  1  0  0  0
 16 31  1  0  0  0
 17 18  1  0  0  0
 17 98  1  0  0  0
 18 19  2  0  0  0
 18 99  1  0  0  0
 19 20  1  0  0  0
 19 24  1  0  0  0
 20 21  2  0  0  0
 20100  1  0  0  0
 21 23  1  0  0  0
 22 28  1  0  0  0
 22 32  2  0  0  0
 26 27  1  0  0  0
 28101  1  0  0  0
 28102  1  0  0  0
 29103  1  0  0  0
 29104  1  0  0  0
 33 34  1  0  0  0
 33 66  1  0  0  0
 33 70  2  0  0  0
 34 36  1  0  0  0
 34 59  1  0  0  0
 34105  1  0  0  0
 35 44  2  0  0  0
 35 45  1  0  0  0
 35 68  1  0  0  0
 36 56  1  0  0  0
 36106  1  0  0  0
 37 39  1  0  0  0
 37 47  1  0  0  0
 37 66  1  0  0  0
 37107  1  0  0  0
 38 43  2  0  0  0
 38 46  1  0  0  0
 38 47  1  0  0  0
 39 64  1  0  0  0
 39 67  2  0  0  0
 40 52  1  0  0  0
 40 53  2  0  0  0
 40 58  1  0  0  0
 41108  1  0  0  0
 41109  1  0  0  0
 41110  1  0  0  0
 41 48  1  0  0  0
 42 43  1  0  0  0
 42 66  1  0  0  0
 42111  1  0  0  0
 42112  1  0  0  0
 43 44  1  0  0  0
 44113  1  0  0  0
 45 46  2  0  0  0
 45114  1  0  0  0
 46115  1  0  0  0
 47116  1  0  0  0
 47117  1  0  0  0
 48 56  1  0  0  0
 48 65  1  0  0  0
 48118  1  0  0  0
 49 50  1  0  0  0
 49 53  1  0  0  0
 49 64  1  0  0  0
 49119  1  0  0  0
 50 51  1  0  0  0
 50120  1  0  0  0
 50121  1  0  0  0
 51 52  1  0  0  0
 51122  1  0  0  0
 51123  1  0  0  0
 52124  1  0  0  0
 52125  1  0  0  0
 53 54  1  0  0  0
 54 55  2  0  0  0
 54126  1  0  0  0
 55 57  1  0  0  0
 55127  1  0  0  0
 56 69  2  0  0  0
 57 58  2  0  0  0
 57128  1  0  0  0
 58129  1  0  0  0
 59 60  1  0  0  0
 59 61  1  0  0  0
 59 62  1  0  0  0
 60130  1  0  0  0
 60131  1  0  0  0
 60132  1  0  0  0
 61133  1  0  0  0
 61134  1  0  0  0
 61135  1  0  0  0
 62136  1  0  0  0
 62137  1  0  0  0
 62138  1  0  0  0
 63 65  1  0  0  0
 63139  1  0  0  0
 63140  1  0  0  0
 63141  1  0  0  0
 64142  1  0  0  0
 65143  1  0  0  0
 68 82  1  0  0  0
 71 72  2  0  0  0
 71 74  1  0  0  0
 71144  1  0  0  0
 72 76  1  0  0  0
 72145  1  0  0  0
 73 75  1  0  0  0
 73 76  2  0  0  0
 73146  1  0  0  0
 74 75  2  0  0  0
 74 80  1  0  0  0
 75 77  1  0  0  0
 76 84  1  0  0  0
 77147  1  0  0  0
 77148  1  0  0  0
 77149  1  0  0  0
 78150  1  0  0  0
 78151  1  0  0  0
 78152  1  0  0  0
 78 83  1  0  0  0
 79 83  1  0  0  0
 79153  1  0  0  0
 79154  1  0  0  0
 79155  1  0  0  0
 80 81  1  0  0  0
 80156  1  0  0  0
 80157  1  0  0  0
 81 83  1  0  0  0
 81158  1  0  0  0
 81159  1  0  0  0
 82 83  1  0  0  0
 82160  1  0  0  0
 82161  1  0  0  0
 84162  1  0  0  0
M  ISO  4   1 100  68 101  82 101  84 100
M  END
> <chiral flag>
0

> <version>
0

> <s_m_source_file>
/data/baiqing/PycharmProjects/Reinvent-master-3.2/result/LINK_invent/BTK/process_docking_weight1_custom_product_contain_oxygen_bond_distance_aromatic_linkinvent_7_9_3/rearranged_h_0140.sdf

> <i_m_source_file_index>
65

> <r_mmod_Potential_Energy-OPLS-2005>
36.070240020752

> <r_mmod_Stretch_Energy-OPLS-2005>
70.2922592163086

> <r_mmod_Bend_Energy-OPLS-2005>
133.537704467773

> <r_mmod_Torsional_Energy-OPLS-2005>
219.654586791992

> <r_mmod_Improper_Torsional_Energy-OPLS-2005>
4.22558879852295

> <r_mmod_Van_der_Waal_Energy-OPLS-2005>
147.923858642578

> <r_mmod_Electrostatic_Energy-OPLS-2005>
-380.674377441406

> <r_mmod_Solvation_Energy-OPLS-2005>
-194.438400268555

> <b_mmod_Minimization_Converged-OPLS-2005>
0

> <r_mmod_RMS_Derivative-OPLS-2005>
0.654418706893921

$$$$
65
                    3D
 Structure written by MMmdl.
155163  0  0  1  0            999 V2000
  -30.6941  -14.5129   20.5696 C   0  0  0  0  0  0
  -30.4212  -12.3337   19.4273 C   0  0  0  0  0  0
  -29.4929  -12.5029   18.2074 C   0  0  0  0  0  0
  -28.0162  -12.3578   18.6245 C   0  0  0  0  0  0
  -27.6566  -13.2104   19.8708 C   0  0  2  0  0  0
  -28.6993  -13.0211   20.9936 C   0  0  0  0  0  0
  -25.2571  -13.8159   20.5690 C   0  0  0  0  0  0
  -24.1828  -13.0432   20.9186 C   0  0  0  0  0  0
  -24.6390  -11.6903   20.8739 C   0  0  0  0  0  0
  -23.9064  -10.4288   21.0408 C   0  0  0  0  0  0
  -24.3619   -9.4208   21.9186 C   0  0  0  0  0  0
  -23.6299   -8.2241   22.0753 C   0  0  0  0  0  0
  -22.4280   -8.0278   21.3546 C   0  0  0  0  0  0
  -21.9912   -9.0250   20.4649 C   0  0  0  0  0  0
  -22.7236  -10.2134   20.3060 C   0  0  0  0  0  0
  -21.6856   -6.0744   22.5288 C   0  0  0  0  0  0
  -21.4006   -6.5650   23.8220 C   0  0  0  0  0  0
  -21.3657   -5.6802   24.9179 C   0  0  0  0  0  0
  -21.6045   -4.3062   24.7228 C   0  0  0  0  0  0
  -21.8820   -3.8158   23.4347 C   0  0  0  0  0  0
  -21.9189   -4.6974   22.3406 C   0  0  0  0  0  0
  -22.7853  -13.5224   21.1860 C   0  0  0  0  0  0
  -22.1665   -4.2162   21.0983 F   0  0  0  0  0  0
  -21.5630   -3.4545   25.7739 F   0  0  0  0  0  0
  -30.0215  -13.3352   20.4310 N   0  0  0  0  0  0
  -26.3004  -12.9335   20.3364 N   0  0  0  0  0  0
  -25.9314  -11.6493   20.5772 N   0  0  0  0  0  0
  -22.0510  -12.8199   22.0413 N   0  0  0  0  0  0
  -25.4287  -15.1876   20.4095 N   0  0  0  0  0  0
  -31.8306  -14.6759   20.1194 O   0  0  0  0  0  0
  -21.6641   -6.8877   21.4246 O   0  0  0  0  0  0
  -22.3537  -14.5534   20.6715 O   0  0  0  0  0  0
  -24.6183  -31.8632   23.2051 C   0  0  0  0  0  0
  -25.9056  -32.4790   23.8364 C   0  0  1  0  0  0
  -27.2368  -27.3939   20.0992 C   0  0  0  0  0  0
  -25.5895  -33.8595   24.2286 N   0  0  0  0  0  0
  -23.4077  -30.4858   21.5460 C   0  0  2  0  0  0
  -24.8527  -28.9425   20.1145 C   0  0  0  0  0  0
  -22.7425  -29.4646   22.4970 C   0  0  0  0  0  0
  -18.0275  -28.1383   22.8499 C   0  0  0  0  0  0
  -24.1490  -36.7322   23.2640 C   0  0  0  0  0  0
  -25.9393  -30.8153   21.3651 C   0  0  0  0  0  0
  -26.0134  -29.4466   20.7121 C   0  0  0  0  0  0
  -27.2035  -28.6799   20.6991 C   0  0  0  0  0  0
  -26.0497  -26.9070   19.5054 C   0  0  0  0  0  0
  -24.8678  -27.6741   19.5092 C   0  0  0  0  0  0
  -23.6163  -29.8134   20.1624 C   0  0  0  0  0  0
  -25.4109  -36.3097   24.0327 C   0  0  1  0  0  0
  -20.5865  -28.3688   23.1311 C   0  0  2  0  0  0
  -20.6772  -26.9426   22.5423 C   0  0  0  0  0  0
  -19.5750  -26.6397   21.5225 C   0  0  0  0  0  0
  -18.1926  -26.7929   22.1631 C   0  0  0  0  0  0
  -19.1523  -28.8852   23.2901 C   0  0  0  0  0  0
  -18.9451  -30.1454   23.8922 C   0  0  0  0  0  0
  -17.6452  -30.6592   24.0570 C   0  0  0  0  0  0
  -25.9038  -34.9459   23.5106 C   0  0  0  0  0  0
  -16.5343  -29.9098   23.6325 C   0  0  0  0  0  0
  -16.7265  -28.6507   23.0360 C   0  0  0  0  0  0
  -26.4473  -31.6588   25.0720 C   0  0  0  0  0  0
  -25.3729  -31.3707   26.1461 C   0  0  0  0  0  0
  -27.0312  -30.3021   24.6146 C   0  0  0  0  0  0
  -27.6038  -32.4331   25.7479 C   0  0  0  0  0  0
  -27.5579  -37.1805   24.8456 C   0  0  0  0  0  0
  -21.4148  -29.3039   22.3704 N   0  0  0  0  0  0
  -26.4292  -37.3783   23.9398 N   0  0  0  0  0  0
  -24.6729  -31.0707   22.0966 N   0  0  0  0  0  0
  -23.4175  -28.8202   23.3035 O   0  0  0  0  0  0
  -28.4259  -26.6778   20.1268 O   0  0  0  0  0  0
  -26.5621  -34.8921   22.4680 O   0  0  0  0  0  0
  -23.5369  -32.1404   23.7423 O   0  0  0  0  0  0
  -29.1860  -19.0824   21.6400 C   0  0  0  0  0  0
  -29.1539  -20.2240   20.7695 C   0  0  0  0  0  0
  -29.9638  -18.1112   21.0582 C   0  0  0  0  0  0
  -29.8624  -19.8257   19.6580 C   0  0  0  0  0  0
  -28.5099  -21.5707   20.9992 C   0  0  0  0  0  0
  -30.2391  -20.4621   18.3595 C   0  0  0  0  0  0
  -30.6000  -16.8259   21.5640 C   0  0  0  0  0  0
  -28.7724  -22.7673   20.0445 C   0  0  0  0  0  0
  -28.3065  -24.1743   20.5630 C   0  0  0  0  0  0
  -28.5490  -25.3480   19.5663 C   0  0  0  0  0  0
  -30.0164  -15.5349   21.1411 N   0  0  0  0  0  0
  -27.7780  -21.7362   21.9795 O   0  0  0  0  0  0
  -30.3534  -18.5534   19.8300 O   0  0  0  0  0  0
  -31.4657  -12.4350   19.1261 H   0  0  0  0  0  0
  -30.3298  -11.3289   19.8422 H   0  0  0  0  0  0
  -29.7400  -11.7678   17.4397 H   0  0  0  0  0  0
  -29.6543  -13.4836   17.7564 H   0  0  0  0  0  0
  -27.8345  -11.3023   18.8326 H   0  0  0  0  0  0
  -27.3632  -12.6183   17.7909 H   0  0  0  0  0  0
  -27.6921  -14.2543   19.5580 H   0  0  0  0  0  0
  -28.6891  -11.9920   21.3548 H   0  0  0  0  0  0
  -28.4576  -13.6357   21.8613 H   0  0  0  0  0  0
  -25.2764   -9.5687   22.4757 H   0  0  0  0  0  0
  -24.0022   -7.4623   22.7458 H   0  0  0  0  0  0
  -21.0852   -8.8756   19.8941 H   0  0  0  0  0  0
  -22.3690  -10.9670   19.6172 H   0  0  0  0  0  0
  -21.1998   -7.6160   23.9722 H   0  0  0  0  0  0
  -21.1483   -6.0537   25.9084 H   0  0  0  0  0  0
  -22.0599   -2.7620   23.2845 H   0  0  0  0  0  0
  -22.4151  -11.9866   22.4784 H   0  0  0  0  0  0
  -21.1132  -13.1220   22.2634 H   0  0  0  0  0  0
  -24.6621  -15.8420   20.5203 H   0  0  0  0  0  0
  -26.2818  -15.6289   20.0900 H   0  0  0  0  0  0
  -26.7123  -32.5477   23.1112 H   0  0  0  0  0  0
  -25.0004  -33.9749   25.0400 H   0  0  0  0  0  0
  -22.6998  -31.3042   21.4021 H   0  0  0  0  0  0
  -23.3743  -35.9667   23.3305 H   0  0  0  0  0  0
  -24.3583  -36.8948   22.2056 H   0  0  0  0  0  0
  -23.7262  -37.6530   23.6670 H   0  0  0  0  0  0
  -26.0623  -31.5799   20.5968 H   0  0  0  0  0  0
  -26.8229  -30.8640   21.9903 H   0  0  0  0  0  0
  -28.1004  -29.0679   21.1606 H   0  0  0  0  0  0
  -26.0068  -25.9338   19.0404 H   0  0  0  0  0  0
  -23.9725  -27.2777   19.0495 H   0  0  0  0  0  0
  -23.7238  -30.5842   19.3987 H   0  0  0  0  0  0
  -22.7397  -29.2333   19.8693 H   0  0  0  0  0  0
  -25.1286  -36.1946   25.0823 H   0  0  0  0  0  0
  -20.9961  -28.3272   24.1428 H   0  0  0  0  0  0
  -20.5706  -26.2306   23.3617 H   0  0  0  0  0  0
  -21.6639  -26.7480   22.1196 H   0  0  0  0  0  0
  -19.6924  -25.6314   21.1247 H   0  0  0  0  0  0
  -19.6681  -27.3213   20.6757 H   0  0  0  0  0  0
  -17.4199  -26.6693   21.4028 H   0  0  0  0  0  0
  -18.0316  -26.0062   22.9013 H   0  0  0  0  0  0
  -19.7925  -30.7262   24.2313 H   0  0  0  0  0  0
  -17.5004  -31.6271   24.5174 H   0  0  0  0  0  0
  -15.5346  -30.3008   23.7634 H   0  0  0  0  0  0
  -15.8660  -28.0826   22.7081 H   0  0  0  0  0  0
  -24.5890  -30.7071   25.7790 H   0  0  0  0  0  0
  -24.8942  -32.2870   26.4930 H   0  0  0  0  0  0
  -25.8072  -30.8851   27.0208 H   0  0  0  0  0  0
  -26.2867  -29.6771   24.1201 H   0  0  0  0  0  0
  -27.4048  -29.7278   25.4633 H   0  0  0  0  0  0
  -27.8723  -30.4321   23.9334 H   0  0  0  0  0  0
  -27.2639  -33.3615   26.2083 H   0  0  0  0  0  0
  -28.3826  -32.6920   25.0293 H   0  0  0  0  0  0
  -28.0739  -31.8453   26.5372 H   0  0  0  0  0  0
  -28.2581  -38.0114   24.7499 H   0  0  0  0  0  0
  -28.1085  -36.2637   24.6275 H   0  0  0  0  0  0
  -27.2301  -37.1450   25.8862 H   0  0  0  0  0  0
  -20.9331  -29.8736   21.6889 H   0  0  0  0  0  0
  -26.0177  -38.2864   24.1391 H   0  0  0  0  0  0
  -28.7567  -19.0230   22.6304 H   0  0  0  0  0  0
  -29.3682  -20.8865   17.8608 H   0  0  0  0  0  0
  -30.6855  -19.7356   17.6800 H   0  0  0  0  0  0
  -30.9682  -21.2573   18.5136 H   0  0  0  0  0  0
  -30.5725  -16.8379   22.6539 H   0  0  0  0  0  0
  -31.6625  -16.8603   21.3201 H   0  0  0  0  0  0
  -28.2769  -22.5517   19.0993 H   0  0  0  0  0  0
  -29.8423  -22.8041   19.8405 H   0  0  0  0  0  0
  -28.8404  -24.3906   21.4895 H   0  0  0  0  0  0
  -27.2487  -24.1426   20.8254 H   0  0  0  0  0  0
  -27.9651  -25.2215   18.6557 H   0  0  0  0  0  0
  -29.5835  -25.2795   19.2291 H   0  0  0  0  0  0
  -29.0721  -15.3442   21.4386 H   0  0  0  0  0  0
  1 25  1  0  0  0
  1 30  2  0  0  0
  1 81  1  0  0  0
  2  3  1  0  0  0
  2 25  1  0  0  0
  2 84  1  0  0  0
  2 85  1  0  0  0
  3  4  1  0  0  0
  3 86  1  0  0  0
  3 87  1  0  0  0
  4  5  1  0  0  0
  4 88  1  0  0  0
  4 89  1  0  0  0
  5  6  1  0  0  0
  5 26  1  0  0  0
  5 90  1  0  0  0
  6 25  1  0  0  0
  6 91  1  0  0  0
  6 92  1  0  0  0
  7  8  2  0  0  0
  7 26  1  0  0  0
  7 29  1  0  0  0
  8  9  1  0  0  0
  8 22  1  0  0  0
  9 10  1  0  0  0
  9 27  2  0  0  0
 10 11  2  0  0  0
 10 15  1  0  0  0
 11 12  1  0  0  0
 11 93  1  0  0  0
 12 13  2  0  0  0
 12 94  1  0  0  0
 13 14  1  0  0  0
 13 31  1  0  0  0
 14 15  2  0  0  0
 14 95  1  0  0  0
 15 96  1  0  0  0
 16 17  2  0  0  0
 16 21  1  0  0  0
 16 31  1  0  0  0
 17 18  1  0  0  0
 17 97  1  0  0  0
 18 19  2  0  0  0
 18 98  1  0  0  0
 19 20  1  0  0  0
 19 24  1  0  0  0
 20 21  2  0  0  0
 20 99  1  0  0  0
 21 23  1  0  0  0
 22 28  1  0  0  0
 22 32  2  0  0  0
 26 27  1  0  0  0
 28100  1  0  0  0
 28101  1  0  0  0
 29102  1  0  0  0
 29103  1  0  0  0
 33 34  1  0  0  0
 33 66  1  0  0  0
 33 70  2  0  0  0
 34 36  1  0  0  0
 34 59  1  0  0  0
 34104  1  0  0  0
 35 44  2  0  0  0
 35 45  1  0  0  0
 35 68  1  0  0  0
 36 56  1  0  0  0
 36105  1  0  0  0
 37 39  1  0  0  0
 37 47  1  0  0  0
 37 66  1  0  0  0
 37106  1  0  0  0
 38 43  2  0  0  0
 38 46  1  0  0  0
 38 47  1  0  0  0
 39 64  1  0  0  0
 39 67  2  0  0  0
 40 52  1  0  0  0
 40 53  2  0  0  0
 40 58  1  0  0  0
 41107  1  0  0  0
 41108  1  0  0  0
 41109  1  0  0  0
 41 48  1  0  0  0
 42 43  1  0  0  0
 42 66  1  0  0  0
 42110  1  0  0  0
 42111  1  0  0  0
 43 44  1  0  0  0
 44112  1  0  0  0
 45 46  2  0  0  0
 45113  1  0  0  0
 46114  1  0  0  0
 47115  1  0  0  0
 47116  1  0  0  0
 48 56  1  0  0  0
 48 65  1  0  0  0
 48117  1  0  0  0
 49 50  1  0  0  0
 49 53  1  0  0  0
 49 64  1  0  0  0
 49118  1  0  0  0
 50 51  1  0  0  0
 50119  1  0  0  0
 50120  1  0  0  0
 51 52  1  0  0  0
 51121  1  0  0  0
 51122  1  0  0  0
 52123  1  0  0  0
 52124  1  0  0  0
 53 54  1  0  0  0
 54 55  2  0  0  0
 54125  1  0  0  0
 55 57  1  0  0  0
 55126  1  0  0  0
 56 69  2  0  0  0
 57 58  2  0  0  0
 57127  1  0  0  0
 58128  1  0  0  0
 59 60  1  0  0  0
 59 61  1  0  0  0
 59 62  1  0  0  0
 60129  1  0  0  0
 60130  1  0  0  0
 60131  1  0  0  0
 61132  1  0  0  0
 61133  1  0  0  0
 61134  1  0  0  0
 62135  1  0  0  0
 62136  1  0  0  0
 62137  1  0  0  0
 63 65  1  0  0  0
 63138  1  0  0  0
 63139  1  0  0  0
 63140  1  0  0  0
 64141  1  0  0  0
 65142  1  0  0  0
 68 80  1  0  0  0
 71 72  1  0  0  0
 71 73  2  0  0  0
 71143  1  0  0  0
 72 74  2  0  0  0
 72 75  1  0  0  0
 73 77  1  0  0  0
 73 83  1  0  0  0
 74 76  1  0  0  0
 74 83  1  0  0  0
 75 78  1  0  0  0
 75 82  2  0  0  0
 76144  1  0  0  0
 76145  1  0  0  0
 76146  1  0  0  0
 77 81  1  0  0  0
 77147  1  0  0  0
 77148  1  0  0  0
 78 79  1  0  0  0
 78149  1  0  0  0
 78150  1  0  0  0
 79 80  1  0  0  0
 79151  1  0  0  0
 79152  1  0  0  0
 80153  1  0  0  0
 80154  1  0  0  0
 81155  1  0  0  0
M  ISO  4   1 100  68 101  80 101  81 100
M  END
> <chiral flag>
0

> <version>
0

> <s_m_source_file>
/data/baiqing/PycharmProjects/Reinvent-master-3.2/result/LINK_invent/BTK/process_docking_weight1_custom_product_contain_oxygen_bond_distance_aromatic_linkinvent_7_9_3/rearranged_h_0140.sdf

> <i_m_source_file_index>
66

> <r_mmod_Potential_Energy-OPLS-2005>
-129.164901733398

> <r_mmod_Stretch_Energy-OPLS-2005>
43.9464378356934

> <r_mmod_Bend_Energy-OPLS-2005>
116.566352844238

> <r_mmod_Torsional_Energy-OPLS-2005>
212.426651000977

> <r_mmod_Improper_Torsional_Energy-OPLS-2005>
3.47036337852478

> <r_mmod_Van_der_Waal_Energy-OPLS-2005>
126.78409576416

> <r_mmod_Electrostatic_Energy-OPLS-2005>
-427.984558105469

> <r_mmod_Solvation_Energy-OPLS-2005>
-223.074676513672

> <b_mmod_Minimization_Converged-OPLS-2005>
0

> <r_mmod_RMS_Derivative-OPLS-2005>
1.42061865329742

$$$$
66
                    3D
 Structure written by MMmdl.
167175  0  0  1  0            999 V2000
  -30.7031  -14.4987   20.6074 C   0  0  0  0  0  0
  -30.4236  -12.3323   19.4391 C   0  0  0  0  0  0
  -29.5037  -12.5323   18.2167 C   0  0  0  0  0  0
  -28.0243  -12.3795   18.6177 C   0  0  0  0  0  0
  -27.6616  -13.2165   19.8733 C   0  0  2  0  0  0
  -28.6969  -13.0016   21.0018 C   0  0  0  0  0  0
  -25.2528  -13.8150   20.5620 C   0  0  0  0  0  0
  -24.1794  -13.0429   20.9103 C   0  0  0  0  0  0
  -24.6380  -11.6914   20.8666 C   0  0  0  0  0  0
  -23.9054  -10.4315   21.0362 C   0  0  0  0  0  0
  -24.3610   -9.4249   21.9156 C   0  0  0  0  0  0
  -23.6282   -8.2293   22.0761 C   0  0  0  0  0  0
  -22.4266   -8.0309   21.3547 C   0  0  0  0  0  0
  -21.9883   -9.0273   20.4642 C   0  0  0  0  0  0
  -22.7213  -10.2143   20.3023 C   0  0  0  0  0  0
  -21.6874   -6.0719   22.5264 C   0  0  0  0  0  0
  -21.4022   -6.5616   23.8197 C   0  0  0  0  0  0
  -21.3647   -5.6765   24.9154 C   0  0  0  0  0  0
  -21.6046   -4.3041   24.7199 C   0  0  0  0  0  0
  -21.8813   -3.8124   23.4323 C   0  0  0  0  0  0
  -21.9197   -4.6950   22.3382 C   0  0  0  0  0  0
  -22.7815  -13.5248   21.1780 C   0  0  0  0  0  0
  -22.1668   -4.2130   21.0955 F   0  0  0  0  0  0
  -21.5634   -3.4521   25.7713 F   0  0  0  0  0  0
  -30.0381  -13.3124   20.4738 N   0  0  0  0  0  0
  -26.3003  -12.9368   20.3290 N   0  0  0  0  0  0
  -25.9312  -11.6522   20.5652 N   0  0  0  0  0  0
  -22.0437  -12.8244   22.0331 N   0  0  0  0  0  0
  -25.4162  -15.1864   20.4106 N   0  0  0  0  0  0
  -31.7595  -14.7171   20.0127 O   0  0  0  0  0  0
  -21.6683   -6.8882   21.4227 O   0  0  0  0  0  0
  -22.3522  -14.5585   20.6659 O   0  0  0  0  0  0
  -24.6168  -31.8652   23.2064 C   0  0  0  0  0  0
  -25.9052  -32.4807   23.8371 C   0  0  1  0  0  0
  -27.2462  -27.4090   20.1132 C   0  0  0  0  0  0
  -25.5900  -33.8610   24.2304 N   0  0  0  0  0  0
  -23.4064  -30.4878   21.5462 C   0  0  2  0  0  0
  -24.8572  -28.9491   20.1122 C   0  0  0  0  0  0
  -22.7422  -29.4651   22.4961 C   0  0  0  0  0  0
  -18.0278  -28.1393   22.8487 C   0  0  0  0  0  0
  -24.1495  -36.7314   23.2635 C   0  0  0  0  0  0
  -25.9360  -30.8267   21.3621 C   0  0  0  0  0  0
  -26.0150  -29.4581   20.7108 C   0  0  0  0  0  0
  -27.2082  -28.6956   20.7066 C   0  0  0  0  0  0
  -26.0697  -26.9274   19.4910 C   0  0  0  0  0  0
  -24.8810  -27.6852   19.4973 C   0  0  0  0  0  0
  -23.6176  -29.8158   20.1614 C   0  0  0  0  0  0
  -25.4109  -36.3094   24.0330 C   0  0  1  0  0  0
  -20.5868  -28.3680   23.1308 C   0  0  2  0  0  0
  -20.6767  -26.9412   22.5420 C   0  0  0  0  0  0
  -19.5747  -26.6395   21.5215 C   0  0  0  0  0  0
  -18.1922  -26.7941   22.1623 C   0  0  0  0  0  0
  -19.1527  -28.8849   23.2899 C   0  0  0  0  0  0
  -18.9459  -30.1453   23.8912 C   0  0  0  0  0  0
  -17.6461  -30.6591   24.0571 C   0  0  0  0  0  0
  -25.9033  -34.9467   23.5113 C   0  0  0  0  0  0
  -16.5352  -29.9097   23.6331 C   0  0  0  0  0  0
  -16.7267  -28.6520   23.0339 C   0  0  0  0  0  0
  -26.4479  -31.6598   25.0710 C   0  0  0  0  0  0
  -25.3748  -31.3745   26.1465 C   0  0  0  0  0  0
  -27.0285  -30.3021   24.6113 C   0  0  0  0  0  0
  -27.6062  -32.4314   25.7459 C   0  0  0  0  0  0
  -27.5583  -37.1799   24.8459 C   0  0  0  0  0  0
  -21.4138  -29.3042   22.3705 N   0  0  0  0  0  0
  -26.4288  -37.3779   23.9410 N   0  0  0  0  0  0
  -24.6714  -31.0745   22.0973 N   0  0  0  0  0  0
  -23.4181  -28.8196   23.3016 O   0  0  0  0  0  0
  -28.4225  -26.6743   20.1756 O   0  0  0  0  0  0
  -26.5595  -34.8917   22.4676 O   0  0  0  0  0  0
  -23.5356  -32.1408   23.7461 O   0  0  0  0  0  0
  -27.4811  -17.9340   21.2862 C   0  0  0  0  0  0
  -28.1469  -19.1243   20.9561 C   0  0  0  0  0  0
  -28.1990  -16.7383   21.4227 C   0  0  0  0  0  0
  -29.5451  -19.1446   20.7569 C   0  0  0  0  0  0
  -30.2764  -17.9072   20.8685 C   0  0  0  0  0  0
  -29.5893  -16.6838   21.1989 C   0  0  0  0  0  0
  -29.4473  -24.4596   20.6925 C   0  0  0  0  0  0
  -32.5687  -17.9403   21.9840 C   0  0  0  0  0  0
  -31.6321  -23.2105   20.5279 C   0  0  0  0  0  0
  -30.0784  -23.1653   18.5770 C   0  0  0  0  0  0
  -30.2294  -20.4933   20.3945 C   0  0  0  0  0  0
  -31.7889  -17.9084   20.6649 C   0  0  0  0  0  0
  -28.4003  -25.2591   19.8597 C   0  0  0  0  0  0
  -29.4782  -21.8475   20.6900 C   0  0  0  0  0  0
  -30.1363  -23.1637   20.1217 C   0  0  0  0  0  0
  -30.1652  -15.3892   21.4742 N   0  0  0  0  0  0
  -29.7174  -24.8352   21.8389 O   0  0  0  0  0  0
  -31.4720  -12.4233   19.1513 H   0  0  0  0  0  0
  -30.3136  -11.3200   19.8299 H   0  0  0  0  0  0
  -29.7535  -11.8167   17.4320 H   0  0  0  0  0  0
  -29.6676  -13.5223   17.7892 H   0  0  0  0  0  0
  -27.8356  -11.3227   18.8082 H   0  0  0  0  0  0
  -27.3851  -12.6546   17.7786 H   0  0  0  0  0  0
  -27.7027  -14.2661   19.5782 H   0  0  0  0  0  0
  -28.6756  -11.9639   21.3371 H   0  0  0  0  0  0
  -28.4337  -13.5904   21.8795 H   0  0  0  0  0  0
  -25.2752   -9.5735   22.4734 H   0  0  0  0  0  0
  -23.9988   -7.4691   22.7480 H   0  0  0  0  0  0
  -21.0814   -8.8753   19.8962 H   0  0  0  0  0  0
  -22.3643  -10.9657   19.6126 H   0  0  0  0  0  0
  -21.2024   -7.6128   23.9676 H   0  0  0  0  0  0
  -21.1483   -6.0520   25.9053 H   0  0  0  0  0  0
  -22.0609   -2.7591   23.2828 H   0  0  0  0  0  0
  -22.4091  -11.9957   22.4778 H   0  0  0  0  0  0
  -21.1059  -13.1291   22.2564 H   0  0  0  0  0  0
  -24.6502  -15.8306   20.5703 H   0  0  0  0  0  0
  -26.2746  -15.6453   20.1347 H   0  0  0  0  0  0
  -26.7127  -32.5521   23.1139 H   0  0  0  0  0  0
  -25.0051  -33.9765   25.0447 H   0  0  0  0  0  0
  -22.6959  -31.3049   21.4037 H   0  0  0  0  0  0
  -23.3738  -35.9664   23.3298 H   0  0  0  0  0  0
  -24.3592  -36.8929   22.2048 H   0  0  0  0  0  0
  -23.7266  -37.6526   23.6657 H   0  0  0  0  0  0
  -26.0484  -31.5936   20.5940 H   0  0  0  0  0  0
  -26.8229  -30.8831   21.9815 H   0  0  0  0  0  0
  -28.1002  -29.0854   21.1774 H   0  0  0  0  0  0
  -26.0454  -25.9691   18.9936 H   0  0  0  0  0  0
  -23.9917  -27.2919   19.0249 H   0  0  0  0  0  0
  -23.7232  -30.5887   19.3993 H   0  0  0  0  0  0
  -22.7421  -29.2345   19.8680 H   0  0  0  0  0  0
  -25.1286  -36.1945   25.0819 H   0  0  0  0  0  0
  -20.9964  -28.3262   24.1427 H   0  0  0  0  0  0
  -20.5668  -26.2293   23.3611 H   0  0  0  0  0  0
  -21.6642  -26.7456   22.1219 H   0  0  0  0  0  0
  -19.6909  -25.6307   21.1239 H   0  0  0  0  0  0
  -19.6682  -27.3208   20.6744 H   0  0  0  0  0  0
  -17.4192  -26.6687   21.4024 H   0  0  0  0  0  0
  -18.0319  -26.0084   22.9018 H   0  0  0  0  0  0
  -19.7932  -30.7268   24.2288 H   0  0  0  0  0  0
  -17.5016  -31.6270   24.5175 H   0  0  0  0  0  0
  -15.5351  -30.3006   23.7643 H   0  0  0  0  0  0
  -15.8667  -28.0846   22.7039 H   0  0  0  0  0  0
  -24.5912  -30.7088   25.7829 H   0  0  0  0  0  0
  -24.8954  -32.2923   26.4883 H   0  0  0  0  0  0
  -25.8103  -30.8947   27.0237 H   0  0  0  0  0  0
  -26.2821  -29.6787   24.1175 H   0  0  0  0  0  0
  -27.4028  -29.7258   25.4586 H   0  0  0  0  0  0
  -27.8676  -30.4295   23.9267 H   0  0  0  0  0  0
  -27.2687  -33.3600   26.2071 H   0  0  0  0  0  0
  -28.3850  -32.6895   25.0271 H   0  0  0  0  0  0
  -28.0758  -31.8421   26.5345 H   0  0  0  0  0  0
  -28.2605  -38.0092   24.7494 H   0  0  0  0  0  0
  -28.1070  -36.2624   24.6285 H   0  0  0  0  0  0
  -27.2309  -37.1452   25.8863 H   0  0  0  0  0  0
  -20.9301  -29.8761   21.6920 H   0  0  0  0  0  0
  -26.0175  -38.2853   24.1418 H   0  0  0  0  0  0
  -26.4122  -17.9419   21.4477 H   0  0  0  0  0  0
  -27.5463  -20.0149   20.8647 H   0  0  0  0  0  0
  -27.6587  -15.8479   21.7121 H   0  0  0  0  0  0
  -33.6361  -17.8249   21.7961 H   0  0  0  0  0  0
  -32.2630  -17.1342   22.6493 H   0  0  0  0  0  0
  -32.4248  -18.8836   22.5094 H   0  0  0  0  0  0
  -32.0768  -24.1839   20.3122 H   0  0  0  0  0  0
  -32.2242  -22.4736   19.9836 H   0  0  0  0  0  0
  -31.7727  -23.0154   21.5921 H   0  0  0  0  0  0
  -30.4370  -24.1098   18.1638 H   0  0  0  0  0  0
  -29.0644  -23.0004   18.2104 H   0  0  0  0  0  0
  -30.7057  -22.3873   18.1433 H   0  0  0  0  0  0
  -30.4707  -20.4402   19.3333 H   0  0  0  0  0  0
  -31.1793  -20.5355   20.9263 H   0  0  0  0  0  0
  -32.1059  -18.7413   20.0407 H   0  0  0  0  0  0
  -32.0775  -17.0460   20.0791 H   0  0  0  0  0  0
  -27.4313  -24.8138   20.0809 H   0  0  0  0  0  0
  -28.5718  -25.1555   18.7906 H   0  0  0  0  0  0
  -29.3673  -21.9408   21.7722 H   0  0  0  0  0  0
  -28.4673  -21.8106   20.2874 H   0  0  0  0  0  0
  -29.5879  -14.8731   22.1199 H   0  0  0  0  0  0
  1 25  1  0  0  0
  1 30  2  0  0  0
  1 86  1  0  0  0
  2  3  1  0  0  0
  2 25  1  0  0  0
  2 88  1  0  0  0
  2 89  1  0  0  0
  3  4  1  0  0  0
  3 90  1  0  0  0
  3 91  1  0  0  0
  4  5  1  0  0  0
  4 92  1  0  0  0
  4 93  1  0  0  0
  5  6  1  0  0  0
  5 26  1  0  0  0
  5 94  1  0  0  0
  6 25  1  0  0  0
  6 95  1  0  0  0
  6 96  1  0  0  0
  7  8  2  0  0  0
  7 26  1  0  0  0
  7 29  1  0  0  0
  8  9  1  0  0  0
  8 22  1  0  0  0
  9 10  1  0  0  0
  9 27  2  0  0  0
 10 11  2  0  0  0
 10 15  1  0  0  0
 11 12  1  0  0  0
 11 97  1  0  0  0
 12 13  2  0  0  0
 12 98  1  0  0  0
 13 14  1  0  0  0
 13 31  1  0  0  0
 14 15  2  0  0  0
 14 99  1  0  0  0
 15100  1  0  0  0
 16 17  2  0  0  0
 16 21  1  0  0  0
 16 31  1  0  0  0
 17 18  1  0  0  0
 17101  1  0  0  0
 18 19  2  0  0  0
 18102  1  0  0  0
 19 20  1  0  0  0
 19 24  1  0  0  0
 20 21  2  0  0  0
 20103  1  0  0  0
 21 23  1  0  0  0
 22 28  1  0  0  0
 22 32  2  0  0  0
 26 27  1  0  0  0
 28104  1  0  0  0
 28105  1  0  0  0
 29106  1  0  0  0
 29107  1  0  0  0
 33 34  1  0  0  0
 33 66  1  0  0  0
 33 70  2  0  0  0
 34 36  1  0  0  0
 34 59  1  0  0  0
 34108  1  0  0  0
 35 44  2  0  0  0
 35 45  1  0  0  0
 35 68  1  0  0  0
 36 56  1  0  0  0
 36109  1  0  0  0
 37 39  1  0  0  0
 37 47  1  0  0  0
 37 66  1  0  0  0
 37110  1  0  0  0
 38 43  2  0  0  0
 38 46  1  0  0  0
 38 47  1  0  0  0
 39 64  1  0  0  0
 39 67  2  0  0  0
 40 52  1  0  0  0
 40 53  2  0  0  0
 40 58  1  0  0  0
 41111  1  0  0  0
 41112  1  0  0  0
 41113  1  0  0  0
 41 48  1  0  0  0
 42 43  1  0  0  0
 42 66  1  0  0  0
 42114  1  0  0  0
 42115  1  0  0  0
 43 44  1  0  0  0
 44116  1  0  0  0
 45 46  2  0  0  0
 45117  1  0  0  0
 46118  1  0  0  0
 47119  1  0  0  0
 47120  1  0  0  0
 48 56  1  0  0  0
 48 65  1  0  0  0
 48121  1  0  0  0
 49 50  1  0  0  0
 49 53  1  0  0  0
 49 64  1  0  0  0
 49122  1  0  0  0
 50 51  1  0  0  0
 50123  1  0  0  0
 50124  1  0  0  0
 51 52  1  0  0  0
 51125  1  0  0  0
 51126  1  0  0  0
 52127  1  0  0  0
 52128  1  0  0  0
 53 54  1  0  0  0
 54 55  2  0  0  0
 54129  1  0  0  0
 55 57  1  0  0  0
 55130  1  0  0  0
 56 69  2  0  0  0
 57 58  2  0  0  0
 57131  1  0  0  0
 58132  1  0  0  0
 59 60  1  0  0  0
 59 61  1  0  0  0
 59 62  1  0  0  0
 60133  1  0  0  0
 60134  1  0  0  0
 60135  1  0  0  0
 61136  1  0  0  0
 61137  1  0  0  0
 61138  1  0  0  0
 62139  1  0  0  0
 62140  1  0  0  0
 62141  1  0  0  0
 63 65  1  0  0  0
 63142  1  0  0  0
 63143  1  0  0  0
 63144  1  0  0  0
 64145  1  0  0  0
 65146  1  0  0  0
 68 83  1  0  0  0
 71 72  2  0  0  0
 71 73  1  0  0  0
 71147  1  0  0  0
 72 74  1  0  0  0
 72148  1  0  0  0
 73 76  2  0  0  0
 73149  1  0  0  0
 74 75  2  0  0  0
 74 81  1  0  0  0
 75 76  1  0  0  0
 75 82  1  0  0  0
 76 86  1  0  0  0
 77 83  1  0  0  0
 77 85  1  0  0  0
 77 87  2  0  0  0
 78 82  1  0  0  0
 78150  1  0  0  0
 78151  1  0  0  0
 78152  1  0  0  0
 79153  1  0  0  0
 79154  1  0  0  0
 79155  1  0  0  0
 79 85  1  0  0  0
 80 85  1  0  0  0
 80156  1  0  0  0
 80157  1  0  0  0
 80158  1  0  0  0
 81 84  1  0  0  0
 81159  1  0  0  0
 81160  1  0  0  0
 82161  1  0  0  0
 82162  1  0  0  0
 83163  1  0  0  0
 83164  1  0  0  0
 84 85  1  0  0  0
 84165  1  0  0  0
 84166  1  0  0  0
 86167  1  0  0  0
M  ISO  4   1 100  68 101  83 101  86 100
M  END
> <chiral flag>
0

> <version>
0

> <s_m_source_file>
/data/baiqing/PycharmProjects/Reinvent-master-3.2/result/LINK_invent/BTK/process_docking_weight1_custom_product_contain_oxygen_bond_distance_aromatic_linkinvent_7_9_3/rearranged_h_0140.sdf

> <i_m_source_file_index>
67

> <r_mmod_Potential_Energy-OPLS-2005>
79.3396148681641

> <r_mmod_Stretch_Energy-OPLS-2005>
59.4592247009277

> <r_mmod_Bend_Energy-OPLS-2005>
132.206436157227

> <r_mmod_Torsional_Energy-OPLS-2005>
259.509796142578

> <r_mmod_Improper_Torsional_Energy-OPLS-2005>
6.68179607391357

> <r_mmod_Van_der_Waal_Energy-OPLS-2005>
156.032135009766

> <r_mmod_Electrostatic_Energy-OPLS-2005>
-338.481353759766

> <r_mmod_Solvation_Energy-OPLS-2005>
-212.856063842773

> <b_mmod_Minimization_Converged-OPLS-2005>
0

> <r_mmod_RMS_Derivative-OPLS-2005>
3.12599325180054

$$$$
67
                    3D
 Structure written by MMmdl.
162171  0  0  1  0            999 V2000
  -30.7228  -14.5368   20.5486 C   0  0  0  0  0  0
  -30.4174  -12.3426   19.4489 C   0  0  0  0  0  0
  -29.4991  -12.4953   18.2196 C   0  0  0  0  0  0
  -28.0235  -12.3509   18.6338 C   0  0  0  0  0  0
  -27.6548  -13.2238   19.8630 C   0  0  2  0  0  0
  -28.6976  -13.0782   20.9972 C   0  0  0  0  0  0
  -25.2547  -13.8195   20.5683 C   0  0  0  0  0  0
  -24.1852  -13.0427   20.9196 C   0  0  0  0  0  0
  -24.6449  -11.6911   20.8743 C   0  0  0  0  0  0
  -23.9121  -10.4302   21.0420 C   0  0  0  0  0  0
  -24.3675   -9.4192   21.9188 C   0  0  0  0  0  0
  -23.6340   -8.2228   22.0750 C   0  0  0  0  0  0
  -22.4300   -8.0300   21.3557 C   0  0  0  0  0  0
  -21.9957   -9.0265   20.4631 C   0  0  0  0  0  0
  -22.7306  -10.2138   20.3040 C   0  0  0  0  0  0
  -21.6846   -6.0764   22.5297 C   0  0  0  0  0  0
  -21.4011   -6.5670   23.8232 C   0  0  0  0  0  0
  -21.3651   -5.6812   24.9194 C   0  0  0  0  0  0
  -21.6033   -4.3075   24.7243 C   0  0  0  0  0  0
  -21.8820   -3.8173   23.4361 C   0  0  0  0  0  0
  -21.9200   -4.6990   22.3418 C   0  0  0  0  0  0
  -22.7865  -13.5165   21.1897 C   0  0  0  0  0  0
  -22.1667   -4.2177   21.0999 F   0  0  0  0  0  0
  -21.5618   -3.4554   25.7749 F   0  0  0  0  0  0
  -30.0249  -13.3694   20.4338 N   0  0  0  0  0  0
  -26.3005  -12.9407   20.3309 N   0  0  0  0  0  0
  -25.9375  -11.6543   20.5757 N   0  0  0  0  0  0
  -22.0572  -12.8080   22.0434 N   0  0  0  0  0  0
  -25.4192  -15.1918   20.4088 N   0  0  0  0  0  0
  -31.8657  -14.6447   20.0971 O   0  0  0  0  0  0
  -21.6635   -6.8912   21.4259 O   0  0  0  0  0  0
  -22.3506  -14.5478   20.6781 O   0  0  0  0  0  0
  -24.6167  -31.8659   23.2063 C   0  0  0  0  0  0
  -25.9046  -32.4817   23.8392 C   0  0  1  0  0  0
  -27.2358  -27.3894   20.0915 C   0  0  0  0  0  0
  -25.5893  -33.8627   24.2309 N   0  0  0  0  0  0
  -23.4113  -30.4886   21.5464 C   0  0  2  0  0  0
  -24.8590  -28.9533   20.1080 C   0  0  0  0  0  0
  -22.7454  -29.4641   22.4942 C   0  0  0  0  0  0
  -18.0294  -28.1376   22.8513 C   0  0  0  0  0  0
  -24.1488  -36.7330   23.2634 C   0  0  0  0  0  0
  -25.9469  -30.8059   21.3802 C   0  0  0  0  0  0
  -26.0172  -29.4386   20.7252 C   0  0  0  0  0  0
  -27.1997  -28.6563   20.7312 C   0  0  0  0  0  0
  -26.0642  -26.9480   19.4439 C   0  0  0  0  0  0
  -24.8796  -27.7043   19.4651 C   0  0  0  0  0  0
  -23.6246  -29.8243   20.1597 C   0  0  0  0  0  0
  -25.4110  -36.3119   24.0327 C   0  0  1  0  0  0
  -20.5893  -28.3691   23.1285 C   0  0  2  0  0  0
  -20.6785  -26.9431   22.5406 C   0  0  0  0  0  0
  -19.5756  -26.6394   21.5221 C   0  0  0  0  0  0
  -18.1932  -26.7930   22.1633 C   0  0  0  0  0  0
  -19.1543  -28.8848   23.2897 C   0  0  0  0  0  0
  -18.9470  -30.1455   23.8924 C   0  0  0  0  0  0
  -17.6469  -30.6591   24.0580 C   0  0  0  0  0  0
  -25.9048  -34.9480   23.5119 C   0  0  0  0  0  0
  -16.5358  -29.9093   23.6342 C   0  0  0  0  0  0
  -16.7281  -28.6499   23.0388 C   0  0  0  0  0  0
  -26.4463  -31.6632   25.0756 C   0  0  0  0  0  0
  -25.3694  -31.3773   26.1494 C   0  0  0  0  0  0
  -27.0343  -30.3063   24.6216 C   0  0  0  0  0  0
  -27.6019  -32.4396   25.7511 C   0  0  0  0  0  0
  -27.5589  -37.1809   24.8457 C   0  0  0  0  0  0
  -21.4180  -29.3059   22.3687 N   0  0  0  0  0  0
  -26.4294  -37.3809   23.9408 N   0  0  0  0  0  0
  -24.6762  -31.0716   22.1004 N   0  0  0  0  0  0
  -23.4199  -28.8179   23.3001 O   0  0  0  0  0  0
  -28.3635  -26.5851   20.1910 O   0  0  0  0  0  0
  -26.5633  -34.8930   22.4692 O   0  0  0  0  0  0
  -23.5339  -32.1487   23.7373 O   0  0  0  0  0  0
  -32.3826  -18.5359   21.6691 C   0  0  0  0  0  0
  -31.5414  -19.6366   21.4197 C   0  0  0  0  0  0
  -31.8959  -17.2212   21.5402 C   0  0  0  0  0  0
  -29.7139  -18.1041   20.9222 C   0  0  0  0  0  0
  -30.1970  -19.4448   21.0445 C   0  0  0  0  0  0
  -30.5574  -16.9745   21.1463 C   0  0  0  0  0  0
  -29.1830  -23.2987   20.1576 C   0  0  0  0  0  0
  -28.6275  -20.8123   19.4922 C   0  0  0  0  0  0
  -29.3152  -20.6665   20.8153 C   0  0  2  0  0  0
  -29.6632  -21.8548   19.8883 C   0  0  2  0  0  0
  -27.1798  -23.7892   18.6937 C   0  0  0  0  0  0
  -29.4788  -23.8020   17.7141 C   0  0  0  0  0  0
  -28.8204  -25.7617   19.0901 C   0  0  0  0  0  0
  -28.6484  -24.1781   18.9695 C   0  0  0  0  0  0
  -30.0561  -15.6228   21.0204 N   0  0  0  0  0  0
  -29.2386  -23.7648   21.2975 O   0  0  0  0  0  0
  -31.4648  -12.4196   19.1499 H   0  0  0  0  0  0
  -30.3096  -11.3490   19.8842 H   0  0  0  0  0  0
  -29.7492  -11.7431   17.4693 H   0  0  0  0  0  0
  -29.6627  -13.4662   17.7500 H   0  0  0  0  0  0
  -27.8499  -11.2991   18.8646 H   0  0  0  0  0  0
  -27.3743  -12.5914   17.7937 H   0  0  0  0  0  0
  -27.6766  -14.2601   19.5236 H   0  0  0  0  0  0
  -28.6862  -12.0666   21.4026 H   0  0  0  0  0  0
  -28.4557  -13.7354   21.8336 H   0  0  0  0  0  0
  -25.2847   -9.5622   22.4723 H   0  0  0  0  0  0
  -24.0052   -7.4588   22.7434 H   0  0  0  0  0  0
  -21.0900   -8.8804   19.8898 H   0  0  0  0  0  0
  -22.3840  -10.9673   19.6105 H   0  0  0  0  0  0
  -21.2009   -7.6179   23.9743 H   0  0  0  0  0  0
  -21.1445   -6.0552   25.9094 H   0  0  0  0  0  0
  -22.0606   -2.7629   23.2869 H   0  0  0  0  0  0
  -22.4296  -11.9769   22.4762 H   0  0  0  0  0  0
  -21.1154  -13.0951   22.2653 H   0  0  0  0  0  0
  -24.6421  -15.8386   20.5027 H   0  0  0  0  0  0
  -26.2609  -15.6331   20.0630 H   0  0  0  0  0  0
  -26.7105  -32.5515   23.1150 H   0  0  0  0  0  0
  -25.0011  -33.9813   25.0420 H   0  0  0  0  0  0
  -22.7017  -31.3050   21.4018 H   0  0  0  0  0  0
  -23.3752  -35.9665   23.3311 H   0  0  0  0  0  0
  -24.3556  -36.8968   22.2049 H   0  0  0  0  0  0
  -23.7277  -37.6537   23.6667 H   0  0  0  0  0  0
  -26.0759  -31.5655   20.6084 H   0  0  0  0  0  0
  -26.8303  -30.8537   22.0056 H   0  0  0  0  0  0
  -28.0811  -29.0168   21.2419 H   0  0  0  0  0  0
  -26.0380  -26.0060   18.9365 H   0  0  0  0  0  0
  -23.9967  -27.3241   18.9688 H   0  0  0  0  0  0
  -23.7348  -30.6025   19.4041 H   0  0  0  0  0  0
  -22.7500  -29.2419   19.8620 H   0  0  0  0  0  0
  -25.1289  -36.1974   25.0823 H   0  0  0  0  0  0
  -21.0000  -28.3270   24.1391 H   0  0  0  0  0  0
  -20.5705  -26.2329   23.3611 H   0  0  0  0  0  0
  -21.6644  -26.7453   22.1190 H   0  0  0  0  0  0
  -19.6939  -25.6303   21.1255 H   0  0  0  0  0  0
  -19.6679  -27.3191   20.6734 H   0  0  0  0  0  0
  -17.4216  -26.6711   21.4016 H   0  0  0  0  0  0
  -18.0300  -26.0044   22.8988 H   0  0  0  0  0  0
  -19.7935  -30.7271   24.2310 H   0  0  0  0  0  0
  -17.5022  -31.6286   24.5156 H   0  0  0  0  0  0
  -15.5363  -30.3012   23.7654 H   0  0  0  0  0  0
  -15.8680  -28.0825   22.7115 H   0  0  0  0  0  0
  -24.5813  -30.7205   25.7811 H   0  0  0  0  0  0
  -24.8941  -32.2951   26.4955 H   0  0  0  0  0  0
  -25.7995  -30.8899   27.0258 H   0  0  0  0  0  0
  -26.2951  -29.6791   24.1227 H   0  0  0  0  0  0
  -27.4067  -29.7327   25.4723 H   0  0  0  0  0  0
  -27.8793  -30.4393   23.9458 H   0  0  0  0  0  0
  -27.2615  -33.3670   26.2131 H   0  0  0  0  0  0
  -28.3784  -32.7042   25.0318 H   0  0  0  0  0  0
  -28.0768  -31.8543   26.5406 H   0  0  0  0  0  0
  -28.2596  -38.0106   24.7504 H   0  0  0  0  0  0
  -28.1100  -36.2646   24.6280 H   0  0  0  0  0  0
  -27.2308  -37.1474   25.8856 H   0  0  0  0  0  0
  -20.9352  -29.8799   21.6920 H   0  0  0  0  0  0
  -26.0189  -38.2893   24.1385 H   0  0  0  0  0  0
  -33.4092  -18.7014   21.9684 H   0  0  0  0  0  0
  -31.9322  -20.6395   21.5259 H   0  0  0  0  0  0
  -32.5728  -16.4073   21.7580 H   0  0  0  0  0  0
  -28.6812  -17.9478   20.6445 H   0  0  0  0  0  0
  -27.5644  -21.0217   19.5625 H   0  0  0  0  0  0
  -28.9131  -20.1371   18.6879 H   0  0  0  0  0  0
  -28.7370  -20.8908   21.7116 H   0  0  0  0  0  0
  -30.6426  -21.7887   19.4158 H   0  0  0  0  0  0
  -27.0662  -22.7436   18.4185 H   0  0  0  0  0  0
  -26.7729  -24.3391   17.8450 H   0  0  0  0  0  0
  -26.5481  -23.9631   19.5662 H   0  0  0  0  0  0
  -29.3465  -22.7635   17.4117 H   0  0  0  0  0  0
  -30.5480  -23.9556   17.8824 H   0  0  0  0  0  0
  -29.2089  -24.4049   16.8474 H   0  0  0  0  0  0
  -28.4630  -26.2193   18.1644 H   0  0  0  0  0  0
  -29.8935  -25.9551   19.0744 H   0  0  0  0  0  0
  -29.0805  -15.4788   21.2306 H   0  0  0  0  0  0
  1 25  1  0  0  0
  1 30  2  0  0  0
  1 85  1  0  0  0
  2  3  1  0  0  0
  2 25  1  0  0  0
  2 87  1  0  0  0
  2 88  1  0  0  0
  3  4  1  0  0  0
  3 89  1  0  0  0
  3 90  1  0  0  0
  4  5  1  0  0  0
  4 91  1  0  0  0
  4 92  1  0  0  0
  5  6  1  0  0  0
  5 26  1  0  0  0
  5 93  1  0  0  0
  6 25  1  0  0  0
  6 94  1  0  0  0
  6 95  1  0  0  0
  7  8  2  0  0  0
  7 26  1  0  0  0
  7 29  1  0  0  0
  8  9  1  0  0  0
  8 22  1  0  0  0
  9 10  1  0  0  0
  9 27  2  0  0  0
 10 11  2  0  0  0
 10 15  1  0  0  0
 11 12  1  0  0  0
 11 96  1  0  0  0
 12 13  2  0  0  0
 12 97  1  0  0  0
 13 14  1  0  0  0
 13 31  1  0  0  0
 14 15  2  0  0  0
 14 98  1  0  0  0
 15 99  1  0  0  0
 16 17  2  0  0  0
 16 21  1  0  0  0
 16 31  1  0  0  0
 17 18  1  0  0  0
 17100  1  0  0  0
 18 19  2  0  0  0
 18101  1  0  0  0
 19 20  1  0  0  0
 19 24  1  0  0  0
 20 21  2  0  0  0
 20102  1  0  0  0
 21 23  1  0  0  0
 22 28  1  0  0  0
 22 32  2  0  0  0
 26 27  1  0  0  0
 28103  1  0  0  0
 28104  1  0  0  0
 29105  1  0  0  0
 29106  1  0  0  0
 33 34  1  0  0  0
 33 66  1  0  0  0
 33 70  2  0  0  0
 34 36  1  0  0  0
 34 59  1  0  0  0
 34107  1  0  0  0
 35 44  2  0  0  0
 35 45  1  0  0  0
 35 68  1  0  0  0
 36 56  1  0  0  0
 36108  1  0  0  0
 37 39  1  0  0  0
 37 47  1  0  0  0
 37 66  1  0  0  0
 37109  1  0  0  0
 38 43  2  0  0  0
 38 46  1  0  0  0
 38 47  1  0  0  0
 39 64  1  0  0  0
 39 67  2  0  0  0
 40 52  1  0  0  0
 40 53  2  0  0  0
 40 58  1  0  0  0
 41110  1  0  0  0
 41111  1  0  0  0
 41112  1  0  0  0
 41 48  1  0  0  0
 42 43  1  0  0  0
 42 66  1  0  0  0
 42113  1  0  0  0
 42114  1  0  0  0
 43 44  1  0  0  0
 44115  1  0  0  0
 45 46  2  0  0  0
 45116  1  0  0  0
 46117  1  0  0  0
 47118  1  0  0  0
 47119  1  0  0  0
 48 56  1  0  0  0
 48 65  1  0  0  0
 48120  1  0  0  0
 49 50  1  0  0  0
 49 53  1  0  0  0
 49 64  1  0  0  0
 49121  1  0  0  0
 50 51  1  0  0  0
 50122  1  0  0  0
 50123  1  0  0  0
 51 52  1  0  0  0
 51124  1  0  0  0
 51125  1  0  0  0
 52126  1  0  0  0
 52127  1  0  0  0
 53 54  1  0  0  0
 54 55  2  0  0  0
 54128  1  0  0  0
 55 57  1  0  0  0
 55129  1  0  0  0
 56 69  2  0  0  0
 57 58  2  0  0  0
 57130  1  0  0  0
 58131  1  0  0  0
 59 60  1  0  0  0
 59 61  1  0  0  0
 59 62  1  0  0  0
 60132  1  0  0  0
 60133  1  0  0  0
 60134  1  0  0  0
 61135  1  0  0  0
 61136  1  0  0  0
 61137  1  0  0  0
 62138  1  0  0  0
 62139  1  0  0  0
 62140  1  0  0  0
 63 65  1  0  0  0
 63141  1  0  0  0
 63142  1  0  0  0
 63143  1  0  0  0
 64144  1  0  0  0
 65145  1  0  0  0
 68 83  1  0  0  0
 71 72  2  0  0  0
 71 73  1  0  0  0
 71146  1  0  0  0
 72 75  1  0  0  0
 72147  1  0  0  0
 73 76  2  0  0  0
 73148  1  0  0  0
 74 75  2  0  0  0
 74 76  1  0  0  0
 74149  1  0  0  0
 75 79  1  0  0  0
 76 85  1  0  0  0
 77 84  1  0  0  0
 77 86  2  0  0  0
 77 80  1  0  0  0
 78 79  1  0  0  0
 78 80  1  0  0  0
 78150  1  0  0  0
 78151  1  0  0  0
 79 80  1  0  0  0
 79152  1  0  0  0
 80153  1  0  0  0
 81154  1  0  0  0
 81155  1  0  0  0
 81156  1  0  0  0
 81 84  1  0  0  0
 82 84  1  0  0  0
 82157  1  0  0  0
 82158  1  0  0  0
 82159  1  0  0  0
 83 84  1  0  0  0
 83160  1  0  0  0
 83161  1  0  0  0
 85162  1  0  0  0
M  ISO  4   1 100  68 101  83 101  85 100
M  END
> <chiral flag>
0

> <version>
0

> <s_m_source_file>
/data/baiqing/PycharmProjects/Reinvent-master-3.2/result/LINK_invent/BTK/process_docking_weight1_custom_product_contain_oxygen_bond_distance_aromatic_linkinvent_7_9_3/rearranged_h_0140.sdf

> <i_m_source_file_index>
68

> <r_mmod_Potential_Energy-OPLS-2005>
76.6682968139648

> <r_mmod_Stretch_Energy-OPLS-2005>
58.1185836791992

> <r_mmod_Bend_Energy-OPLS-2005>
140.863830566406

> <r_mmod_Torsional_Energy-OPLS-2005>
264.187927246094

> <r_mmod_Improper_Torsional_Energy-OPLS-2005>
3.99807953834534

> <r_mmod_Van_der_Waal_Energy-OPLS-2005>
152.453842163086

> <r_mmod_Electrostatic_Energy-OPLS-2005>
-349.386566162109

> <r_mmod_Solvation_Energy-OPLS-2005>
-221.479446411133

> <b_mmod_Minimization_Converged-OPLS-2005>
0

> <r_mmod_RMS_Derivative-OPLS-2005>
3.55083274841309

$$$$
68
                    3D
 Structure written by MMmdl.
169177  0  0  1  0            999 V2000
  -30.6186  -14.6219   20.4900 C   0  0  0  0  0  0
  -30.4432  -12.3780   19.4502 C   0  0  0  0  0  0
  -29.5132  -12.5110   18.2230 C   0  0  0  0  0  0
  -28.0346  -12.3490   18.6318 C   0  0  0  0  0  0
  -27.6565  -13.2119   19.8646 C   0  0  2  0  0  0
  -28.7010  -13.0517   20.9936 C   0  0  0  0  0  0
  -25.2569  -13.8135   20.5668 C   0  0  0  0  0  0
  -24.1829  -13.0433   20.9200 C   0  0  0  0  0  0
  -24.6386  -11.6902   20.8742 C   0  0  0  0  0  0
  -23.9051  -10.4298   21.0417 C   0  0  0  0  0  0
  -24.3600   -9.4216   21.9197 C   0  0  0  0  0  0
  -23.6273   -8.2251   22.0765 C   0  0  0  0  0  0
  -22.4256   -8.0286   21.3558 C   0  0  0  0  0  0
  -21.9892   -9.0259   20.4661 C   0  0  0  0  0  0
  -22.7224  -10.2139   20.3068 C   0  0  0  0  0  0
  -21.6852   -6.0728   22.5280 C   0  0  0  0  0  0
  -21.4015   -6.5631   23.8211 C   0  0  0  0  0  0
  -21.3660   -5.6785   24.9172 C   0  0  0  0  0  0
  -21.6039   -4.3047   24.7228 C   0  0  0  0  0  0
  -21.8819   -3.8144   23.4348 C   0  0  0  0  0  0
  -21.9191   -4.6958   22.3401 C   0  0  0  0  0  0
  -22.7858  -13.5259   21.1846 C   0  0  0  0  0  0
  -22.1663   -4.2144   21.0980 F   0  0  0  0  0  0
  -21.5628   -3.4533   25.7743 F   0  0  0  0  0  0
  -30.0220  -13.3900   20.4367 N   0  0  0  0  0  0
  -26.2996  -12.9314   20.3301 N   0  0  0  0  0  0
  -25.9310  -11.6474   20.5740 N   0  0  0  0  0  0
  -22.0449  -12.8287   22.0394 N   0  0  0  0  0  0
  -25.4291  -15.1829   20.4002 N   0  0  0  0  0  0
  -31.7763  -14.7997   20.1002 O   0  0  0  0  0  0
  -21.6634   -6.8877   21.4245 O   0  0  0  0  0  0
  -22.3570  -14.5559   20.6664 O   0  0  0  0  0  0
  -24.6221  -31.8610   23.2018 C   0  0  0  0  0  0
  -25.9071  -32.4795   23.8347 C   0  0  1  0  0  0
  -27.2387  -27.3541   20.1112 C   0  0  0  0  0  0
  -25.5867  -33.8595   24.2260 N   0  0  0  0  0  0
  -23.4164  -30.4800   21.5446 C   0  0  2  0  0  0
  -24.8657  -28.9315   20.1161 C   0  0  0  0  0  0
  -22.7462  -29.4621   22.4969 C   0  0  0  0  0  0
  -18.0278  -28.1387   22.8521 C   0  0  0  0  0  0
  -24.1467  -36.7339   23.2643 C   0  0  0  0  0  0
  -25.9528  -30.8017   21.3688 C   0  0  0  0  0  0
  -26.0315  -29.4290   20.7142 C   0  0  0  0  0  0
  -27.2225  -28.6511   20.6995 C   0  0  0  0  0  0
  -26.0573  -26.8956   19.4938 C   0  0  0  0  0  0
  -24.8772  -27.6675   19.4999 C   0  0  0  0  0  0
  -23.6302  -29.8057   20.1636 C   0  0  0  0  0  0
  -25.4093  -36.3109   24.0325 C   0  0  1  0  0  0
  -20.5877  -28.3691   23.1309 C   0  0  2  0  0  0
  -20.6746  -26.9419   22.5417 C   0  0  0  0  0  0
  -19.5717  -26.6392   21.5219 C   0  0  0  0  0  0
  -18.1906  -26.7938   22.1640 C   0  0  0  0  0  0
  -19.1532  -28.8856   23.2905 C   0  0  0  0  0  0
  -18.9458  -30.1463   23.8912 C   0  0  0  0  0  0
  -17.6457  -30.6590   24.0580 C   0  0  0  0  0  0
  -25.9035  -34.9474   23.5109 C   0  0  0  0  0  0
  -16.5348  -29.9096   23.6344 C   0  0  0  0  0  0
  -16.7265  -28.6511   23.0380 C   0  0  0  0  0  0
  -26.4459  -31.6609   25.0729 C   0  0  0  0  0  0
  -25.3692  -31.3732   26.1461 C   0  0  0  0  0  0
  -27.0298  -30.3022   24.6190 C   0  0  0  0  0  0
  -27.6014  -32.4356   25.7480 C   0  0  0  0  0  0
  -27.5567  -37.1825   24.8462 C   0  0  0  0  0  0
  -21.4176  -29.3053   22.3719 N   0  0  0  0  0  0
  -26.4269  -37.3809   23.9419 N   0  0  0  0  0  0
  -24.6822  -31.0640   22.0957 N   0  0  0  0  0  0
  -23.4199  -28.8186   23.3054 O   0  0  0  0  0  0
  -28.3893  -26.5617   20.0768 O   0  0  0  0  0  0
  -26.5644  -34.8949   22.4695 O   0  0  0  0  0  0
  -23.5387  -32.1409   23.7355 O   0  0  0  0  0  0
  -28.5159  -17.7137   20.4189 C   0  0  0  0  0  0
  -30.9083  -17.8811   20.3099 C   0  0  0  0  0  0
  -28.3688  -19.0972   20.0969 C   0  0  0  0  0  0
  -30.7921  -19.2742   20.0075 C   0  0  0  0  0  0
  -29.5181  -19.9192   19.8853 C   0  0  0  0  0  0
  -29.7711  -17.0651   20.5167 C   0  0  0  0  0  0
  -25.8874  -18.9491   19.6762 C   0  0  0  0  0  0
  -27.0109  -19.6513   19.8973 C   0  0  0  0  0  0
  -32.5474  -19.9634   18.3107 C   0  0  0  0  0  0
  -29.6947  -25.4578   21.6693 C   0  0  0  0  0  0
  -27.2499  -24.9574   21.6599 C   0  0  0  0  0  0
  -32.0903  -20.0342   19.7741 C   0  0  0  0  0  0
  -29.3683  -21.4100   19.3858 C   0  0  0  0  0  0
  -29.0661  -22.5791   20.4107 C   0  0  0  0  0  0
  -28.7495  -24.0166   19.7892 C   0  0  0  0  0  0
  -28.4723  -25.2505   20.7594 C   0  0  0  0  0  0
  -29.7900  -15.6455   20.8528 N   0  0  0  0  0  0
  -31.4866  -12.5007   19.1530 H   0  0  0  0  0  0
  -30.3725  -11.3787   19.8820 H   0  0  0  0  0  0
  -29.7752  -11.7718   17.4645 H   0  0  0  0  0  0
  -29.6613  -13.4861   17.7562 H   0  0  0  0  0  0
  -27.8677  -11.2950   18.8556 H   0  0  0  0  0  0
  -27.3840  -12.5898   17.7907 H   0  0  0  0  0  0
  -27.6791  -14.2496   19.5287 H   0  0  0  0  0  0
  -28.7063  -12.0263   21.3655 H   0  0  0  0  0  0
  -28.4476  -13.6755   21.8528 H   0  0  0  0  0  0
  -25.2735   -9.5684   22.4783 H   0  0  0  0  0  0
  -23.9972   -7.4639   22.7478 H   0  0  0  0  0  0
  -21.0823   -8.8788   19.8964 H   0  0  0  0  0  0
  -22.3686  -10.9681   19.6182 H   0  0  0  0  0  0
  -21.2013   -7.6138   23.9715 H   0  0  0  0  0  0
  -21.1477   -6.0515   25.9075 H   0  0  0  0  0  0
  -22.0593   -2.7604   23.2852 H   0  0  0  0  0  0
  -22.4007  -11.9960   22.4847 H   0  0  0  0  0  0
  -21.1074  -13.1375   22.2544 H   0  0  0  0  0  0
  -24.6525  -15.8304   20.4762 H   0  0  0  0  0  0
  -26.2485  -15.5914   19.9737 H   0  0  0  0  0  0
  -26.7156  -32.5473   23.1105 H   0  0  0  0  0  0
  -24.9906  -33.9736   25.0325 H   0  0  0  0  0  0
  -22.7085  -31.2987   21.3969 H   0  0  0  0  0  0
  -23.3697  -35.9702   23.3315 H   0  0  0  0  0  0
  -24.3553  -36.8968   22.2058 H   0  0  0  0  0  0
  -23.7254  -37.6552   23.6677 H   0  0  0  0  0  0
  -26.0807  -31.5679   20.6026 H   0  0  0  0  0  0
  -26.8320  -30.8513   21.9999 H   0  0  0  0  0  0
  -28.1251  -29.0354   21.1538 H   0  0  0  0  0  0
  -26.0492  -25.9268   19.0134 H   0  0  0  0  0  0
  -23.9842  -27.2793   19.0310 H   0  0  0  0  0  0
  -23.7436  -30.5767   19.4014 H   0  0  0  0  0  0
  -22.7525  -29.2294   19.8661 H   0  0  0  0  0  0
  -25.1257  -36.1963   25.0813 H   0  0  0  0  0  0
  -20.9963  -28.3243   24.1429 H   0  0  0  0  0  0
  -20.5620  -26.2304   23.3618 H   0  0  0  0  0  0
  -21.6615  -26.7433   22.1216 H   0  0  0  0  0  0
  -19.6858  -25.6300   21.1250 H   0  0  0  0  0  0
  -19.6621  -27.3195   20.6742 H   0  0  0  0  0  0
  -17.4161  -26.6732   21.4044 H   0  0  0  0  0  0
  -18.0280  -26.0054   22.9002 H   0  0  0  0  0  0
  -19.7934  -30.7288   24.2264 H   0  0  0  0  0  0
  -17.5016  -31.6274   24.5177 H   0  0  0  0  0  0
  -15.5352  -30.2999   23.7655 H   0  0  0  0  0  0
  -15.8672  -28.0822   22.7100 H   0  0  0  0  0  0
  -24.5839  -30.7125   25.7770 H   0  0  0  0  0  0
  -24.8904  -32.2892   26.4930 H   0  0  0  0  0  0
  -25.8006  -30.8856   27.0211 H   0  0  0  0  0  0
  -26.2870  -29.6777   24.1211 H   0  0  0  0  0  0
  -27.3959  -29.7295   25.4721 H   0  0  0  0  0  0
  -27.8760  -30.4277   23.9431 H   0  0  0  0  0  0
  -27.2609  -33.3643   26.2062 H   0  0  0  0  0  0
  -28.3789  -32.6946   25.0285 H   0  0  0  0  0  0
  -28.0724  -31.8497   26.5378 H   0  0  0  0  0  0
  -28.2589  -38.0119   24.7497 H   0  0  0  0  0  0
  -28.1050  -36.2649   24.6257 H   0  0  0  0  0  0
  -27.2311  -37.1460   25.8876 H   0  0  0  0  0  0
  -20.9349  -29.8804   21.6957 H   0  0  0  0  0  0
  -26.0146  -38.2883   24.1405 H   0  0  0  0  0  0
  -27.6334  -17.1159   20.5856 H   0  0  0  0  0  0
  -31.8928  -17.4378   20.3780 H   0  0  0  0  0  0
  -24.9418  -19.4556   19.5510 H   0  0  0  0  0  0
  -25.8724  -17.8724   19.6084 H   0  0  0  0  0  0
  -26.9065  -20.7249   19.9478 H   0  0  0  0  0  0
  -33.5054  -20.4668   18.1776 H   0  0  0  0  0  0
  -31.8307  -20.4353   17.6383 H   0  0  0  0  0  0
  -32.6689  -18.9294   17.9855 H   0  0  0  0  0  0
  -29.8600  -24.6096   22.3328 H   0  0  0  0  0  0
  -29.5675  -26.3369   22.3024 H   0  0  0  0  0  0
  -30.6040  -25.6065   21.0854 H   0  0  0  0  0  0
  -27.0103  -25.8031   22.3067 H   0  0  0  0  0  0
  -27.4314  -24.1054   22.3153 H   0  0  0  0  0  0
  -26.3617  -24.7197   21.0758 H   0  0  0  0  0  0
  -32.8682  -19.6075   20.4089 H   0  0  0  0  0  0
  -31.9958  -21.0700   20.1014 H   0  0  0  0  0  0
  -28.5884  -21.4163   18.6250 H   0  0  0  0  0  0
  -30.2539  -21.6857   18.8172 H   0  0  0  0  0  0
  -29.9212  -22.6581   21.0821 H   0  0  0  0  0  0
  -28.2271  -22.2795   21.0374 H   0  0  0  0  0  0
  -27.8926  -23.9146   19.1227 H   0  0  0  0  0  0
  -29.5785  -24.2868   19.1337 H   0  0  0  0  0  0
  -28.9092  -15.2992   21.1999 H   0  0  0  0  0  0
  1 25  1  0  0  0
  1 30  2  0  0  0
  1 87  1  0  0  0
  2  3  1  0  0  0
  2 25  1  0  0  0
  2 88  1  0  0  0
  2 89  1  0  0  0
  3  4  1  0  0  0
  3 90  1  0  0  0
  3 91  1  0  0  0
  4  5  1  0  0  0
  4 92  1  0  0  0
  4 93  1  0  0  0
  5  6  1  0  0  0
  5 26  1  0  0  0
  5 94  1  0  0  0
  6 25  1  0  0  0
  6 95  1  0  0  0
  6 96  1  0  0  0
  7  8  2  0  0  0
  7 26  1  0  0  0
  7 29  1  0  0  0
  8  9  1  0  0  0
  8 22  1  0  0  0
  9 10  1  0  0  0
  9 27  2  0  0  0
 10 11  2  0  0  0
 10 15  1  0  0  0
 11 12  1  0  0  0
 11 97  1  0  0  0
 12 13  2  0  0  0
 12 98  1  0  0  0
 13 14  1  0  0  0
 13 31  1  0  0  0
 14 15  2  0  0  0
 14 99  1  0  0  0
 15100  1  0  0  0
 16 17  2  0  0  0
 16 21  1  0  0  0
 16 31  1  0  0  0
 17 18  1  0  0  0
 17101  1  0  0  0
 18 19  2  0  0  0
 18102  1  0  0  0
 19 20  1  0  0  0
 19 24  1  0  0  0
 20 21  2  0  0  0
 20103  1  0  0  0
 21 23  1  0  0  0
 22 28  1  0  0  0
 22 32  2  0  0  0
 26 27  1  0  0  0
 28104  1  0  0  0
 28105  1  0  0  0
 29106  1  0  0  0
 29107  1  0  0  0
 33 34  1  0  0  0
 33 66  1  0  0  0
 33 70  2  0  0  0
 34 36  1  0  0  0
 34 59  1  0  0  0
 34108  1  0  0  0
 35 44  2  0  0  0
 35 45  1  0  0  0
 35 68  1  0  0  0
 36 56  1  0  0  0
 36109  1  0  0  0
 37 39  1  0  0  0
 37 47  1  0  0  0
 37 66  1  0  0  0
 37110  1  0  0  0
 38 43  2  0  0  0
 38 46  1  0  0  0
 38 47  1  0  0  0
 39 64  1  0  0  0
 39 67  2  0  0  0
 40 52  1  0  0  0
 40 53  2  0  0  0
 40 58  1  0  0  0
 41111  1  0  0  0
 41112  1  0  0  0
 41113  1  0  0  0
 41 48  1  0  0  0
 42 43  1  0  0  0
 42 66  1  0  0  0
 42114  1  0  0  0
 42115  1  0  0  0
 43 44  1  0  0  0
 44116  1  0  0  0
 45 46  2  0  0  0
 45117  1  0  0  0
 46118  1  0  0  0
 47119  1  0  0  0
 47120  1  0  0  0
 48 56  1  0  0  0
 48 65  1  0  0  0
 48121  1  0  0  0
 49 50  1  0  0  0
 49 53  1  0  0  0
 49 64  1  0  0  0
 49122  1  0  0  0
 50 51  1  0  0  0
 50123  1  0  0  0
 50124  1  0  0  0
 51 52  1  0  0  0
 51125  1  0  0  0
 51126  1  0  0  0
 52127  1  0  0  0
 52128  1  0  0  0
 53 54  1  0  0  0
 54 55  2  0  0  0
 54129  1  0  0  0
 55 57  1  0  0  0
 55130  1  0  0  0
 56 69  2  0  0  0
 57 58  2  0  0  0
 57131  1  0  0  0
 58132  1  0  0  0
 59 60  1  0  0  0
 59 61  1  0  0  0
 59 62  1  0  0  0
 60133  1  0  0  0
 60134  1  0  0  0
 60135  1  0  0  0
 61136  1  0  0  0
 61137  1  0  0  0
 61138  1  0  0  0
 62139  1  0  0  0
 62140  1  0  0  0
 62141  1  0  0  0
 63 65  1  0  0  0
 63142  1  0  0  0
 63143  1  0  0  0
 63144  1  0  0  0
 64145  1  0  0  0
 65146  1  0  0  0
 68 86  1  0  0  0
 71 73  2  0  0  0
 71 76  1  0  0  0
 71147  1  0  0  0
 72 74  1  0  0  0
 72 76  2  0  0  0
 72148  1  0  0  0
 73 75  1  0  0  0
 73 78  1  0  0  0
 74 75  2  0  0  0
 74 82  1  0  0  0
 75 83  1  0  0  0
 76 87  1  0  0  0
 77 78  2  0  0  0
 77149  1  0  0  0
 77150  1  0  0  0
 78151  1  0  0  0
 79 82  1  0  0  0
 79152  1  0  0  0
 79153  1  0  0  0
 79154  1  0  0  0
 80155  1  0  0  0
 80156  1  0  0  0
 80157  1  0  0  0
 80 86  1  0  0  0
 81 86  1  0  0  0
 81158  1  0  0  0
 81159  1  0  0  0
 81160  1  0  0  0
 82161  1  0  0  0
 82162  1  0  0  0
 83 84  1  0  0  0
 83163  1  0  0  0
 83164  1  0  0  0
 84 85  1  0  0  0
 84165  1  0  0  0
 84166  1  0  0  0
 85 86  1  0  0  0
 85167  1  0  0  0
 85168  1  0  0  0
 87169  1  0  0  0
M  ISO  4   1 100  68 101  86 101  87 100
M  END
> <chiral flag>
0

> <version>
0

> <s_m_source_file>
/data/baiqing/PycharmProjects/Reinvent-master-3.2/result/LINK_invent/BTK/process_docking_weight1_custom_product_contain_oxygen_bond_distance_aromatic_linkinvent_7_9_3/rearranged_h_0140.sdf

> <i_m_source_file_index>
69

> <r_mmod_Potential_Energy-OPLS-2005>
59.197093963623

> <r_mmod_Stretch_Energy-OPLS-2005>
77.4277191162109

> <r_mmod_Bend_Energy-OPLS-2005>
141.88557434082

> <r_mmod_Torsional_Energy-OPLS-2005>
250.53271484375

> <r_mmod_Improper_Torsional_Energy-OPLS-2005>
5.9612021446228

> <r_mmod_Van_der_Waal_Energy-OPLS-2005>
142.731658935547

> <r_mmod_Electrostatic_Energy-OPLS-2005>
-405.843017578125

> <r_mmod_Solvation_Energy-OPLS-2005>
-190.220779418945

> <b_mmod_Minimization_Converged-OPLS-2005>
0

> <r_mmod_RMS_Derivative-OPLS-2005>
2.43065476417542

$$$$
69
                    3D
 Structure written by MMmdl.
172181  0  0  1  0            999 V2000
  -30.6899  -14.5639   20.4599 C   0  0  0  0  0  0
  -30.4224  -12.3354   19.4601 C   0  0  0  0  0  0
  -29.5076  -12.4713   18.2257 C   0  0  0  0  0  0
  -28.0308  -12.3281   18.6361 C   0  0  0  0  0  0
  -27.6527  -13.2174   19.8527 C   0  0  2  0  0  0
  -28.6943  -13.0988   20.9893 C   0  0  0  0  0  0
  -25.2569  -13.8190   20.5658 C   0  0  0  0  0  0
  -24.1817  -13.0451   20.9146 C   0  0  0  0  0  0
  -24.6383  -11.6908   20.8704 C   0  0  0  0  0  0
  -23.9049  -10.4288   21.0407 C   0  0  0  0  0  0
  -24.3612   -9.4202   21.9188 C   0  0  0  0  0  0
  -23.6278   -8.2246   22.0763 C   0  0  0  0  0  0
  -22.4264   -8.0300   21.3545 C   0  0  0  0  0  0
  -21.9885   -9.0263   20.4657 C   0  0  0  0  0  0
  -22.7218  -10.2143   20.3057 C   0  0  0  0  0  0
  -21.6853   -6.0725   22.5266 C   0  0  0  0  0  0
  -21.4014   -6.5623   23.8199 C   0  0  0  0  0  0
  -21.3652   -5.6779   24.9161 C   0  0  0  0  0  0
  -21.6050   -4.3034   24.7220 C   0  0  0  0  0  0
  -21.8823   -3.8122   23.4331 C   0  0  0  0  0  0
  -21.9191   -4.6941   22.3395 C   0  0  0  0  0  0
  -22.7862  -13.5246   21.1819 C   0  0  0  0  0  0
  -22.1668   -4.2127   21.0975 F   0  0  0  0  0  0
  -21.5619   -3.4516   25.7719 F   0  0  0  0  0  0
  -30.0173  -13.3798   20.4176 N   0  0  0  0  0  0
  -26.2983  -12.9371   20.3253 N   0  0  0  0  0  0
  -25.9316  -11.6524   20.5725 N   0  0  0  0  0  0
  -22.0495  -12.8258   22.0381 N   0  0  0  0  0  0
  -25.4299  -15.1917   20.4108 N   0  0  0  0  0  0
  -31.8912  -14.6178   20.1923 O   0  0  0  0  0  0
  -21.6650   -6.8879   21.4239 O   0  0  0  0  0  0
  -22.3539  -14.5551   20.6658 O   0  0  0  0  0  0
  -24.6200  -31.8646   23.2045 C   0  0  0  0  0  0
  -25.9072  -32.4800   23.8360 C   0  0  1  0  0  0
  -27.2346  -27.3769   20.1211 C   0  0  0  0  0  0
  -25.5904  -33.8597   24.2295 N   0  0  0  0  0  0
  -23.4111  -30.4841   21.5475 C   0  0  2  0  0  0
  -24.8578  -28.9382   20.1233 C   0  0  0  0  0  0
  -22.7437  -29.4637   22.4987 C   0  0  0  0  0  0
  -18.0275  -28.1395   22.8483 C   0  0  0  0  0  0
  -24.1489  -36.7297   23.2633 C   0  0  0  0  0  0
  -25.9445  -30.8159   21.3623 C   0  0  0  0  0  0
  -26.0235  -29.4449   20.7113 C   0  0  0  0  0  0
  -27.2184  -28.6776   20.6930 C   0  0  0  0  0  0
  -26.0433  -26.8911   19.5422 C   0  0  0  0  0  0
  -24.8661  -27.6636   19.5326 C   0  0  0  0  0  0
  -23.6218  -29.8106   20.1663 C   0  0  0  0  0  0
  -25.4115  -36.3092   24.0327 C   0  0  1  0  0  0
  -20.5871  -28.3678   23.1313 C   0  0  2  0  0  0
  -20.6768  -26.9407   22.5428 C   0  0  0  0  0  0
  -19.5750  -26.6389   21.5219 C   0  0  0  0  0  0
  -18.1923  -26.7937   22.1615 C   0  0  0  0  0  0
  -19.1528  -28.8856   23.2890 C   0  0  0  0  0  0
  -18.9448  -30.1454   23.8904 C   0  0  0  0  0  0
  -17.6455  -30.6589   24.0568 C   0  0  0  0  0  0
  -25.9044  -34.9462   23.5112 C   0  0  0  0  0  0
  -16.5345  -29.9092   23.6328 C   0  0  0  0  0  0
  -16.7269  -28.6513   23.0343 C   0  0  0  0  0  0
  -26.4478  -31.6597   25.0710 C   0  0  0  0  0  0
  -25.3719  -31.3760   26.1447 C   0  0  0  0  0  0
  -27.0281  -30.3012   24.6127 C   0  0  0  0  0  0
  -27.6057  -32.4318   25.7462 C   0  0  0  0  0  0
  -27.5588  -37.1802   24.8458 C   0  0  0  0  0  0
  -21.4169  -29.3031   22.3717 N   0  0  0  0  0  0
  -26.4300  -37.3780   23.9401 N   0  0  0  0  0  0
  -24.6771  -31.0700   22.0957 N   0  0  0  0  0  0
  -23.4185  -28.8189   23.3062 O   0  0  0  0  0  0
  -28.4006  -26.6210   20.0786 O   0  0  0  0  0  0
  -26.5613  -34.8924   22.4679 O   0  0  0  0  0  0
  -23.5379  -32.1420   23.7403 O   0  0  0  0  0  0
  -31.2093  -18.3429   18.1951 C   0  0  0  0  0  0
  -30.2819  -19.3755   18.3927 C   0  0  0  0  0  0
  -31.1290  -17.1615   18.9474 C   0  0  0  0  0  0
  -29.2553  -18.0952   20.1900 C   0  0  0  0  0  0
  -29.2990  -19.3017   19.4057 C   0  0  0  0  0  0
  -30.1344  -16.9870   19.9435 C   0  0  0  0  0  0
  -28.0456  -23.7572   18.5723 C   0  0  0  0  0  0
  -27.2045  -22.6545   19.2101 C   0  0  0  0  0  0
  -29.0442  -24.1320   19.6643 C   0  0  1  0  0  0
  -29.3269  -22.6653   20.3059 C   0  0  0  0  0  0
  -30.2973  -24.7851   19.0235 C   0  0  0  0  0  0
  -30.6894  -22.0958   19.8492 C   0  0  0  0  0  0
  -29.4250  -22.7279   21.8477 C   0  0  0  0  0  0
  -26.8114  -19.6606   19.7316 C   0  0  0  0  0  0
  -28.3969  -25.2535   20.5982 C   0  0  0  0  0  0
  -28.1403  -20.3556   19.3487 C   0  0  1  0  0  0
  -29.9424  -15.6989   20.6003 N   0  0  0  0  0  0
  -28.1442  -21.7700   19.9506 N   0  3  2  0  0  0
  -31.4692  -12.4192   19.1605 H   0  0  0  0  0  0
  -30.3215  -11.3481   19.9144 H   0  0  0  0  0  0
  -29.7589  -11.7119   17.4852 H   0  0  0  0  0  0
  -29.6703  -13.4378   17.7440 H   0  0  0  0  0  0
  -27.8691  -11.2782   18.8864 H   0  0  0  0  0  0
  -27.3810  -12.5463   17.7873 H   0  0  0  0  0  0
  -27.6658  -14.2464   19.4949 H   0  0  0  0  0  0
  -28.6819  -12.0967   21.4218 H   0  0  0  0  0  0
  -28.4649  -13.7885   21.8053 H   0  0  0  0  0  0
  -25.2771   -9.5651   22.4738 H   0  0  0  0  0  0
  -23.9965   -7.4623   22.7481 H   0  0  0  0  0  0
  -21.0796   -8.8786   19.8974 H   0  0  0  0  0  0
  -22.3682  -10.9679   19.6144 H   0  0  0  0  0  0
  -21.2032   -7.6134   23.9689 H   0  0  0  0  0  0
  -21.1473   -6.0520   25.9059 H   0  0  0  0  0  0
  -22.0615   -2.7572   23.2861 H   0  0  0  0  0  0
  -22.4101  -11.9938   22.4825 H   0  0  0  0  0  0
  -21.1126  -13.1320   22.2584 H   0  0  0  0  0  0
  -24.6655  -15.8493   20.5215 H   0  0  0  0  0  0
  -26.2764  -15.6239   20.0629 H   0  0  0  0  0  0
  -26.7150  -32.5499   23.1126 H   0  0  0  0  0  0
  -25.0039  -33.9753   25.0430 H   0  0  0  0  0  0
  -22.7008  -31.3005   21.4029 H   0  0  0  0  0  0
  -23.3749  -35.9633   23.3309 H   0  0  0  0  0  0
  -24.3563  -36.8895   22.2040 H   0  0  0  0  0  0
  -23.7253  -37.6507   23.6646 H   0  0  0  0  0  0
  -26.0632  -31.5794   20.5924 H   0  0  0  0  0  0
  -26.8295  -30.8688   21.9855 H   0  0  0  0  0  0
  -28.1234  -29.0745   21.1330 H   0  0  0  0  0  0
  -26.0087  -25.9110   19.0945 H   0  0  0  0  0  0
  -23.9684  -27.2638   19.0818 H   0  0  0  0  0  0
  -23.7329  -30.5803   19.4015 H   0  0  0  0  0  0
  -22.7451  -29.2303   19.8722 H   0  0  0  0  0  0
  -25.1295  -36.1951   25.0821 H   0  0  0  0  0  0
  -20.9944  -28.3261   24.1442 H   0  0  0  0  0  0
  -20.5665  -26.2288   23.3621 H   0  0  0  0  0  0
  -21.6646  -26.7440   22.1239 H   0  0  0  0  0  0
  -19.6914  -25.6303   21.1241 H   0  0  0  0  0  0
  -19.6702  -27.3207   20.6759 H   0  0  0  0  0  0
  -17.4197  -26.6686   21.4013 H   0  0  0  0  0  0
  -18.0307  -26.0088   22.9014 H   0  0  0  0  0  0
  -19.7924  -30.7271   24.2283 H   0  0  0  0  0  0
  -17.5002  -31.6263   24.5182 H   0  0  0  0  0  0
  -15.5347  -30.2992   23.7654 H   0  0  0  0  0  0
  -15.8664  -28.0833   22.7056 H   0  0  0  0  0  0
  -24.5900  -30.7086   25.7806 H   0  0  0  0  0  0
  -24.8900  -32.2934   26.4835 H   0  0  0  0  0  0
  -25.8046  -30.8982   27.0242 H   0  0  0  0  0  0
  -26.2829  -29.6795   24.1147 H   0  0  0  0  0  0
  -27.3969  -29.7241   25.4618 H   0  0  0  0  0  0
  -27.8710  -30.4282   23.9327 H   0  0  0  0  0  0
  -27.2688  -33.3626   26.2041 H   0  0  0  0  0  0
  -28.3862  -32.6864   25.0278 H   0  0  0  0  0  0
  -28.0729  -31.8436   26.5369 H   0  0  0  0  0  0
  -28.2629  -38.0080   24.7486 H   0  0  0  0  0  0
  -28.1062  -36.2612   24.6307 H   0  0  0  0  0  0
  -27.2296  -37.1476   25.8859 H   0  0  0  0  0  0
  -20.9349  -29.8718   21.6893 H   0  0  0  0  0  0
  -26.0185  -38.2856   24.1401 H   0  0  0  0  0  0
  -31.9478  -18.4256   17.4093 H   0  0  0  0  0  0
  -30.3043  -20.2112   17.7071 H   0  0  0  0  0  0
  -31.8242  -16.3820   18.6771 H   0  0  0  0  0  0
  -28.4704  -17.9660   20.9211 H   0  0  0  0  0  0
  -27.4550  -24.5982   18.2180 H   0  0  0  0  0  0
  -28.5591  -23.3475   17.7011 H   0  0  0  0  0  0
  -26.6027  -22.1506   18.4530 H   0  0  0  0  0  0
  -26.4984  -23.0839   19.9224 H   0  0  0  0  0  0
  -30.7630  -24.1616   18.2622 H   0  0  0  0  0  0
  -31.0489  -25.0198   19.7781 H   0  0  0  0  0  0
  -30.0511  -25.7166   18.5157 H   0  0  0  0  0  0
  -31.5157  -22.7436   20.1446 H   0  0  0  0  0  0
  -30.7452  -21.9938   18.7689 H   0  0  0  0  0  0
  -30.9108  -21.1368   20.3141 H   0  0  0  0  0  0
  -30.2390  -23.3815   22.1666 H   0  0  0  0  0  0
  -29.6273  -21.7434   22.2745 H   0  0  0  0  0  0
  -28.5104  -23.0924   22.3166 H   0  0  0  0  0  0
  -26.7048  -18.7087   19.2095 H   0  0  0  0  0  0
  -25.9319  -20.2518   19.4764 H   0  0  0  0  0  0
  -26.7621  -19.4540   20.8008 H   0  0  0  0  0  0
  -28.9911  -25.3291   21.5093 H   0  0  0  0  0  0
  -27.4012  -24.9645   20.9344 H   0  0  0  0  0  0
  -28.0702  -20.5240   18.2720 H   0  0  0  0  0  0
  -29.0341  -15.5513   21.0093 H   0  0  0  0  0  0
  -27.7037  -21.6110   20.8438 H   0  0  0  0  0  0
  1 25  1  0  0  0
  1 30  2  0  0  0
  1 87  1  0  0  0
  2  3  1  0  0  0
  2 25  1  0  0  0
  2 89  1  0  0  0
  2 90  1  0  0  0
  3  4  1  0  0  0
  3 91  1  0  0  0
  3 92  1  0  0  0
  4  5  1  0  0  0
  4 93  1  0  0  0
  4 94  1  0  0  0
  5  6  1  0  0  0
  5 26  1  0  0  0
  5 95  1  0  0  0
  6 25  1  0  0  0
  6 96  1  0  0  0
  6 97  1  0  0  0
  7  8  2  0  0  0
  7 26  1  0  0  0
  7 29  1  0  0  0
  8  9  1  0  0  0
  8 22  1  0  0  0
  9 10  1  0  0  0
  9 27  2  0  0  0
 10 11  2  0  0  0
 10 15  1  0  0  0
 11 12  1  0  0  0
 11 98  1  0  0  0
 12 13  2  0  0  0
 12 99  1  0  0  0
 13 14  1  0  0  0
 13 31  1  0  0  0
 14 15  2  0  0  0
 14100  1  0  0  0
 15101  1  0  0  0
 16 17  2  0  0  0
 16 21  1  0  0  0
 16 31  1  0  0  0
 17 18  1  0  0  0
 17102  1  0  0  0
 18 19  2  0  0  0
 18103  1  0  0  0
 19 20  1  0  0  0
 19 24  1  0  0  0
 20 21  2  0  0  0
 20104  1  0  0  0
 21 23  1  0  0  0
 22 28  1  0  0  0
 22 32  2  0  0  0
 26 27  1  0  0  0
 28105  1  0  0  0
 28106  1  0  0  0
 29107  1  0  0  0
 29108  1  0  0  0
 33 34  1  0  0  0
 33 66  1  0  0  0
 33 70  2  0  0  0
 34 36  1  0  0  0
 34 59  1  0  0  0
 34109  1  0  0  0
 35 44  2  0  0  0
 35 45  1  0  0  0
 35 68  1  0  0  0
 36 56  1  0  0  0
 36110  1  0  0  0
 37 39  1  0  0  0
 37 47  1  0  0  0
 37 66  1  0  0  0
 37111  1  0  0  0
 38 43  2  0  0  0
 38 46  1  0  0  0
 38 47  1  0  0  0
 39 64  1  0  0  0
 39 67  2  0  0  0
 40 52  1  0  0  0
 40 53  2  0  0  0
 40 58  1  0  0  0
 41112  1  0  0  0
 41113  1  0  0  0
 41114  1  0  0  0
 41 48  1  0  0  0
 42 43  1  0  0  0
 42 66  1  0  0  0
 42115  1  0  0  0
 42116  1  0  0  0
 43 44  1  0  0  0
 44117  1  0  0  0
 45 46  2  0  0  0
 45118  1  0  0  0
 46119  1  0  0  0
 47120  1  0  0  0
 47121  1  0  0  0
 48 56  1  0  0  0
 48 65  1  0  0  0
 48122  1  0  0  0
 49 50  1  0  0  0
 49 53  1  0  0  0
 49 64  1  0  0  0
 49123  1  0  0  0
 50 51  1  0  0  0
 50124  1  0  0  0
 50125  1  0  0  0
 51 52  1  0  0  0
 51126  1  0  0  0
 51127  1  0  0  0
 52128  1  0  0  0
 52129  1  0  0  0
 53 54  1  0  0  0
 54 55  2  0  0  0
 54130  1  0  0  0
 55 57  1  0  0  0
 55131  1  0  0  0
 56 69  2  0  0  0
 57 58  2  0  0  0
 57132  1  0  0  0
 58133  1  0  0  0
 59 60  1  0  0  0
 59 61  1  0  0  0
 59 62  1  0  0  0
 60134  1  0  0  0
 60135  1  0  0  0
 60136  1  0  0  0
 61137  1  0  0  0
 61138  1  0  0  0
 61139  1  0  0  0
 62140  1  0  0  0
 62141  1  0  0  0
 62142  1  0  0  0
 63 65  1  0  0  0
 63143  1  0  0  0
 63144  1  0  0  0
 63145  1  0  0  0
 64146  1  0  0  0
 65147  1  0  0  0
 68 85  1  0  0  0
 71 72  2  0  0  0
 71 73  1  0  0  0
 71148  1  0  0  0
 72 75  1  0  0  0
 72149  1  0  0  0
 73 76  2  0  0  0
 73150  1  0  0  0
 74 75  2  0  0  0
 74 76  1  0  0  0
 74151  1  0  0  0
 75 86  1  0  0  0
 76 87  1  0  0  0
 77 78  1  0  0  0
 77 79  1  0  0  0
 77152  1  0  0  0
 77153  1  0  0  0
 78154  1  0  0  0
 78155  1  0  0  0
 78 88  1  0  0  0
 79 80  1  0  0  0
 79 81  1  0  0  0
 79 85  1  0  0  0
 80 82  1  0  0  0
 80 83  1  0  0  0
 80 88  1  0  0  0
 81156  1  0  0  0
 81157  1  0  0  0
 81158  1  0  0  0
 82159  1  0  0  0
 82160  1  0  0  0
 82161  1  0  0  0
 83162  1  0  0  0
 83163  1  0  0  0
 83164  1  0  0  0
 84165  1  0  0  0
 84166  1  0  0  0
 84167  1  0  0  0
 84 86  1  0  0  0
 85168  1  0  0  0
 85169  1  0  0  0
 86 88  1  0  0  0
 86170  1  0  0  0
 87171  1  0  0  0
 88172  1  0  0  0
M  CHG  1  88   1
M  ISO  4   1 100  68 101  85 101  87 100
M  END
> <chiral flag>
0

> <version>
0

> <s_m_source_file>
/data/baiqing/PycharmProjects/Reinvent-master-3.2/result/LINK_invent/BTK/process_docking_weight1_custom_product_contain_oxygen_bond_distance_aromatic_linkinvent_7_9_3/rearranged_h_0140.sdf

> <i_m_source_file_index>
70

> <r_mmod_Potential_Energy-OPLS-2005>
159.755477905273

> <r_mmod_Stretch_Energy-OPLS-2005>
82.3521881103516

> <r_mmod_Bend_Energy-OPLS-2005>
214.734161376953

> <r_mmod_Torsional_Energy-OPLS-2005>
344.223236083984

> <r_mmod_Improper_Torsional_Energy-OPLS-2005>
8.52189064025879

> <r_mmod_Van_der_Waal_Energy-OPLS-2005>
171.11083984375

> <r_mmod_Electrostatic_Energy-OPLS-2005>
-260.269866943359

> <r_mmod_Solvation_Energy-OPLS-2005>
-433.253021240234

> <b_mmod_Minimization_Converged-OPLS-2005>
0

> <r_mmod_RMS_Derivative-OPLS-2005>
2.94369411468506

$$$$
70
                    3D
 Structure written by MMmdl.
180188  0  0  1  0            999 V2000
  -30.6770  -14.5081   20.5340 C   0  0  0  0  0  0
  -30.4272  -12.3207   19.4201 C   0  0  0  0  0  0
  -29.4944  -12.5038   18.2045 C   0  0  0  0  0  0
  -28.0139  -12.3653   18.6166 C   0  0  0  0  0  0
  -27.6571  -13.2044   19.8726 C   0  0  2  0  0  0
  -28.7048  -13.0007   20.9905 C   0  0  0  0  0  0
  -25.2558  -13.8124   20.5706 C   0  0  0  0  0  0
  -24.1812  -13.0407   20.9175 C   0  0  0  0  0  0
  -24.6378  -11.6884   20.8733 C   0  0  0  0  0  0
  -23.9053  -10.4273   21.0405 C   0  0  0  0  0  0
  -24.3609   -9.4197   21.9184 C   0  0  0  0  0  0
  -23.6282   -8.2236   22.0754 C   0  0  0  0  0  0
  -22.4268   -8.0271   21.3540 C   0  0  0  0  0  0
  -21.9897   -9.0240   20.4643 C   0  0  0  0  0  0
  -22.7227  -10.2116   20.3051 C   0  0  0  0  0  0
  -21.6845   -6.0733   22.5277 C   0  0  0  0  0  0
  -21.4007   -6.5638   23.8210 C   0  0  0  0  0  0
  -21.3658   -5.6790   24.9168 C   0  0  0  0  0  0
  -21.6045   -4.3054   24.7220 C   0  0  0  0  0  0
  -21.8821   -3.8146   23.4342 C   0  0  0  0  0  0
  -21.9192   -4.6962   22.3399 C   0  0  0  0  0  0
  -22.7841  -13.5224   21.1843 C   0  0  0  0  0  0
  -22.1662   -4.2161   21.0975 F   0  0  0  0  0  0
  -21.5631   -3.4535   25.7730 F   0  0  0  0  0  0
  -30.0315  -13.3132   20.4309 N   0  0  0  0  0  0
  -26.3001  -12.9301   20.3372 N   0  0  0  0  0  0
  -25.9304  -11.6471   20.5770 N   0  0  0  0  0  0
  -22.0485  -12.8218   22.0403 N   0  0  0  0  0  0
  -25.4232  -15.1840   20.4167 N   0  0  0  0  0  0
  -31.8311  -14.6819   20.1329 O   0  0  0  0  0  0
  -21.6631   -6.8869   21.4240 O   0  0  0  0  0  0
  -22.3539  -14.5544   20.6700 O   0  0  0  0  0  0
  -24.6142  -31.8684   23.2094 C   0  0  0  0  0  0
  -25.9035  -32.4824   23.8392 C   0  0  1  0  0  0
  -27.2312  -27.4288   20.0877 C   0  0  0  0  0  0
  -25.5891  -33.8621   24.2312 N   0  0  0  0  0  0
  -23.4006  -30.4928   21.5505 C   0  0  2  0  0  0
  -24.8442  -28.9589   20.1128 C   0  0  0  0  0  0
  -22.7392  -29.4677   22.4990 C   0  0  0  0  0  0
  -18.0271  -28.1394   22.8499 C   0  0  0  0  0  0
  -24.1493  -36.7324   23.2632 C   0  0  0  0  0  0
  -25.9300  -30.8288   21.3652 C   0  0  0  0  0  0
  -26.0044  -29.4632   20.7119 C   0  0  0  0  0  0
  -27.1965  -28.7037   20.7007 C   0  0  0  0  0  0
  -26.0512  -26.9451   19.4729 C   0  0  0  0  0  0
  -24.8624  -27.6978   19.4926 C   0  0  0  0  0  0
  -23.6060  -29.8245   20.1656 C   0  0  0  0  0  0
  -25.4118  -36.3119   24.0331 C   0  0  1  0  0  0
  -20.5854  -28.3687   23.1311 C   0  0  2  0  0  0
  -20.6769  -26.9422   22.5420 C   0  0  0  0  0  0
  -19.5740  -26.6400   21.5215 C   0  0  0  0  0  0
  -18.1914  -26.7941   22.1621 C   0  0  0  0  0  0
  -19.1518  -28.8853   23.2908 C   0  0  0  0  0  0
  -18.9449  -30.1459   23.8925 C   0  0  0  0  0  0
  -17.6457  -30.6597   24.0580 C   0  0  0  0  0  0
  -25.9052  -34.9479   23.5124 C   0  0  0  0  0  0
  -16.5349  -29.9101   23.6341 C   0  0  0  0  0  0
  -16.7263  -28.6518   23.0353 C   0  0  0  0  0  0
  -26.4464  -31.6602   25.0729 C   0  0  0  0  0  0
  -25.3721  -31.3691   26.1465 C   0  0  0  0  0  0
  -27.0306  -30.3044   24.6124 C   0  0  0  0  0  0
  -27.6049  -32.4320   25.7488 C   0  0  0  0  0  0
  -27.5595  -37.1805   24.8450 C   0  0  0  0  0  0
  -21.4120  -29.3055   22.3723 N   0  0  0  0  0  0
  -26.4295  -37.3814   23.9417 N   0  0  0  0  0  0
  -24.6665  -31.0781   22.1001 N   0  0  0  0  0  0
  -23.4156  -28.8228   23.3053 O   0  0  0  0  0  0
  -28.4131  -26.7113   20.1164 O   0  0  0  0  0  0
  -26.5626  -34.8928   22.4698 O   0  0  0  0  0  0
  -23.5340  -32.1449   23.7487 O   0  0  0  0  0  0
  -31.0565  -17.6311   21.5456 C   0  0  0  0  0  0
  -29.5430  -19.0573   19.6877 C   0  0  0  0  0  0
  -31.2581  -19.0419   21.4464 C   0  0  0  0  0  0
  -29.3754  -17.6622   19.7938 C   0  0  0  0  0  0
  -30.1348  -16.9322   20.7363 C   0  0  0  0  0  0
  -30.4606  -19.7633   20.5006 C   0  0  0  0  0  0
  -30.0503  -23.3395   19.5827 C   0  0  0  0  0  0
  -28.3834  -16.9799   18.8694 C   0  0  0  0  0  0
  -33.7698  -20.4349   20.2910 C   0  0  0  0  0  0
  -33.3801  -18.7184   22.8481 C   0  0  0  0  0  0
  -30.8097  -19.2798   24.4809 C   0  0  0  0  0  0
  -30.5210  -21.4396   23.3380 C   0  0  0  0  0  0
  -32.5738  -21.0269   24.6598 C   0  0  0  0  0  0
  -29.6205  -24.6082   20.3342 C   0  0  0  0  0  0
  -29.5194  -21.9738   20.0468 C   0  0  0  0  0  0
  -33.1511  -20.8399   21.6443 C   0  0  0  0  0  0
  -28.4122  -25.3343   19.7083 C   0  0  0  0  0  0
  -32.2991  -19.7470   22.3879 C   0  0  1  0  0  0
  -31.5773  -20.3602   23.6781 C   0  0  0  0  0  0
  -29.8994  -15.5352   20.9383 N   0  0  0  0  0  0
  -30.8268  -23.4200   18.6262 O   0  0  0  0  0  0
  -30.6369  -21.1243   20.3405 O   0  0  0  0  0  0
  -31.4696  -12.4291   19.1162 H   0  0  0  0  0  0
  -30.3363  -11.3118   19.8240 H   0  0  0  0  0  0
  -29.7349  -11.7732   17.4306 H   0  0  0  0  0  0
  -29.6600  -13.4850   17.7572 H   0  0  0  0  0  0
  -27.8217  -11.3091   18.8102 H   0  0  0  0  0  0
  -27.3654  -12.6427   17.7854 H   0  0  0  0  0  0
  -27.6899  -14.2483   19.5683 H   0  0  0  0  0  0
  -28.6885  -11.9673   21.3407 H   0  0  0  0  0  0
  -28.4692  -13.6077   21.8659 H   0  0  0  0  0  0
  -25.2759   -9.5671   22.4751 H   0  0  0  0  0  0
  -23.9989   -7.4633   22.7472 H   0  0  0  0  0  0
  -21.0829   -8.8752   19.8948 H   0  0  0  0  0  0
  -22.3695  -10.9646   19.6149 H   0  0  0  0  0  0
  -21.1996   -7.6145   23.9715 H   0  0  0  0  0  0
  -21.1478   -6.0517   25.9071 H   0  0  0  0  0  0
  -22.0606   -2.7610   23.2837 H   0  0  0  0  0  0
  -22.4088  -11.9861   22.4767 H   0  0  0  0  0  0
  -21.1109  -13.1240   22.2625 H   0  0  0  0  0  0
  -24.6531  -15.8346   20.5274 H   0  0  0  0  0  0
  -26.2776  -15.6301   20.1153 H   0  0  0  0  0  0
  -26.7109  -32.5525   23.1157 H   0  0  0  0  0  0
  -24.9985  -33.9790   25.0413 H   0  0  0  0  0  0
  -22.6904  -31.3099   21.4120 H   0  0  0  0  0  0
  -23.3767  -35.9638   23.3265 H   0  0  0  0  0  0
  -24.3599  -36.8986   22.2054 H   0  0  0  0  0  0
  -23.7219  -37.6501   23.6687 H   0  0  0  0  0  0
  -26.0470  -31.5941   20.5963 H   0  0  0  0  0  0
  -26.8165  -30.8805   21.9856 H   0  0  0  0  0  0
  -28.0914  -29.0864   21.1710 H   0  0  0  0  0  0
  -26.0253  -25.9929   18.9653 H   0  0  0  0  0  0
  -23.9716  -27.3070   19.0195 H   0  0  0  0  0  0
  -23.7106  -30.5990   19.4047 H   0  0  0  0  0  0
  -22.7295  -29.2433   19.8739 H   0  0  0  0  0  0
  -25.1293  -36.1974   25.0825 H   0  0  0  0  0  0
  -20.9962  -28.3271   24.1420 H   0  0  0  0  0  0
  -20.5679  -26.2301   23.3615 H   0  0  0  0  0  0
  -21.6636  -26.7474   22.1197 H   0  0  0  0  0  0
  -19.6908  -25.6310   21.1234 H   0  0  0  0  0  0
  -19.6676  -27.3221   20.6749 H   0  0  0  0  0  0
  -17.4191  -26.6692   21.4019 H   0  0  0  0  0  0
  -18.0322  -26.0075   22.9014 H   0  0  0  0  0  0
  -19.7931  -30.7265   24.2290 H   0  0  0  0  0  0
  -17.5021  -31.6276   24.5186 H   0  0  0  0  0  0
  -15.5353  -30.3018   23.7654 H   0  0  0  0  0  0
  -15.8657  -28.0853   22.7050 H   0  0  0  0  0  0
  -24.5891  -30.7059   25.7765 H   0  0  0  0  0  0
  -24.8914  -32.2832   26.4957 H   0  0  0  0  0  0
  -25.8051  -30.8803   27.0195 H   0  0  0  0  0  0
  -26.2852  -29.6791   24.1190 H   0  0  0  0  0  0
  -27.4073  -29.7303   25.4596 H   0  0  0  0  0  0
  -27.8690  -30.4367   23.9281 H   0  0  0  0  0  0
  -27.2690  -33.3609   26.2108 H   0  0  0  0  0  0
  -28.3833  -32.6893   25.0294 H   0  0  0  0  0  0
  -28.0755  -31.8417   26.5360 H   0  0  0  0  0  0
  -28.2568  -38.0149   24.7586 H   0  0  0  0  0  0
  -28.1139  -36.2685   24.6171 H   0  0  0  0  0  0
  -27.2327  -37.1332   25.8852 H   0  0  0  0  0  0
  -20.9278  -29.8782   21.6950 H   0  0  0  0  0  0
  -26.0176  -38.2880   24.1454 H   0  0  0  0  0  0
  -31.5915  -17.0458   22.2743 H   0  0  0  0  0  0
  -28.9659  -19.5765   18.9389 H   0  0  0  0  0  0
  -28.1329  -17.6184   18.0210 H   0  0  0  0  0  0
  -27.4612  -16.7619   19.4032 H   0  0  0  0  0  0
  -28.7919  -16.0537   18.4666 H   0  0  0  0  0  0
  -34.3231  -21.2726   19.8664 H   0  0  0  0  0  0
  -33.0163  -20.1495   19.5582 H   0  0  0  0  0  0
  -34.4728  -19.6094   20.3900 H   0  0  0  0  0  0
  -33.8074  -18.1799   22.0022 H   0  0  0  0  0  0
  -33.0095  -17.9651   23.5377 H   0  0  0  0  0  0
  -34.2163  -19.1946   23.3579 H   0  0  0  0  0  0
  -30.2674  -19.7231   25.3169 H   0  0  0  0  0  0
  -31.4681  -18.5296   24.9147 H   0  0  0  0  0  0
  -30.0682  -18.7621   23.8734 H   0  0  0  0  0  0
  -30.0930  -21.8741   24.2419 H   0  0  0  0  0  0
  -29.6823  -21.0210   22.7848 H   0  0  0  0  0  0
  -30.9297  -22.2724   22.7686 H   0  0  0  0  0  0
  -32.0557  -21.4316   25.5302 H   0  0  0  0  0  0
  -33.1058  -21.8629   24.2085 H   0  0  0  0  0  0
  -33.3131  -20.3272   25.0459 H   0  0  0  0  0  0
  -30.4773  -25.2809   20.3356 H   0  0  0  0  0  0
  -29.4195  -24.3687   21.3783 H   0  0  0  0  0  0
  -28.8912  -21.5823   19.2500 H   0  0  0  0  0  0
  -28.8945  -22.0963   20.9306 H   0  0  0  0  0  0
  -32.5808  -21.7493   21.4790 H   0  0  0  0  0  0
  -33.9702  -21.1730   22.2812 H   0  0  0  0  0  0
  -27.5112  -24.8114   20.0334 H   0  0  0  0  0  0
  -28.4483  -25.2917   18.6184 H   0  0  0  0  0  0
  -28.9507  -15.2744   21.1555 H   0  0  0  0  0  0
  1 25  1  0  0  0
  1 30  2  0  0  0
  1 90  1  0  0  0
  2  3  1  0  0  0
  2 25  1  0  0  0
  2 93  1  0  0  0
  2 94  1  0  0  0
  3  4  1  0  0  0
  3 95  1  0  0  0
  3 96  1  0  0  0
  4  5  1  0  0  0
  4 97  1  0  0  0
  4 98  1  0  0  0
  5  6  1  0  0  0
  5 26  1  0  0  0
  5 99  1  0  0  0
  6 25  1  0  0  0
  6100  1  0  0  0
  6101  1  0  0  0
  7  8  2  0  0  0
  7 26  1  0  0  0
  7 29  1  0  0  0
  8  9  1  0  0  0
  8 22  1  0  0  0
  9 10  1  0  0  0
  9 27  2  0  0  0
 10 11  2  0  0  0
 10 15  1  0  0  0
 11 12  1  0  0  0
 11102  1  0  0  0
 12 13  2  0  0  0
 12103  1  0  0  0
 13 14  1  0  0  0
 13 31  1  0  0  0
 14 15  2  0  0  0
 14104  1  0  0  0
 15105  1  0  0  0
 16 17  2  0  0  0
 16 21  1  0  0  0
 16 31  1  0  0  0
 17 18  1  0  0  0
 17106  1  0  0  0
 18 19  2  0  0  0
 18107  1  0  0  0
 19 20  1  0  0  0
 19 24  1  0  0  0
 20 21  2  0  0  0
 20108  1  0  0  0
 21 23  1  0  0  0
 22 28  1  0  0  0
 22 32  2  0  0  0
 26 27  1  0  0  0
 28109  1  0  0  0
 28110  1  0  0  0
 29111  1  0  0  0
 29112  1  0  0  0
 33 34  1  0  0  0
 33 66  1  0  0  0
 33 70  2  0  0  0
 34 36  1  0  0  0
 34 59  1  0  0  0
 34113  1  0  0  0
 35 44  2  0  0  0
 35 45  1  0  0  0
 35 68  1  0  0  0
 36 56  1  0  0  0
 36114  1  0  0  0
 37 39  1  0  0  0
 37 47  1  0  0  0
 37 66  1  0  0  0
 37115  1  0  0  0
 38 43  2  0  0  0
 38 46  1  0  0  0
 38 47  1  0  0  0
 39 64  1  0  0  0
 39 67  2  0  0  0
 40 52  1  0  0  0
 40 53  2  0  0  0
 40 58  1  0  0  0
 41116  1  0  0  0
 41117  1  0  0  0
 41118  1  0  0  0
 41 48  1  0  0  0
 42 43  1  0  0  0
 42 66  1  0  0  0
 42119  1  0  0  0
 42120  1  0  0  0
 43 44  1  0  0  0
 44121  1  0  0  0
 45 46  2  0  0  0
 45122  1  0  0  0
 46123  1  0  0  0
 47124  1  0  0  0
 47125  1  0  0  0
 48 56  1  0  0  0
 48 65  1  0  0  0
 48126  1  0  0  0
 49 50  1  0  0  0
 49 53  1  0  0  0
 49 64  1  0  0  0
 49127  1  0  0  0
 50 51  1  0  0  0
 50128  1  0  0  0
 50129  1  0  0  0
 51 52  1  0  0  0
 51130  1  0  0  0
 51131  1  0  0  0
 52132  1  0  0  0
 52133  1  0  0  0
 53 54  1  0  0  0
 54 55  2  0  0  0
 54134  1  0  0  0
 55 57  1  0  0  0
 55135  1  0  0  0
 56 69  2  0  0  0
 57 58  2  0  0  0
 57136  1  0  0  0
 58137  1  0  0  0
 59 60  1  0  0  0
 59 61  1  0  0  0
 59 62  1  0  0  0
 60138  1  0  0  0
 60139  1  0  0  0
 60140  1  0  0  0
 61141  1  0  0  0
 61142  1  0  0  0
 61143  1  0  0  0
 62144  1  0  0  0
 62145  1  0  0  0
 62146  1  0  0  0
 63 65  1  0  0  0
 63147  1  0  0  0
 63148  1  0  0  0
 63149  1  0  0  0
 64150  1  0  0  0
 65151  1  0  0  0
 68 87  1  0  0  0
 71 73  2  0  0  0
 71 75  1  0  0  0
 71152  1  0  0  0
 72 74  1  0  0  0
 72 76  2  0  0  0
 72153  1  0  0  0
 73 76  1  0  0  0
 73 88  1  0  0  0
 74 75  2  0  0  0
 74 78  1  0  0  0
 75 90  1  0  0  0
 76 92  1  0  0  0
 77 84  1  0  0  0
 77 85  1  0  0  0
 77 91  2  0  0  0
 78154  1  0  0  0
 78155  1  0  0  0
 78156  1  0  0  0
 79 86  1  0  0  0
 79157  1  0  0  0
 79158  1  0  0  0
 79159  1  0  0  0
 80160  1  0  0  0
 80161  1  0  0  0
 80162  1  0  0  0
 80 88  1  0  0  0
 81163  1  0  0  0
 81164  1  0  0  0
 81165  1  0  0  0
 81 89  1  0  0  0
 82 89  1  0  0  0
 82166  1  0  0  0
 82167  1  0  0  0
 82168  1  0  0  0
 83 89  1  0  0  0
 83169  1  0  0  0
 83170  1  0  0  0
 83171  1  0  0  0
 84 87  1  0  0  0
 84172  1  0  0  0
 84173  1  0  0  0
 85 92  1  0  0  0
 85174  1  0  0  0
 85175  1  0  0  0
 86 88  1  0  0  0
 86176  1  0  0  0
 86177  1  0  0  0
 87178  1  0  0  0
 87179  1  0  0  0
 88 89  1  0  0  0
 90180  1  0  0  0
M  ISO  4   1 100  68 101  87 101  90 100
M  END
> <chiral flag>
0

> <version>
0

> <s_m_source_file>
/data/baiqing/PycharmProjects/Reinvent-master-3.2/result/LINK_invent/BTK/process_docking_weight1_custom_product_contain_oxygen_bond_distance_aromatic_linkinvent_7_9_3/rearranged_h_0140.sdf

> <i_m_source_file_index>
71

> <r_mmod_Potential_Energy-OPLS-2005>
15.1045064926147

> <r_mmod_Stretch_Energy-OPLS-2005>
55.118106842041

> <r_mmod_Bend_Energy-OPLS-2005>
130.196395874023

> <r_mmod_Torsional_Energy-OPLS-2005>
278.590301513672

> <r_mmod_Improper_Torsional_Energy-OPLS-2005>
5.20145845413208

> <r_mmod_Van_der_Waal_Energy-OPLS-2005>
173.637786865234

> <r_mmod_Electrostatic_Energy-OPLS-2005>
-425.759307861328

> <r_mmod_Solvation_Energy-OPLS-2005>
-218.425750732422

> <b_mmod_Minimization_Converged-OPLS-2005>
0

> <r_mmod_RMS_Derivative-OPLS-2005>
1.73850440979004

$$$$
71
                    3D
 Structure written by MMmdl.
163171  0  0  1  0            999 V2000
  -30.6207  -14.7343   20.4252 C   0  0  0  0  0  0
  -30.4271  -12.4386   19.4753 C   0  0  0  0  0  0
  -29.5096  -12.4992   18.2350 C   0  0  0  0  0  0
  -28.0342  -12.3334   18.6454 C   0  0  0  0  0  0
  -27.6411  -13.2334   19.8485 C   0  0  2  0  0  0
  -28.6871  -13.1725   20.9837 C   0  0  0  0  0  0
  -25.2512  -13.8207   20.5690 C   0  0  0  0  0  0
  -24.1805  -13.0445   20.9203 C   0  0  0  0  0  0
  -24.6401  -11.6918   20.8740 C   0  0  0  0  0  0
  -23.9084  -10.4294   21.0394 C   0  0  0  0  0  0
  -24.3635   -9.4211   21.9171 C   0  0  0  0  0  0
  -23.6305   -8.2251   22.0742 C   0  0  0  0  0  0
  -22.4285   -8.0285   21.3541 C   0  0  0  0  0  0
  -21.9927   -9.0253   20.4637 C   0  0  0  0  0  0
  -22.7256  -10.2129   20.3042 C   0  0  0  0  0  0
  -21.6866   -6.0732   22.5278 C   0  0  0  0  0  0
  -21.4017   -6.5635   23.8210 C   0  0  0  0  0  0
  -21.3671   -5.6786   24.9176 C   0  0  0  0  0  0
  -21.6050   -4.3046   24.7227 C   0  0  0  0  0  0
  -21.8824   -3.8139   23.4350 C   0  0  0  0  0  0
  -21.9196   -4.6957   22.3403 C   0  0  0  0  0  0
  -22.7830  -13.5216   21.1860 C   0  0  0  0  0  0
  -22.1661   -4.2141   21.0978 F   0  0  0  0  0  0
  -21.5635   -3.4531   25.7740 F   0  0  0  0  0  0
  -29.9906  -13.5105   20.3992 N   0  0  0  0  0  0
  -26.2940  -12.9414   20.3275 N   0  0  0  0  0  0
  -25.9334  -11.6556   20.5749 N   0  0  0  0  0  0
  -22.0491  -12.8185   22.0418 N   0  0  0  0  0  0
  -25.4200  -15.1941   20.4106 N   0  0  0  0  0  0
  -31.8271  -14.7970   20.1766 O   0  0  0  0  0  0
  -21.6656   -6.8876   21.4239 O   0  0  0  0  0  0
  -22.3508  -14.5522   20.6718 O   0  0  0  0  0  0
  -24.6306  -31.8573   23.2006 C   0  0  0  0  0  0
  -25.9130  -32.4777   23.8351 C   0  0  1  0  0  0
  -27.2160  -27.2673   20.1326 C   0  0  0  0  0  0
  -25.5931  -33.8578   24.2279 N   0  0  0  0  0  0
  -23.4279  -30.4816   21.5433 C   0  0  2  0  0  0
  -24.8750  -28.9339   20.1096 C   0  0  0  0  0  0
  -22.7505  -29.4609   22.4907 C   0  0  0  0  0  0
  -18.0296  -28.1391   22.8488 C   0  0  0  0  0  0
  -24.1486  -36.7282   23.2638 C   0  0  0  0  0  0
  -25.9730  -30.7746   21.3784 C   0  0  0  0  0  0
  -26.0468  -29.3968   20.7222 C   0  0  0  0  0  0
  -27.2200  -28.5753   20.7247 C   0  0  0  0  0  0
  -26.0236  -26.8827   19.4758 C   0  0  0  0  0  0
  -24.8688  -27.6847   19.4756 C   0  0  0  0  0  0
  -23.6466  -29.8197   20.1583 C   0  0  0  0  0  0
  -25.4116  -36.3084   24.0330 C   0  0  1  0  0  0
  -20.5900  -28.3702   23.1272 C   0  0  2  0  0  0
  -20.6786  -26.9417   22.5409 C   0  0  0  0  0  0
  -19.5754  -26.6384   21.5218 C   0  0  0  0  0  0
  -18.1938  -26.7934   22.1629 C   0  0  0  0  0  0
  -19.1549  -28.8859   23.2878 C   0  0  0  0  0  0
  -18.9465  -30.1458   23.8900 C   0  0  0  0  0  0
  -17.6463  -30.6590   24.0559 C   0  0  0  0  0  0
  -25.9051  -34.9454   23.5102 C   0  0  0  0  0  0
  -16.5355  -29.9088   23.6326 C   0  0  0  0  0  0
  -16.7281  -28.6505   23.0352 C   0  0  0  0  0  0
  -26.4501  -31.6590   25.0730 C   0  0  0  0  0  0
  -25.3715  -31.3721   26.1436 C   0  0  0  0  0  0
  -27.0349  -30.3021   24.6182 C   0  0  0  0  0  0
  -27.6066  -32.4313   25.7503 C   0  0  0  0  0  0
  -27.5580  -37.1799   24.8467 C   0  0  0  0  0  0
  -21.4210  -29.3052   22.3661 N   0  0  0  0  0  0
  -26.4291  -37.3785   23.9410 N   0  0  0  0  0  0
  -24.6964  -31.0550   22.0980 N   0  0  0  0  0  0
  -23.4203  -28.8136   23.2997 O   0  0  0  0  0  0
  -28.2992  -26.3586   20.2161 O   0  0  0  0  0  0
  -26.5624  -34.8923   22.4672 O   0  0  0  0  0  0
  -23.5455  -32.1382   23.7307 O   0  0  0  0  0  0
  -30.8728  -18.8800   18.3435 C   0  0  0  0  0  0
  -30.3731  -19.9897   19.0438 C   0  0  0  0  0  0
  -29.4922  -18.4556   20.7049 C   0  0  0  0  0  0
  -30.6809  -17.5513   18.7846 C   0  0  0  0  0  0
  -30.0390  -17.2796   20.0339 C   0  0  0  0  0  0
  -29.6144  -19.8243   20.2139 C   0  0  0  0  0  0
  -31.1419  -16.4716   17.8182 C   0  0  0  0  0  0
  -28.0011  -21.9386   18.7811 C   0  0  0  0  0  0
  -29.1668  -23.8436   22.0320 C   0  0  0  0  0  0
  -30.3714  -23.8693   19.8396 C   0  0  0  0  0  0
  -28.0197  -24.8931   20.0187 C   0  0  0  0  0  0
  -28.4573  -22.1741   20.2363 C   0  0  2  0  0  0
  -28.9973  -23.6914   20.5101 C   0  0  0  0  0  0
  -29.8428  -15.8829   20.5371 N   0  0  0  0  0  0
  -29.1003  -20.9736   20.8806 O   0  0  0  0  0  0
  -31.4708  -12.5481   19.1753 H   0  0  0  0  0  0
  -30.3542  -11.4637   19.9595 H   0  0  0  0  0  0
  -29.7899  -11.7252   17.5193 H   0  0  0  0  0  0
  -29.6426  -13.4504   17.7199 H   0  0  0  0  0  0
  -27.8846  -11.2837   18.9031 H   0  0  0  0  0  0
  -27.3820  -12.5332   17.7943 H   0  0  0  0  0  0
  -27.6328  -14.2553   19.4676 H   0  0  0  0  0  0
  -28.7162  -12.1793   21.4336 H   0  0  0  0  0  0
  -28.4280  -13.8655   21.7858 H   0  0  0  0  0  0
  -25.2780   -9.5695   22.4743 H   0  0  0  0  0  0
  -24.0024   -7.4648   22.7460 H   0  0  0  0  0  0
  -21.0866   -8.8772   19.8935 H   0  0  0  0  0  0
  -22.3719  -10.9671   19.6148 H   0  0  0  0  0  0
  -21.2001   -7.6139   23.9709 H   0  0  0  0  0  0
  -21.1493   -6.0515   25.9078 H   0  0  0  0  0  0
  -22.0591   -2.7599   23.2853 H   0  0  0  0  0  0
  -22.4120  -11.9857   22.4819 H   0  0  0  0  0  0
  -21.1096  -13.1171   22.2606 H   0  0  0  0  0  0
  -24.6492  -15.8453   20.5154 H   0  0  0  0  0  0
  -26.2636  -15.6368   20.0699 H   0  0  0  0  0  0
  -26.7196  -32.5441   23.1094 H   0  0  0  0  0  0
  -25.0082  -33.9722   25.0427 H   0  0  0  0  0  0
  -22.7239  -31.3034   21.3990 H   0  0  0  0  0  0
  -23.3764  -35.9596   23.3292 H   0  0  0  0  0  0
  -24.3577  -36.8913   22.2053 H   0  0  0  0  0  0
  -23.7213  -37.6469   23.6664 H   0  0  0  0  0  0
  -26.1036  -31.5336   20.6060 H   0  0  0  0  0  0
  -26.8539  -30.8305   22.0062 H   0  0  0  0  0  0
  -28.1128  -28.9202   21.2273 H   0  0  0  0  0  0
  -25.9436  -25.9332   18.9687 H   0  0  0  0  0  0
  -23.9735  -27.3275   18.9858 H   0  0  0  0  0  0
  -23.7733  -30.5976   19.4042 H   0  0  0  0  0  0
  -22.7656  -29.2539   19.8506 H   0  0  0  0  0  0
  -25.1296  -36.1937   25.0824 H   0  0  0  0  0  0
  -21.0001  -28.3282   24.1389 H   0  0  0  0  0  0
  -20.5696  -26.2312   23.3617 H   0  0  0  0  0  0
  -21.6651  -26.7449   22.1193 H   0  0  0  0  0  0
  -19.6914  -25.6291   21.1254 H   0  0  0  0  0  0
  -19.6692  -27.3191   20.6747 H   0  0  0  0  0  0
  -17.4210  -26.6687   21.4029 H   0  0  0  0  0  0
  -18.0329  -26.0077   22.9023 H   0  0  0  0  0  0
  -19.7938  -30.7278   24.2276 H   0  0  0  0  0  0
  -17.5012  -31.6275   24.5154 H   0  0  0  0  0  0
  -15.5354  -30.2985   23.7648 H   0  0  0  0  0  0
  -15.8684  -28.0821   22.7064 H   0  0  0  0  0  0
  -24.5908  -30.7063   25.7740 H   0  0  0  0  0  0
  -24.8881  -32.2878   26.4847 H   0  0  0  0  0  0
  -25.8019  -30.8896   27.0219 H   0  0  0  0  0  0
  -26.2930  -29.6770   24.1199 H   0  0  0  0  0  0
  -27.4051  -29.7281   25.4683 H   0  0  0  0  0  0
  -27.8795  -30.4325   23.9414 H   0  0  0  0  0  0
  -27.2704  -33.3628   26.2065 H   0  0  0  0  0  0
  -28.3890  -32.6838   25.0335 H   0  0  0  0  0  0
  -28.0711  -31.8431   26.5424 H   0  0  0  0  0  0
  -28.2597  -38.0100   24.7531 H   0  0  0  0  0  0
  -28.1079  -36.2633   24.6279 H   0  0  0  0  0  0
  -27.2296  -37.1432   25.8870 H   0  0  0  0  0  0
  -20.9391  -29.8787   21.6878 H   0  0  0  0  0  0
  -26.0171  -38.2857   24.1424 H   0  0  0  0  0  0
  -31.4011  -19.0668   17.4182 H   0  0  0  0  0  0
  -30.5761  -20.9792   18.6634 H   0  0  0  0  0  0
  -28.9499  -18.3077   21.6277 H   0  0  0  0  0  0
  -31.1618  -16.8486   16.7951 H   0  0  0  0  0  0
  -30.4655  -15.6199   17.8148 H   0  0  0  0  0  0
  -32.1507  -16.1355   18.0578 H   0  0  0  0  0  0
  -27.1894  -22.6135   18.5129 H   0  0  0  0  0  0
  -27.6169  -20.9282   18.6394 H   0  0  0  0  0  0
  -28.7986  -22.1053   18.0596 H   0  0  0  0  0  0
  -29.5197  -24.8412   22.2963 H   0  0  0  0  0  0
  -29.8846  -23.1239   22.4265 H   0  0  0  0  0  0
  -28.2216  -23.6834   22.5530 H   0  0  0  0  0  0
  -30.8054  -24.8382   20.0871 H   0  0  0  0  0  0
  -30.3003  -23.8184   18.7530 H   0  0  0  0  0  0
  -31.0746  -23.1013   20.1647 H   0  0  0  0  0  0
  -27.0568  -24.6810   20.4857 H   0  0  0  0  0  0
  -27.8659  -24.7673   18.9475 H   0  0  0  0  0  0
  -27.5080  -22.1654   20.7738 H   0  0  0  0  0  0
  -28.9326  -15.7079   20.9342 H   0  0  0  0  0  0
  1 25  1  0  0  0
  1 30  2  0  0  0
  1 84  1  0  0  0
  2  3  1  0  0  0
  2 25  1  0  0  0
  2 86  1  0  0  0
  2 87  1  0  0  0
  3  4  1  0  0  0
  3 88  1  0  0  0
  3 89  1  0  0  0
  4  5  1  0  0  0
  4 90  1  0  0  0
  4 91  1  0  0  0
  5  6  1  0  0  0
  5 26  1  0  0  0
  5 92  1  0  0  0
  6 25  1  0  0  0
  6 93  1  0  0  0
  6 94  1  0  0  0
  7  8  2  0  0  0
  7 26  1  0  0  0
  7 29  1  0  0  0
  8  9  1  0  0  0
  8 22  1  0  0  0
  9 10  1  0  0  0
  9 27  2  0  0  0
 10 11  2  0  0  0
 10 15  1  0  0  0
 11 12  1  0  0  0
 11 95  1  0  0  0
 12 13  2  0  0  0
 12 96  1  0  0  0
 13 14  1  0  0  0
 13 31  1  0  0  0
 14 15  2  0  0  0
 14 97  1  0  0  0
 15 98  1  0  0  0
 16 17  2  0  0  0
 16 21  1  0  0  0
 16 31  1  0  0  0
 17 18  1  0  0  0
 17 99  1  0  0  0
 18 19  2  0  0  0
 18100  1  0  0  0
 19 20  1  0  0  0
 19 24  1  0  0  0
 20 21  2  0  0  0
 20101  1  0  0  0
 21 23  1  0  0  0
 22 28  1  0  0  0
 22 32  2  0  0  0
 26 27  1  0  0  0
 28102  1  0  0  0
 28103  1  0  0  0
 29104  1  0  0  0
 29105  1  0  0  0
 33 34  1  0  0  0
 33 66  1  0  0  0
 33 70  2  0  0  0
 34 36  1  0  0  0
 34 59  1  0  0  0
 34106  1  0  0  0
 35 44  2  0  0  0
 35 45  1  0  0  0
 35 68  1  0  0  0
 36 56  1  0  0  0
 36107  1  0  0  0
 37 39  1  0  0  0
 37 47  1  0  0  0
 37 66  1  0  0  0
 37108  1  0  0  0
 38 43  2  0  0  0
 38 46  1  0  0  0
 38 47  1  0  0  0
 39 64  1  0  0  0
 39 67  2  0  0  0
 40 52  1  0  0  0
 40 53  2  0  0  0
 40 58  1  0  0  0
 41109  1  0  0  0
 41110  1  0  0  0
 41111  1  0  0  0
 41 48  1  0  0  0
 42 43  1  0  0  0
 42 66  1  0  0  0
 42112  1  0  0  0
 42113  1  0  0  0
 43 44  1  0  0  0
 44114  1  0  0  0
 45 46  2  0  0  0
 45115  1  0  0  0
 46116  1  0  0  0
 47117  1  0  0  0
 47118  1  0  0  0
 48 56  1  0  0  0
 48 65  1  0  0  0
 48119  1  0  0  0
 49 50  1  0  0  0
 49 53  1  0  0  0
 49 64  1  0  0  0
 49120  1  0  0  0
 50 51  1  0  0  0
 50121  1  0  0  0
 50122  1  0  0  0
 51 52  1  0  0  0
 51123  1  0  0  0
 51124  1  0  0  0
 52125  1  0  0  0
 52126  1  0  0  0
 53 54  1  0  0  0
 54 55  2  0  0  0
 54127  1  0  0  0
 55 57  1  0  0  0
 55128  1  0  0  0
 56 69  2  0  0  0
 57 58  2  0  0  0
 57129  1  0  0  0
 58130  1  0  0  0
 59 60  1  0  0  0
 59 61  1  0  0  0
 59 62  1  0  0  0
 60131  1  0  0  0
 60132  1  0  0  0
 60133  1  0  0  0
 61134  1  0  0  0
 61135  1  0  0  0
 61136  1  0  0  0
 62137  1  0  0  0
 62138  1  0  0  0
 62139  1  0  0  0
 63 65  1  0  0  0
 63140  1  0  0  0
 63141  1  0  0  0
 63142  1  0  0  0
 64143  1  0  0  0
 65144  1  0  0  0
 68 81  1  0  0  0
 71 72  2  0  0  0
 71 74  1  0  0  0
 71145  1  0  0  0
 72 76  1  0  0  0
 72146  1  0  0  0
 73 75  1  0  0  0
 73 76  2  0  0  0
 73147  1  0  0  0
 74 75  2  0  0  0
 74 77  1  0  0  0
 75 84  1  0  0  0
 76 85  1  0  0  0
 77148  1  0  0  0
 77149  1  0  0  0
 77150  1  0  0  0
 78151  1  0  0  0
 78152  1  0  0  0
 78153  1  0  0  0
 78 82  1  0  0  0
 79154  1  0  0  0
 79155  1  0  0  0
 79156  1  0  0  0
 79 83  1  0  0  0
 80 83  1  0  0  0
 80157  1  0  0  0
 80158  1  0  0  0
 80159  1  0  0  0
 81 83  1  0  0  0
 81160  1  0  0  0
 81161  1  0  0  0
 82 83  1  0  0  0
 82 85  1  0  0  0
 82162  1  0  0  0
 84163  1  0  0  0
M  ISO  4   1 100  68 101  81 101  84 100
M  END
> <chiral flag>
0

> <version>
0

> <s_m_source_file>
/data/baiqing/PycharmProjects/Reinvent-master-3.2/result/LINK_invent/BTK/process_docking_weight1_custom_product_contain_oxygen_bond_distance_aromatic_linkinvent_7_9_3/rearranged_h_0140.sdf

> <i_m_source_file_index>
72

> <r_mmod_Potential_Energy-OPLS-2005>
233.26057434082

> <r_mmod_Stretch_Energy-OPLS-2005>
133.317749023438

> <r_mmod_Bend_Energy-OPLS-2005>
192.73405456543

> <r_mmod_Torsional_Energy-OPLS-2005>
263.224639892578

> <r_mmod_Improper_Torsional_Energy-OPLS-2005>
5.13665580749512

> <r_mmod_Van_der_Waal_Energy-OPLS-2005>
148.002792358398

> <r_mmod_Electrostatic_Energy-OPLS-2005>
-391.737670898438

> <r_mmod_Solvation_Energy-OPLS-2005>
-203.048980712891

> <b_mmod_Minimization_Converged-OPLS-2005>
0

> <r_mmod_RMS_Derivative-OPLS-2005>
1.57606506347656

$$$$
72
                    3D
 Structure written by MMmdl.
174182  0  0  1  0            999 V2000
  -30.6674  -14.5734   20.5856 C   0  0  0  0  0  0
  -30.4383  -12.3696   19.4503 C   0  0  0  0  0  0
  -29.5119  -12.5142   18.2235 C   0  0  0  0  0  0
  -28.0354  -12.3406   18.6296 C   0  0  0  0  0  0
  -27.6573  -13.1999   19.8637 C   0  0  2  0  0  0
  -28.6981  -13.0306   20.9982 C   0  0  0  0  0  0
  -25.2426  -13.7928   20.5505 C   0  0  0  0  0  0
  -24.1765  -13.0251   20.9196 C   0  0  0  0  0  0
  -24.6386  -11.6765   20.8768 C   0  0  0  0  0  0
  -23.9068  -10.4179   21.0438 C   0  0  0  0  0  0
  -24.3613   -9.4114   21.9222 C   0  0  0  0  0  0
  -23.6266   -8.2178   22.0792 C   0  0  0  0  0  0
  -22.4258   -8.0246   21.3569 C   0  0  0  0  0  0
  -21.9894   -9.0209   20.4676 C   0  0  0  0  0  0
  -22.7244  -10.2065   20.3078 C   0  0  0  0  0  0
  -21.6828   -6.0712   22.5275 C   0  0  0  0  0  0
  -21.3975   -6.5620   23.8203 C   0  0  0  0  0  0
  -21.3664   -5.6779   24.9176 C   0  0  0  0  0  0
  -21.6063   -4.3044   24.7226 C   0  0  0  0  0  0
  -21.8818   -3.8127   23.4344 C   0  0  0  0  0  0
  -21.9179   -4.6942   22.3397 C   0  0  0  0  0  0
  -22.7800  -13.5116   21.1856 C   0  0  0  0  0  0
  -22.1656   -4.2135   21.0975 F   0  0  0  0  0  0
  -21.5660   -3.4535   25.7740 F   0  0  0  0  0  0
  -30.0315  -13.3655   20.4623 N   0  0  0  0  0  0
  -26.2970  -12.9209   20.3250 N   0  0  0  0  0  0
  -25.9322  -11.6379   20.5773 N   0  0  0  0  0  0
  -22.0411  -12.8181   22.0438 N   0  0  0  0  0  0
  -25.3738  -15.1556   20.3574 N   0  0  0  0  0  0
  -31.7541  -14.8006   20.0452 O   0  0  0  0  0  0
  -21.6612   -6.8854   21.4245 O   0  0  0  0  0  0
  -22.3537  -14.5452   20.6707 O   0  0  0  0  0  0
  -24.6174  -31.8637   23.2051 C   0  0  0  0  0  0
  -25.9050  -32.4803   23.8369 C   0  0  1  0  0  0
  -27.2530  -27.3982   20.1212 C   0  0  0  0  0  0
  -25.5887  -33.8601   24.2308 N   0  0  0  0  0  0
  -23.4090  -30.4823   21.5457 C   0  0  2  0  0  0
  -24.8614  -28.9340   20.1220 C   0  0  0  0  0  0
  -22.7427  -29.4633   22.4982 C   0  0  0  0  0  0
  -18.0274  -28.1379   22.8490 C   0  0  0  0  0  0
  -24.1480  -36.7301   23.2640 C   0  0  0  0  0  0
  -25.9392  -30.8214   21.3600 C   0  0  0  0  0  0
  -26.0216  -29.4494   20.7133 C   0  0  0  0  0  0
  -27.2206  -28.6937   20.6987 C   0  0  0  0  0  0
  -26.0729  -26.8981   19.5305 C   0  0  0  0  0  0
  -24.8842  -27.6596   19.5245 C   0  0  0  0  0  0
  -23.6219  -29.8041   20.1650 C   0  0  0  0  0  0
  -25.4104  -36.3102   24.0340 C   0  0  1  0  0  0
  -20.5866  -28.3666   23.1313 C   0  0  2  0  0  0
  -20.6765  -26.9398   22.5419 C   0  0  0  0  0  0
  -19.5744  -26.6380   21.5213 C   0  0  0  0  0  0
  -18.1921  -26.7926   22.1621 C   0  0  0  0  0  0
  -19.1526  -28.8841   23.2896 C   0  0  0  0  0  0
  -18.9454  -30.1447   23.8911 C   0  0  0  0  0  0
  -17.6454  -30.6584   24.0567 C   0  0  0  0  0  0
  -25.9035  -34.9466   23.5127 C   0  0  0  0  0  0
  -16.5345  -29.9085   23.6326 C   0  0  0  0  0  0
  -16.7262  -28.6501   23.0349 C   0  0  0  0  0  0
  -26.4468  -31.6591   25.0706 C   0  0  0  0  0  0
  -25.3730  -31.3703   26.1455 C   0  0  0  0  0  0
  -27.0306  -30.3034   24.6090 C   0  0  0  0  0  0
  -27.6045  -32.4311   25.7467 C   0  0  0  0  0  0
  -27.5577  -37.1807   24.8465 C   0  0  0  0  0  0
  -21.4150  -29.3024   22.3717 N   0  0  0  0  0  0
  -26.4288  -37.3789   23.9410 N   0  0  0  0  0  0
  -24.6735  -31.0715   22.0958 N   0  0  0  0  0  0
  -23.4182  -28.8191   23.3049 O   0  0  0  0  0  0
  -28.4360  -26.6763   20.0897 O   0  0  0  0  0  0
  -26.5605  -34.8925   22.4696 O   0  0  0  0  0  0
  -23.5357  -32.1393   23.7433 O   0  0  0  0  0  0
  -28.3574  -19.3741   20.5937 C   0  0  0  0  0  0
  -28.2387  -16.9522   20.6259 C   0  0  0  0  0  0
  -30.3400  -18.0467   21.1396 C   0  0  0  0  0  0
  -27.6113  -18.1965   20.4193 C   0  0  0  0  0  0
  -29.7124  -19.3301   20.9711 C   0  0  0  0  0  0
  -29.5986  -16.8341   20.9712 C   0  0  0  0  0  0
  -25.4913  -19.6303   19.9223 C   0  0  0  0  0  0
  -31.4576  -23.2837   22.3385 C   0  0  0  0  0  0
  -28.9937  -23.2425   22.7156 C   0  0  0  0  0  0
  -30.6633  -24.7591   19.5025 C   0  0  0  0  0  0
  -30.5882  -25.9157   21.6975 C   0  0  0  0  0  0
  -26.1212  -18.2386   20.0929 C   0  0  0  0  0  0
  -30.4002  -20.6562   21.3792 C   0  0  0  0  0  0
  -29.9745  -22.0438   20.7150 C   0  0  0  0  0  0
  -28.4470  -25.3022   20.5702 C   0  0  0  0  0  0
  -30.0780  -23.3529   21.6166 C   0  0  0  0  0  0
  -29.9211  -24.7864   20.8558 C   0  0  0  0  0  0
  -30.0383  -15.5065   21.3474 N   0  0  0  0  0  0
  -31.4811  -12.4862   19.1516 H   0  0  0  0  0  0
  -30.3612  -11.3653   19.8690 H   0  0  0  0  0  0
  -29.7795  -11.7807   17.4612 H   0  0  0  0  0  0
  -29.6584  -13.4932   17.7664 H   0  0  0  0  0  0
  -27.8722  -11.2849   18.8503 H   0  0  0  0  0  0
  -27.3851  -12.5802   17.7872 H   0  0  0  0  0  0
  -27.6833  -14.2308   19.5195 H   0  0  0  0  0  0
  -28.6984  -12.0001   21.3567 H   0  0  0  0  0  0
  -28.4243  -13.6355   21.8629 H   0  0  0  0  0  0
  -25.2764   -9.5563   22.4806 H   0  0  0  0  0  0
  -23.9937   -7.4566   22.7529 H   0  0  0  0  0  0
  -21.0818   -8.8741   19.8998 H   0  0  0  0  0  0
  -22.3731  -10.9604   19.6182 H   0  0  0  0  0  0
  -21.1927   -7.6117   23.9697 H   0  0  0  0  0  0
  -21.1512   -6.0517   25.9082 H   0  0  0  0  0  0
  -22.0592   -2.7586   23.2845 H   0  0  0  0  0  0
  -22.3937  -11.9817   22.4844 H   0  0  0  0  0  0
  -21.1062  -13.1311   22.2640 H   0  0  0  0  0  0
  -24.5567  -15.7546   20.4064 H   0  0  0  0  0  0
  -26.1402  -15.5698   19.8469 H   0  0  0  0  0  0
  -26.7126  -32.5518   23.1138 H   0  0  0  0  0  0
  -25.0033  -33.9749   25.0452 H   0  0  0  0  0  0
  -22.6986  -31.2990   21.3998 H   0  0  0  0  0  0
  -23.3743  -35.9633   23.3311 H   0  0  0  0  0  0
  -24.3572  -36.8907   22.2052 H   0  0  0  0  0  0
  -23.7231  -37.6507   23.6652 H   0  0  0  0  0  0
  -26.0514  -31.5837   20.5879 H   0  0  0  0  0  0
  -26.8263  -30.8818   21.9790 H   0  0  0  0  0  0
  -28.1208  -29.0947   21.1433 H   0  0  0  0  0  0
  -26.0741  -25.9241   19.0622 H   0  0  0  0  0  0
  -23.9934  -27.2563   19.0626 H   0  0  0  0  0  0
  -23.7312  -30.5724   19.3987 H   0  0  0  0  0  0
  -22.7460  -29.2219   19.8725 H   0  0  0  0  0  0
  -25.1282  -36.1964   25.0832 H   0  0  0  0  0  0
  -20.9955  -28.3236   24.1434 H   0  0  0  0  0  0
  -20.5660  -26.2274   23.3606 H   0  0  0  0  0  0
  -21.6641  -26.7432   22.1224 H   0  0  0  0  0  0
  -19.6905  -25.6295   21.1229 H   0  0  0  0  0  0
  -19.6681  -27.3198   20.6749 H   0  0  0  0  0  0
  -17.4191  -26.6672   21.4023 H   0  0  0  0  0  0
  -18.0313  -26.0066   22.9011 H   0  0  0  0  0  0
  -19.7929  -30.7258   24.2288 H   0  0  0  0  0  0
  -17.5009  -31.6264   24.5164 H   0  0  0  0  0  0
  -15.5348  -30.2992   23.7646 H   0  0  0  0  0  0
  -15.8657  -28.0822   22.7064 H   0  0  0  0  0  0
  -24.5890  -30.7067   25.7786 H   0  0  0  0  0  0
  -24.8937  -32.2862   26.4924 H   0  0  0  0  0  0
  -25.8075  -30.8849   27.0203 H   0  0  0  0  0  0
  -26.2856  -29.6792   24.1141 H   0  0  0  0  0  0
  -27.4074  -29.7272   25.4550 H   0  0  0  0  0  0
  -27.8685  -30.4354   23.9242 H   0  0  0  0  0  0
  -27.2672  -33.3606   26.2065 H   0  0  0  0  0  0
  -28.3842  -32.6878   25.0284 H   0  0  0  0  0  0
  -28.0725  -31.8422   26.5364 H   0  0  0  0  0  0
  -28.2609  -38.0092   24.7514 H   0  0  0  0  0  0
  -28.1062  -36.2630   24.6292 H   0  0  0  0  0  0
  -27.2299  -37.1460   25.8870 H   0  0  0  0  0  0
  -20.9324  -29.8730   21.6917 H   0  0  0  0  0  0
  -26.0176  -38.2867   24.1412 H   0  0  0  0  0  0
  -27.8552  -20.3217   20.5115 H   0  0  0  0  0  0
  -27.6474  -16.0609   20.5805 H   0  0  0  0  0  0
  -31.3640  -17.9956   21.4823 H   0  0  0  0  0  0
  -24.4255  -19.5421   19.7102 H   0  0  0  0  0  0
  -25.9440  -20.1810   19.0972 H   0  0  0  0  0  0
  -25.5884  -20.2260   20.8306 H   0  0  0  0  0  0
  -31.6337  -22.3422   22.8535 H   0  0  0  0  0  0
  -31.5520  -24.0264   23.1305 H   0  0  0  0  0  0
  -32.2875  -23.4219   21.6452 H   0  0  0  0  0  0
  -29.1578  -22.3936   23.3782 H   0  0  0  0  0  0
  -27.9992  -23.1149   22.2868 H   0  0  0  0  0  0
  -28.9656  -24.1269   23.3518 H   0  0  0  0  0  0
  -30.6928  -25.7487   19.0442 H   0  0  0  0  0  0
  -30.1726  -24.1021   18.7851 H   0  0  0  0  0  0
  -31.6959  -24.4284   19.6111 H   0  0  0  0  0  0
  -30.4718  -26.9033   21.2524 H   0  0  0  0  0  0
  -31.6669  -25.7907   21.7859 H   0  0  0  0  0  0
  -30.1708  -25.9765   22.7019 H   0  0  0  0  0  0
  -25.5908  -17.7305   20.8982 H   0  0  0  0  0  0
  -25.9542  -17.6588   19.1845 H   0  0  0  0  0  0
  -31.4780  -20.5298   21.2714 H   0  0  0  0  0  0
  -30.2256  -20.7023   22.4521 H   0  0  0  0  0  0
  -28.9591  -22.0193   20.3305 H   0  0  0  0  0  0
  -30.5935  -22.1428   19.8247 H   0  0  0  0  0  0
  -27.8511  -25.2775   21.4822 H   0  0  0  0  0  0
  -27.9507  -24.6476   19.8529 H   0  0  0  0  0  0
  -29.3393  -15.0352   21.9009 H   0  0  0  0  0  0
  1 25  1  0  0  0
  1 30  2  0  0  0
  1 88  1  0  0  0
  2  3  1  0  0  0
  2 25  1  0  0  0
  2 89  1  0  0  0
  2 90  1  0  0  0
  3  4  1  0  0  0
  3 91  1  0  0  0
  3 92  1  0  0  0
  4  5  1  0  0  0
  4 93  1  0  0  0
  4 94  1  0  0  0
  5  6  1  0  0  0
  5 26  1  0  0  0
  5 95  1  0  0  0
  6 25  1  0  0  0
  6 96  1  0  0  0
  6 97  1  0  0  0
  7  8  2  0  0  0
  7 26  1  0  0  0
  7 29  1  0  0  0
  8  9  1  0  0  0
  8 22  1  0  0  0
  9 10  1  0  0  0
  9 27  2  0  0  0
 10 11  2  0  0  0
 10 15  1  0  0  0
 11 12  1  0  0  0
 11 98  1  0  0  0
 12 13  2  0  0  0
 12 99  1  0  0  0
 13 14  1  0  0  0
 13 31  1  0  0  0
 14 15  2  0  0  0
 14100  1  0  0  0
 15101  1  0  0  0
 16 17  2  0  0  0
 16 21  1  0  0  0
 16 31  1  0  0  0
 17 18  1  0  0  0
 17102  1  0  0  0
 18 19  2  0  0  0
 18103  1  0  0  0
 19 20  1  0  0  0
 19 24  1  0  0  0
 20 21  2  0  0  0
 20104  1  0  0  0
 21 23  1  0  0  0
 22 28  1  0  0  0
 22 32  2  0  0  0
 26 27  1  0  0  0
 28105  1  0  0  0
 28106  1  0  0  0
 29107  1  0  0  0
 29108  1  0  0  0
 33 34  1  0  0  0
 33 66  1  0  0  0
 33 70  2  0  0  0
 34 36  1  0  0  0
 34 59  1  0  0  0
 34109  1  0  0  0
 35 44  2  0  0  0
 35 45  1  0  0  0
 35 68  1  0  0  0
 36 56  1  0  0  0
 36110  1  0  0  0
 37 39  1  0  0  0
 37 47  1  0  0  0
 37 66  1  0  0  0
 37111  1  0  0  0
 38 43  2  0  0  0
 38 46  1  0  0  0
 38 47  1  0  0  0
 39 64  1  0  0  0
 39 67  2  0  0  0
 40 52  1  0  0  0
 40 53  2  0  0  0
 40 58  1  0  0  0
 41112  1  0  0  0
 41113  1  0  0  0
 41114  1  0  0  0
 41 48  1  0  0  0
 42 43  1  0  0  0
 42 66  1  0  0  0
 42115  1  0  0  0
 42116  1  0  0  0
 43 44  1  0  0  0
 44117  1  0  0  0
 45 46  2  0  0  0
 45118  1  0  0  0
 46119  1  0  0  0
 47120  1  0  0  0
 47121  1  0  0  0
 48 56  1  0  0  0
 48 65  1  0  0  0
 48122  1  0  0  0
 49 50  1  0  0  0
 49 53  1  0  0  0
 49 64  1  0  0  0
 49123  1  0  0  0
 50 51  1  0  0  0
 50124  1  0  0  0
 50125  1  0  0  0
 51 52  1  0  0  0
 51126  1  0  0  0
 51127  1  0  0  0
 52128  1  0  0  0
 52129  1  0  0  0
 53 54  1  0  0  0
 54 55  2  0  0  0
 54130  1  0  0  0
 55 57  1  0  0  0
 55131  1  0  0  0
 56 69  2  0  0  0
 57 58  2  0  0  0
 57132  1  0  0  0
 58133  1  0  0  0
 59 60  1  0  0  0
 59 61  1  0  0  0
 59 62  1  0  0  0
 60134  1  0  0  0
 60135  1  0  0  0
 60136  1  0  0  0
 61137  1  0  0  0
 61138  1  0  0  0
 61139  1  0  0  0
 62140  1  0  0  0
 62141  1  0  0  0
 62142  1  0  0  0
 63 65  1  0  0  0
 63143  1  0  0  0
 63144  1  0  0  0
 63145  1  0  0  0
 64146  1  0  0  0
 65147  1  0  0  0
 68 85  1  0  0  0
 71 74  2  0  0  0
 71 75  1  0  0  0
 71148  1  0  0  0
 72 74  1  0  0  0
 72 76  2  0  0  0
 72149  1  0  0  0
 73 75  2  0  0  0
 73 76  1  0  0  0
 73150  1  0  0  0
 74 82  1  0  0  0
 75 83  1  0  0  0
 76 88  1  0  0  0
 77 82  1  0  0  0
 77151  1  0  0  0
 77152  1  0  0  0
 77153  1  0  0  0
 78154  1  0  0  0
 78155  1  0  0  0
 78156  1  0  0  0
 78 86  1  0  0  0
 79 86  1  0  0  0
 79157  1  0  0  0
 79158  1  0  0  0
 79159  1  0  0  0
 80160  1  0  0  0
 80161  1  0  0  0
 80162  1  0  0  0
 80 87  1  0  0  0
 81 87  1  0  0  0
 81163  1  0  0  0
 81164  1  0  0  0
 81165  1  0  0  0
 82166  1  0  0  0
 82167  1  0  0  0
 83 84  1  0  0  0
 83168  1  0  0  0
 83169  1  0  0  0
 84 86  1  0  0  0
 84170  1  0  0  0
 84171  1  0  0  0
 85 87  1  0  0  0
 85172  1  0  0  0
 85173  1  0  0  0
 86 87  1  0  0  0
 88174  1  0  0  0
M  ISO  4   1 100  68 101  85 101  88 100
M  END
> <chiral flag>
0

> <version>
0

> <s_m_source_file>
/data/baiqing/PycharmProjects/Reinvent-master-3.2/result/LINK_invent/BTK/process_docking_weight1_custom_product_contain_oxygen_bond_distance_aromatic_linkinvent_7_9_3/rearranged_h_0140.sdf

> <i_m_source_file_index>
73

> <r_mmod_Potential_Energy-OPLS-2005>
143.0693359375

> <r_mmod_Stretch_Energy-OPLS-2005>
75.6076278686523

> <r_mmod_Bend_Energy-OPLS-2005>
148.081771850586

> <r_mmod_Torsional_Energy-OPLS-2005>
300.736480712891

> <r_mmod_Improper_Torsional_Energy-OPLS-2005>
9.66284561157227

> <r_mmod_Van_der_Waal_Energy-OPLS-2005>
169.611618041992

> <r_mmod_Electrostatic_Energy-OPLS-2005>
-401.30615234375

> <r_mmod_Solvation_Energy-OPLS-2005>
-183.8095703125

> <b_mmod_Minimization_Converged-OPLS-2005>
0

> <r_mmod_RMS_Derivative-OPLS-2005>
1.61210787296295

$$$$
73
                    3D
 Structure written by MMmdl.
158167  0  0  1  0            999 V2000
  -30.5822  -14.7525   20.4949 C   0  0  0  0  0  0
  -30.4494  -12.4603   19.4786 C   0  0  0  0  0  0
  -29.5186  -12.4980   18.2444 C   0  0  0  0  0  0
  -28.0457  -12.3169   18.6605 C   0  0  0  0  0  0
  -27.6500  -13.2218   19.8568 C   0  0  2  0  0  0
  -28.6924  -13.1379   20.9925 C   0  0  0  0  0  0
  -25.2567  -13.8176   20.5693 C   0  0  0  0  0  0
  -24.1828  -13.0442   20.9183 C   0  0  0  0  0  0
  -24.6396  -11.6912   20.8736 C   0  0  0  0  0  0
  -23.9068  -10.4288   21.0408 C   0  0  0  0  0  0
  -24.3614   -9.4206   21.9189 C   0  0  0  0  0  0
  -23.6286   -8.2245   22.0759 C   0  0  0  0  0  0
  -22.4274   -8.0280   21.3544 C   0  0  0  0  0  0
  -21.9914   -9.0251   20.4639 C   0  0  0  0  0  0
  -22.7244  -10.2129   20.3052 C   0  0  0  0  0  0
  -21.6852   -6.0737   22.5274 C   0  0  0  0  0  0
  -21.4005   -6.5635   23.8203 C   0  0  0  0  0  0
  -21.3652   -5.6792   24.9163 C   0  0  0  0  0  0
  -21.6048   -4.3056   24.7213 C   0  0  0  0  0  0
  -21.8824   -3.8147   23.4335 C   0  0  0  0  0  0
  -21.9190   -4.6967   22.3395 C   0  0  0  0  0  0
  -22.7849  -13.5230   21.1848 C   0  0  0  0  0  0
  -22.1664   -4.2156   21.0972 F   0  0  0  0  0  0
  -21.5632   -3.4538   25.7726 F   0  0  0  0  0  0
  -29.9954  -13.5062   20.4256 N   0  0  0  0  0  0
  -26.2985  -12.9360   20.3303 N   0  0  0  0  0  0
  -25.9330  -11.6516   20.5764 N   0  0  0  0  0  0
  -22.0487  -12.8210   22.0385 N   0  0  0  0  0  0
  -25.4316  -15.1890   20.4113 N   0  0  0  0  0  0
  -31.7399  -14.8855   20.0856 O   0  0  0  0  0  0
  -21.6641   -6.8880   21.4240 O   0  0  0  0  0  0
  -22.3536  -14.5544   20.6699 O   0  0  0  0  0  0
  -24.6289  -31.8541   23.1941 C   0  0  0  0  0  0
  -25.9120  -32.4744   23.8297 C   0  0  1  0  0  0
  -27.2389  -27.2765   20.1160 C   0  0  0  0  0  0
  -25.5935  -33.8545   24.2220 N   0  0  0  0  0  0
  -23.4247  -30.4713   21.5379 C   0  0  2  0  0  0
  -24.8760  -28.9157   20.1062 C   0  0  0  0  0  0
  -22.7506  -29.4566   22.4923 C   0  0  0  0  0  0
  -18.0295  -28.1374   22.8486 C   0  0  0  0  0  0
  -24.1471  -36.7279   23.2632 C   0  0  0  0  0  0
  -25.9659  -30.7721   21.3667 C   0  0  0  0  0  0
  -26.0414  -29.3913   20.7175 C   0  0  0  0  0  0
  -27.2198  -28.5797   20.7178 C   0  0  0  0  0  0
  -26.0455  -26.8572   19.4888 C   0  0  0  0  0  0
  -24.8821  -27.6558   19.4846 C   0  0  0  0  0  0
  -23.6407  -29.7961   20.1561 C   0  0  0  0  0  0
  -25.4092  -36.3051   24.0307 C   0  0  1  0  0  0
  -20.5898  -28.3660   23.1291 C   0  0  2  0  0  0
  -20.6765  -26.9378   22.5408 C   0  0  0  0  0  0
  -19.5731  -26.6373   21.5212 C   0  0  0  0  0  0
  -18.1914  -26.7915   22.1618 C   0  0  0  0  0  0
  -19.1551  -28.8836   23.2884 C   0  0  0  0  0  0
  -18.9472  -30.1446   23.8881 C   0  0  0  0  0  0
  -17.6470  -30.6565   24.0567 C   0  0  0  0  0  0
  -25.9052  -34.9434   23.5061 C   0  0  0  0  0  0
  -16.5363  -29.9053   23.6350 C   0  0  0  0  0  0
  -16.7285  -28.6489   23.0340 C   0  0  0  0  0  0
  -26.4502  -31.6584   25.0686 C   0  0  0  0  0  0
  -25.3729  -31.3726   26.1419 C   0  0  0  0  0  0
  -27.0359  -30.3017   24.6109 C   0  0  0  0  0  0
  -27.6030  -32.4346   25.7489 C   0  0  0  0  0  0
  -27.5556  -37.1782   24.8458 C   0  0  0  0  0  0
  -21.4213  -29.3026   22.3705 N   0  0  0  0  0  0
  -26.4251  -37.3771   23.9427 N   0  0  0  0  0  0
  -24.6925  -31.0512   22.0913 N   0  0  0  0  0  0
  -23.4223  -28.8116   23.3013 O   0  0  0  0  0  0
  -28.3567  -26.4171   20.2078 O   0  0  0  0  0  0
  -26.5634  -34.8918   22.4631 O   0  0  0  0  0  0
  -23.5441  -32.1368   23.7246 O   0  0  0  0  0  0
  -30.9570  -18.5647   22.4882 C   0  0  0  0  0  0
  -31.0938  -19.6153   23.3435 C   0  0  0  0  0  0
  -30.1586  -18.8137   21.3207 C   0  0  0  0  0  0
  -29.7452  -20.1911   21.2896 C   0  0  0  0  0  0
  -27.5564  -21.6209   20.9466 C   0  0  0  0  0  0
  -27.3817  -23.1731   20.8271 C   0  0  0  0  0  0
  -29.5500  -22.6139   20.0104 C   0  0  0  0  0  0
  -28.9381  -21.1776   20.3661 C   0  0  1  0  0  0
  -28.3584  -23.6238   19.7437 C   0  0  2  0  0  0
  -30.0256  -17.5567   20.3714 C   0  0  0  0  0  0
  -29.8016  -16.0651   21.0115 C   0  0  0  0  0  0
  -28.5457  -25.1995   19.3646 C   0  0  0  0  0  0
  -30.2663  -21.0044   22.7591 S   0  0  0  0  0  0
  -31.4857  -12.6048   19.1689 H   0  0  0  0  0  0
  -30.4191  -11.4801   19.9568 H   0  0  0  0  0  0
  -29.8024  -11.7145   17.5408 H   0  0  0  0  0  0
  -29.6405  -13.4449   17.7167 H   0  0  0  0  0  0
  -27.9135  -11.2699   18.9365 H   0  0  0  0  0  0
  -27.3831  -12.4928   17.8125 H   0  0  0  0  0  0
  -27.6528  -14.2438   19.4788 H   0  0  0  0  0  0
  -28.7320  -12.1302   21.4082 H   0  0  0  0  0  0
  -28.4221  -13.7922   21.8220 H   0  0  0  0  0  0
  -25.2756   -9.5683   22.4770 H   0  0  0  0  0  0
  -23.9988   -7.4642   22.7482 H   0  0  0  0  0  0
  -21.0854   -8.8759   19.8939 H   0  0  0  0  0  0
  -22.3705  -10.9664   19.6154 H   0  0  0  0  0  0
  -21.1993   -7.6146   23.9706 H   0  0  0  0  0  0
  -21.1472   -6.0520   25.9065 H   0  0  0  0  0  0
  -22.0612   -2.7612   23.2830 H   0  0  0  0  0  0
  -22.4084  -11.9846   22.4747 H   0  0  0  0  0  0
  -21.1101  -13.1232   22.2595 H   0  0  0  0  0  0
  -24.6740  -15.8528   20.5278 H   0  0  0  0  0  0
  -26.2927  -15.6231   20.1038 H   0  0  0  0  0  0
  -26.7186  -32.5386   23.1042 H   0  0  0  0  0  0
  -25.0137  -33.9722   25.0400 H   0  0  0  0  0  0
  -22.7165  -31.2890   21.3876 H   0  0  0  0  0  0
  -23.3734  -35.9613   23.3268 H   0  0  0  0  0  0
  -24.3570  -36.8928   22.2059 H   0  0  0  0  0  0
  -23.7218  -37.6452   23.6696 H   0  0  0  0  0  0
  -26.0815  -31.5210   20.5826 H   0  0  0  0  0  0
  -26.8551  -30.8421   21.9817 H   0  0  0  0  0  0
  -28.1108  -28.9412   21.2117 H   0  0  0  0  0  0
  -25.9797  -25.8820   19.0309 H   0  0  0  0  0  0
  -23.9873  -27.2788   19.0095 H   0  0  0  0  0  0
  -23.7520  -30.5674   19.3940 H   0  0  0  0  0  0
  -22.7617  -29.2208   19.8595 H   0  0  0  0  0  0
  -25.1257  -36.1880   25.0787 H   0  0  0  0  0  0
  -20.9993  -28.3220   24.1416 H   0  0  0  0  0  0
  -20.5658  -26.2264   23.3607 H   0  0  0  0  0  0
  -21.6625  -26.7392   22.1189 H   0  0  0  0  0  0
  -19.6885  -25.6300   21.1197 H   0  0  0  0  0  0
  -19.6645  -27.3225   20.6773 H   0  0  0  0  0  0
  -17.4184  -26.6703   21.4016 H   0  0  0  0  0  0
  -18.0287  -26.0042   22.8994 H   0  0  0  0  0  0
  -19.7952  -30.7284   24.2198 H   0  0  0  0  0  0
  -17.5018  -31.6241   24.5175 H   0  0  0  0  0  0
  -15.5359  -30.2935   23.7693 H   0  0  0  0  0  0
  -15.8693  -28.0820   22.7013 H   0  0  0  0  0  0
  -24.5919  -30.7043   25.7773 H   0  0  0  0  0  0
  -24.8910  -32.2894   26.4828 H   0  0  0  0  0  0
  -25.8068  -30.8940   27.0204 H   0  0  0  0  0  0
  -26.2936  -29.6768   24.1132 H   0  0  0  0  0  0
  -27.4101  -29.7254   25.4577 H   0  0  0  0  0  0
  -27.8764  -30.4327   23.9290 H   0  0  0  0  0  0
  -27.2612  -33.3666   26.1998 H   0  0  0  0  0  0
  -28.3909  -32.6870   25.0385 H   0  0  0  0  0  0
  -28.0617  -31.8505   26.5477 H   0  0  0  0  0  0
  -28.2533  -38.0125   24.7558 H   0  0  0  0  0  0
  -28.1089  -36.2653   24.6203 H   0  0  0  0  0  0
  -27.2294  -37.1330   25.8866 H   0  0  0  0  0  0
  -20.9398  -29.8805   21.6964 H   0  0  0  0  0  0
  -26.0105  -38.2804   24.1506 H   0  0  0  0  0  0
  -31.4230  -17.6076   22.6764 H   0  0  0  0  0  0
  -31.6364  -19.6581   24.2829 H   0  0  0  0  0  0
  -26.7605  -21.1108   20.4017 H   0  0  0  0  0  0
  -27.4385  -21.3207   21.9889 H   0  0  0  0  0  0
  -27.6471  -23.6520   21.7705 H   0  0  0  0  0  0
  -26.3533  -23.4542   20.5951 H   0  0  0  0  0  0
  -30.2428  -22.5538   19.1695 H   0  0  0  0  0  0
  -30.1245  -23.0039   20.8501 H   0  0  0  0  0  0
  -28.7459  -20.6655   19.4220 H   0  0  0  0  0  0
  -27.9334  -23.2273   18.8196 H   0  0  0  0  0  0
  -30.9248  -17.5123   19.7572 H   0  0  0  0  0  0
  -29.2239  -17.7387   19.6546 H   0  0  0  0  0  0
  -28.7304  -15.8745   20.9608 H   0  0  0  0  0  0
  -30.0035  -16.0926   22.0794 H   0  0  0  0  0  0
  -28.0075  -25.3685   18.4318 H   0  0  0  0  0  0
  -29.5817  -25.2803   19.0362 H   0  0  0  0  0  0
  1 25  1  0  0  0
  1 30  2  0  0  0
  1 81  1  0  0  0
  2  3  1  0  0  0
  2 25  1  0  0  0
  2 84  1  0  0  0
  2 85  1  0  0  0
  3  4  1  0  0  0
  3 86  1  0  0  0
  3 87  1  0  0  0
  4  5  1  0  0  0
  4 88  1  0  0  0
  4 89  1  0  0  0
  5  6  1  0  0  0
  5 26  1  0  0  0
  5 90  1  0  0  0
  6 25  1  0  0  0
  6 91  1  0  0  0
  6 92  1  0  0  0
  7  8  2  0  0  0
  7 26  1  0  0  0
  7 29  1  0  0  0
  8  9  1  0  0  0
  8 22  1  0  0  0
  9 10  1  0  0  0
  9 27  2  0  0  0
 10 11  2  0  0  0
 10 15  1  0  0  0
 11 12  1  0  0  0
 11 93  1  0  0  0
 12 13  2  0  0  0
 12 94  1  0  0  0
 13 14  1  0  0  0
 13 31  1  0  0  0
 14 15  2  0  0  0
 14 95  1  0  0  0
 15 96  1  0  0  0
 16 17  2  0  0  0
 16 21  1  0  0  0
 16 31  1  0  0  0
 17 18  1  0  0  0
 17 97  1  0  0  0
 18 19  2  0  0  0
 18 98  1  0  0  0
 19 20  1  0  0  0
 19 24  1  0  0  0
 20 21  2  0  0  0
 20 99  1  0  0  0
 21 23  1  0  0  0
 22 28  1  0  0  0
 22 32  2  0  0  0
 26 27  1  0  0  0
 28100  1  0  0  0
 28101  1  0  0  0
 29102  1  0  0  0
 29103  1  0  0  0
 33 34  1  0  0  0
 33 66  1  0  0  0
 33 70  2  0  0  0
 34 36  1  0  0  0
 34 59  1  0  0  0
 34104  1  0  0  0
 35 44  2  0  0  0
 35 45  1  0  0  0
 35 68  1  0  0  0
 36 56  1  0  0  0
 36105  1  0  0  0
 37 39  1  0  0  0
 37 47  1  0  0  0
 37 66  1  0  0  0
 37106  1  0  0  0
 38 43  2  0  0  0
 38 46  1  0  0  0
 38 47  1  0  0  0
 39 64  1  0  0  0
 39 67  2  0  0  0
 40 52  1  0  0  0
 40 53  2  0  0  0
 40 58  1  0  0  0
 41107  1  0  0  0
 41108  1  0  0  0
 41109  1  0  0  0
 41 48  1  0  0  0
 42 43  1  0  0  0
 42 66  1  0  0  0
 42110  1  0  0  0
 42111  1  0  0  0
 43 44  1  0  0  0
 44112  1  0  0  0
 45 46  2  0  0  0
 45113  1  0  0  0
 46114  1  0  0  0
 47115  1  0  0  0
 47116  1  0  0  0
 48 56  1  0  0  0
 48 65  1  0  0  0
 48117  1  0  0  0
 49 50  1  0  0  0
 49 53  1  0  0  0
 49 64  1  0  0  0
 49118  1  0  0  0
 50 51  1  0  0  0
 50119  1  0  0  0
 50120  1  0  0  0
 51 52  1  0  0  0
 51121  1  0  0  0
 51122  1  0  0  0
 52123  1  0  0  0
 52124  1  0  0  0
 53 54  1  0  0  0
 54 55  2  0  0  0
 54125  1  0  0  0
 55 57  1  0  0  0
 55126  1  0  0  0
 56 69  2  0  0  0
 57 58  2  0  0  0
 57127  1  0  0  0
 58128  1  0  0  0
 59 60  1  0  0  0
 59 61  1  0  0  0
 59 62  1  0  0  0
 60129  1  0  0  0
 60130  1  0  0  0
 60131  1  0  0  0
 61132  1  0  0  0
 61133  1  0  0  0
 61134  1  0  0  0
 62135  1  0  0  0
 62136  1  0  0  0
 62137  1  0  0  0
 63 65  1  0  0  0
 63138  1  0  0  0
 63139  1  0  0  0
 63140  1  0  0  0
 64141  1  0  0  0
 65142  1  0  0  0
 68 82  1  0  0  0
 71 72  2  0  0  0
 71 73  1  0  0  0
 71143  1  0  0  0
 72 83  1  0  0  0
 72144  1  0  0  0
 73 74  2  0  0  0
 73 80  1  0  0  0
 74 83  1  0  0  0
 74 78  1  0  0  0
 75 76  1  0  0  0
 75 78  1  0  0  0
 75145  1  0  0  0
 75146  1  0  0  0
 76 79  1  0  0  0
 76147  1  0  0  0
 76148  1  0  0  0
 77 78  1  0  0  0
 77 79  1  0  0  0
 77149  1  0  0  0
 77150  1  0  0  0
 78151  1  0  0  0
 79 82  1  0  0  0
 79152  1  0  0  0
 80 81  1  0  0  0
 80153  1  0  0  0
 80154  1  0  0  0
 81155  1  0  0  0
 81156  1  0  0  0
 82157  1  0  0  0
 82158  1  0  0  0
M  ISO  4   1 100  68 101  81 100  82 101
M  END
> <chiral flag>
0

> <version>
0

> <s_m_source_file>
/data/baiqing/PycharmProjects/Reinvent-master-3.2/result/LINK_invent/BTK/process_docking_weight1_custom_product_contain_oxygen_bond_distance_aromatic_linkinvent_7_9_3/rearranged_h_0140.sdf

> <i_m_source_file_index>
74

> <r_mmod_Potential_Energy-OPLS-2005>
275.053009033203

> <r_mmod_Stretch_Energy-OPLS-2005>
129.930374145508

> <r_mmod_Bend_Energy-OPLS-2005>
264.688385009766

> <r_mmod_Torsional_Energy-OPLS-2005>
216.555221557617

> <r_mmod_Improper_Torsional_Energy-OPLS-2005>
2.45407056808472

> <r_mmod_Van_der_Waal_Energy-OPLS-2005>
114.162467956543

> <r_mmod_Electrostatic_Energy-OPLS-2005>
-335.808898925781

> <r_mmod_Solvation_Energy-OPLS-2005>
-197.872009277344

> <b_mmod_Minimization_Converged-OPLS-2005>
0

> <r_mmod_RMS_Derivative-OPLS-2005>
1.87204885482788

$$$$
74
                    3D
 Structure written by MMmdl.
166174  0  0  1  0            999 V2000
  -30.6839  -14.5223   20.5369 C   0  0  0  0  0  0
  -30.4216  -12.3254   19.4307 C   0  0  0  0  0  0
  -29.4922  -12.4886   18.2104 C   0  0  0  0  0  0
  -28.0176  -12.3373   18.6322 C   0  0  0  0  0  0
  -27.6549  -13.2059   19.8656 C   0  0  2  0  0  0
  -28.6988  -13.0337   20.9918 C   0  0  0  0  0  0
  -25.2576  -13.8162   20.5674 C   0  0  0  0  0  0
  -24.1839  -13.0438   20.9182 C   0  0  0  0  0  0
  -24.6393  -11.6900   20.8745 C   0  0  0  0  0  0
  -23.9067  -10.4288   21.0416 C   0  0  0  0  0  0
  -24.3620   -9.4198   21.9190 C   0  0  0  0  0  0
  -23.6287   -8.2238   22.0760 C   0  0  0  0  0  0
  -22.4268   -8.0284   21.3547 C   0  0  0  0  0  0
  -21.9913   -9.0259   20.4646 C   0  0  0  0  0  0
  -22.7246  -10.2131   20.3058 C   0  0  0  0  0  0
  -21.6850   -6.0732   22.5274 C   0  0  0  0  0  0
  -21.4014   -6.5636   23.8208 C   0  0  0  0  0  0
  -21.3658   -5.6787   24.9168 C   0  0  0  0  0  0
  -21.6048   -4.3051   24.7220 C   0  0  0  0  0  0
  -21.8820   -3.8142   23.4340 C   0  0  0  0  0  0
  -21.9190   -4.6959   22.3396 C   0  0  0  0  0  0
  -22.7862  -13.5230   21.1840 C   0  0  0  0  0  0
  -22.1658   -4.2151   21.0972 F   0  0  0  0  0  0
  -21.5630   -3.4533   25.7729 F   0  0  0  0  0  0
  -30.0212  -13.3367   20.4240 N   0  0  0  0  0  0
  -26.2997  -12.9320   20.3340 N   0  0  0  0  0  0
  -25.9320  -11.6481   20.5793 N   0  0  0  0  0  0
  -22.0512  -12.8217   22.0394 N   0  0  0  0  0  0
  -25.4301  -15.1881   20.4044 N   0  0  0  0  0  0
  -31.8445  -14.6629   20.1426 O   0  0  0  0  0  0
  -21.6630   -6.8880   21.4238 O   0  0  0  0  0  0
  -22.3544  -14.5541   20.6692 O   0  0  0  0  0  0
  -24.6204  -31.8645   23.2084 C   0  0  0  0  0  0
  -25.9074  -32.4811   23.8392 C   0  0  1  0  0  0
  -27.2244  -27.3861   20.1029 C   0  0  0  0  0  0
  -25.5912  -33.8612   24.2323 N   0  0  0  0  0  0
  -23.4107  -30.4897   21.5514 C   0  0  2  0  0  0
  -24.8543  -28.9581   20.1077 C   0  0  0  0  0  0
  -22.7450  -29.4627   22.4983 C   0  0  0  0  0  0
  -18.0279  -28.1381   22.8470 C   0  0  0  0  0  0
  -24.1485  -36.7318   23.2637 C   0  0  0  0  0  0
  -25.9441  -30.8173   21.3672 C   0  0  0  0  0  0
  -26.0188  -29.4497   20.7113 C   0  0  0  0  0  0
  -27.2069  -28.6723   20.7030 C   0  0  0  0  0  0
  -26.0417  -26.9364   19.4669 C   0  0  0  0  0  0
  -24.8640  -27.7050   19.4783 C   0  0  0  0  0  0
  -23.6191  -29.8291   20.1637 C   0  0  0  0  0  0
  -25.4108  -36.3119   24.0345 C   0  0  1  0  0  0
  -20.5868  -28.3659   23.1305 C   0  0  2  0  0  0
  -20.6776  -26.9397   22.5411 C   0  0  0  0  0  0
  -19.5758  -26.6385   21.5202 C   0  0  0  0  0  0
  -18.1926  -26.7917   22.1611 C   0  0  0  0  0  0
  -19.1529  -28.8842   23.2873 C   0  0  0  0  0  0
  -18.9451  -30.1438   23.8893 C   0  0  0  0  0  0
  -17.6459  -30.6581   24.0560 C   0  0  0  0  0  0
  -25.9046  -34.9477   23.5138 C   0  0  0  0  0  0
  -16.5351  -29.9082   23.6334 C   0  0  0  0  0  0
  -16.7262  -28.6513   23.0330 C   0  0  0  0  0  0
  -26.4475  -31.6593   25.0726 C   0  0  0  0  0  0
  -25.3722  -31.3688   26.1461 C   0  0  0  0  0  0
  -27.0315  -30.3048   24.6091 C   0  0  0  0  0  0
  -27.6060  -32.4290   25.7483 C   0  0  0  0  0  0
  -27.5583  -37.1807   24.8464 C   0  0  0  0  0  0
  -21.4167  -29.3024   22.3719 N   0  0  0  0  0  0
  -26.4295  -37.3802   23.9421 N   0  0  0  0  0  0
  -24.6781  -31.0711   22.1013 N   0  0  0  0  0  0
  -23.4199  -28.8150   23.3027 O   0  0  0  0  0  0
  -28.3657  -26.5924   20.1572 O   0  0  0  0  0  0
  -26.5610  -34.8926   22.4697 O   0  0  0  0  0  0
  -23.5383  -32.1413   23.7455 O   0  0  0  0  0  0
  -31.5705  -17.2730   21.6704 C   0  0  0  0  0  0
  -31.1170  -19.6672   21.4507 C   0  0  0  0  0  0
  -29.4817  -18.0380   20.6882 C   0  0  0  0  0  0
  -31.9683  -18.6159   21.8632 C   0  0  0  0  0  0
  -30.3347  -16.9606   21.0661 C   0  0  0  0  0  0
  -29.8610  -19.4024   20.8556 C   0  0  0  0  0  0
  -33.2579  -18.9325   22.5622 C   0  0  0  0  0  0
  -29.1699  -24.3016   20.8479 C   0  0  0  0  0  0
  -26.5531  -23.3976   22.5139 C   0  0  0  0  0  0
  -29.5001  -22.5210   22.6319 C   0  0  0  0  0  0
  -28.1707  -25.1536   20.0131 C   0  0  0  0  0  0
  -27.2808  -22.5950   21.4149 C   0  0  0  0  0  0
  -29.3798  -21.7792   20.2337 C   0  0  0  0  0  0
  -28.8192  -22.8187   21.2723 C   0  0  1  0  0  0
  -34.2489  -18.0662   22.3979 N   0  0  0  0  0  0
  -29.9261  -15.5881   20.9012 N   0  0  0  0  0  0
  -33.4008  -19.9620   23.2189 O   0  0  0  0  0  0
  -30.2616  -24.7935   21.1597 O   0  0  0  0  0  0
  -28.9711  -20.4003   20.4586 O   0  0  0  0  0  0
  -31.4656  -12.4228   19.1283 H   0  0  0  0  0  0
  -30.3248  -11.3237   19.8537 H   0  0  0  0  0  0
  -29.7358  -11.7476   17.4482 H   0  0  0  0  0  0
  -29.6466  -13.4661   17.7506 H   0  0  0  0  0  0
  -27.8526  -11.2844   18.8655 H   0  0  0  0  0  0
  -27.3555  -12.5685   17.7969 H   0  0  0  0  0  0
  -27.6848  -14.2437   19.5344 H   0  0  0  0  0  0
  -28.6866  -12.0126   21.3755 H   0  0  0  0  0  0
  -28.4638  -13.6715   21.8449 H   0  0  0  0  0  0
  -25.2769   -9.5656   22.4766 H   0  0  0  0  0  0
  -23.9985   -7.4625   22.7485 H   0  0  0  0  0  0
  -21.0848   -8.8787   19.8952 H   0  0  0  0  0  0
  -22.3725  -10.9672   19.6165 H   0  0  0  0  0  0
  -21.2010   -7.6140   23.9712 H   0  0  0  0  0  0
  -21.1482   -6.0512   25.9071 H   0  0  0  0  0  0
  -22.0604   -2.7605   23.2833 H   0  0  0  0  0  0
  -22.4124  -11.9852   22.4734 H   0  0  0  0  0  0
  -21.1143  -13.1254   22.2646 H   0  0  0  0  0  0
  -24.6614  -15.8418   20.5048 H   0  0  0  0  0  0
  -26.2734  -15.6228   20.0540 H   0  0  0  0  0  0
  -26.7144  -32.5514   23.1153 H   0  0  0  0  0  0
  -25.0049  -33.9764   25.0460 H   0  0  0  0  0  0
  -22.7018  -31.3089   21.4133 H   0  0  0  0  0  0
  -23.3752  -35.9643   23.3304 H   0  0  0  0  0  0
  -24.3583  -36.8939   22.2049 H   0  0  0  0  0  0
  -23.7218  -37.6523   23.6643 H   0  0  0  0  0  0
  -26.0573  -31.5798   20.5960 H   0  0  0  0  0  0
  -26.8331  -30.8744   21.9839 H   0  0  0  0  0  0
  -28.1019  -29.0404   21.1845 H   0  0  0  0  0  0
  -26.0004  -25.9883   18.9519 H   0  0  0  0  0  0
  -23.9741  -27.3280   18.9927 H   0  0  0  0  0  0
  -23.7264  -30.6065   19.4063 H   0  0  0  0  0  0
  -22.7419  -29.2514   19.8686 H   0  0  0  0  0  0
  -25.1271  -36.2003   25.0838 H   0  0  0  0  0  0
  -20.9935  -28.3217   24.1436 H   0  0  0  0  0  0
  -20.5692  -26.2256   23.3594 H   0  0  0  0  0  0
  -21.6635  -26.7454   22.1192 H   0  0  0  0  0  0
  -19.6930  -25.6298   21.1223 H   0  0  0  0  0  0
  -19.6706  -27.3202   20.6735 H   0  0  0  0  0  0
  -17.4196  -26.6645   21.4013 H   0  0  0  0  0  0
  -18.0328  -26.0061   22.9014 H   0  0  0  0  0  0
  -19.7930  -30.7230   24.2279 H   0  0  0  0  0  0
  -17.5023  -31.6267   24.5139 H   0  0  0  0  0  0
  -15.5347  -30.2982   23.7678 H   0  0  0  0  0  0
  -15.8657  -28.0849   22.7029 H   0  0  0  0  0  0
  -24.5918  -30.7013   25.7782 H   0  0  0  0  0  0
  -24.8862  -32.2824   26.4893 H   0  0  0  0  0  0
  -25.8050  -30.8865   27.0233 H   0  0  0  0  0  0
  -26.2857  -29.6799   24.1151 H   0  0  0  0  0  0
  -27.4127  -29.7290   25.4536 H   0  0  0  0  0  0
  -27.8674  -30.4411   23.9224 H   0  0  0  0  0  0
  -27.2726  -33.3601   26.2080 H   0  0  0  0  0  0
  -28.3859  -32.6828   25.0285 H   0  0  0  0  0  0
  -28.0740  -31.8382   26.5378 H   0  0  0  0  0  0
  -28.2598  -38.0106   24.7538 H   0  0  0  0  0  0
  -28.1087  -36.2645   24.6266 H   0  0  0  0  0  0
  -27.2309  -37.1431   25.8868 H   0  0  0  0  0  0
  -20.9342  -29.8765   21.6948 H   0  0  0  0  0  0
  -26.0205  -38.2893   24.1404 H   0  0  0  0  0  0
  -32.2084  -16.4718   22.0150 H   0  0  0  0  0  0
  -31.4418  -20.6806   21.6292 H   0  0  0  0  0  0
  -28.5210  -17.8216   20.2433 H   0  0  0  0  0  0
  -25.4789  -23.2184   22.4618 H   0  0  0  0  0  0
  -26.7032  -24.4737   22.4333 H   0  0  0  0  0  0
  -26.8738  -23.0890   23.5087 H   0  0  0  0  0  0
  -29.1974  -23.2224   23.4105 H   0  0  0  0  0  0
  -30.5866  -22.5854   22.5630 H   0  0  0  0  0  0
  -29.2583  -21.5170   22.9817 H   0  0  0  0  0  0
  -27.1659  -24.8875   20.3270 H   0  0  0  0  0  0
  -28.2643  -24.8770   18.9633 H   0  0  0  0  0  0
  -26.7899  -22.7665   20.4557 H   0  0  0  0  0  0
  -27.0931  -21.5433   21.6262 H   0  0  0  0  0  0
  -30.4579  -21.8825   20.1177 H   0  0  0  0  0  0
  -28.9799  -22.0389   19.2530 H   0  0  0  0  0  0
  -34.1139  -17.2489   21.8222 H   0  0  0  0  0  0
  -35.1395  -18.2210   22.8462 H   0  0  0  0  0  0
  -28.9420  -15.3936   21.0002 H   0  0  0  0  0  0
  1 25  1  0  0  0
  1 30  2  0  0  0
  1 86  1  0  0  0
  2  3  1  0  0  0
  2 25  1  0  0  0
  2 90  1  0  0  0
  2 91  1  0  0  0
  3  4  1  0  0  0
  3 92  1  0  0  0
  3 93  1  0  0  0
  4  5  1  0  0  0
  4 94  1  0  0  0
  4 95  1  0  0  0
  5  6  1  0  0  0
  5 26  1  0  0  0
  5 96  1  0  0  0
  6 25  1  0  0  0
  6 97  1  0  0  0
  6 98  1  0  0  0
  7  8  2  0  0  0
  7 26  1  0  0  0
  7 29  1  0  0  0
  8  9  1  0  0  0
  8 22  1  0  0  0
  9 10  1  0  0  0
  9 27  2  0  0  0
 10 11  2  0  0  0
 10 15  1  0  0  0
 11 12  1  0  0  0
 11 99  1  0  0  0
 12 13  2  0  0  0
 12100  1  0  0  0
 13 14  1  0  0  0
 13 31  1  0  0  0
 14 15  2  0  0  0
 14101  1  0  0  0
 15102  1  0  0  0
 16 17  2  0  0  0
 16 21  1  0  0  0
 16 31  1  0  0  0
 17 18  1  0  0  0
 17103  1  0  0  0
 18 19  2  0  0  0
 18104  1  0  0  0
 19 20  1  0  0  0
 19 24  1  0  0  0
 20 21  2  0  0  0
 20105  1  0  0  0
 21 23  1  0  0  0
 22 28  1  0  0  0
 22 32  2  0  0  0
 26 27  1  0  0  0
 28106  1  0  0  0
 28107  1  0  0  0
 29108  1  0  0  0
 29109  1  0  0  0
 33 34  1  0  0  0
 33 66  1  0  0  0
 33 70  2  0  0  0
 34 36  1  0  0  0
 34 59  1  0  0  0
 34110  1  0  0  0
 35 44  2  0  0  0
 35 45  1  0  0  0
 35 68  1  0  0  0
 36 56  1  0  0  0
 36111  1  0  0  0
 37 39  1  0  0  0
 37 47  1  0  0  0
 37 66  1  0  0  0
 37112  1  0  0  0
 38 43  2  0  0  0
 38 46  1  0  0  0
 38 47  1  0  0  0
 39 64  1  0  0  0
 39 67  2  0  0  0
 40 52  1  0  0  0
 40 53  2  0  0  0
 40 58  1  0  0  0
 41113  1  0  0  0
 41114  1  0  0  0
 41115  1  0  0  0
 41 48  1  0  0  0
 42 43  1  0  0  0
 42 66  1  0  0  0
 42116  1  0  0  0
 42117  1  0  0  0
 43 44  1  0  0  0
 44118  1  0  0  0
 45 46  2  0  0  0
 45119  1  0  0  0
 46120  1  0  0  0
 47121  1  0  0  0
 47122  1  0  0  0
 48 56  1  0  0  0
 48 65  1  0  0  0
 48123  1  0  0  0
 49 50  1  0  0  0
 49 53  1  0  0  0
 49 64  1  0  0  0
 49124  1  0  0  0
 50 51  1  0  0  0
 50125  1  0  0  0
 50126  1  0  0  0
 51 52  1  0  0  0
 51127  1  0  0  0
 51128  1  0  0  0
 52129  1  0  0  0
 52130  1  0  0  0
 53 54  1  0  0  0
 54 55  2  0  0  0
 54131  1  0  0  0
 55 57  1  0  0  0
 55132  1  0  0  0
 56 69  2  0  0  0
 57 58  2  0  0  0
 57133  1  0  0  0
 58134  1  0  0  0
 59 60  1  0  0  0
 59 61  1  0  0  0
 59 62  1  0  0  0
 60135  1  0  0  0
 60136  1  0  0  0
 60137  1  0  0  0
 61138  1  0  0  0
 61139  1  0  0  0
 61140  1  0  0  0
 62141  1  0  0  0
 62142  1  0  0  0
 62143  1  0  0  0
 63 65  1  0  0  0
 63144  1  0  0  0
 63145  1  0  0  0
 63146  1  0  0  0
 64147  1  0  0  0
 65148  1  0  0  0
 68 81  1  0  0  0
 71 74  2  0  0  0
 71 75  1  0  0  0
 71149  1  0  0  0
 72 74  1  0  0  0
 72 76  2  0  0  0
 72150  1  0  0  0
 73 75  2  0  0  0
 73 76  1  0  0  0
 73151  1  0  0  0
 74 77  1  0  0  0
 75 86  1  0  0  0
 76 89  1  0  0  0
 77 85  1  0  0  0
 77 87  2  0  0  0
 78 81  1  0  0  0
 78 88  2  0  0  0
 78 84  1  0  0  0
 79 82  1  0  0  0
 79152  1  0  0  0
 79153  1  0  0  0
 79154  1  0  0  0
 80155  1  0  0  0
 80156  1  0  0  0
 80157  1  0  0  0
 80 84  1  0  0  0
 81158  1  0  0  0
 81159  1  0  0  0
 82 84  1  0  0  0
 82160  1  0  0  0
 82161  1  0  0  0
 83 84  1  0  0  0
 83 89  1  0  0  0
 83162  1  0  0  0
 83163  1  0  0  0
 85164  1  0  0  0
 85165  1  0  0  0
 86166  1  0  0  0
M  ISO  4   1 100  68 101  81 101  86 100
M  END
> <chiral flag>
0

> <version>
0

> <s_m_source_file>
/data/baiqing/PycharmProjects/Reinvent-master-3.2/result/LINK_invent/BTK/process_docking_weight1_custom_product_contain_oxygen_bond_distance_aromatic_linkinvent_7_9_3/rearranged_h_0140.sdf

> <i_m_source_file_index>
75

> <r_mmod_Potential_Energy-OPLS-2005>
-114.833221435547

> <r_mmod_Stretch_Energy-OPLS-2005>
57.5701103210449

> <r_mmod_Bend_Energy-OPLS-2005>
121.515930175781

> <r_mmod_Torsional_Energy-OPLS-2005>
247.787124633789

> <r_mmod_Improper_Torsional_Energy-OPLS-2005>
5.22968435287476

> <r_mmod_Van_der_Waal_Energy-OPLS-2005>
164.602584838867

> <r_mmod_Electrostatic_Energy-OPLS-2005>
-480.736755371094

> <r_mmod_Solvation_Energy-OPLS-2005>
-254.84700012207

> <b_mmod_Minimization_Converged-OPLS-2005>
0

> <r_mmod_RMS_Derivative-OPLS-2005>
1.93664312362671

$$$$
75
                    3D
 Structure written by MMmdl.
159167  0  0  1  0            999 V2000
  -30.6481  -14.6178   20.4931 C   0  0  0  0  0  0
  -30.4351  -12.3751   19.4538 C   0  0  0  0  0  0
  -29.5091  -12.4885   18.2230 C   0  0  0  0  0  0
  -28.0318  -12.3315   18.6358 C   0  0  0  0  0  0
  -27.6534  -13.2126   19.8565 C   0  0  2  0  0  0
  -28.6964  -13.0754   20.9883 C   0  0  0  0  0  0
  -25.2571  -13.8149   20.5677 C   0  0  0  0  0  0
  -24.1823  -13.0440   20.9205 C   0  0  0  0  0  0
  -24.6371  -11.6911   20.8733 C   0  0  0  0  0  0
  -23.9029  -10.4302   21.0402 C   0  0  0  0  0  0
  -24.3597   -9.4225   21.9175 C   0  0  0  0  0  0
  -23.6307   -8.2233   22.0732 C   0  0  0  0  0  0
  -22.4285   -8.0261   21.3532 C   0  0  0  0  0  0
  -21.9901   -9.0229   20.4625 C   0  0  0  0  0  0
  -22.7197  -10.2131   20.3049 C   0  0  0  0  0  0
  -21.6848   -6.0734   22.5288 C   0  0  0  0  0  0
  -21.3993   -6.5636   23.8225 C   0  0  0  0  0  0
  -21.3671   -5.6785   24.9192 C   0  0  0  0  0  0
  -21.6052   -4.3049   24.7232 C   0  0  0  0  0  0
  -21.8819   -3.8142   23.4345 C   0  0  0  0  0  0
  -21.9189   -4.6960   22.3405 C   0  0  0  0  0  0
  -22.7853  -13.5246   21.1892 C   0  0  0  0  0  0
  -22.1674   -4.2157   21.0987 F   0  0  0  0  0  0
  -21.5647   -3.4526   25.7741 F   0  0  0  0  0  0
  -30.0162  -13.4043   20.4248 N   0  0  0  0  0  0
  -26.2986  -12.9329   20.3268 N   0  0  0  0  0  0
  -25.9289  -11.6493   20.5717 N   0  0  0  0  0  0
  -22.0472  -12.8240   22.0433 N   0  0  0  0  0  0
  -25.4304  -15.1866   20.4113 N   0  0  0  0  0  0
  -31.8160  -14.7497   20.1191 O   0  0  0  0  0  0
  -21.6643   -6.8864   21.4241 O   0  0  0  0  0  0
  -22.3553  -14.5552   20.6737 O   0  0  0  0  0  0
  -24.6218  -31.8636   23.2041 C   0  0  0  0  0  0
  -25.9077  -32.4797   23.8366 C   0  0  1  0  0  0
  -27.2347  -27.3543   20.1053 C   0  0  0  0  0  0
  -25.5924  -33.8598   24.2306 N   0  0  0  0  0  0
  -23.4139  -30.4880   21.5448 C   0  0  2  0  0  0
  -24.8612  -28.9447   20.1110 C   0  0  0  0  0  0
  -22.7464  -29.4648   22.4932 C   0  0  0  0  0  0
  -18.0284  -28.1395   22.8469 C   0  0  0  0  0  0
  -24.1489  -36.7289   23.2640 C   0  0  0  0  0  0
  -25.9539  -30.8039   21.3694 C   0  0  0  0  0  0
  -26.0297  -29.4352   20.7095 C   0  0  0  0  0  0
  -27.2184  -28.6522   20.6956 C   0  0  0  0  0  0
  -26.0405  -26.9058   19.4920 C   0  0  0  0  0  0
  -24.8685  -27.6844   19.4941 C   0  0  0  0  0  0
  -23.6268  -29.8205   20.1610 C   0  0  0  0  0  0
  -25.4113  -36.3092   24.0346 C   0  0  1  0  0  0
  -20.5884  -28.3685   23.1285 C   0  0  2  0  0  0
  -20.6770  -26.9409   22.5415 C   0  0  0  0  0  0
  -19.5765  -26.6383   21.5200 C   0  0  0  0  0  0
  -18.1934  -26.7949   22.1594 C   0  0  0  0  0  0
  -19.1535  -28.8853   23.2878 C   0  0  0  0  0  0
  -18.9474  -30.1461   23.8882 C   0  0  0  0  0  0
  -17.6477  -30.6592   24.0566 C   0  0  0  0  0  0
  -25.9049  -34.9461   23.5126 C   0  0  0  0  0  0
  -16.5359  -29.9099   23.6336 C   0  0  0  0  0  0
  -16.7277  -28.6526   23.0332 C   0  0  0  0  0  0
  -26.4467  -31.6605   25.0728 C   0  0  0  0  0  0
  -25.3712  -31.3787   26.1484 C   0  0  0  0  0  0
  -27.0264  -30.3021   24.6153 C   0  0  0  0  0  0
  -27.6099  -32.4284   25.7432 C   0  0  0  0  0  0
  -27.5598  -37.1794   24.8463 C   0  0  0  0  0  0
  -21.4180  -29.3048   22.3687 N   0  0  0  0  0  0
  -26.4298  -37.3783   23.9414 N   0  0  0  0  0  0
  -24.6811  -31.0691   22.0960 N   0  0  0  0  0  0
  -23.4220  -28.8196   23.2989 O   0  0  0  0  0  0
  -28.3776  -26.5465   20.1361 O   0  0  0  0  0  0
  -26.5601  -34.8928   22.4677 O   0  0  0  0  0  0
  -23.5397  -32.1411   23.7401 O   0  0  0  0  0  0
  -29.0134  -19.4072   20.7960 C   0  0  0  0  0  0
  -28.9211  -17.9868   20.8804 C   0  0  0  0  0  0
  -31.2691  -17.7846   20.4114 C   0  0  0  0  0  0
  -30.2413  -20.0602   20.5211 C   0  0  0  0  0  0
  -31.3740  -19.2076   20.3401 C   0  0  0  0  0  0
  -30.0407  -17.1337   20.6895 C   0  0  0  0  0  0
  -32.7609  -19.7927   20.1142 C   0  0  0  0  0  0
  -30.0583  -24.6176   21.7323 C   0  0  0  0  0  0
  -30.3893  -21.6270   20.4998 C   0  0  0  0  0  0
  -29.1390  -22.5945   20.4057 C   0  0  0  0  0  0
  -28.1919  -25.0886   20.0670 C   0  0  0  0  0  0
  -29.4315  -24.1648   20.3995 C   0  0  1  0  0  0
  -29.8563  -15.6873   20.8125 N   0  0  0  0  0  0
  -31.4769  -12.4909   19.1513 H   0  0  0  0  0  0
  -30.3611  -11.3829   19.9030 H   0  0  0  0  0  0
  -29.7756  -11.7267   17.4888 H   0  0  0  0  0  0
  -29.6549  -13.4518   17.7322 H   0  0  0  0  0  0
  -27.8710  -11.2804   18.8778 H   0  0  0  0  0  0
  -27.3737  -12.5486   17.7930 H   0  0  0  0  0  0
  -27.6706  -14.2458   19.5104 H   0  0  0  0  0  0
  -28.6990  -12.0580   21.3813 H   0  0  0  0  0  0
  -28.4393  -13.7186   21.8313 H   0  0  0  0  0  0
  -25.2739   -9.5719   22.4749 H   0  0  0  0  0  0
  -24.0040   -7.4609   22.7419 H   0  0  0  0  0  0
  -21.0840   -8.8717   19.8921 H   0  0  0  0  0  0
  -22.3629  -10.9670   19.6161 H   0  0  0  0  0  0
  -21.1955   -7.6138   23.9739 H   0  0  0  0  0  0
  -21.1515   -6.0511   25.9112 H   0  0  0  0  0  0
  -22.0584   -2.7602   23.2836 H   0  0  0  0  0  0
  -22.4110  -11.9929   22.4866 H   0  0  0  0  0  0
  -21.1075  -13.1245   22.2613 H   0  0  0  0  0  0
  -24.6596  -15.8373   20.5183 H   0  0  0  0  0  0
  -26.2691  -15.6192   20.0466 H   0  0  0  0  0  0
  -26.7149  -32.5466   23.1127 H   0  0  0  0  0  0
  -25.0060  -33.9737   25.0446 H   0  0  0  0  0  0
  -22.7051  -31.3070   21.4025 H   0  0  0  0  0  0
  -23.3772  -35.9596   23.3266 H   0  0  0  0  0  0
  -24.3603  -36.8938   22.2065 H   0  0  0  0  0  0
  -23.7215  -37.6476   23.6669 H   0  0  0  0  0  0
  -26.0856  -31.5701   20.6046 H   0  0  0  0  0  0
  -26.8366  -30.8493   21.9956 H   0  0  0  0  0  0
  -28.1158  -29.0305   21.1658 H   0  0  0  0  0  0
  -25.9859  -25.9418   19.0070 H   0  0  0  0  0  0
  -23.9732  -27.3031   19.0211 H   0  0  0  0  0  0
  -23.7402  -30.5939   19.4005 H   0  0  0  0  0  0
  -22.7475  -29.2463   19.8618 H   0  0  0  0  0  0
  -25.1298  -36.1940   25.0846 H   0  0  0  0  0  0
  -20.9989  -28.3257   24.1401 H   0  0  0  0  0  0
  -20.5627  -26.2302   23.3615 H   0  0  0  0  0  0
  -21.6646  -26.7425   22.1231 H   0  0  0  0  0  0
  -19.6914  -25.6289   21.1237 H   0  0  0  0  0  0
  -19.6724  -27.3186   20.6727 H   0  0  0  0  0  0
  -17.4218  -26.6694   21.3985 H   0  0  0  0  0  0
  -18.0333  -26.0109   22.9003 H   0  0  0  0  0  0
  -19.7953  -30.7279   24.2243 H   0  0  0  0  0  0
  -17.5037  -31.6265   24.5183 H   0  0  0  0  0  0
  -15.5365  -30.2995   23.7681 H   0  0  0  0  0  0
  -15.8674  -28.0861   22.7022 H   0  0  0  0  0  0
  -24.5842  -30.7175   25.7844 H   0  0  0  0  0  0
  -24.8930  -32.2966   26.4925 H   0  0  0  0  0  0
  -25.8040  -30.8952   27.0250 H   0  0  0  0  0  0
  -26.2804  -29.6786   24.1213 H   0  0  0  0  0  0
  -27.4005  -29.7288   25.4646 H   0  0  0  0  0  0
  -27.8669  -30.4317   23.9331 H   0  0  0  0  0  0
  -27.2827  -33.3628   26.2002 H   0  0  0  0  0  0
  -28.3892  -32.6758   25.0209 H   0  0  0  0  0  0
  -28.0767  -31.8371   26.5322 H   0  0  0  0  0  0
  -28.2634  -38.0078   24.7516 H   0  0  0  0  0  0
  -28.1083  -36.2627   24.6266 H   0  0  0  0  0  0
  -27.2329  -37.1408   25.8868 H   0  0  0  0  0  0
  -20.9354  -29.8787   21.6911 H   0  0  0  0  0  0
  -26.0191  -38.2854   24.1428 H   0  0  0  0  0  0
  -28.1252  -19.9973   20.9710 H   0  0  0  0  0  0
  -27.9559  -17.5539   21.1062 H   0  0  0  0  0  0
  -32.1675  -17.2003   20.2698 H   0  0  0  0  0  0
  -33.4711  -19.0213   19.8150 H   0  0  0  0  0  0
  -33.1311  -20.2380   21.0383 H   0  0  0  0  0  0
  -32.7693  -20.5506   19.3321 H   0  0  0  0  0  0
  -30.9763  -24.0762   21.9607 H   0  0  0  0  0  0
  -29.3659  -24.4697   22.5613 H   0  0  0  0  0  0
  -30.3162  -25.6778   21.7048 H   0  0  0  0  0  0
  -31.0414  -21.8957   19.6691 H   0  0  0  0  0  0
  -30.9460  -21.8784   21.4025 H   0  0  0  0  0  0
  -28.4623  -22.3729   21.2306 H   0  0  0  0  0  0
  -28.5888  -22.3449   19.4972 H   0  0  0  0  0  0
  -27.3827  -24.8164   20.7468 H   0  0  0  0  0  0
  -27.8559  -24.8311   19.0611 H   0  0  0  0  0  0
  -30.1651  -24.3523   19.6134 H   0  0  0  0  0  0
  -28.9237  -15.4115   21.0779 H   0  0  0  0  0  0
  1 25  1  0  0  0
  1 30  2  0  0  0
  1 83  1  0  0  0
  2  3  1  0  0  0
  2 25  1  0  0  0
  2 84  1  0  0  0
  2 85  1  0  0  0
  3  4  1  0  0  0
  3 86  1  0  0  0
  3 87  1  0  0  0
  4  5  1  0  0  0
  4 88  1  0  0  0
  4 89  1  0  0  0
  5  6  1  0  0  0
  5 26  1  0  0  0
  5 90  1  0  0  0
  6 25  1  0  0  0
  6 91  1  0  0  0
  6 92  1  0  0  0
  7  8  2  0  0  0
  7 26  1  0  0  0
  7 29  1  0  0  0
  8  9  1  0  0  0
  8 22  1  0  0  0
  9 10  1  0  0  0
  9 27  2  0  0  0
 10 11  2  0  0  0
 10 15  1  0  0  0
 11 12  1  0  0  0
 11 93  1  0  0  0
 12 13  2  0  0  0
 12 94  1  0  0  0
 13 14  1  0  0  0
 13 31  1  0  0  0
 14 15  2  0  0  0
 14 95  1  0  0  0
 15 96  1  0  0  0
 16 17  2  0  0  0
 16 21  1  0  0  0
 16 31  1  0  0  0
 17 18  1  0  0  0
 17 97  1  0  0  0
 18 19  2  0  0  0
 18 98  1  0  0  0
 19 20  1  0  0  0
 19 24  1  0  0  0
 20 21  2  0  0  0
 20 99  1  0  0  0
 21 23  1  0  0  0
 22 28  1  0  0  0
 22 32  2  0  0  0
 26 27  1  0  0  0
 28100  1  0  0  0
 28101  1  0  0  0
 29102  1  0  0  0
 29103  1  0  0  0
 33 34  1  0  0  0
 33 66  1  0  0  0
 33 70  2  0  0  0
 34 36  1  0  0  0
 34 59  1  0  0  0
 34104  1  0  0  0
 35 44  2  0  0  0
 35 45  1  0  0  0
 35 68  1  0  0  0
 36 56  1  0  0  0
 36105  1  0  0  0
 37 39  1  0  0  0
 37 47  1  0  0  0
 37 66  1  0  0  0
 37106  1  0  0  0
 38 43  2  0  0  0
 38 46  1  0  0  0
 38 47  1  0  0  0
 39 64  1  0  0  0
 39 67  2  0  0  0
 40 52  1  0  0  0
 40 53  2  0  0  0
 40 58  1  0  0  0
 41107  1  0  0  0
 41108  1  0  0  0
 41109  1  0  0  0
 41 48  1  0  0  0
 42 43  1  0  0  0
 42 66  1  0  0  0
 42110  1  0  0  0
 42111  1  0  0  0
 43 44  1  0  0  0
 44112  1  0  0  0
 45 46  2  0  0  0
 45113  1  0  0  0
 46114  1  0  0  0
 47115  1  0  0  0
 47116  1  0  0  0
 48 56  1  0  0  0
 48 65  1  0  0  0
 48117  1  0  0  0
 49 50  1  0  0  0
 49 53  1  0  0  0
 49 64  1  0  0  0
 49118  1  0  0  0
 50 51  1  0  0  0
 50119  1  0  0  0
 50120  1  0  0  0
 51 52  1  0  0  0
 51121  1  0  0  0
 51122  1  0  0  0
 52123  1  0  0  0
 52124  1  0  0  0
 53 54  1  0  0  0
 54 55  2  0  0  0
 54125  1  0  0  0
 55 57  1  0  0  0
 55126  1  0  0  0
 56 69  2  0  0  0
 57 58  2  0  0  0
 57127  1  0  0  0
 58128  1  0  0  0
 59 60  1  0  0  0
 59 61  1  0  0  0
 59 62  1  0  0  0
 60129  1  0  0  0
 60130  1  0  0  0
 60131  1  0  0  0
 61132  1  0  0  0
 61133  1  0  0  0
 61134  1  0  0  0
 62135  1  0  0  0
 62136  1  0  0  0
 62137  1  0  0  0
 63 65  1  0  0  0
 63138  1  0  0  0
 63139  1  0  0  0
 63140  1  0  0  0
 64141  1  0  0  0
 65142  1  0  0  0
 68 81  1  0  0  0
 71 72  2  0  0  0
 71 74  1  0  0  0
 71143  1  0  0  0
 72 76  1  0  0  0
 72144  1  0  0  0
 73 75  1  0  0  0
 73 76  2  0  0  0
 73145  1  0  0  0
 74 75  2  0  0  0
 74 79  1  0  0  0
 75 77  1  0  0  0
 76 83  1  0  0  0
 77146  1  0  0  0
 77147  1  0  0  0
 77148  1  0  0  0
 78149  1  0  0  0
 78150  1  0  0  0
 78151  1  0  0  0
 78 82  1  0  0  0
 79 80  1  0  0  0
 79152  1  0  0  0
 79153  1  0  0  0
 80 82  1  0  0  0
 80154  1  0  0  0
 80155  1  0  0  0
 81 82  1  0  0  0
 81156  1  0  0  0
 81157  1  0  0  0
 82158  1  0  0  0
 83159  1  0  0  0
M  ISO  4   1 100  68 101  81 101  83 100
M  END
> <chiral flag>
0

> <version>
0

> <s_m_source_file>
/data/baiqing/PycharmProjects/Reinvent-master-3.2/result/LINK_invent/BTK/process_docking_weight1_custom_product_contain_oxygen_bond_distance_aromatic_linkinvent_7_9_3/rearranged_h_0140.sdf

> <i_m_source_file_index>
76

> <r_mmod_Potential_Energy-OPLS-2005>
36.0251045227051

> <r_mmod_Stretch_Energy-OPLS-2005>
72.6764144897461

> <r_mmod_Bend_Energy-OPLS-2005>
131.375213623047

> <r_mmod_Torsional_Energy-OPLS-2005>
213.365966796875

> <r_mmod_Improper_Torsional_Energy-OPLS-2005>
4.65745735168457

> <r_mmod_Van_der_Waal_Energy-OPLS-2005>
145.823364257812

> <r_mmod_Electrostatic_Energy-OPLS-2005>
-371.796508789062

> <r_mmod_Solvation_Energy-OPLS-2005>
-198.236480712891

> <b_mmod_Minimization_Converged-OPLS-2005>
0

> <r_mmod_RMS_Derivative-OPLS-2005>
2.94083952903748

$$$$
76
                    3D
 Structure written by MMmdl.
166174  0  0  1  0            999 V2000
  -30.6085  -14.7421   20.4246 C   0  0  0  0  0  0
  -30.4187  -12.4536   19.4473 C   0  0  0  0  0  0
  -29.5115  -12.5720   18.2058 C   0  0  0  0  0  0
  -28.0222  -12.4233   18.5887 C   0  0  0  0  0  0
  -27.6355  -13.2514   19.8465 C   0  0  2  0  0  0
  -28.6877  -13.1527   20.9683 C   0  0  0  0  0  0
  -25.2493  -13.8226   20.5674 C   0  0  0  0  0  0
  -24.1795  -13.0446   20.9182 C   0  0  0  0  0  0
  -24.6423  -11.6920   20.8672 C   0  0  0  0  0  0
  -23.9097  -10.4290   21.0280 C   0  0  0  0  0  0
  -24.3656   -9.4243   21.9070 C   0  0  0  0  0  0
  -23.6351   -8.2280   22.0682 C   0  0  0  0  0  0
  -22.4327   -8.0279   21.3503 C   0  0  0  0  0  0
  -21.9948   -9.0226   20.4597 C   0  0  0  0  0  0
  -22.7255  -10.2114   20.2955 C   0  0  0  0  0  0
  -21.6873   -6.0722   22.5275 C   0  0  0  0  0  0
  -21.4049   -6.5616   23.8208 C   0  0  0  0  0  0
  -21.3684   -5.6758   24.9153 C   0  0  0  0  0  0
  -21.6050   -4.3020   24.7197 C   0  0  0  0  0  0
  -21.8833   -3.8135   23.4314 C   0  0  0  0  0  0
  -21.9234   -4.6963   22.3392 C   0  0  0  0  0  0
  -22.7820  -13.5201   21.1898 C   0  0  0  0  0  0
  -22.1664   -4.2169   21.0959 F   0  0  0  0  0  0
  -21.5654   -3.4501   25.7684 F   0  0  0  0  0  0
  -29.9793  -13.5151   20.3772 N   0  0  0  0  0  0
  -26.2936  -12.9455   20.3226 N   0  0  0  0  0  0
  -25.9364  -11.6580   20.5652 N   0  0  0  0  0  0
  -22.0484  -12.8118   22.0426 N   0  0  0  0  0  0
  -25.4102  -15.1980   20.4139 N   0  0  0  0  0  0
  -31.8087  -14.8099   20.1604 O   0  0  0  0  0  0
  -21.6715   -6.8853   21.4213 O   0  0  0  0  0  0
  -22.3477  -14.5496   20.6741 O   0  0  0  0  0  0
  -24.6296  -31.8514   23.2014 C   0  0  0  0  0  0
  -25.9135  -32.4742   23.8333 C   0  0  1  0  0  0
  -27.1940  -27.2576   20.0958 C   0  0  0  0  0  0
  -25.5977  -33.8567   24.2247 N   0  0  0  0  0  0
  -23.4229  -30.4808   21.5455 C   0  0  2  0  0  0
  -24.8612  -28.9341   20.1003 C   0  0  0  0  0  0
  -22.7486  -29.4590   22.4950 C   0  0  0  0  0  0
  -18.0272  -28.1365   22.8495 C   0  0  0  0  0  0
  -24.1481  -36.7255   23.2641 C   0  0  0  0  0  0
  -25.9686  -30.7677   21.3756 C   0  0  0  0  0  0
  -26.0354  -29.3934   20.7090 C   0  0  0  0  0  0
  -27.2054  -28.5637   20.6951 C   0  0  0  0  0  0
  -26.0020  -26.8699   19.4536 C   0  0  0  0  0  0
  -24.8530  -27.6858   19.4618 C   0  0  0  0  0  0
  -23.6286  -29.8175   20.1603 C   0  0  0  0  0  0
  -25.4126  -36.3053   24.0295 C   0  0  1  0  0  0
  -20.5884  -28.3655   23.1284 C   0  0  2  0  0  0
  -20.6745  -26.9374   22.5408 C   0  0  0  0  0  0
  -19.5723  -26.6353   21.5207 C   0  0  0  0  0  0
  -18.1920  -26.7915   22.1611 C   0  0  0  0  0  0
  -19.1533  -28.8831   23.2885 C   0  0  0  0  0  0
  -18.9427  -30.1443   23.8901 C   0  0  0  0  0  0
  -17.6419  -30.6572   24.0543 C   0  0  0  0  0  0
  -25.9082  -34.9435   23.5066 C   0  0  0  0  0  0
  -16.5310  -29.9056   23.6330 C   0  0  0  0  0  0
  -16.7253  -28.6458   23.0381 C   0  0  0  0  0  0
  -26.4515  -31.6602   25.0733 C   0  0  0  0  0  0
  -25.3756  -31.3682   26.1449 C   0  0  0  0  0  0
  -27.0345  -30.3023   24.6208 C   0  0  0  0  0  0
  -27.6040  -32.4401   25.7505 C   0  0  0  0  0  0
  -27.5569  -37.1789   24.8445 C   0  0  0  0  0  0
  -21.4194  -29.3029   22.3731 N   0  0  0  0  0  0
  -26.4271  -37.3779   23.9403 N   0  0  0  0  0  0
  -24.6950  -31.0490   22.0985 N   0  0  0  0  0  0
  -23.4227  -28.8102   23.2996 O   0  0  0  0  0  0
  -28.2829  -26.3623   20.1837 O   0  0  0  0  0  0
  -26.5626  -34.8885   22.4622 O   0  0  0  0  0  0
  -23.5436  -32.1324   23.7323 O   0  0  0  0  0  0
  -31.7878  -18.9150   21.6122 C   0  0  0  0  0  0
  -31.3948  -17.6000   21.3468 C   0  0  0  0  0  0
  -29.4287  -18.4929   20.2496 C   0  0  0  0  0  0
  -31.0394  -20.0588   21.2195 C   0  0  0  0  0  0
  -30.2052  -17.3193   20.6567 C   0  0  0  0  0  0
  -29.7831  -19.8906   20.5252 C   0  0  0  0  0  0
  -25.8918  -22.5061   21.4745 C   0  0  0  0  0  0
  -31.3823  -21.5727   23.2057 C   0  0  0  0  0  0
  -26.8980  -23.6695   21.2921 C   0  0  0  0  0  0
  -28.3283  -25.0146   19.5114 C   0  0  0  0  0  0
  -29.0402  -22.4191   20.3690 C   0  0  0  0  0  0
  -31.6722  -21.3778   21.7034 C   0  0  1  0  0  0
  -27.8913  -23.5434   20.1020 C   0  0  1  0  0  0
  -29.8205  -15.8930   20.4850 N   0  0  0  0  0  0
  -33.1163  -21.4595   21.4023 N   0  3  0  0  0  0
  -28.8728  -20.9436   20.1354 O   0  0  0  0  0  0
  -31.4657  -12.5613   19.1576 H   0  0  0  0  0  0
  -30.3240  -11.4647   19.8959 H   0  0  0  0  0  0
  -29.7870  -11.8330   17.4556 H   0  0  0  0  0  0
  -29.6768  -13.5432   17.7354 H   0  0  0  0  0  0
  -27.8177  -11.3641   18.7372 H   0  0  0  0  0  0
  -27.4009  -12.7273   17.7438 H   0  0  0  0  0  0
  -27.6313  -14.2923   19.5277 H   0  0  0  0  0  0
  -28.7245  -12.1423   21.3818 H   0  0  0  0  0  0
  -28.4380  -13.8169   21.7997 H   0  0  0  0  0  0
  -25.2758   -9.5796   22.4664 H   0  0  0  0  0  0
  -24.0111   -7.4676   22.7367 H   0  0  0  0  0  0
  -21.0886   -8.8650   19.8921 H   0  0  0  0  0  0
  -22.3587  -10.9606   19.6100 H   0  0  0  0  0  0
  -21.2000   -7.6114   23.9715 H   0  0  0  0  0  0
  -21.1511   -6.0463   25.9054 H   0  0  0  0  0  0
  -22.0610   -2.7610   23.2792 H   0  0  0  0  0  0
  -22.4133  -11.9828   22.4864 H   0  0  0  0  0  0
  -21.1083  -13.1017   22.2572 H   0  0  0  0  0  0
  -24.6364  -15.8431   20.5186 H   0  0  0  0  0  0
  -26.2614  -15.6586   20.1162 H   0  0  0  0  0  0
  -26.7186  -32.5356   23.1041 H   0  0  0  0  0  0
  -25.0190  -33.9726   25.0429 H   0  0  0  0  0  0
  -22.7146  -31.3038   21.4079 H   0  0  0  0  0  0
  -23.3771  -35.9563   23.3263 H   0  0  0  0  0  0
  -24.3568  -36.8934   22.2067 H   0  0  0  0  0  0
  -23.7180  -37.6401   23.6723 H   0  0  0  0  0  0
  -26.1122  -31.5359   20.6140 H   0  0  0  0  0  0
  -26.8428  -30.8043   22.0160 H   0  0  0  0  0  0
  -28.1069  -28.9120   21.1732 H   0  0  0  0  0  0
  -25.9123  -25.9118   18.9662 H   0  0  0  0  0  0
  -23.9512  -27.3355   18.9802 H   0  0  0  0  0  0
  -23.7381  -30.5911   19.4003 H   0  0  0  0  0  0
  -22.7451  -29.2493   19.8650 H   0  0  0  0  0  0
  -25.1311  -36.1868   25.0781 H   0  0  0  0  0  0
  -20.9965  -28.3168   24.1395 H   0  0  0  0  0  0
  -20.5625  -26.2229   23.3596 H   0  0  0  0  0  0
  -21.6607  -26.7396   22.1190 H   0  0  0  0  0  0
  -19.6876  -25.6254   21.1248 H   0  0  0  0  0  0
  -19.6671  -27.3148   20.6733 H   0  0  0  0  0  0
  -17.4180  -26.6677   21.4013 H   0  0  0  0  0  0
  -18.0307  -26.0040   22.8982 H   0  0  0  0  0  0
  -19.7888  -30.7295   24.2266 H   0  0  0  0  0  0
  -17.4935  -31.6274   24.5111 H   0  0  0  0  0  0
  -15.5294  -30.2936   23.7688 H   0  0  0  0  0  0
  -15.8637  -28.0768   22.7133 H   0  0  0  0  0  0
  -24.6002  -30.6938   25.7765 H   0  0  0  0  0  0
  -24.8836  -32.2771   26.4908 H   0  0  0  0  0  0
  -25.8090  -30.8861   27.0208 H   0  0  0  0  0  0
  -26.2866  -29.6808   24.1237 H   0  0  0  0  0  0
  -27.3980  -29.7283   25.4732 H   0  0  0  0  0  0
  -27.8792  -30.4272   23.9435 H   0  0  0  0  0  0
  -27.2632  -33.3749   26.1976 H   0  0  0  0  0  0
  -28.3888  -32.6910   25.0360 H   0  0  0  0  0  0
  -28.0670  -31.8611   26.5492 H   0  0  0  0  0  0
  -28.2544  -38.0140   24.7577 H   0  0  0  0  0  0
  -28.1098  -36.2657   24.6164 H   0  0  0  0  0  0
  -27.2289  -37.1305   25.8850 H   0  0  0  0  0  0
  -20.9388  -29.8755   21.6959 H   0  0  0  0  0  0
  -26.0110  -38.2804   24.1512 H   0  0  0  0  0  0
  -32.6988  -19.0217   22.1806 H   0  0  0  0  0  0
  -32.0234  -16.8052   21.7295 H   0  0  0  0  0  0
  -28.5058  -18.3138   19.7199 H   0  0  0  0  0  0
  -25.1557  -22.7554   22.2417 H   0  0  0  0  0  0
  -26.3779  -21.5777   21.7846 H   0  0  0  0  0  0
  -25.3229  -22.2937   20.5685 H   0  0  0  0  0  0
  -30.3073  -21.6037   23.3914 H   0  0  0  0  0  0
  -31.8086  -22.5019   23.5819 H   0  0  0  0  0  0
  -31.7824  -20.7583   23.8082 H   0  0  0  0  0  0
  -27.4539  -23.8021   22.2218 H   0  0  0  0  0  0
  -26.3243  -24.5898   21.1649 H   0  0  0  0  0  0
  -27.8650  -25.1277   18.5276 H   0  0  0  0  0  0
  -29.3746  -24.9057   19.2317 H   0  0  0  0  0  0
  -29.2847  -22.5365   21.4213 H   0  0  0  0  0  0
  -29.8952  -22.7305   19.7700 H   0  0  0  0  0  0
  -31.3186  -22.2359   21.1678 H   0  0  0  0  0  0
  -27.3171  -23.1342   19.2689 H   0  0  0  0  0  0
  -28.8287  -15.7151   20.4423 H   0  0  0  0  0  0
  -33.6130  -20.6728   21.7748 H   0  0  0  0  0  0
  -33.5107  -22.3009   21.7839 H   0  0  0  0  0  0
  -33.2604  -21.4764   20.4069 H   0  0  0  0  0  0
  1 25  1  0  0  0
  1 30  2  0  0  0
  1 84  1  0  0  0
  2  3  1  0  0  0
  2 25  1  0  0  0
  2 87  1  0  0  0
  2 88  1  0  0  0
  3  4  1  0  0  0
  3 89  1  0  0  0
  3 90  1  0  0  0
  4  5  1  0  0  0
  4 91  1  0  0  0
  4 92  1  0  0  0
  5  6  1  0  0  0
  5 26  1  0  0  0
  5 93  1  0  0  0
  6 25  1  0  0  0
  6 94  1  0  0  0
  6 95  1  0  0  0
  7  8  2  0  0  0
  7 26  1  0  0  0
  7 29  1  0  0  0
  8  9  1  0  0  0
  8 22  1  0  0  0
  9 10  1  0  0  0
  9 27  2  0  0  0
 10 11  2  0  0  0
 10 15  1  0  0  0
 11 12  1  0  0  0
 11 96  1  0  0  0
 12 13  2  0  0  0
 12 97  1  0  0  0
 13 14  1  0  0  0
 13 31  1  0  0  0
 14 15  2  0  0  0
 14 98  1  0  0  0
 15 99  1  0  0  0
 16 17  2  0  0  0
 16 21  1  0  0  0
 16 31  1  0  0  0
 17 18  1  0  0  0
 17100  1  0  0  0
 18 19  2  0  0  0
 18101  1  0  0  0
 19 20  1  0  0  0
 19 24  1  0  0  0
 20 21  2  0  0  0
 20102  1  0  0  0
 21 23  1  0  0  0
 22 28  1  0  0  0
 22 32  2  0  0  0
 26 27  1  0  0  0
 28103  1  0  0  0
 28104  1  0  0  0
 29105  1  0  0  0
 29106  1  0  0  0
 33 34  1  0  0  0
 33 66  1  0  0  0
 33 70  2  0  0  0
 34 36  1  0  0  0
 34 59  1  0  0  0
 34107  1  0  0  0
 35 44  2  0  0  0
 35 45  1  0  0  0
 35 68  1  0  0  0
 36 56  1  0  0  0
 36108  1  0  0  0
 37 39  1  0  0  0
 37 47  1  0  0  0
 37 66  1  0  0  0
 37109  1  0  0  0
 38 43  2  0  0  0
 38 46  1  0  0  0
 38 47  1  0  0  0
 39 64  1  0  0  0
 39 67  2  0  0  0
 40 52  1  0  0  0
 40 53  2  0  0  0
 40 58  1  0  0  0
 41110  1  0  0  0
 41111  1  0  0  0
 41112  1  0  0  0
 41 48  1  0  0  0
 42 43  1  0  0  0
 42 66  1  0  0  0
 42113  1  0  0  0
 42114  1  0  0  0
 43 44  1  0  0  0
 44115  1  0  0  0
 45 46  2  0  0  0
 45116  1  0  0  0
 46117  1  0  0  0
 47118  1  0  0  0
 47119  1  0  0  0
 48 56  1  0  0  0
 48 65  1  0  0  0
 48120  1  0  0  0
 49 50  1  0  0  0
 49 53  1  0  0  0
 49 64  1  0  0  0
 49121  1  0  0  0
 50 51  1  0  0  0
 50122  1  0  0  0
 50123  1  0  0  0
 51 52  1  0  0  0
 51124  1  0  0  0
 51125  1  0  0  0
 52126  1  0  0  0
 52127  1  0  0  0
 53 54  1  0  0  0
 54 55  2  0  0  0
 54128  1  0  0  0
 55 57  1  0  0  0
 55129  1  0  0  0
 56 69  2  0  0  0
 57 58  2  0  0  0
 57130  1  0  0  0
 58131  1  0  0  0
 59 60  1  0  0  0
 59 61  1  0  0  0
 59 62  1  0  0  0
 60132  1  0  0  0
 60133  1  0  0  0
 60134  1  0  0  0
 61135  1  0  0  0
 61136  1  0  0  0
 61137  1  0  0  0
 62138  1  0  0  0
 62139  1  0  0  0
 62140  1  0  0  0
 63 65  1  0  0  0
 63141  1  0  0  0
 63142  1  0  0  0
 63143  1  0  0  0
 64144  1  0  0  0
 65145  1  0  0  0
 68 80  1  0  0  0
 71 72  2  0  0  0
 71 74  1  0  0  0
 71146  1  0  0  0
 72 75  1  0  0  0
 72147  1  0  0  0
 73 75  2  0  0  0
 73 76  1  0  0  0
 73148  1  0  0  0
 74 76  2  0  0  0
 74 82  1  0  0  0
 75 84  1  0  0  0
 76 86  1  0  0  0
 77 79  1  0  0  0
 77149  1  0  0  0
 77150  1  0  0  0
 77151  1  0  0  0
 78152  1  0  0  0
 78153  1  0  0  0
 78154  1  0  0  0
 78 82  1  0  0  0
 79155  1  0  0  0
 79156  1  0  0  0
 79 83  1  0  0  0
 80 83  1  0  0  0
 80157  1  0  0  0
 80158  1  0  0  0
 81 83  1  0  0  0
 81 86  1  0  0  0
 81159  1  0  0  0
 81160  1  0  0  0
 82 85  1  0  0  0
 82161  1  0  0  0
 83162  1  0  0  0
 84163  1  0  0  0
 85164  1  0  0  0
 85165  1  0  0  0
 85166  1  0  0  0
M  CHG  1  85   1
M  ISO  4   1 100  68 101  80 101  84 100
M  END
> <chiral flag>
0

> <version>
0

> <s_m_source_file>
/data/baiqing/PycharmProjects/Reinvent-master-3.2/result/LINK_invent/BTK/process_docking_weight1_custom_product_contain_oxygen_bond_distance_aromatic_linkinvent_7_9_3/rearranged_h_0140.sdf

> <i_m_source_file_index>
77

> <r_mmod_Potential_Energy-OPLS-2005>
58.6931648254395

> <r_mmod_Stretch_Energy-OPLS-2005>
149.416076660156

> <r_mmod_Bend_Energy-OPLS-2005>
238.021514892578

> <r_mmod_Torsional_Energy-OPLS-2005>
238.276626586914

> <r_mmod_Improper_Torsional_Energy-OPLS-2005>
7.18306303024292

> <r_mmod_Van_der_Waal_Energy-OPLS-2005>
151.186859130859

> <r_mmod_Electrostatic_Energy-OPLS-2005>
-314.008850097656

> <r_mmod_Solvation_Energy-OPLS-2005>
-498.717803955078

> <b_mmod_Minimization_Converged-OPLS-2005>
0

> <r_mmod_RMS_Derivative-OPLS-2005>
8.10247898101807

$$$$
77
                    3D
 Structure written by MMmdl.
151160  0  0  1  0            999 V2000
  -30.5450  -14.7678   20.5097 C   0  0  0  0  0  0
  -30.4611  -12.4772   19.4744 C   0  0  0  0  0  0
  -29.5249  -12.5242   18.2421 C   0  0  0  0  0  0
  -28.0518  -12.3287   18.6555 C   0  0  0  0  0  0
  -27.6522  -13.2178   19.8618 C   0  0  2  0  0  0
  -28.6941  -13.1033   20.9978 C   0  0  0  0  0  0
  -25.2559  -13.8162   20.5691 C   0  0  0  0  0  0
  -24.1819  -13.0439   20.9198 C   0  0  0  0  0  0
  -24.6381  -11.6903   20.8720 C   0  0  0  0  0  0
  -23.9055  -10.4293   21.0391 C   0  0  0  0  0  0
  -24.3606   -9.4211   21.9172 C   0  0  0  0  0  0
  -23.6277   -8.2253   22.0747 C   0  0  0  0  0  0
  -22.4261   -8.0289   21.3541 C   0  0  0  0  0  0
  -21.9883   -9.0274   20.4660 C   0  0  0  0  0  0
  -22.7215  -10.2149   20.3057 C   0  0  0  0  0  0
  -21.6863   -6.0728   22.5275 C   0  0  0  0  0  0
  -21.4028   -6.5628   23.8205 C   0  0  0  0  0  0
  -21.3659   -5.6780   24.9167 C   0  0  0  0  0  0
  -21.6038   -4.3042   24.7220 C   0  0  0  0  0  0
  -21.8821   -3.8137   23.4345 C   0  0  0  0  0  0
  -21.9194   -4.6956   22.3402 C   0  0  0  0  0  0
  -22.7841  -13.5246   21.1844 C   0  0  0  0  0  0
  -22.1657   -4.2143   21.0976 F   0  0  0  0  0  0
  -21.5623   -3.4522   25.7727 F   0  0  0  0  0  0
  -29.9989  -13.5012   20.4399 N   0  0  0  0  0  0
  -26.2973  -12.9342   20.3280 N   0  0  0  0  0  0
  -25.9313  -11.6502   20.5727 N   0  0  0  0  0  0
  -22.0474  -12.8276   22.0421 N   0  0  0  0  0  0
  -25.4238  -15.1879   20.4070 N   0  0  0  0  0  0
  -31.7007  -14.9738   20.1187 O   0  0  0  0  0  0
  -21.6636   -6.8876   21.4239 O   0  0  0  0  0  0
  -22.3543  -14.5552   20.6671 O   0  0  0  0  0  0
  -24.6337  -31.8537   23.1994 C   0  0  0  0  0  0
  -25.9153  -32.4754   23.8335 C   0  0  1  0  0  0
  -27.2195  -27.2480   20.1391 C   0  0  0  0  0  0
  -25.5938  -33.8558   24.2253 N   0  0  0  0  0  0
  -23.4314  -30.4814   21.5401 C   0  0  2  0  0  0
  -24.8798  -28.9331   20.1083 C   0  0  0  0  0  0
  -22.7502  -29.4608   22.4856 C   0  0  0  0  0  0
  -18.0289  -28.1408   22.8475 C   0  0  0  0  0  0
  -24.1491  -36.7276   23.2640 C   0  0  0  0  0  0
  -25.9802  -30.7705   21.3777 C   0  0  0  0  0  0
  -26.0532  -29.3921   20.7185 C   0  0  0  0  0  0
  -27.2270  -28.5662   20.7171 C   0  0  0  0  0  0
  -26.0165  -26.8680   19.4955 C   0  0  0  0  0  0
  -24.8679  -27.6807   19.4826 C   0  0  0  0  0  0
  -23.6534  -29.8228   20.1538 C   0  0  0  0  0  0
  -25.4115  -36.3064   24.0325 C   0  0  1  0  0  0
  -20.5903  -28.3725   23.1248 C   0  0  2  0  0  0
  -20.6778  -26.9436   22.5400 C   0  0  0  0  0  0
  -19.5744  -26.6397   21.5208 C   0  0  0  0  0  0
  -18.1932  -26.7945   22.1628 C   0  0  0  0  0  0
  -19.1549  -28.8874   23.2871 C   0  0  0  0  0  0
  -18.9466  -30.1465   23.8907 C   0  0  0  0  0  0
  -17.6472  -30.6609   24.0564 C   0  0  0  0  0  0
  -25.9055  -34.9434   23.5086 C   0  0  0  0  0  0
  -16.5361  -29.9111   23.6334 C   0  0  0  0  0  0
  -16.7274  -28.6528   23.0352 C   0  0  0  0  0  0
  -26.4526  -31.6578   25.0712 C   0  0  0  0  0  0
  -25.3761  -31.3725   26.1432 C   0  0  0  0  0  0
  -27.0357  -30.2980   24.6202 C   0  0  0  0  0  0
  -27.6089  -32.4305   25.7491 C   0  0  0  0  0  0
  -27.5576  -37.1794   24.8468 C   0  0  0  0  0  0
  -21.4209  -29.3068   22.3623 N   0  0  0  0  0  0
  -26.4284  -37.3764   23.9408 N   0  0  0  0  0  0
  -24.7008  -31.0517   22.0962 N   0  0  0  0  0  0
  -23.4194  -28.8127   23.2943 O   0  0  0  0  0  0
  -28.3029  -26.3294   20.2149 O   0  0  0  0  0  0
  -26.5616  -34.8917   22.4652 O   0  0  0  0  0  0
  -23.5486  -32.1343   23.7295 O   0  0  0  0  0  0
  -28.2297  -19.2106   21.0683 C   0  0  0  0  0  0
  -28.3039  -17.7694   21.1641 C   0  0  0  0  0  0
  -29.3829  -19.8455   20.6776 C   0  0  0  0  0  0
  -29.5053  -17.1635   20.8421 C   0  0  0  0  0  0
  -28.9865  -22.5323   21.4626 C   0  0  0  0  0  0
  -29.0300  -22.3495   19.4239 C   0  0  0  0  0  0
  -29.6124  -21.4147   20.5409 C   0  0  2  0  0  0
  -29.0681  -23.6374   20.3376 C   0  0  1  0  0  0
  -28.0038  -24.8479   20.1417 C   0  0  0  0  0  0
  -29.6692  -15.7631   20.9154 N   0  0  0  0  0  0
  -30.5951  -18.5246   20.3942 S   0  0  0  0  0  0
  -31.4967  -12.6457   19.1725 H   0  0  0  0  0  0
  -30.4449  -11.4906   19.9397 H   0  0  0  0  0  0
  -29.8151  -11.7592   17.5196 H   0  0  0  0  0  0
  -29.6347  -13.4816   17.7296 H   0  0  0  0  0  0
  -27.9216  -11.2789   18.9208 H   0  0  0  0  0  0
  -27.3911  -12.5130   17.8079 H   0  0  0  0  0  0
  -27.6601  -14.2448   19.4956 H   0  0  0  0  0  0
  -28.7430  -12.0803   21.3756 H   0  0  0  0  0  0
  -28.4116  -13.7186   21.8529 H   0  0  0  0  0  0
  -25.2756   -9.5690   22.4733 H   0  0  0  0  0  0
  -23.9992   -7.4643   22.7457 H   0  0  0  0  0  0
  -21.0812   -8.8810   19.8979 H   0  0  0  0  0  0
  -22.3669  -10.9695   19.6173 H   0  0  0  0  0  0
  -21.2037   -7.6136   23.9714 H   0  0  0  0  0  0
  -21.1464   -6.0502   25.9071 H   0  0  0  0  0  0
  -22.0598   -2.7599   23.2839 H   0  0  0  0  0  0
  -22.4065  -11.9968   22.4883 H   0  0  0  0  0  0
  -21.1103  -13.1338   22.2604 H   0  0  0  0  0  0
  -24.6415  -15.8283   20.4883 H   0  0  0  0  0  0
  -26.2457  -15.6195   20.0055 H   0  0  0  0  0  0
  -26.7216  -32.5408   23.1080 H   0  0  0  0  0  0
  -25.0096  -33.9677   25.0407 H   0  0  0  0  0  0
  -22.7301  -31.3068   21.3953 H   0  0  0  0  0  0
  -23.3751  -35.9614   23.3302 H   0  0  0  0  0  0
  -24.3592  -36.8888   22.2055 H   0  0  0  0  0  0
  -23.7248  -37.6480   23.6659 H   0  0  0  0  0  0
  -26.1167  -31.5349   20.6111 H   0  0  0  0  0  0
  -26.8591  -30.8199   22.0102 H   0  0  0  0  0  0
  -28.1242  -28.9170   21.2065 H   0  0  0  0  0  0
  -25.9182  -25.9140   19.0051 H   0  0  0  0  0  0
  -23.9695  -27.3256   18.9952 H   0  0  0  0  0  0
  -23.7861  -30.6039   19.4041 H   0  0  0  0  0  0
  -22.7701  -29.2626   19.8396 H   0  0  0  0  0  0
  -25.1304  -36.1912   25.0817 H   0  0  0  0  0  0
  -21.0011  -28.3318   24.1358 H   0  0  0  0  0  0
  -20.5672  -26.2335   23.3613 H   0  0  0  0  0  0
  -21.6644  -26.7448   22.1193 H   0  0  0  0  0  0
  -19.6904  -25.6300   21.1246 H   0  0  0  0  0  0
  -19.6685  -27.3201   20.6734 H   0  0  0  0  0  0
  -17.4191  -26.6675   21.4049 H   0  0  0  0  0  0
  -18.0348  -26.0113   22.9050 H   0  0  0  0  0  0
  -19.7938  -30.7266   24.2311 H   0  0  0  0  0  0
  -17.5024  -31.6292   24.5148 H   0  0  0  0  0  0
  -15.5358  -30.3014   23.7655 H   0  0  0  0  0  0
  -15.8673  -28.0847   22.7068 H   0  0  0  0  0  0
  -24.5955  -30.7045   25.7768 H   0  0  0  0  0  0
  -24.8932  -32.2880   26.4832 H   0  0  0  0  0  0
  -25.8085  -30.8928   27.0216 H   0  0  0  0  0  0
  -26.2919  -29.6726   24.1235 H   0  0  0  0  0  0
  -27.4026  -29.7246   25.4726 H   0  0  0  0  0  0
  -27.8820  -30.4217   23.9445 H   0  0  0  0  0  0
  -27.2706  -33.3614   26.2049 H   0  0  0  0  0  0
  -28.3922  -32.6834   25.0337 H   0  0  0  0  0  0
  -28.0729  -31.8430   26.5419 H   0  0  0  0  0  0
  -28.2601  -38.0090   24.7503 H   0  0  0  0  0  0
  -28.1068  -36.2606   24.6312 H   0  0  0  0  0  0
  -27.2285  -37.1465   25.8875 H   0  0  0  0  0  0
  -20.9387  -29.8811   21.6860 H   0  0  0  0  0  0
  -26.0159  -38.2837   24.1425 H   0  0  0  0  0  0
  -27.3151  -19.7336   21.3119 H   0  0  0  0  0  0
  -27.4287  -17.2189   21.4821 H   0  0  0  0  0  0
  -29.5790  -22.7590   22.3496 H   0  0  0  0  0  0
  -27.9561  -22.3111   21.7473 H   0  0  0  0  0  0
  -29.6456  -22.4146   18.5262 H   0  0  0  0  0  0
  -28.0076  -22.0738   19.1560 H   0  0  0  0  0  0
  -30.6940  -21.5632   20.5491 H   0  0  0  0  0  0
  -30.0858  -24.0328   20.3184 H   0  0  0  0  0  0
  -27.1761  -24.6686   20.8305 H   0  0  0  0  0  0
  -27.5871  -24.6840   19.1501 H   0  0  0  0  0  0
  -28.8326  -15.3132   21.2558 H   0  0  0  0  0  0
  1 25  1  0  0  0
  1 30  2  0  0  0
  1 80  1  0  0  0
  2  3  1  0  0  0
  2 25  1  0  0  0
  2 82  1  0  0  0
  2 83  1  0  0  0
  3  4  1  0  0  0
  3 84  1  0  0  0
  3 85  1  0  0  0
  4  5  1  0  0  0
  4 86  1  0  0  0
  4 87  1  0  0  0
  5  6  1  0  0  0
  5 26  1  0  0  0
  5 88  1  0  0  0
  6 25  1  0  0  0
  6 89  1  0  0  0
  6 90  1  0  0  0
  7  8  2  0  0  0
  7 26  1  0  0  0
  7 29  1  0  0  0
  8  9  1  0  0  0
  8 22  1  0  0  0
  9 10  1  0  0  0
  9 27  2  0  0  0
 10 11  2  0  0  0
 10 15  1  0  0  0
 11 12  1  0  0  0
 11 91  1  0  0  0
 12 13  2  0  0  0
 12 92  1  0  0  0
 13 14  1  0  0  0
 13 31  1  0  0  0
 14 15  2  0  0  0
 14 93  1  0  0  0
 15 94  1  0  0  0
 16 17  2  0  0  0
 16 21  1  0  0  0
 16 31  1  0  0  0
 17 18  1  0  0  0
 17 95  1  0  0  0
 18 19  2  0  0  0
 18 96  1  0  0  0
 19 20  1  0  0  0
 19 24  1  0  0  0
 20 21  2  0  0  0
 20 97  1  0  0  0
 21 23  1  0  0  0
 22 28  1  0  0  0
 22 32  2  0  0  0
 26 27  1  0  0  0
 28 98  1  0  0  0
 28 99  1  0  0  0
 29100  1  0  0  0
 29101  1  0  0  0
 33 34  1  0  0  0
 33 66  1  0  0  0
 33 70  2  0  0  0
 34 36  1  0  0  0
 34 59  1  0  0  0
 34102  1  0  0  0
 35 44  2  0  0  0
 35 45  1  0  0  0
 35 68  1  0  0  0
 36 56  1  0  0  0
 36103  1  0  0  0
 37 39  1  0  0  0
 37 47  1  0  0  0
 37 66  1  0  0  0
 37104  1  0  0  0
 38 43  2  0  0  0
 38 46  1  0  0  0
 38 47  1  0  0  0
 39 64  1  0  0  0
 39 67  2  0  0  0
 40 52  1  0  0  0
 40 53  2  0  0  0
 40 58  1  0  0  0
 41105  1  0  0  0
 41106  1  0  0  0
 41107  1  0  0  0
 41 48  1  0  0  0
 42 43  1  0  0  0
 42 66  1  0  0  0
 42108  1  0  0  0
 42109  1  0  0  0
 43 44  1  0  0  0
 44110  1  0  0  0
 45 46  2  0  0  0
 45111  1  0  0  0
 46112  1  0  0  0
 47113  1  0  0  0
 47114  1  0  0  0
 48 56  1  0  0  0
 48 65  1  0  0  0
 48115  1  0  0  0
 49 50  1  0  0  0
 49 53  1  0  0  0
 49 64  1  0  0  0
 49116  1  0  0  0
 50 51  1  0  0  0
 50117  1  0  0  0
 50118  1  0  0  0
 51 52  1  0  0  0
 51119  1  0  0  0
 51120  1  0  0  0
 52121  1  0  0  0
 52122  1  0  0  0
 53 54  1  0  0  0
 54 55  2  0  0  0
 54123  1  0  0  0
 55 57  1  0  0  0
 55124  1  0  0  0
 56 69  2  0  0  0
 57 58  2  0  0  0
 57125  1  0  0  0
 58126  1  0  0  0
 59 60  1  0  0  0
 59 61  1  0  0  0
 59 62  1  0  0  0
 60127  1  0  0  0
 60128  1  0  0  0
 60129  1  0  0  0
 61130  1  0  0  0
 61131  1  0  0  0
 61132  1  0  0  0
 62133  1  0  0  0
 62134  1  0  0  0
 62135  1  0  0  0
 63 65  1  0  0  0
 63136  1  0  0  0
 63137  1  0  0  0
 63138  1  0  0  0
 64139  1  0  0  0
 65140  1  0  0  0
 68 79  1  0  0  0
 71 72  1  0  0  0
 71 73  2  0  0  0
 71141  1  0  0  0
 72 74  2  0  0  0
 72142  1  0  0  0
 73 81  1  0  0  0
 73 77  1  0  0  0
 74 80  1  0  0  0
 74 81  1  0  0  0
 75 77  1  0  0  0
 75 78  1  0  0  0
 75143  1  0  0  0
 75144  1  0  0  0
 76 77  1  0  0  0
 76 78  1  0  0  0
 76145  1  0  0  0
 76146  1  0  0  0
 77147  1  0  0  0
 78 79  1  0  0  0
 78148  1  0  0  0
 79149  1  0  0  0
 79150  1  0  0  0
 80151  1  0  0  0
M  ISO  4   1 100  68 101  79 101  80 100
M  END
> <chiral flag>
0

> <version>
0

> <s_m_source_file>
/data/baiqing/PycharmProjects/Reinvent-master-3.2/result/LINK_invent/BTK/process_docking_weight1_custom_product_contain_oxygen_bond_distance_aromatic_linkinvent_7_9_3/rearranged_h_0140.sdf

> <i_m_source_file_index>
78

> <r_mmod_Potential_Energy-OPLS-2005>
200.407043457031

> <r_mmod_Stretch_Energy-OPLS-2005>
120.468605041504

> <r_mmod_Bend_Energy-OPLS-2005>
222.798416137695

> <r_mmod_Torsional_Energy-OPLS-2005>
208.295196533203

> <r_mmod_Improper_Torsional_Energy-OPLS-2005>
3.86920595169067

> <r_mmod_Van_der_Waal_Energy-OPLS-2005>
118.67505645752

> <r_mmod_Electrostatic_Energy-OPLS-2005>
-362.048248291016

> <r_mmod_Solvation_Energy-OPLS-2005>
-209.26725769043

> <b_mmod_Minimization_Converged-OPLS-2005>
0

> <r_mmod_RMS_Derivative-OPLS-2005>
2.73031425476074

$$$$
78
                    3D
 Structure written by MMmdl.
161169  0  0  1  0            999 V2000
  -30.6078  -14.6601   20.5323 C   0  0  0  0  0  0
  -30.4358  -12.4137   19.4434 C   0  0  0  0  0  0
  -29.4958  -12.5048   18.2202 C   0  0  0  0  0  0
  -28.0194  -12.3487   18.6384 C   0  0  0  0  0  0
  -27.6501  -13.2208   19.8675 C   0  0  2  0  0  0
  -28.6972  -13.0485   20.9871 C   0  0  0  0  0  0
  -25.2480  -13.8163   20.5607 C   0  0  0  0  0  0
  -24.1783  -13.0410   20.9153 C   0  0  0  0  0  0
  -24.6392  -11.6892   20.8763 C   0  0  0  0  0  0
  -23.9068  -10.4283   21.0435 C   0  0  0  0  0  0
  -24.3626   -9.4174   21.9179 C   0  0  0  0  0  0
  -23.6298   -8.2212   22.0763 C   0  0  0  0  0  0
  -22.4281   -8.0265   21.3544 C   0  0  0  0  0  0
  -21.9932   -9.0235   20.4625 C   0  0  0  0  0  0
  -22.7266  -10.2111   20.3053 C   0  0  0  0  0  0
  -21.6852   -6.0717   22.5267 C   0  0  0  0  0  0
  -21.4045   -6.5632   23.8196 C   0  0  0  0  0  0
  -21.3659   -5.6792   24.9159 C   0  0  0  0  0  0
  -21.6044   -4.3054   24.7216 C   0  0  0  0  0  0
  -21.8840   -3.8125   23.4348 C   0  0  0  0  0  0
  -21.9200   -4.6940   22.3400 C   0  0  0  0  0  0
  -22.7792  -13.5167   21.1854 C   0  0  0  0  0  0
  -22.1658   -4.2104   21.0979 F   0  0  0  0  0  0
  -21.5610   -3.4558   25.7746 F   0  0  0  0  0  0
  -30.0025  -13.4290   20.4288 N   0  0  0  0  0  0
  -26.2965  -12.9381   20.3366 N   0  0  0  0  0  0
  -25.9322  -11.6534   20.5824 N   0  0  0  0  0  0
  -22.0505  -12.8124   22.0443 N   0  0  0  0  0  0
  -25.4089  -15.1884   20.3905 N   0  0  0  0  0  0
  -31.7359  -14.8215   20.0555 O   0  0  0  0  0  0
  -21.6625   -6.8875   21.4244 O   0  0  0  0  0  0
  -22.3423  -14.5461   20.6711 O   0  0  0  0  0  0
  -24.6256  -31.8589   23.2015 C   0  0  0  0  0  0
  -25.9101  -32.4779   23.8339 C   0  0  1  0  0  0
  -27.2180  -27.3175   20.1292 C   0  0  0  0  0  0
  -25.5917  -33.8580   24.2276 N   0  0  0  0  0  0
  -23.4183  -30.4807   21.5438 C   0  0  2  0  0  0
  -24.8632  -28.9282   20.1132 C   0  0  0  0  0  0
  -22.7480  -29.4603   22.4954 C   0  0  0  0  0  0
  -18.0294  -28.1380   22.8498 C   0  0  0  0  0  0
  -24.1493  -36.7289   23.2642 C   0  0  0  0  0  0
  -25.9573  -30.7906   21.3692 C   0  0  0  0  0  0
  -26.0304  -29.4157   20.7160 C   0  0  0  0  0  0
  -27.2129  -28.6223   20.7090 C   0  0  0  0  0  0
  -26.0368  -26.8774   19.5009 C   0  0  0  0  0  0
  -24.8677  -27.6644   19.4966 C   0  0  0  0  0  0
  -23.6325  -29.8110   20.1600 C   0  0  0  0  0  0
  -25.4121  -36.3084   24.0332 C   0  0  1  0  0  0
  -20.5889  -28.3675   23.1310 C   0  0  2  0  0  0
  -20.6771  -26.9395   22.5437 C   0  0  0  0  0  0
  -19.5748  -26.6377   21.5232 C   0  0  0  0  0  0
  -18.1928  -26.7928   22.1633 C   0  0  0  0  0  0
  -19.1549  -28.8851   23.2893 C   0  0  0  0  0  0
  -18.9452  -30.1463   23.8897 C   0  0  0  0  0  0
  -17.6447  -30.6578   24.0567 C   0  0  0  0  0  0
  -25.9058  -34.9458   23.5111 C   0  0  0  0  0  0
  -16.5352  -29.9075   23.6329 C   0  0  0  0  0  0
  -16.7279  -28.6506   23.0345 C   0  0  0  0  0  0
  -26.4485  -31.6585   25.0702 C   0  0  0  0  0  0
  -25.3724  -31.3689   26.1426 C   0  0  0  0  0  0
  -27.0345  -30.3023   24.6131 C   0  0  0  0  0  0
  -27.6049  -32.4316   25.7471 C   0  0  0  0  0  0
  -27.5595  -37.1795   24.8463 C   0  0  0  0  0  0
  -21.4202  -29.3026   22.3696 N   0  0  0  0  0  0
  -26.4294  -37.3782   23.9420 N   0  0  0  0  0  0
  -24.6858  -31.0607   22.0951 N   0  0  0  0  0  0
  -23.4214  -28.8153   23.3024 O   0  0  0  0  0  0
  -28.3597  -26.5080   20.1363 O   0  0  0  0  0  0
  -26.5639  -34.8921   22.4684 O   0  0  0  0  0  0
  -23.5414  -32.1379   23.7346 O   0  0  0  0  0  0
  -29.2621  -17.5914   19.2459 C   0  0  0  0  0  0
  -28.9115  -18.9819   19.0259 C   0  0  0  0  0  0
  -29.6762  -17.2879   20.5266 C   0  0  0  0  0  0
  -29.0481  -19.8237   20.1148 C   0  0  0  0  0  0
  -29.6895  -25.0705   21.3732 C   0  0  0  0  0  0
  -27.2386  -24.7661   21.5831 C   0  0  0  0  0  0
  -29.1067  -22.0805   17.9206 C   0  0  0  0  0  0
  -29.9151  -15.9130   21.2345 C   0  0  0  0  0  0
  -28.6125  -21.3275   20.3196 C   0  0  0  0  0  0
  -28.4017  -23.9907   19.4080 C   0  0  0  0  0  0
  -28.3740  -25.0823   20.5828 C   0  0  0  0  0  0
  -29.1329  -22.5330   19.3960 C   0  0  2  0  0  0
  -30.5114  -22.6956   19.6705 O   0  0  0  0  0  0
  -29.6913  -18.8207   21.4374 S   0  0  0  0  0  0
  -31.4731  -12.5470   19.1306 H   0  0  0  0  0  0
  -30.3886  -11.4172   19.8880 H   0  0  0  0  0  0
  -29.7507  -11.7327   17.4927 H   0  0  0  0  0  0
  -29.6366  -13.4603   17.7140 H   0  0  0  0  0  0
  -27.8543  -11.2965   18.8785 H   0  0  0  0  0  0
  -27.3625  -12.5771   17.7982 H   0  0  0  0  0  0
  -27.6758  -14.2624   19.5440 H   0  0  0  0  0  0
  -28.7224  -12.0066   21.3117 H   0  0  0  0  0  0
  -28.4266  -13.6109   21.8787 H   0  0  0  0  0  0
  -25.2790   -9.5596   22.4711 H   0  0  0  0  0  0
  -23.9975   -7.4611   22.7505 H   0  0  0  0  0  0
  -21.0857   -8.8778   19.8919 H   0  0  0  0  0  0
  -22.3769  -10.9646   19.6137 H   0  0  0  0  0  0
  -21.2080   -7.6148   23.9685 H   0  0  0  0  0  0
  -21.1454   -6.0524   25.9055 H   0  0  0  0  0  0
  -22.0629   -2.7581   23.2873 H   0  0  0  0  0  0
  -22.4235  -11.9794   22.4756 H   0  0  0  0  0  0
  -21.1101  -13.1023   22.2729 H   0  0  0  0  0  0
  -24.6204  -15.8261   20.4310 H   0  0  0  0  0  0
  -26.2585  -15.6320   20.0661 H   0  0  0  0  0  0
  -26.7167  -32.5453   23.1086 H   0  0  0  0  0  0
  -25.0062  -33.9720   25.0417 H   0  0  0  0  0  0
  -22.7108  -31.3002   21.3995 H   0  0  0  0  0  0
  -23.3774  -35.9597   23.3273 H   0  0  0  0  0  0
  -24.3587  -36.8950   22.2061 H   0  0  0  0  0  0
  -23.7217  -37.6464   23.6692 H   0  0  0  0  0  0
  -26.0880  -31.5508   20.5970 H   0  0  0  0  0  0
  -26.8394  -30.8423   21.9967 H   0  0  0  0  0  0
  -28.1128  -28.9945   21.1779 H   0  0  0  0  0  0
  -26.0165  -25.9088   19.0214 H   0  0  0  0  0  0
  -23.9735  -27.2864   19.0198 H   0  0  0  0  0  0
  -23.7565  -30.5855   19.4025 H   0  0  0  0  0  0
  -22.7516  -29.2429   19.8560 H   0  0  0  0  0  0
  -25.1294  -36.1938   25.0823 H   0  0  0  0  0  0
  -20.9999  -28.3248   24.1423 H   0  0  0  0  0  0
  -20.5687  -26.2278   23.3626 H   0  0  0  0  0  0
  -21.6634  -26.7418   22.1228 H   0  0  0  0  0  0
  -19.6901  -25.6298   21.1242 H   0  0  0  0  0  0
  -19.6687  -27.3205   20.6774 H   0  0  0  0  0  0
  -17.4212  -26.6727   21.4012 H   0  0  0  0  0  0
  -18.0275  -26.0059   22.9004 H   0  0  0  0  0  0
  -19.7923  -30.7283   24.2260 H   0  0  0  0  0  0
  -17.4992  -31.6257   24.5196 H   0  0  0  0  0  0
  -15.5333  -30.2968   23.7641 H   0  0  0  0  0  0
  -15.8696  -28.0821   22.7020 H   0  0  0  0  0  0
  -24.5914  -30.7025   25.7737 H   0  0  0  0  0  0
  -24.8885  -32.2835   26.4855 H   0  0  0  0  0  0
  -25.8053  -30.8855   27.0193 H   0  0  0  0  0  0
  -26.2905  -29.6753   24.1189 H   0  0  0  0  0  0
  -27.4112  -29.7287   25.4611 H   0  0  0  0  0  0
  -27.8743  -30.4344   23.9304 H   0  0  0  0  0  0
  -27.2672  -33.3623   26.2036 H   0  0  0  0  0  0
  -28.3847  -32.6861   25.0287 H   0  0  0  0  0  0
  -28.0720  -31.8442   26.5379 H   0  0  0  0  0  0
  -28.2584  -38.0119   24.7561 H   0  0  0  0  0  0
  -28.1116  -36.2656   24.6228 H   0  0  0  0  0  0
  -27.2321  -37.1388   25.8863 H   0  0  0  0  0  0
  -20.9382  -29.8741   21.6899 H   0  0  0  0  0  0
  -26.0179  -38.2852   24.1433 H   0  0  0  0  0  0
  -29.1361  -16.8586   18.4612 H   0  0  0  0  0  0
  -28.5200  -19.2902   18.0653 H   0  0  0  0  0  0
  -29.8723  -24.1001   21.8339 H   0  0  0  0  0  0
  -29.6769  -25.8092   22.1747 H   0  0  0  0  0  0
  -30.5397  -25.2975   20.7290 H   0  0  0  0  0  0
  -27.3797  -23.7851   22.0364 H   0  0  0  0  0  0
  -26.2572  -24.7475   21.1093 H   0  0  0  0  0  0
  -27.2014  -25.4925   22.3956 H   0  0  0  0  0  0
  -28.0889  -21.8450   17.6070 H   0  0  0  0  0  0
  -29.7311  -21.2067   17.7363 H   0  0  0  0  0  0
  -29.4685  -22.8587   17.2472 H   0  0  0  0  0  0
  -28.9519  -15.6156   21.6405 H   0  0  0  0  0  0
  -30.5265  -16.1036   22.1170 H   0  0  0  0  0  0
  -28.8008  -21.6001   21.3596 H   0  0  0  0  0  0
  -27.5243  -21.3423   20.2333 H   0  0  0  0  0  0
  -28.8367  -24.5449   18.5760 H   0  0  0  0  0  0
  -27.3681  -23.8307   19.0974 H   0  0  0  0  0  0
  -30.9259  -21.8463   19.5631 H   0  0  0  0  0  0
  1 25  1  0  0  0
  1 30  2  0  0  0
  1 78  1  0  0  0
  2  3  1  0  0  0
  2 25  1  0  0  0
  2 85  1  0  0  0
  2 86  1  0  0  0
  3  4  1  0  0  0
  3 87  1  0  0  0
  3 88  1  0  0  0
  4  5  1  0  0  0
  4 89  1  0  0  0
  4 90  1  0  0  0
  5  6  1  0  0  0
  5 26  1  0  0  0
  5 91  1  0  0  0
  6 25  1  0  0  0
  6 92  1  0  0  0
  6 93  1  0  0  0
  7  8  2  0  0  0
  7 26  1  0  0  0
  7 29  1  0  0  0
  8  9  1  0  0  0
  8 22  1  0  0  0
  9 10  1  0  0  0
  9 27  2  0  0  0
 10 11  2  0  0  0
 10 15  1  0  0  0
 11 12  1  0  0  0
 11 94  1  0  0  0
 12 13  2  0  0  0
 12 95  1  0  0  0
 13 14  1  0  0  0
 13 31  1  0  0  0
 14 15  2  0  0  0
 14 96  1  0  0  0
 15 97  1  0  0  0
 16 17  2  0  0  0
 16 21  1  0  0  0
 16 31  1  0  0  0
 17 18  1  0  0  0
 17 98  1  0  0  0
 18 19  2  0  0  0
 18 99  1  0  0  0
 19 20  1  0  0  0
 19 24  1  0  0  0
 20 21  2  0  0  0
 20100  1  0  0  0
 21 23  1  0  0  0
 22 28  1  0  0  0
 22 32  2  0  0  0
 26 27  1  0  0  0
 28101  1  0  0  0
 28102  1  0  0  0
 29103  1  0  0  0
 29104  1  0  0  0
 33 34  1  0  0  0
 33 66  1  0  0  0
 33 70  2  0  0  0
 34 36  1  0  0  0
 34 59  1  0  0  0
 34105  1  0  0  0
 35 44  2  0  0  0
 35 45  1  0  0  0
 35 68  1  0  0  0
 36 56  1  0  0  0
 36106  1  0  0  0
 37 39  1  0  0  0
 37 47  1  0  0  0
 37 66  1  0  0  0
 37107  1  0  0  0
 38 43  2  0  0  0
 38 46  1  0  0  0
 38 47  1  0  0  0
 39 64  1  0  0  0
 39 67  2  0  0  0
 40 52  1  0  0  0
 40 53  2  0  0  0
 40 58  1  0  0  0
 41108  1  0  0  0
 41109  1  0  0  0
 41110  1  0  0  0
 41 48  1  0  0  0
 42 43  1  0  0  0
 42 66  1  0  0  0
 42111  1  0  0  0
 42112  1  0  0  0
 43 44  1  0  0  0
 44113  1  0  0  0
 45 46  2  0  0  0
 45114  1  0  0  0
 46115  1  0  0  0
 47116  1  0  0  0
 47117  1  0  0  0
 48 56  1  0  0  0
 48 65  1  0  0  0
 48118  1  0  0  0
 49 50  1  0  0  0
 49 53  1  0  0  0
 49 64  1  0  0  0
 49119  1  0  0  0
 50 51  1  0  0  0
 50120  1  0  0  0
 50121  1  0  0  0
 51 52  1  0  0  0
 51122  1  0  0  0
 51123  1  0  0  0
 52124  1  0  0  0
 52125  1  0  0  0
 53 54  1  0  0  0
 54 55  2  0  0  0
 54126  1  0  0  0
 55 57  1  0  0  0
 55127  1  0  0  0
 56 69  2  0  0  0
 57 58  2  0  0  0
 57128  1  0  0  0
 58129  1  0  0  0
 59 60  1  0  0  0
 59 61  1  0  0  0
 59 62  1  0  0  0
 60130  1  0  0  0
 60131  1  0  0  0
 60132  1  0  0  0
 61133  1  0  0  0
 61134  1  0  0  0
 61135  1  0  0  0
 62136  1  0  0  0
 62137  1  0  0  0
 62138  1  0  0  0
 63 65  1  0  0  0
 63139  1  0  0  0
 63140  1  0  0  0
 63141  1  0  0  0
 64142  1  0  0  0
 65143  1  0  0  0
 68 81  1  0  0  0
 71 72  1  0  0  0
 71 73  2  0  0  0
 71144  1  0  0  0
 72 74  2  0  0  0
 72145  1  0  0  0
 73 78  1  0  0  0
 73 84  1  0  0  0
 74 79  1  0  0  0
 74 84  1  0  0  0
 75146  1  0  0  0
 75147  1  0  0  0
 75148  1  0  0  0
 75 81  1  0  0  0
 76 81  1  0  0  0
 76149  1  0  0  0
 76150  1  0  0  0
 76151  1  0  0  0
 77152  1  0  0  0
 77153  1  0  0  0
 77154  1  0  0  0
 77 82  1  0  0  0
 78155  1  0  0  0
 78156  1  0  0  0
 79 82  1  0  0  0
 79157  1  0  0  0
 79158  1  0  0  0
 80 81  1  0  0  0
 80 82  1  0  0  0
 80159  1  0  0  0
 80160  1  0  0  0
 82 83  1  0  0  0
 83161  1  0  0  0
M  ISO  4   1 100  68 101  78 100  81 101
M  END
> <chiral flag>
0

> <version>
0

> <s_m_source_file>
/data/baiqing/PycharmProjects/Reinvent-master-3.2/result/LINK_invent/BTK/process_docking_weight1_custom_product_contain_oxygen_bond_distance_aromatic_linkinvent_7_9_3/rearranged_h_0140.sdf

> <i_m_source_file_index>
79

> <r_mmod_Potential_Energy-OPLS-2005>
155.01579284668

> <r_mmod_Stretch_Energy-OPLS-2005>
100.582977294922

> <r_mmod_Bend_Energy-OPLS-2005>
198.804229736328

> <r_mmod_Torsional_Energy-OPLS-2005>
195.754684448242

> <r_mmod_Improper_Torsional_Energy-OPLS-2005>
3.04293608665466

> <r_mmod_Van_der_Waal_Energy-OPLS-2005>
116.314498901367

> <r_mmod_Electrostatic_Energy-OPLS-2005>
-310.25048828125

> <r_mmod_Solvation_Energy-OPLS-2005>
-197.031677246094

> <b_mmod_Minimization_Converged-OPLS-2005>
0

> <r_mmod_RMS_Derivative-OPLS-2005>
3.31815075874329

$$$$
79
                    3D
 Structure written by MMmdl.
178187  0  0  1  0            999 V2000
  -30.7920  -14.4830   20.5598 C   0  0  0  0  0  0
  -30.3828  -12.3400   19.3851 C   0  0  0  0  0  0
  -29.4436  -12.5206   18.1779 C   0  0  0  0  0  0
  -27.9798  -12.3766   18.6282 C   0  0  0  0  0  0
  -27.6543  -13.2234   19.8811 C   0  0  2  0  0  0
  -28.7180  -13.0619   20.9943 C   0  0  0  0  0  0
  -25.2471  -13.8232   20.5813 C   0  0  0  0  0  0
  -24.1802  -13.0473   20.9285 C   0  0  0  0  0  0
  -24.6397  -11.6951   20.8926 C   0  0  0  0  0  0
  -23.9167  -10.4287   21.0534 C   0  0  0  0  0  0
  -24.3682   -9.4140   21.9270 C   0  0  0  0  0  0
  -23.6286   -8.2193   22.0826 C   0  0  0  0  0  0
  -22.4267   -8.0292   21.3599 C   0  0  0  0  0  0
  -21.9947   -9.0290   20.4690 C   0  0  0  0  0  0
  -22.7378  -10.2130   20.3119 C   0  0  0  0  0  0
  -21.6846   -6.0694   22.5264 C   0  0  0  0  0  0
  -21.3968   -6.5629   23.8165 C   0  0  0  0  0  0
  -21.3681   -5.6808   24.9151 C   0  0  0  0  0  0
  -21.6071   -4.3081   24.7248 C   0  0  0  0  0  0
  -21.8772   -3.8148   23.4379 C   0  0  0  0  0  0
  -21.9136   -4.6896   22.3411 C   0  0  0  0  0  0
  -22.7816  -13.5135   21.1925 C   0  0  0  0  0  0
  -22.1629   -4.2096   21.0981 F   0  0  0  0  0  0
  -21.5704   -3.4578   25.7780 F   0  0  0  0  0  0
  -30.0419  -13.3471   20.4140 N   0  0  0  0  0  0
  -26.3004  -12.9491   20.3542 N   0  0  0  0  0  0
  -25.9284  -11.6600   20.5857 N   0  0  0  0  0  0
  -22.0441  -12.8139   22.0475 N   0  0  0  0  0  0
  -25.4013  -15.2033   20.4220 N   0  0  0  0  0  0
  -31.8564  -14.5969   19.9516 O   0  0  0  0  0  0
  -21.6595   -6.8921   21.4292 O   0  0  0  0  0  0
  -22.3475  -14.5439   20.6700 O   0  0  0  0  0  0
  -24.6186  -31.8691   23.2140 C   0  0  0  0  0  0
  -25.9073  -32.4849   23.8426 C   0  0  1  0  0  0
  -27.2147  -27.4090   20.0934 C   0  0  0  0  0  0
  -25.5901  -33.8651   24.2337 N   0  0  0  0  0  0
  -23.4033  -30.4914   21.5625 C   0  0  2  0  0  0
  -24.8373  -28.9526   20.1140 C   0  0  0  0  0  0
  -22.7418  -29.4654   22.5101 C   0  0  0  0  0  0
  -18.0250  -28.1383   22.8468 C   0  0  0  0  0  0
  -24.1460  -36.7338   23.2637 C   0  0  0  0  0  0
  -25.9327  -30.8274   21.3592 C   0  0  0  0  0  0
  -26.0049  -29.4618   20.6960 C   0  0  0  0  0  0
  -27.2042  -28.7104   20.6519 C   0  0  0  0  0  0
  -26.0270  -26.9090   19.5296 C   0  0  0  0  0  0
  -24.8440  -27.6778   19.5187 C   0  0  0  0  0  0
  -23.6040  -29.8275   20.1756 C   0  0  0  0  0  0
  -25.4097  -36.3149   24.0328 C   0  0  1  0  0  0
  -20.5844  -28.3656   23.1355 C   0  0  2  0  0  0
  -20.6752  -26.9401   22.5435 C   0  0  0  0  0  0
  -19.5728  -26.6375   21.5225 C   0  0  0  0  0  0
  -18.1910  -26.7929   22.1618 C   0  0  0  0  0  0
  -19.1491  -28.8840   23.2894 C   0  0  0  0  0  0
  -18.9425  -30.1457   23.8899 C   0  0  0  0  0  0
  -17.6432  -30.6593   24.0567 C   0  0  0  0  0  0
  -25.9036  -34.9505   23.5126 C   0  0  0  0  0  0
  -16.5331  -29.9095   23.6322 C   0  0  0  0  0  0
  -16.7242  -28.6507   23.0344 C   0  0  0  0  0  0
  -26.4448  -31.6647   25.0775 C   0  0  0  0  0  0
  -25.3710  -31.3767   26.1527 C   0  0  0  0  0  0
  -27.0262  -30.3099   24.6132 C   0  0  0  0  0  0
  -27.6014  -32.4372   25.7550 C   0  0  0  0  0  0
  -27.5573  -37.1836   24.8460 C   0  0  0  0  0  0
  -21.4148  -29.3020   22.3798 N   0  0  0  0  0  0
  -26.4290  -37.3841   23.9393 N   0  0  0  0  0  0
  -24.6713  -31.0766   22.1042 N   0  0  0  0  0  0
  -23.4196  -28.8216   23.3158 O   0  0  0  0  0  0
  -28.3876  -26.6839   20.0284 O   0  0  0  0  0  0
  -26.5621  -34.8964   22.4698 O   0  0  0  0  0  0
  -23.5381  -32.1445   23.7531 O   0  0  0  0  0  0
  -30.1922  -17.9857   21.8255 C   0  0  0  0  0  0
  -32.2468  -19.3002   21.9707 C   0  0  0  0  0  0
  -32.3660  -16.9102   21.5388 C   0  0  0  0  0  0
  -30.8420  -19.2440   22.0634 C   0  0  0  0  0  0
  -30.9449  -16.7984   21.5401 C   0  0  0  0  0  0
  -33.0047  -18.1460   21.7268 C   0  0  0  0  0  0
  -30.7709  -23.6827   18.7213 C   0  0  0  0  0  0
  -29.6926  -23.7684   17.6530 C   0  0  0  0  0  0
  -30.3694  -22.5927   19.7176 C   0  0  0  0  0  0
  -28.3692  -24.2864   18.2467 C   0  0  2  0  0  0
  -28.9823  -22.8010   20.4239 C   0  0  1  0  0  0
  -28.1862  -24.0555   19.7984 C   0  0  1  0  0  0
  -27.1680  -23.7956   17.4214 C   0  0  0  0  0  0
  -26.7117  -21.6961   20.9811 C   0  0  0  0  0  0
  -28.3667  -20.3015   19.7828 C   0  0  0  0  0  0
  -30.1666  -20.5741   22.4829 C   0  0  0  0  0  0
  -28.4540  -25.3662   20.6348 C   0  0  0  0  0  0
  -28.6713  -20.8371   22.1940 C   0  0  0  0  0  0
  -28.2251  -21.4391   20.8138 C   0  0  0  0  0  0
  -30.2918  -15.5210   21.2824 N   0  0  0  0  0  0
  -34.3588  -18.2327   21.7011 F   0  0  0  0  0  0
  -31.4083  -12.4059   19.0209 H   0  0  0  0  0  0
  -30.2774  -11.3287   19.7833 H   0  0  0  0  0  0
  -29.6649  -11.7609   17.4202 H   0  0  0  0  0  0
  -29.5944  -13.4977   17.7095 H   0  0  0  0  0  0
  -27.7713  -11.3275   18.8330 H   0  0  0  0  0  0
  -27.3042  -12.6468   17.8138 H   0  0  0  0  0  0
  -27.6865  -14.2646   19.5578 H   0  0  0  0  0  0
  -28.4818  -13.7070   21.8421 H   0  0  0  0  0  0
  -28.7027  -12.0356   21.3644 H   0  0  0  0  0  0
  -25.2848   -9.5508   22.4831 H   0  0  0  0  0  0
  -23.9961   -7.4582   22.7570 H   0  0  0  0  0  0
  -21.0849   -8.8870   19.9037 H   0  0  0  0  0  0
  -22.3939  -10.9670   19.6185 H   0  0  0  0  0  0
  -21.1926   -7.6115   23.9641 H   0  0  0  0  0  0
  -21.1598   -6.0576   25.9052 H   0  0  0  0  0  0
  -22.0539   -2.7599   23.2871 H   0  0  0  0  0  0
  -22.3907  -11.9774   22.5009 H   0  0  0  0  0  0
  -21.1024  -13.1143   22.2575 H   0  0  0  0  0  0
  -24.6211  -15.8461   20.5250 H   0  0  0  0  0  0
  -26.2361  -15.6603   20.0788 H   0  0  0  0  0  0
  -26.7144  -32.5564   23.1196 H   0  0  0  0  0  0
  -25.0039  -33.9790   25.0480 H   0  0  0  0  0  0
  -22.6893  -31.3099   21.4372 H   0  0  0  0  0  0
  -23.3729  -35.9667   23.3336 H   0  0  0  0  0  0
  -24.3540  -36.8934   22.2042 H   0  0  0  0  0  0
  -23.7188  -37.6539   23.6639 H   0  0  0  0  0  0
  -26.0456  -31.5897   20.5898 H   0  0  0  0  0  0
  -26.8293  -30.8848   21.9705 H   0  0  0  0  0  0
  -28.1247  -29.1215   21.0354 H   0  0  0  0  0  0
  -26.0256  -25.9311   19.0801 H   0  0  0  0  0  0
  -23.9475  -27.2796   19.0639 H   0  0  0  0  0  0
  -23.7139  -30.6185   19.4288 H   0  0  0  0  0  0
  -22.7227  -29.2550   19.8767 H   0  0  0  0  0  0
  -25.1262  -36.2027   25.0825 H   0  0  0  0  0  0
  -20.9877  -28.3190   24.1503 H   0  0  0  0  0  0
  -20.5664  -26.2262   23.3611 H   0  0  0  0  0  0
  -21.6634  -26.7479   22.1235 H   0  0  0  0  0  0
  -19.6917  -25.6282   21.1264 H   0  0  0  0  0  0
  -19.6698  -27.3180   20.6749 H   0  0  0  0  0  0
  -17.4192  -26.6658   21.4010 H   0  0  0  0  0  0
  -18.0310  -26.0093   22.9020 H   0  0  0  0  0  0
  -19.7909  -30.7257   24.2289 H   0  0  0  0  0  0
  -17.4995  -31.6274   24.5163 H   0  0  0  0  0  0
  -15.5330  -30.3007   23.7663 H   0  0  0  0  0  0
  -15.8630  -28.0848   22.7071 H   0  0  0  0  0  0
  -24.5883  -30.7093   25.7890 H   0  0  0  0  0  0
  -24.8891  -32.2928   26.4967 H   0  0  0  0  0  0
  -25.8071  -30.8965   27.0299 H   0  0  0  0  0  0
  -26.2792  -29.6925   24.1130 H   0  0  0  0  0  0
  -27.3963  -29.7277   25.4572 H   0  0  0  0  0  0
  -27.8654  -30.4428   23.9317 H   0  0  0  0  0  0
  -27.2611  -33.3660   26.2152 H   0  0  0  0  0  0
  -28.3828  -32.6969   25.0399 H   0  0  0  0  0  0
  -28.0680  -31.8498   26.5465 H   0  0  0  0  0  0
  -28.2618  -38.0114   24.7528 H   0  0  0  0  0  0
  -28.1043  -36.2648   24.6266 H   0  0  0  0  0  0
  -27.2303  -37.1480   25.8875 H   0  0  0  0  0  0
  -20.9337  -29.8730   21.6998 H   0  0  0  0  0  0
  -26.0182  -38.2921   24.1424 H   0  0  0  0  0  0
  -29.1101  -17.9218   21.8411 H   0  0  0  0  0  0
  -32.7712  -20.2323   22.1207 H   0  0  0  0  0  0
  -33.0106  -16.0619   21.3788 H   0  0  0  0  0  0
  -30.9042  -24.6562   19.1939 H   0  0  0  0  0  0
  -31.7239  -23.4340   18.2434 H   0  0  0  0  0  0
  -29.5563  -22.7845   17.1989 H   0  0  0  0  0  0
  -30.0216  -24.4185   16.8426 H   0  0  0  0  0  0
  -31.1795  -22.5174   20.4427 H   0  0  0  0  0  0
  -30.4018  -21.6671   19.1445 H   0  0  0  0  0  0
  -28.3962  -25.3620   18.0727 H   0  0  0  0  0  0
  -29.2371  -23.1614   21.4232 H   0  0  0  0  0  0
  -27.1129  -23.9240   19.9452 H   0  0  0  0  0  0
  -27.0803  -22.7117   17.4506 H   0  0  0  0  0  0
  -27.2563  -24.1077   16.3722 H   0  0  0  0  0  0
  -26.2275  -24.1970   17.7981 H   0  0  0  0  0  0
  -26.2374  -21.9254   20.0250 H   0  0  0  0  0  0
  -26.5079  -22.5104   21.6791 H   0  0  0  0  0  0
  -26.1920  -20.8200   21.3717 H   0  0  0  0  0  0
  -28.0671  -20.6286   18.7884 H   0  0  0  0  0  0
  -27.7418  -19.4505   20.0474 H   0  0  0  0  0  0
  -29.3864  -19.9101   19.7389 H   0  0  0  0  0  0
  -30.7705  -21.4094   22.1332 H   0  0  0  0  0  0
  -30.2707  -20.6655   23.5650 H   0  0  0  0  0  0
  -29.4844  -25.3292   20.9931 H   0  0  0  0  0  0
  -27.8261  -25.3430   21.5273 H   0  0  0  0  0  0
  -28.1016  -19.9410   22.4327 H   0  0  0  0  0  0
  -28.3568  -21.5573   22.9496 H   0  0  0  0  0  0
  -29.3421  -15.4041   21.5958 H   0  0  0  0  0  0
  1 25  1  0  0  0
  1 30  2  0  0  0
  1 90  1  0  0  0
  2  3  1  0  0  0
  2 25  1  0  0  0
  2 92  1  0  0  0
  2 93  1  0  0  0
  3  4  1  0  0  0
  3 94  1  0  0  0
  3 95  1  0  0  0
  4  5  1  0  0  0
  4 96  1  0  0  0
  4 97  1  0  0  0
  5  6  1  0  0  0
  5 26  1  0  0  0
  5 98  1  0  0  0
  6 25  1  0  0  0
  6 99  1  0  0  0
  6100  1  0  0  0
  7  8  2  0  0  0
  7 26  1  0  0  0
  7 29  1  0  0  0
  8  9  1  0  0  0
  8 22  1  0  0  0
  9 10  1  0  0  0
  9 27  2  0  0  0
 10 11  2  0  0  0
 10 15  1  0  0  0
 11 12  1  0  0  0
 11101  1  0  0  0
 12 13  2  0  0  0
 12102  1  0  0  0
 13 14  1  0  0  0
 13 31  1  0  0  0
 14 15  2  0  0  0
 14103  1  0  0  0
 15104  1  0  0  0
 16 17  2  0  0  0
 16 21  1  0  0  0
 16 31  1  0  0  0
 17 18  1  0  0  0
 17105  1  0  0  0
 18 19  2  0  0  0
 18106  1  0  0  0
 19 20  1  0  0  0
 19 24  1  0  0  0
 20 21  2  0  0  0
 20107  1  0  0  0
 21 23  1  0  0  0
 22 28  1  0  0  0
 22 32  2  0  0  0
 26 27  1  0  0  0
 28108  1  0  0  0
 28109  1  0  0  0
 29110  1  0  0  0
 29111  1  0  0  0
 33 34  1  0  0  0
 33 66  1  0  0  0
 33 70  2  0  0  0
 34 36  1  0  0  0
 34 59  1  0  0  0
 34112  1  0  0  0
 35 44  2  0  0  0
 35 45  1  0  0  0
 35 68  1  0  0  0
 36 56  1  0  0  0
 36113  1  0  0  0
 37 39  1  0  0  0
 37 47  1  0  0  0
 37 66  1  0  0  0
 37114  1  0  0  0
 38 43  2  0  0  0
 38 46  1  0  0  0
 38 47  1  0  0  0
 39 64  1  0  0  0
 39 67  2  0  0  0
 40 52  1  0  0  0
 40 53  2  0  0  0
 40 58  1  0  0  0
 41115  1  0  0  0
 41116  1  0  0  0
 41117  1  0  0  0
 41 48  1  0  0  0
 42 43  1  0  0  0
 42 66  1  0  0  0
 42118  1  0  0  0
 42119  1  0  0  0
 43 44  1  0  0  0
 44120  1  0  0  0
 45 46  2  0  0  0
 45121  1  0  0  0
 46122  1  0  0  0
 47123  1  0  0  0
 47124  1  0  0  0
 48 56  1  0  0  0
 48 65  1  0  0  0
 48125  1  0  0  0
 49 50  1  0  0  0
 49 53  1  0  0  0
 49 64  1  0  0  0
 49126  1  0  0  0
 50 51  1  0  0  0
 50127  1  0  0  0
 50128  1  0  0  0
 51 52  1  0  0  0
 51129  1  0  0  0
 51130  1  0  0  0
 52131  1  0  0  0
 52132  1  0  0  0
 53 54  1  0  0  0
 54 55  2  0  0  0
 54133  1  0  0  0
 55 57  1  0  0  0
 55134  1  0  0  0
 56 69  2  0  0  0
 57 58  2  0  0  0
 57135  1  0  0  0
 58136  1  0  0  0
 59 60  1  0  0  0
 59 61  1  0  0  0
 59 62  1  0  0  0
 60137  1  0  0  0
 60138  1  0  0  0
 60139  1  0  0  0
 61140  1  0  0  0
 61141  1  0  0  0
 61142  1  0  0  0
 62143  1  0  0  0
 62144  1  0  0  0
 62145  1  0  0  0
 63 65  1  0  0  0
 63146  1  0  0  0
 63147  1  0  0  0
 63148  1  0  0  0
 64149  1  0  0  0
 65150  1  0  0  0
 68 87  1  0  0  0
 71 74  2  0  0  0
 71 75  1  0  0  0
 71151  1  0  0  0
 72 74  1  0  0  0
 72 76  2  0  0  0
 72152  1  0  0  0
 73 75  2  0  0  0
 73 76  1  0  0  0
 73153  1  0  0  0
 74 86  1  0  0  0
 75 90  1  0  0  0
 76 91  1  0  0  0
 77 78  1  0  0  0
 77 79  1  0  0  0
 77154  1  0  0  0
 77155  1  0  0  0
 78 80  1  0  0  0
 78156  1  0  0  0
 78157  1  0  0  0
 79158  1  0  0  0
 79159  1  0  0  0
 79 81  1  0  0  0
 80 82  1  0  0  0
 80 83  1  0  0  0
 80160  1  0  0  0
 81 82  1  0  0  0
 81 89  1  0  0  0
 81161  1  0  0  0
 82 87  1  0  0  0
 82162  1  0  0  0
 83163  1  0  0  0
 83164  1  0  0  0
 83165  1  0  0  0
 84166  1  0  0  0
 84167  1  0  0  0
 84168  1  0  0  0
 84 89  1  0  0  0
 85 89  1  0  0  0
 85169  1  0  0  0
 85170  1  0  0  0
 85171  1  0  0  0
 86 88  1  0  0  0
 86172  1  0  0  0
 86173  1  0  0  0
 87174  1  0  0  0
 87175  1  0  0  0
 88 89  1  0  0  0
 88176  1  0  0  0
 88177  1  0  0  0
 90178  1  0  0  0
M  ISO  4   1 100  68 101  87 101  90 100
M  END
> <chiral flag>
0

> <version>
0

> <s_m_source_file>
/data/baiqing/PycharmProjects/Reinvent-master-3.2/result/LINK_invent/BTK/process_docking_weight1_custom_product_contain_oxygen_bond_distance_aromatic_linkinvent_7_9_3/rearranged_h_0140.sdf

> <i_m_source_file_index>
80

> <r_mmod_Potential_Energy-OPLS-2005>
239.060028076172

> <r_mmod_Stretch_Energy-OPLS-2005>
73.4316787719727

> <r_mmod_Bend_Energy-OPLS-2005>
184.741333007812

> <r_mmod_Torsional_Energy-OPLS-2005>
330.235595703125

> <r_mmod_Improper_Torsional_Energy-OPLS-2005>
3.10179424285889

> <r_mmod_Van_der_Waal_Energy-OPLS-2005>
170.655334472656

> <r_mmod_Electrostatic_Energy-OPLS-2005>
-357.999633789062

> <r_mmod_Solvation_Energy-OPLS-2005>
-184.570571899414

> <b_mmod_Minimization_Converged-OPLS-2005>
0

> <r_mmod_RMS_Derivative-OPLS-2005>
12.1657686233521

$$$$
80
                    3D
 Structure written by MMmdl.
165173  0  0  1  0            999 V2000
  -30.6453  -14.7446   20.5363 C   0  0  0  0  0  0
  -30.4429  -12.4766   19.4916 C   0  0  0  0  0  0
  -29.5134  -12.4812   18.2544 C   0  0  0  0  0  0
  -28.0476  -12.2827   18.6858 C   0  0  0  0  0  0
  -27.6525  -13.2192   19.8600 C   0  0  2  0  0  0
  -28.6889  -13.1917   21.0003 C   0  0  0  0  0  0
  -25.2636  -13.8208   20.5863 C   0  0  0  0  0  0
  -24.1921  -13.0437   20.9322 C   0  0  0  0  0  0
  -24.6426  -11.6920   20.8812 C   0  0  0  0  0  0
  -23.9068  -10.4273   21.0509 C   0  0  0  0  0  0
  -24.3615   -9.4203   21.9268 C   0  0  0  0  0  0
  -23.6337   -8.2200   22.0778 C   0  0  0  0  0  0
  -22.4345   -8.0244   21.3529 C   0  0  0  0  0  0
  -21.9917   -9.0251   20.4656 C   0  0  0  0  0  0
  -22.7240  -10.2177   20.3135 C   0  0  0  0  0  0
  -21.6848   -6.0748   22.5287 C   0  0  0  0  0  0
  -21.3966   -6.5658   23.8218 C   0  0  0  0  0  0
  -21.3668   -5.6830   24.9187 C   0  0  0  0  0  0
  -21.6061   -4.3092   24.7250 C   0  0  0  0  0  0
  -21.8817   -3.8178   23.4376 C   0  0  0  0  0  0
  -21.9199   -4.6963   22.3427 C   0  0  0  0  0  0
  -22.7942  -13.5233   21.1967 C   0  0  0  0  0  0
  -22.1701   -4.2197   21.0988 F   0  0  0  0  0  0
  -21.5649   -3.4531   25.7744 F   0  0  0  0  0  0
  -29.9839  -13.5444   20.4161 N   0  0  0  0  0  0
  -26.3045  -12.9334   20.3473 N   0  0  0  0  0  0
  -25.9351  -11.6479   20.5864 N   0  0  0  0  0  0
  -22.0606  -12.8141   22.0518 N   0  0  0  0  0  0
  -25.4412  -15.1857   20.4363 N   0  0  0  0  0  0
  -31.8368  -14.7930   20.2437 O   0  0  0  0  0  0
  -21.6643   -6.8922   21.4292 O   0  0  0  0  0  0
  -22.3624  -14.5553   20.6886 O   0  0  0  0  0  0
  -24.6164  -31.8541   23.2032 C   0  0  0  0  0  0
  -25.9069  -32.4745   23.8360 C   0  0  1  0  0  0
  -27.2449  -27.3119   20.2084 C   0  0  0  0  0  0
  -25.5891  -33.8548   24.2220 N   0  0  0  0  0  0
  -23.4201  -30.4690   21.5326 C   0  0  2  0  0  0
  -24.9039  -28.9363   20.1102 C   0  0  0  0  0  0
  -22.7462  -29.4510   22.4895 C   0  0  0  0  0  0
  -18.0253  -28.1299   22.8644 C   0  0  0  0  0  0
  -24.1511  -36.7250   23.2657 C   0  0  0  0  0  0
  -25.9495  -30.7926   21.3839 C   0  0  0  0  0  0
  -26.0426  -29.4097   20.7644 C   0  0  0  0  0  0
  -27.2155  -28.5997   20.8308 C   0  0  0  0  0  0
  -26.0949  -26.8808   19.5367 C   0  0  0  0  0  0
  -24.9375  -27.6762   19.4722 C   0  0  0  0  0  0
  -23.6434  -29.7874   20.1500 C   0  0  0  0  0  0
  -25.4112  -36.3014   24.0327 C   0  0  1  0  0  0
  -20.5868  -28.3624   23.1425 C   0  0  2  0  0  0
  -20.6826  -26.9318   22.5508 C   0  0  0  0  0  0
  -19.5752  -26.6374   21.5349 C   0  0  0  0  0  0
  -18.1863  -26.7896   22.1680 C   0  0  0  0  0  0
  -19.1481  -28.8763   23.3070 C   0  0  0  0  0  0
  -18.9387  -30.1393   23.8972 C   0  0  0  0  0  0
  -17.6387  -30.6593   24.0554 C   0  0  0  0  0  0
  -25.9028  -34.9363   23.5001 C   0  0  0  0  0  0
  -16.5295  -29.8986   23.6338 C   0  0  0  0  0  0
  -16.7258  -28.6393   23.0476 C   0  0  0  0  0  0
  -26.4478  -31.6646   25.0724 C   0  0  0  0  0  0
  -25.3732  -31.3803   26.1459 C   0  0  0  0  0  0
  -27.0342  -30.3072   24.6197 C   0  0  0  0  0  0
  -27.5991  -32.4463   25.7477 C   0  0  0  0  0  0
  -27.5544  -37.1758   24.8442 C   0  0  0  0  0  0
  -21.4156  -29.2969   22.3734 N   0  0  0  0  0  0
  -26.4280  -37.3696   23.9358 N   0  0  0  0  0  0
  -24.6789  -31.0653   22.0977 N   0  0  0  0  0  0
  -23.4214  -28.8054   23.3000 O   0  0  0  0  0  0
  -28.3551  -26.4666   20.3492 O   0  0  0  0  0  0
  -26.5635  -34.8842   22.4625 O   0  0  0  0  0  0
  -23.5345  -32.1350   23.7445 O   0  0  0  0  0  0
  -29.3087  -18.6775   23.0220 C   0  0  0  0  0  0
  -29.5603  -18.2796   21.6661 C   0  0  0  0  0  0
  -29.0930  -17.6675   23.9093 C   0  0  0  0  0  0
  -29.6835  -16.8496   21.5776 C   0  0  0  0  0  0
  -28.6955  -17.8028   25.3472 C   0  0  0  0  0  0
  -28.7480  -23.7295   22.2272 C   0  0  0  0  0  0
  -29.7952  -22.4737   19.0150 C   0  0  0  0  0  0
  -27.4657  -21.6015   19.4520 C   0  0  0  0  0  0
  -29.6495  -19.4690   20.6223 C   0  0  0  0  0  0
  -29.2609  -20.9926   21.0887 C   0  0  0  0  0  0
  -28.4431  -25.0640   19.8400 C   0  0  0  0  0  0
  -28.3101  -23.6714   20.7350 C   0  0  2  0  0  0
  -28.7344  -22.2022   20.1013 C   0  0  0  0  0  0
  -29.9371  -15.9478   20.5445 N   0  0  0  0  0  0
  -29.3473  -16.1303   23.1514 S   0  0  0  0  0  0
  -31.4820  -12.6166   19.1809 H   0  0  0  0  0  0
  -30.4243  -11.5055   19.9900 H   0  0  0  0  0  0
  -29.8037  -11.6732   17.5800 H   0  0  0  0  0  0
  -29.6290  -13.4143   17.6984 H   0  0  0  0  0  0
  -27.9339  -11.2461   18.9902 H   0  0  0  0  0  0
  -27.3667  -12.4124   17.8440 H   0  0  0  0  0  0
  -27.6505  -14.2344   19.4575 H   0  0  0  0  0  0
  -28.7247  -12.2175   21.4919 H   0  0  0  0  0  0
  -28.3815  -13.8999   21.7671 H   0  0  0  0  0  0
  -25.2775   -9.5633   22.4833 H   0  0  0  0  0  0
  -24.0072   -7.4532   22.7382 H   0  0  0  0  0  0
  -21.0871   -8.8769   19.8873 H   0  0  0  0  0  0
  -22.3749  -10.9718   19.6215 H   0  0  0  0  0  0
  -21.1930   -7.6160   23.9713 H   0  0  0  0  0  0
  -21.1506   -6.0579   25.9106 H   0  0  0  0  0  0
  -22.0595   -2.7621   23.2880 H   0  0  0  0  0  0
  -22.4232  -11.9706   22.4662 H   0  0  0  0  0  0
  -21.1226  -13.1158   22.2754 H   0  0  0  0  0  0
  -24.6987  -15.8613   20.5819 H   0  0  0  0  0  0
  -26.3373  -15.6070   20.2251 H   0  0  0  0  0  0
  -26.7070  -32.5479   23.1068 H   0  0  0  0  0  0
  -24.9985  -33.9670   25.0293 H   0  0  0  0  0  0
  -22.7075  -31.2822   21.3768 H   0  0  0  0  0  0
  -23.3730  -35.9624   23.3347 H   0  0  0  0  0  0
  -24.3615  -36.8849   22.2060 H   0  0  0  0  0  0
  -23.7316  -37.6457   23.6729 H   0  0  0  0  0  0
  -26.0742  -31.5514   20.6138 H   0  0  0  0  0  0
  -26.8144  -30.8561   22.0200 H   0  0  0  0  0  0
  -28.0459  -28.9636   21.4190 H   0  0  0  0  0  0
  -26.0699  -25.9138   19.0639 H   0  0  0  0  0  0
  -24.0911  -27.3010   18.9202 H   0  0  0  0  0  0
  -23.7207  -30.5360   19.3628 H   0  0  0  0  0  0
  -22.7825  -29.1740   19.8745 H   0  0  0  0  0  0
  -25.1365  -36.1787   25.0843 H   0  0  0  0  0  0
  -20.9991  -28.3226   24.1524 H   0  0  0  0  0  0
  -20.6016  -26.2130   23.3691 H   0  0  0  0  0  0
  -21.6631  -26.7431   22.1034 H   0  0  0  0  0  0
  -19.6851  -25.6280   21.1290 H   0  0  0  0  0  0
  -19.6698  -27.3182   20.6891 H   0  0  0  0  0  0
  -17.4232  -26.6774   21.3923 H   0  0  0  0  0  0
  -18.0045  -25.9894   22.8838 H   0  0  0  0  0  0
  -19.7925  -30.7096   24.2337 H   0  0  0  0  0  0
  -17.4914  -31.6334   24.4996 H   0  0  0  0  0  0
  -15.5319  -30.2945   23.7339 H   0  0  0  0  0  0
  -15.8720  -28.0589   22.7274 H   0  0  0  0  0  0
  -24.5800  -30.7269   25.7793 H   0  0  0  0  0  0
  -24.9100  -32.3038   26.4973 H   0  0  0  0  0  0
  -25.8083  -30.8879   27.0178 H   0  0  0  0  0  0
  -26.2940  -29.6708   24.1358 H   0  0  0  0  0  0
  -27.4163  -29.7400   25.4697 H   0  0  0  0  0  0
  -27.8737  -30.4274   23.9343 H   0  0  0  0  0  0
  -27.2442  -33.3707   26.2077 H   0  0  0  0  0  0
  -28.3766  -32.7152   25.0304 H   0  0  0  0  0  0
  -28.0703  -31.8611   26.5380 H   0  0  0  0  0  0
  -28.2565  -38.0056   24.7442 H   0  0  0  0  0  0
  -28.1030  -36.2550   24.6348 H   0  0  0  0  0  0
  -27.2263  -37.1505   25.8857 H   0  0  0  0  0  0
  -20.9410  -29.8425   21.6690 H   0  0  0  0  0  0
  -26.0117  -38.2764   24.1374 H   0  0  0  0  0  0
  -29.2258  -19.7078   23.3379 H   0  0  0  0  0  0
  -27.6758  -17.4381   25.4910 H   0  0  0  0  0  0
  -28.7402  -18.8387   25.6906 H   0  0  0  0  0  0
  -29.3411  -17.2277   25.9984 H   0  0  0  0  0  0
  -28.2760  -24.5349   22.7898 H   0  0  0  0  0  0
  -29.8319  -23.7685   22.3968 H   0  0  0  0  0  0
  -28.3725  -22.8570   22.7645 H   0  0  0  0  0  0
  -30.1767  -21.5380   18.6082 H   0  0  0  0  0  0
  -30.6530  -23.0286   19.4151 H   0  0  0  0  0  0
  -29.3621  -23.0489   18.1860 H   0  0  0  0  0  0
  -26.7424  -21.2637   20.2063 H   0  0  0  0  0  0
  -27.7102  -20.7270   18.8543 H   0  0  0  0  0  0
  -26.9364  -22.2810   18.7786 H   0  0  0  0  0  0
  -29.0759  -19.2032   19.7396 H   0  0  0  0  0  0
  -30.6675  -19.5315   20.2541 H   0  0  0  0  0  0
  -30.0759  -21.3678   21.7304 H   0  0  0  0  0  0
  -28.4179  -20.8358   21.7562 H   0  0  0  0  0  0
  -27.7799  -24.9069   18.9854 H   0  0  0  0  0  0
  -29.4034  -25.1755   19.3404 H   0  0  0  0  0  0
  -27.2318  -23.6265   20.8672 H   0  0  0  0  0  0
  -30.1364  -16.4394   19.6868 H   0  0  0  0  0  0
  1 25  1  0  0  0
  1 30  2  0  0  0
  1 84  1  0  0  0
  2  3  1  0  0  0
  2 25  1  0  0  0
  2 86  1  0  0  0
  2 87  1  0  0  0
  3  4  1  0  0  0
  3 88  1  0  0  0
  3 89  1  0  0  0
  4  5  1  0  0  0
  4 90  1  0  0  0
  4 91  1  0  0  0
  5  6  1  0  0  0
  5 26  1  0  0  0
  5 92  1  0  0  0
  6 25  1  0  0  0
  6 93  1  0  0  0
  6 94  1  0  0  0
  7  8  2  0  0  0
  7 26  1  0  0  0
  7 29  1  0  0  0
  8  9  1  0  0  0
  8 22  1  0  0  0
  9 10  1  0  0  0
  9 27  2  0  0  0
 10 11  2  0  0  0
 10 15  1  0  0  0
 11 12  1  0  0  0
 11 95  1  0  0  0
 12 13  2  0  0  0
 12 96  1  0  0  0
 13 14  1  0  0  0
 13 31  1  0  0  0
 14 15  2  0  0  0
 14 97  1  0  0  0
 15 98  1  0  0  0
 16 17  2  0  0  0
 16 21  1  0  0  0
 16 31  1  0  0  0
 17 18  1  0  0  0
 17 99  1  0  0  0
 18 19  2  0  0  0
 18100  1  0  0  0
 19 20  1  0  0  0
 19 24  1  0  0  0
 20 21  2  0  0  0
 20101  1  0  0  0
 21 23  1  0  0  0
 22 28  1  0  0  0
 22 32  2  0  0  0
 26 27  1  0  0  0
 28102  1  0  0  0
 28103  1  0  0  0
 29104  1  0  0  0
 29105  1  0  0  0
 33 34  1  0  0  0
 33 66  1  0  0  0
 33 70  2  0  0  0
 34 36  1  0  0  0
 34 59  1  0  0  0
 34106  1  0  0  0
 35 44  2  0  0  0
 35 45  1  0  0  0
 35 68  1  0  0  0
 36 56  1  0  0  0
 36107  1  0  0  0
 37 39  1  0  0  0
 37 47  1  0  0  0
 37 66  1  0  0  0
 37108  1  0  0  0
 38 43  2  0  0  0
 38 46  1  0  0  0
 38 47  1  0  0  0
 39 64  1  0  0  0
 39 67  2  0  0  0
 40 52  1  0  0  0
 40 53  2  0  0  0
 40 58  1  0  0  0
 41109  1  0  0  0
 41110  1  0  0  0
 41111  1  0  0  0
 41 48  1  0  0  0
 42 43  1  0  0  0
 42 66  1  0  0  0
 42112  1  0  0  0
 42113  1  0  0  0
 43 44  1  0  0  0
 44114  1  0  0  0
 45 46  2  0  0  0
 45115  1  0  0  0
 46116  1  0  0  0
 47117  1  0  0  0
 47118  1  0  0  0
 48 56  1  0  0  0
 48 65  1  0  0  0
 48119  1  0  0  0
 49 50  1  0  0  0
 49 53  1  0  0  0
 49 64  1  0  0  0
 49120  1  0  0  0
 50 51  1  0  0  0
 50121  1  0  0  0
 50122  1  0  0  0
 51 52  1  0  0  0
 51123  1  0  0  0
 51124  1  0  0  0
 52125  1  0  0  0
 52126  1  0  0  0
 53 54  1  0  0  0
 54 55  2  0  0  0
 54127  1  0  0  0
 55 57  1  0  0  0
 55128  1  0  0  0
 56 69  2  0  0  0
 57 58  2  0  0  0
 57129  1  0  0  0
 58130  1  0  0  0
 59 60  1  0  0  0
 59 61  1  0  0  0
 59 62  1  0  0  0
 60131  1  0  0  0
 60132  1  0  0  0
 60133  1  0  0  0
 61134  1  0  0  0
 61135  1  0  0  0
 61136  1  0  0  0
 62137  1  0  0  0
 62138  1  0  0  0
 62139  1  0  0  0
 63 65  1  0  0  0
 63140  1  0  0  0
 63141  1  0  0  0
 63142  1  0  0  0
 64143  1  0  0  0
 65144  1  0  0  0
 68 81  1  0  0  0
 71 72  1  0  0  0
 71 73  2  0  0  0
 71145  1  0  0  0
 72 74  2  0  0  0
 72 79  1  0  0  0
 73 75  1  0  0  0
 73 85  1  0  0  0
 74 84  1  0  0  0
 74 85  1  0  0  0
 75146  1  0  0  0
 75147  1  0  0  0
 75148  1  0  0  0
 76149  1  0  0  0
 76150  1  0  0  0
 76151  1  0  0  0
 76 82  1  0  0  0
 77152  1  0  0  0
 77153  1  0  0  0
 77154  1  0  0  0
 77 83  1  0  0  0
 78 83  1  0  0  0
 78155  1  0  0  0
 78156  1  0  0  0
 78157  1  0  0  0
 79 80  1  0  0  0
 79158  1  0  0  0
 79159  1  0  0  0
 80 83  1  0  0  0
 80160  1  0  0  0
 80161  1  0  0  0
 81 82  1  0  0  0
 81162  1  0  0  0
 81163  1  0  0  0
 82 83  1  0  0  0
 82164  1  0  0  0
 84165  1  0  0  0
M  ISO  4   1 100  68 101  81 101  84 100
M  END
> <chiral flag>
0

> <version>
0

> <s_m_source_file>
/data/baiqing/PycharmProjects/Reinvent-master-3.2/result/LINK_invent/BTK/process_docking_weight1_custom_product_contain_oxygen_bond_distance_aromatic_linkinvent_7_9_3/rearranged_h_0140.sdf

> <i_m_source_file_index>
81

> <r_mmod_Potential_Energy-OPLS-2005>
356.559020996094

> <r_mmod_Stretch_Energy-OPLS-2005>
152.149017333984

> <r_mmod_Bend_Energy-OPLS-2005>
258.693695068359

> <r_mmod_Torsional_Energy-OPLS-2005>
291.063598632812

> <r_mmod_Improper_Torsional_Energy-OPLS-2005>
16.4411125183105

> <r_mmod_Van_der_Waal_Energy-OPLS-2005>
126.37329864502

> <r_mmod_Electrostatic_Energy-OPLS-2005>
-391.042663574219

> <r_mmod_Solvation_Energy-OPLS-2005>
-184.69401550293

> <b_mmod_Minimization_Converged-OPLS-2005>
0

> <r_mmod_RMS_Derivative-OPLS-2005>
19.5718841552734

$$$$
81
                    3D
 Structure written by MMmdl.
157166  0  0  1  0            999 V2000
  -30.5772  -14.8015   20.3639 C   0  0  0  0  0  0
  -30.4320  -12.4777   19.4675 C   0  0  0  0  0  0
  -29.5047  -12.5059   18.2303 C   0  0  0  0  0  0
  -28.0291  -12.3398   18.6396 C   0  0  0  0  0  0
  -27.6384  -13.2339   19.8497 C   0  0  2  0  0  0
  -28.6938  -13.1873   20.9796 C   0  0  0  0  0  0
  -25.2498  -13.8151   20.5702 C   0  0  0  0  0  0
  -24.1801  -13.0423   20.9262 C   0  0  0  0  0  0
  -24.6427  -11.6901   20.8805 C   0  0  0  0  0  0
  -23.9099  -10.4291   21.0451 C   0  0  0  0  0  0
  -24.3665   -9.4194   21.9225 C   0  0  0  0  0  0
  -23.6305   -8.2257   22.0801 C   0  0  0  0  0  0
  -22.4282   -8.0303   21.3585 C   0  0  0  0  0  0
  -21.9929   -9.0292   20.4699 C   0  0  0  0  0  0
  -22.7274  -10.2161   20.3097 C   0  0  0  0  0  0
  -21.6825   -6.0753   22.5294 C   0  0  0  0  0  0
  -21.3992   -6.5648   23.8221 C   0  0  0  0  0  0
  -21.3689   -5.6805   24.9189 C   0  0  0  0  0  0
  -21.6053   -4.3060   24.7238 C   0  0  0  0  0  0
  -21.8800   -3.8162   23.4344 C   0  0  0  0  0  0
  -21.9194   -4.6988   22.3407 C   0  0  0  0  0  0
  -22.7834  -13.5235   21.1920 C   0  0  0  0  0  0
  -22.1651   -4.2169   21.0983 F   0  0  0  0  0  0
  -21.5634   -3.4560   25.7751 F   0  0  0  0  0  0
  -29.9884  -13.5499   20.3856 N   0  0  0  0  0  0
  -26.2928  -12.9372   20.3325 N   0  0  0  0  0  0
  -25.9369  -11.6504   20.5866 N   0  0  0  0  0  0
  -22.0450  -12.8204   22.0409 N   0  0  0  0  0  0
  -25.4170  -15.1899   20.4030 N   0  0  0  0  0  0
  -31.7660  -14.8984   20.0401 O   0  0  0  0  0  0
  -21.6608   -6.8930   21.4270 O   0  0  0  0  0  0
  -22.3555  -14.5589   20.6784 O   0  0  0  0  0  0
  -24.6334  -31.8508   23.1924 C   0  0  0  0  0  0
  -25.9147  -32.4736   23.8289 C   0  0  1  0  0  0
  -27.1998  -27.2347   20.1447 C   0  0  0  0  0  0
  -25.5948  -33.8546   24.2230 N   0  0  0  0  0  0
  -23.4297  -30.4728   21.5392 C   0  0  2  0  0  0
  -24.8736  -28.9090   20.1133 C   0  0  0  0  0  0
  -22.7497  -29.4584   22.4891 C   0  0  0  0  0  0
  -18.0309  -28.1350   22.8490 C   0  0  0  0  0  0
  -24.1497  -36.7282   23.2623 C   0  0  0  0  0  0
  -25.9767  -30.7575   21.3712 C   0  0  0  0  0  0
  -26.0463  -29.3755   20.7228 C   0  0  0  0  0  0
  -27.2207  -28.5546   20.7172 C   0  0  0  0  0  0
  -26.0091  -26.8311   19.5154 C   0  0  0  0  0  0
  -24.8584  -27.6464   19.5021 C   0  0  0  0  0  0
  -23.6507  -29.8030   20.1567 C   0  0  0  0  0  0
  -25.4121  -36.3049   24.0313 C   0  0  1  0  0  0
  -20.5898  -28.3736   23.1302 C   0  0  2  0  0  0
  -20.6853  -26.9421   22.5621 C   0  0  0  0  0  0
  -19.5868  -26.6183   21.5407 C   0  0  0  0  0  0
  -18.2018  -26.7828   22.1771 C   0  0  0  0  0  0
  -19.1529  -28.8885   23.2856 C   0  0  0  0  0  0
  -18.9419  -30.1487   23.8820 C   0  0  0  0  0  0
  -17.6385  -30.6614   24.0418 C   0  0  0  0  0  0
  -25.9085  -34.9424   23.5076 C   0  0  0  0  0  0
  -16.5313  -29.9052   23.6235 C   0  0  0  0  0  0
  -16.7280  -28.6402   23.0374 C   0  0  0  0  0  0
  -26.4500  -31.6567   25.0690 C   0  0  0  0  0  0
  -25.3717  -31.3780   26.1414 C   0  0  0  0  0  0
  -27.0352  -30.2987   24.6186 C   0  0  0  0  0  0
  -27.6058  -32.4299   25.7472 C   0  0  0  0  0  0
  -27.5563  -37.1802   24.8453 C   0  0  0  0  0  0
  -21.4215  -29.3001   22.3618 N   0  0  0  0  0  0
  -26.4282  -37.3752   23.9378 N   0  0  0  0  0  0
  -24.6992  -31.0471   22.0901 N   0  0  0  0  0  0
  -23.4165  -28.8125   23.3031 O   0  0  0  0  0  0
  -28.2777  -26.3201   20.1641 O   0  0  0  0  0  0
  -26.5640  -34.8905   22.4631 O   0  0  0  0  0  0
  -23.5486  -32.1370   23.7196 O   0  0  0  0  0  0
  -29.1189  -18.3755   20.5041 C   0  0  0  0  0  0
  -29.4275  -19.5341   19.6516 C   0  0  0  0  0  0
  -30.3017  -18.9533   18.7453 C   0  0  0  0  0  0
  -29.8481  -17.2484   20.0926 C   0  0  0  0  0  0
  -27.5121  -21.3519   18.9896 C   0  0  0  0  0  0
  -27.2095  -22.8720   19.2224 C   0  0  0  0  0  0
  -29.0420  -22.2272   20.6246 C   0  0  0  0  0  0
  -28.9216  -21.0756   19.5388 C   0  0  1  0  0  0
  -28.4199  -23.5405   19.9269 C   0  0  2  0  0  0
  -30.9697  -19.4482   17.4977 C   0  0  0  0  0  0
  -28.0617  -24.9279   20.7177 C   0  0  0  0  0  0
  -29.7756  -15.9238   20.5708 N   0  0  0  0  0  0
  -30.5730  -17.6185   19.0074 O   0  0  0  0  0  0
  -31.4736  -12.6029   19.1620 H   0  0  0  0  0  0
  -30.3890  -11.5070   19.9644 H   0  0  0  0  0  0
  -29.7850  -11.7185   17.5306 H   0  0  0  0  0  0
  -29.6205  -13.4509   17.6943 H   0  0  0  0  0  0
  -27.8682  -11.2895   18.8900 H   0  0  0  0  0  0
  -27.3809  -12.5427   17.7876 H   0  0  0  0  0  0
  -27.6245  -14.2574   19.4734 H   0  0  0  0  0  0
  -28.7391  -12.1887   21.4181 H   0  0  0  0  0  0
  -28.4340  -13.8608   21.8012 H   0  0  0  0  0  0
  -25.2874   -9.5600   22.4739 H   0  0  0  0  0  0
  -23.9998   -7.4626   22.7501 H   0  0  0  0  0  0
  -21.0869   -8.8811   19.9010 H   0  0  0  0  0  0
  -22.3778  -10.9679   19.6160 H   0  0  0  0  0  0
  -21.1894   -7.6150   23.9714 H   0  0  0  0  0  0
  -21.1565   -6.0552   25.9097 H   0  0  0  0  0  0
  -22.0551   -2.7633   23.2822 H   0  0  0  0  0  0
  -22.4040  -11.9859   22.4806 H   0  0  0  0  0  0
  -21.1103  -13.1287   22.2669 H   0  0  0  0  0  0
  -24.6450  -15.8392   20.5121 H   0  0  0  0  0  0
  -26.2416  -15.6125   19.9959 H   0  0  0  0  0  0
  -26.7170  -32.5400   23.0976 H   0  0  0  0  0  0
  -25.0114  -33.9667   25.0397 H   0  0  0  0  0  0
  -22.7277  -31.2959   21.3860 H   0  0  0  0  0  0
  -23.3754  -35.9620   23.3305 H   0  0  0  0  0  0
  -24.3592  -36.8894   22.2028 H   0  0  0  0  0  0
  -23.7282  -37.6498   23.6669 H   0  0  0  0  0  0
  -26.1137  -31.5111   20.5935 H   0  0  0  0  0  0
  -26.8554  -30.8135   22.0019 H   0  0  0  0  0  0
  -28.1253  -28.9076   21.1957 H   0  0  0  0  0  0
  -25.9540  -25.8595   19.0425 H   0  0  0  0  0  0
  -23.9524  -27.2774   19.0395 H   0  0  0  0  0  0
  -23.7846  -30.5786   19.4039 H   0  0  0  0  0  0
  -22.7674  -29.2389   19.8461 H   0  0  0  0  0  0
  -25.1295  -36.1864   25.0810 H   0  0  0  0  0  0
  -20.9968  -28.3430   24.1438 H   0  0  0  0  0  0
  -20.5705  -26.2515   23.3953 H   0  0  0  0  0  0
  -21.6743  -26.7330   22.1524 H   0  0  0  0  0  0
  -19.6865  -27.2754   20.6763 H   0  0  0  0  0  0
  -19.7023  -25.5988   21.1711 H   0  0  0  0  0  0
  -17.4331  -26.6436   21.4159 H   0  0  0  0  0  0
  -18.0501  -26.0100   22.9310 H   0  0  0  0  0  0
  -19.7910  -30.7294   24.2153 H   0  0  0  0  0  0
  -17.4908  -31.6363   24.4873 H   0  0  0  0  0  0
  -15.5278  -30.2905   23.7485 H   0  0  0  0  0  0
  -15.8671  -28.0660   22.7241 H   0  0  0  0  0  0
  -24.5855  -30.7140   25.7748 H   0  0  0  0  0  0
  -24.8960  -32.3007   26.4761 H   0  0  0  0  0  0
  -25.8010  -30.8987   27.0225 H   0  0  0  0  0  0
  -26.2926  -29.6736   24.1194 H   0  0  0  0  0  0
  -27.4018  -29.7226   25.4693 H   0  0  0  0  0  0
  -27.8809  -30.4255   23.9429 H   0  0  0  0  0  0
  -27.2631  -33.3576   26.2060 H   0  0  0  0  0  0
  -28.3873  -32.6886   25.0313 H   0  0  0  0  0  0
  -28.0736  -31.8432   26.5385 H   0  0  0  0  0  0
  -28.2590  -38.0088   24.7460 H   0  0  0  0  0  0
  -28.1072  -36.2620   24.6336 H   0  0  0  0  0  0
  -27.2307  -37.1478   25.8871 H   0  0  0  0  0  0
  -20.9346  -29.8756   21.6883 H   0  0  0  0  0  0
  -26.0168  -38.2826   24.1387 H   0  0  0  0  0  0
  -28.4160  -18.3541   21.3266 H   0  0  0  0  0  0
  -27.4435  -21.1048   17.9305 H   0  0  0  0  0  0
  -26.7743  -20.7360   19.5022 H   0  0  0  0  0  0
  -26.3220  -22.9704   19.8491 H   0  0  0  0  0  0
  -26.9751  -23.3745   18.2826 H   0  0  0  0  0  0
  -30.0828  -22.3737   20.9242 H   0  0  0  0  0  0
  -28.4880  -21.9468   21.5228 H   0  0  0  0  0  0
  -29.5576  -21.4707   18.7490 H   0  0  0  0  0  0
  -29.1458  -23.8159   19.1615 H   0  0  0  0  0  0
  -32.0555  -19.4459   17.6029 H   0  0  0  0  0  0
  -30.6610  -20.4528   17.2194 H   0  0  0  0  0  0
  -30.7014  -18.8049   16.6550 H   0  0  0  0  0  0
  -28.6328  -24.9207   21.6461 H   0  0  0  0  0  0
  -27.0293  -24.8454   21.0628 H   0  0  0  0  0  0
  -28.9138  -15.7126   21.0448 H   0  0  0  0  0  0
  1 25  1  0  0  0
  1 30  2  0  0  0
  1 82  1  0  0  0
  2  3  1  0  0  0
  2 25  1  0  0  0
  2 84  1  0  0  0
  2 85  1  0  0  0
  3  4  1  0  0  0
  3 86  1  0  0  0
  3 87  1  0  0  0
  4  5  1  0  0  0
  4 88  1  0  0  0
  4 89  1  0  0  0
  5  6  1  0  0  0
  5 26  1  0  0  0
  5 90  1  0  0  0
  6 25  1  0  0  0
  6 91  1  0  0  0
  6 92  1  0  0  0
  7  8  2  0  0  0
  7 26  1  0  0  0
  7 29  1  0  0  0
  8  9  1  0  0  0
  8 22  1  0  0  0
  9 10  1  0  0  0
  9 27  2  0  0  0
 10 11  2  0  0  0
 10 15  1  0  0  0
 11 12  1  0  0  0
 11 93  1  0  0  0
 12 13  2  0  0  0
 12 94  1  0  0  0
 13 14  1  0  0  0
 13 31  1  0  0  0
 14 15  2  0  0  0
 14 95  1  0  0  0
 15 96  1  0  0  0
 16 17  2  0  0  0
 16 21  1  0  0  0
 16 31  1  0  0  0
 17 18  1  0  0  0
 17 97  1  0  0  0
 18 19  2  0  0  0
 18 98  1  0  0  0
 19 20  1  0  0  0
 19 24  1  0  0  0
 20 21  2  0  0  0
 20 99  1  0  0  0
 21 23  1  0  0  0
 22 28  1  0  0  0
 22 32  2  0  0  0
 26 27  1  0  0  0
 28100  1  0  0  0
 28101  1  0  0  0
 29102  1  0  0  0
 29103  1  0  0  0
 33 34  1  0  0  0
 33 66  1  0  0  0
 33 70  2  0  0  0
 34 36  1  0  0  0
 34 59  1  0  0  0
 34104  1  0  0  0
 35 44  2  0  0  0
 35 45  1  0  0  0
 35 68  1  0  0  0
 36 56  1  0  0  0
 36105  1  0  0  0
 37 39  1  0  0  0
 37 47  1  0  0  0
 37 66  1  0  0  0
 37106  1  0  0  0
 38 43  2  0  0  0
 38 46  1  0  0  0
 38 47  1  0  0  0
 39 64  1  0  0  0
 39 67  2  0  0  0
 40 52  1  0  0  0
 40 53  2  0  0  0
 40 58  1  0  0  0
 41107  1  0  0  0
 41108  1  0  0  0
 41109  1  0  0  0
 41 48  1  0  0  0
 42 43  1  0  0  0
 42 66  1  0  0  0
 42110  1  0  0  0
 42111  1  0  0  0
 43 44  1  0  0  0
 44112  1  0  0  0
 45 46  2  0  0  0
 45113  1  0  0  0
 46114  1  0  0  0
 47115  1  0  0  0
 47116  1  0  0  0
 48 56  1  0  0  0
 48 65  1  0  0  0
 48117  1  0  0  0
 49 50  1  0  0  0
 49 53  1  0  0  0
 49 64  1  0  0  0
 49118  1  0  0  0
 50 51  1  0  0  0
 50119  1  0  0  0
 50120  1  0  0  0
 51 52  1  0  0  0
 51121  1  0  0  0
 51122  1  0  0  0
 52123  1  0  0  0
 52124  1  0  0  0
 53 54  1  0  0  0
 54 55  2  0  0  0
 54125  1  0  0  0
 55 57  1  0  0  0
 55126  1  0  0  0
 56 69  2  0  0  0
 57 58  2  0  0  0
 57127  1  0  0  0
 58128  1  0  0  0
 59 60  1  0  0  0
 59 61  1  0  0  0
 59 62  1  0  0  0
 60129  1  0  0  0
 60130  1  0  0  0
 60131  1  0  0  0
 61132  1  0  0  0
 61133  1  0  0  0
 61134  1  0  0  0
 62135  1  0  0  0
 62136  1  0  0  0
 62137  1  0  0  0
 63 65  1  0  0  0
 63138  1  0  0  0
 63139  1  0  0  0
 63140  1  0  0  0
 64141  1  0  0  0
 65142  1  0  0  0
 68 81  1  0  0  0
 71 72  1  0  0  0
 71 74  2  0  0  0
 71143  1  0  0  0
 72 73  2  0  0  0
 72 78  1  0  0  0
 73 80  1  0  0  0
 73 83  1  0  0  0
 74 82  1  0  0  0
 74 83  1  0  0  0
 75 76  1  0  0  0
 75 78  1  0  0  0
 75144  1  0  0  0
 75145  1  0  0  0
 76 79  1  0  0  0
 76146  1  0  0  0
 76147  1  0  0  0
 77 78  1  0  0  0
 77 79  1  0  0  0
 77148  1  0  0  0
 77149  1  0  0  0
 78150  1  0  0  0
 79 81  1  0  0  0
 79151  1  0  0  0
 80152  1  0  0  0
 80153  1  0  0  0
 80154  1  0  0  0
 81155  1  0  0  0
 81156  1  0  0  0
 82157  1  0  0  0
M  ISO  4   1 100  68 101  81 101  82 100
M  END
> <chiral flag>
0

> <version>
0

> <s_m_source_file>
/data/baiqing/PycharmProjects/Reinvent-master-3.2/result/LINK_invent/BTK/process_docking_weight1_custom_product_contain_oxygen_bond_distance_aromatic_linkinvent_7_9_3/rearranged_h_0140.sdf

> <i_m_source_file_index>
82

> <r_mmod_Potential_Energy-OPLS-2005>
288.764282226562

> <r_mmod_Stretch_Energy-OPLS-2005>
129.738388061523

> <r_mmod_Bend_Energy-OPLS-2005>
238.630096435547

> <r_mmod_Torsional_Energy-OPLS-2005>
284.324157714844

> <r_mmod_Improper_Torsional_Energy-OPLS-2005>
4.6142840385437

> <r_mmod_Van_der_Waal_Energy-OPLS-2005>
109.831695556641

> <r_mmod_Electrostatic_Energy-OPLS-2005>
-378.981292724609

> <r_mmod_Solvation_Energy-OPLS-2005>
-209.548187255859

> <b_mmod_Minimization_Converged-OPLS-2005>
0

> <r_mmod_RMS_Derivative-OPLS-2005>
7.47722101211548

$$$$
82
                    3D
 Structure written by MMmdl.
172181  0  0  1  0            999 V2000
  -30.7143  -14.4660   20.5512 C   0  0  0  0  0  0
  -30.4137  -12.2936   19.4358 C   0  0  0  0  0  0
  -29.4953  -12.5016   18.2138 C   0  0  0  0  0  0
  -28.0154  -12.3706   18.6205 C   0  0  0  0  0  0
  -27.6610  -13.2118   19.8767 C   0  0  2  0  0  0
  -28.7011  -13.0039   21.0024 C   0  0  0  0  0  0
  -25.2570  -13.8168   20.5690 C   0  0  0  0  0  0
  -24.1831  -13.0438   20.9181 C   0  0  0  0  0  0
  -24.6395  -11.6908   20.8742 C   0  0  0  0  0  0
  -23.9069  -10.4290   21.0408 C   0  0  0  0  0  0
  -24.3628   -9.4206   21.9182 C   0  0  0  0  0  0
  -23.6303   -8.2239   22.0752 C   0  0  0  0  0  0
  -22.4287   -8.0279   21.3540 C   0  0  0  0  0  0
  -21.9925   -9.0250   20.4641 C   0  0  0  0  0  0
  -22.7247  -10.2132   20.3047 C   0  0  0  0  0  0
  -21.6854   -6.0738   22.5276 C   0  0  0  0  0  0
  -21.4012   -6.5640   23.8211 C   0  0  0  0  0  0
  -21.3666   -5.6795   24.9173 C   0  0  0  0  0  0
  -21.6046   -4.3057   24.7224 C   0  0  0  0  0  0
  -21.8824   -3.8145   23.4348 C   0  0  0  0  0  0
  -21.9188   -4.6965   22.3402 C   0  0  0  0  0  0
  -22.7848  -13.5219   21.1843 C   0  0  0  0  0  0
  -22.1659   -4.2148   21.0982 F   0  0  0  0  0  0
  -21.5634   -3.4543   25.7745 F   0  0  0  0  0  0
  -30.0357  -13.2898   20.4508 N   0  0  0  0  0  0
  -26.3018  -12.9352   20.3370 N   0  0  0  0  0  0
  -25.9326  -11.6508   20.5777 N   0  0  0  0  0  0
  -22.0503  -12.8205   22.0397 N   0  0  0  0  0  0
  -25.4260  -15.1887   20.4083 N   0  0  0  0  0  0
  -31.8537  -14.6026   20.0986 O   0  0  0  0  0  0
  -21.6639   -6.8884   21.4239 O   0  0  0  0  0  0
  -22.3535  -14.5528   20.6692 O   0  0  0  0  0  0
  -24.6170  -31.8689   23.2102 C   0  0  0  0  0  0
  -25.9050  -32.4834   23.8405 C   0  0  1  0  0  0
  -27.2290  -27.4184   20.0759 C   0  0  0  0  0  0
  -25.5904  -33.8634   24.2334 N   0  0  0  0  0  0
  -23.4054  -30.4952   21.5514 C   0  0  2  0  0  0
  -24.8495  -28.9675   20.1120 C   0  0  0  0  0  0
  -22.7426  -29.4663   22.4968 C   0  0  0  0  0  0
  -18.0274  -28.1384   22.8478 C   0  0  0  0  0  0
  -24.1486  -36.7318   23.2630 C   0  0  0  0  0  0
  -25.9392  -30.8261   21.3697 C   0  0  0  0  0  0
  -26.0139  -29.4613   20.7124 C   0  0  0  0  0  0
  -27.2052  -28.6937   20.6953 C   0  0  0  0  0  0
  -26.0370  -26.9561   19.4625 C   0  0  0  0  0  0
  -24.8573  -27.7146   19.4851 C   0  0  0  0  0  0
  -23.6146  -29.8357   20.1640 C   0  0  0  0  0  0
  -25.4104  -36.3114   24.0333 C   0  0  1  0  0  0
  -20.5866  -28.3677   23.1299 C   0  0  2  0  0  0
  -20.6762  -26.9412   22.5402 C   0  0  0  0  0  0
  -19.5745  -26.6388   21.5196 C   0  0  0  0  0  0
  -18.1925  -26.7927   22.1615 C   0  0  0  0  0  0
  -19.1526  -28.8841   23.2888 C   0  0  0  0  0  0
  -18.9459  -30.1441   23.8908 C   0  0  0  0  0  0
  -17.6462  -30.6584   24.0565 C   0  0  0  0  0  0
  -25.9039  -34.9480   23.5133 C   0  0  0  0  0  0
  -16.5350  -29.9091   23.6321 C   0  0  0  0  0  0
  -16.7264  -28.6511   23.0337 C   0  0  0  0  0  0
  -26.4469  -31.6607   25.0736 C   0  0  0  0  0  0
  -25.3724  -31.3712   26.1475 C   0  0  0  0  0  0
  -27.0303  -30.3048   24.6115 C   0  0  0  0  0  0
  -27.6054  -32.4315   25.7500 C   0  0  0  0  0  0
  -27.5596  -37.1787   24.8440 C   0  0  0  0  0  0
  -21.4148  -29.3049   22.3712 N   0  0  0  0  0  0
  -26.4278  -37.3813   23.9433 N   0  0  0  0  0  0
  -24.6722  -31.0773   22.1020 N   0  0  0  0  0  0
  -23.4196  -28.8182   23.2995 O   0  0  0  0  0  0
  -28.3917  -26.6587   20.0892 O   0  0  0  0  0  0
  -26.5607  -34.8928   22.4695 O   0  0  0  0  0  0
  -23.5353  -32.1455   23.7474 O   0  0  0  0  0  0
  -28.9216  -18.8992   19.8970 C   0  0  0  0  0  0
  -28.9096  -17.6181   20.4909 C   0  0  0  0  0  0
  -31.3120  -17.4928   20.2367 C   0  0  0  0  0  0
  -30.1148  -19.4667   19.3818 C   0  0  0  0  0  0
  -31.3336  -18.7652   19.6176 C   0  0  0  0  0  0
  -30.0969  -16.8666   20.6041 C   0  0  0  0  0  0
  -31.9147  -24.0131   19.1552 C   0  0  0  0  0  0
  -30.7311  -24.9854   19.1807 C   0  0  0  0  0  0
  -31.5250  -22.6906   18.4775 C   0  0  0  0  0  0
  -29.1903  -22.9680   19.2593 C   0  0  0  0  0  0
  -29.5051  -24.3713   19.8862 C   0  0  1  0  0  0
  -32.6912  -19.3036   19.1870 C   0  0  0  0  0  0
  -29.7341  -24.2448   21.4081 C   0  0  0  0  0  0
  -28.7802  -20.7011   17.5600 C   0  0  0  0  0  0
  -28.2750  -25.2915   19.6410 C   0  0  0  0  0  0
  -30.0459  -20.7068   18.4561 C   0  0  1  0  0  0
  -30.0145  -15.5066   21.0522 N   0  0  0  0  0  0
  -30.3546  -22.0269   19.1225 N   0  3  1  0  0  0
  -31.4623  -12.3654   19.1420 H   0  0  0  0  0  0
  -30.2919  -11.2879   19.8421 H   0  0  0  0  0  0
  -29.7333  -11.7763   17.4346 H   0  0  0  0  0  0
  -29.6718  -13.4869   17.7779 H   0  0  0  0  0  0
  -27.8176  -11.3149   18.8121 H   0  0  0  0  0  0
  -27.3711  -12.6514   17.7853 H   0  0  0  0  0  0
  -27.7041  -14.2595   19.5778 H   0  0  0  0  0  0
  -28.6686  -11.9742   21.3612 H   0  0  0  0  0  0
  -28.4675  -13.6234   21.8700 H   0  0  0  0  0  0
  -25.2785   -9.5680   22.4742 H   0  0  0  0  0  0
  -24.0004   -7.4636   22.7482 H   0  0  0  0  0  0
  -21.0850   -8.8778   19.8951 H   0  0  0  0  0  0
  -22.3714  -10.9668   19.6147 H   0  0  0  0  0  0
  -21.2000   -7.6147   23.9720 H   0  0  0  0  0  0
  -21.1485   -6.0522   25.9079 H   0  0  0  0  0  0
  -22.0595   -2.7601   23.2857 H   0  0  0  0  0  0
  -22.4146  -11.9866   22.4767 H   0  0  0  0  0  0
  -21.1117  -13.1209   22.2623 H   0  0  0  0  0  0
  -24.6509  -15.8368   20.5001 H   0  0  0  0  0  0
  -26.2625  -15.6234   20.0422 H   0  0  0  0  0  0
  -26.7122  -32.5542   23.1168 H   0  0  0  0  0  0
  -25.0037  -33.9808   25.0467 H   0  0  0  0  0  0
  -22.6943  -31.3124   21.4138 H   0  0  0  0  0  0
  -23.3763  -35.9632   23.3251 H   0  0  0  0  0  0
  -24.3598  -36.8981   22.2054 H   0  0  0  0  0  0
  -23.7208  -37.6495   23.6676 H   0  0  0  0  0  0
  -26.0563  -31.5923   20.6017 H   0  0  0  0  0  0
  -26.8261  -30.8774   21.9895 H   0  0  0  0  0  0
  -28.1031  -29.0708   21.1650 H   0  0  0  0  0  0
  -25.9800  -26.0094   18.9472 H   0  0  0  0  0  0
  -23.9654  -27.3322   19.0089 H   0  0  0  0  0  0
  -23.7274  -30.6141   19.4089 H   0  0  0  0  0  0
  -22.7380  -29.2592   19.8625 H   0  0  0  0  0  0
  -25.1266  -36.1971   25.0822 H   0  0  0  0  0  0
  -20.9957  -28.3243   24.1418 H   0  0  0  0  0  0
  -20.5654  -26.2288   23.3598 H   0  0  0  0  0  0
  -21.6639  -26.7444   22.1208 H   0  0  0  0  0  0
  -19.6911  -25.6303   21.1218 H   0  0  0  0  0  0
  -19.6678  -27.3206   20.6736 H   0  0  0  0  0  0
  -17.4186  -26.6655   21.4024 H   0  0  0  0  0  0
  -18.0344  -26.0072   22.9021 H   0  0  0  0  0  0
  -19.7937  -30.7247   24.2294 H   0  0  0  0  0  0
  -17.5023  -31.6267   24.5174 H   0  0  0  0  0  0
  -15.5358  -30.3007   23.7636 H   0  0  0  0  0  0
  -15.8662  -28.0843   22.7041 H   0  0  0  0  0  0
  -24.5898  -30.7066   25.7794 H   0  0  0  0  0  0
  -24.8917  -32.2872   26.4924 H   0  0  0  0  0  0
  -25.8066  -30.8870   27.0230 H   0  0  0  0  0  0
  -26.2855  -29.6815   24.1153 H   0  0  0  0  0  0
  -27.4056  -29.7278   25.4575 H   0  0  0  0  0  0
  -27.8697  -30.4373   23.9284 H   0  0  0  0  0  0
  -27.2685  -33.3602   26.2114 H   0  0  0  0  0  0
  -28.3844  -32.6889   25.0313 H   0  0  0  0  0  0
  -28.0738  -31.8410   26.5382 H   0  0  0  0  0  0
  -28.2522  -38.0175   24.7636 H   0  0  0  0  0  0
  -28.1184  -36.2719   24.6073 H   0  0  0  0  0  0
  -27.2344  -37.1197   25.8843 H   0  0  0  0  0  0
  -20.9304  -29.8822   21.6978 H   0  0  0  0  0  0
  -26.0159  -38.2867   24.1529 H   0  0  0  0  0  0
  -27.9733  -19.4024   19.7750 H   0  0  0  0  0  0
  -27.9641  -17.1957   20.8011 H   0  0  0  0  0  0
  -32.2485  -16.9744   20.3773 H   0  0  0  0  0  0
  -32.2875  -23.8289   20.1633 H   0  0  0  0  0  0
  -32.7436  -24.4669   18.6096 H   0  0  0  0  0  0
  -30.4698  -25.2481   18.1538 H   0  0  0  0  0  0
  -31.0219  -25.9196   19.6635 H   0  0  0  0  0  0
  -32.3920  -22.0309   18.4916 H   0  0  0  0  0  0
  -31.3008  -22.8728   17.4251 H   0  0  0  0  0  0
  -28.7879  -23.1556   18.2644 H   0  0  0  0  0  0
  -28.3967  -22.4767   19.8252 H   0  0  0  0  0  0
  -33.4776  -18.5658   19.3523 H   0  0  0  0  0  0
  -32.9569  -20.1839   19.7708 H   0  0  0  0  0  0
  -32.7254  -19.5475   18.1264 H   0  0  0  0  0  0
  -30.5422  -23.5583   21.6566 H   0  0  0  0  0  0
  -28.8396  -23.8818   21.9171 H   0  0  0  0  0  0
  -29.9800  -25.2116   21.8496 H   0  0  0  0  0  0
  -28.6803  -19.7425   17.0493 H   0  0  0  0  0  0
  -28.8327  -21.4594   16.7787 H   0  0  0  0  0  0
  -27.8594  -20.8632   18.1197 H   0  0  0  0  0  0
  -27.4195  -24.8220   20.1318 H   0  0  0  0  0  0
  -28.0608  -25.3131   18.5704 H   0  0  0  0  0  0
  -30.8287  -20.5288   17.7195 H   0  0  0  0  0  0
  -29.1295  -15.2362   21.4531 H   0  0  0  0  0  0
  -30.6503  -21.7865   20.0569 H   0  0  0  0  0  0
  1 25  1  0  0  0
  1 30  2  0  0  0
  1 87  1  0  0  0
  2  3  1  0  0  0
  2 25  1  0  0  0
  2 89  1  0  0  0
  2 90  1  0  0  0
  3  4  1  0  0  0
  3 91  1  0  0  0
  3 92  1  0  0  0
  4  5  1  0  0  0
  4 93  1  0  0  0
  4 94  1  0  0  0
  5  6  1  0  0  0
  5 26  1  0  0  0
  5 95  1  0  0  0
  6 25  1  0  0  0
  6 96  1  0  0  0
  6 97  1  0  0  0
  7  8  2  0  0  0
  7 26  1  0  0  0
  7 29  1  0  0  0
  8  9  1  0  0  0
  8 22  1  0  0  0
  9 10  1  0  0  0
  9 27  2  0  0  0
 10 11  2  0  0  0
 10 15  1  0  0  0
 11 12  1  0  0  0
 11 98  1  0  0  0
 12 13  2  0  0  0
 12 99  1  0  0  0
 13 14  1  0  0  0
 13 31  1  0  0  0
 14 15  2  0  0  0
 14100  1  0  0  0
 15101  1  0  0  0
 16 17  2  0  0  0
 16 21  1  0  0  0
 16 31  1  0  0  0
 17 18  1  0  0  0
 17102  1  0  0  0
 18 19  2  0  0  0
 18103  1  0  0  0
 19 20  1  0  0  0
 19 24  1  0  0  0
 20 21  2  0  0  0
 20104  1  0  0  0
 21 23  1  0  0  0
 22 28  1  0  0  0
 22 32  2  0  0  0
 26 27  1  0  0  0
 28105  1  0  0  0
 28106  1  0  0  0
 29107  1  0  0  0
 29108  1  0  0  0
 33 34  1  0  0  0
 33 66  1  0  0  0
 33 70  2  0  0  0
 34 36  1  0  0  0
 34 59  1  0  0  0
 34109  1  0  0  0
 35 44  2  0  0  0
 35 45  1  0  0  0
 35 68  1  0  0  0
 36 56  1  0  0  0
 36110  1  0  0  0
 37 39  1  0  0  0
 37 47  1  0  0  0
 37 66  1  0  0  0
 37111  1  0  0  0
 38 43  2  0  0  0
 38 46  1  0  0  0
 38 47  1  0  0  0
 39 64  1  0  0  0
 39 67  2  0  0  0
 40 52  1  0  0  0
 40 53  2  0  0  0
 40 58  1  0  0  0
 41112  1  0  0  0
 41113  1  0  0  0
 41114  1  0  0  0
 41 48  1  0  0  0
 42 43  1  0  0  0
 42 66  1  0  0  0
 42115  1  0  0  0
 42116  1  0  0  0
 43 44  1  0  0  0
 44117  1  0  0  0
 45 46  2  0  0  0
 45118  1  0  0  0
 46119  1  0  0  0
 47120  1  0  0  0
 47121  1  0  0  0
 48 56  1  0  0  0
 48 65  1  0  0  0
 48122  1  0  0  0
 49 50  1  0  0  0
 49 53  1  0  0  0
 49 64  1  0  0  0
 49123  1  0  0  0
 50 51  1  0  0  0
 50124  1  0  0  0
 50125  1  0  0  0
 51 52  1  0  0  0
 51126  1  0  0  0
 51127  1  0  0  0
 52128  1  0  0  0
 52129  1  0  0  0
 53 54  1  0  0  0
 54 55  2  0  0  0
 54130  1  0  0  0
 55 57  1  0  0  0
 55131  1  0  0  0
 56 69  2  0  0  0
 57 58  2  0  0  0
 57132  1  0  0  0
 58133  1  0  0  0
 59 60  1  0  0  0
 59 61  1  0  0  0
 59 62  1  0  0  0
 60134  1  0  0  0
 60135  1  0  0  0
 60136  1  0  0  0
 61137  1  0  0  0
 61138  1  0  0  0
 61139  1  0  0  0
 62140  1  0  0  0
 62141  1  0  0  0
 62142  1  0  0  0
 63 65  1  0  0  0
 63143  1  0  0  0
 63144  1  0  0  0
 63145  1  0  0  0
 64146  1  0  0  0
 65147  1  0  0  0
 68 85  1  0  0  0
 71 72  2  0  0  0
 71 74  1  0  0  0
 71148  1  0  0  0
 72 76  1  0  0  0
 72149  1  0  0  0
 73 75  1  0  0  0
 73 76  2  0  0  0
 73150  1  0  0  0
 74 75  2  0  0  0
 74 86  1  0  0  0
 75 82  1  0  0  0
 76 87  1  0  0  0
 77 78  1  0  0  0
 77 79  1  0  0  0
 77151  1  0  0  0
 77152  1  0  0  0
 78 81  1  0  0  0
 78153  1  0  0  0
 78154  1  0  0  0
 79155  1  0  0  0
 79156  1  0  0  0
 79 88  1  0  0  0
 80 81  1  0  0  0
 80 88  1  0  0  0
 80157  1  0  0  0
 80158  1  0  0  0
 81 83  1  0  0  0
 81 85  1  0  0  0
 82159  1  0  0  0
 82160  1  0  0  0
 82161  1  0  0  0
 83162  1  0  0  0
 83163  1  0  0  0
 83164  1  0  0  0
 84165  1  0  0  0
 84166  1  0  0  0
 84167  1  0  0  0
 84 86  1  0  0  0
 85168  1  0  0  0
 85169  1  0  0  0
 86 88  1  0  0  0
 86170  1  0  0  0
 87171  1  0  0  0
 88172  1  0  0  0
M  CHG  1  88   1
M  ISO  4   1 100  68 101  85 101  87 100
M  END
> <chiral flag>
0

> <version>
0

> <s_m_source_file>
/data/baiqing/PycharmProjects/Reinvent-master-3.2/result/LINK_invent/BTK/process_docking_weight1_custom_product_contain_oxygen_bond_distance_aromatic_linkinvent_7_9_3/rearranged_h_0140.sdf

> <i_m_source_file_index>
83

> <r_mmod_Potential_Energy-OPLS-2005>
-58.375904083252

> <r_mmod_Stretch_Energy-OPLS-2005>
48.5016326904297

> <r_mmod_Bend_Energy-OPLS-2005>
118.239547729492

> <r_mmod_Torsional_Energy-OPLS-2005>
271.399627685547

> <r_mmod_Improper_Torsional_Energy-OPLS-2005>
5.88304471969604

> <r_mmod_Van_der_Waal_Energy-OPLS-2005>
176.84977722168

> <r_mmod_Electrostatic_Energy-OPLS-2005>
-270.4814453125

> <r_mmod_Solvation_Energy-OPLS-2005>
-424.024017333984

> <b_mmod_Minimization_Converged-OPLS-2005>
0

> <r_mmod_RMS_Derivative-OPLS-2005>
1.74491679668427

$$$$
83
                    3D
 Structure written by MMmdl.
157165  0  0  1  0            999 V2000
  -30.6171  -14.7424   20.4164 C   0  0  0  0  0  0
  -30.4309  -12.4427   19.4827 C   0  0  0  0  0  0
  -29.5226  -12.4983   18.2345 C   0  0  0  0  0  0
  -28.0423  -12.3286   18.6338 C   0  0  0  0  0  0
  -27.6401  -13.2348   19.8299 C   0  0  2  0  0  0
  -28.6771  -13.1894   20.9729 C   0  0  0  0  0  0
  -25.2515  -13.8184   20.5638 C   0  0  0  0  0  0
  -24.1808  -13.0423   20.9151 C   0  0  0  0  0  0
  -24.6377  -11.6898   20.8651 C   0  0  0  0  0  0
  -23.9058  -10.4257   21.0342 C   0  0  0  0  0  0
  -24.3605   -9.4179   21.9136 C   0  0  0  0  0  0
  -23.6275   -8.2228   22.0750 C   0  0  0  0  0  0
  -22.4257   -8.0247   21.3535 C   0  0  0  0  0  0
  -21.9869   -9.0230   20.4649 C   0  0  0  0  0  0
  -22.7211  -10.2100   20.3015 C   0  0  0  0  0  0
  -21.6841   -6.0673   22.5260 C   0  0  0  0  0  0
  -21.4015   -6.5588   23.8190 C   0  0  0  0  0  0
  -21.3684   -5.6771   24.9162 C   0  0  0  0  0  0
  -21.6072   -4.3035   24.7231 C   0  0  0  0  0  0
  -21.8840   -3.8094   23.4357 C   0  0  0  0  0  0
  -21.9198   -4.6894   22.3389 C   0  0  0  0  0  0
  -22.7821  -13.5241   21.1815 C   0  0  0  0  0  0
  -22.1658   -4.2060   21.0969 F   0  0  0  0  0  0
  -21.5643   -3.4545   25.7754 F   0  0  0  0  0  0
  -29.9896  -13.5165   20.4024 N   0  0  0  0  0  0
  -26.2908  -12.9407   20.3123 N   0  0  0  0  0  0
  -25.9304  -11.6533   20.5609 N   0  0  0  0  0  0
  -22.0435  -12.8256   22.0372 N   0  0  0  0  0  0
  -25.4270  -15.1911   20.4115 N   0  0  0  0  0  0
  -31.8036  -14.8271   20.0901 O   0  0  0  0  0  0
  -21.6632   -6.8829   21.4215 O   0  0  0  0  0  0
  -22.3495  -14.5533   20.6638 O   0  0  0  0  0  0
  -24.6317  -31.8581   23.1993 C   0  0  0  0  0  0
  -25.9130  -32.4804   23.8345 C   0  0  1  0  0  0
  -27.2254  -27.2605   20.1008 C   0  0  0  0  0  0
  -25.5939  -33.8600   24.2264 N   0  0  0  0  0  0
  -23.4293  -30.4789   21.5490 C   0  0  2  0  0  0
  -24.8750  -28.9253   20.1182 C   0  0  0  0  0  0
  -22.7508  -29.4610   22.4971 C   0  0  0  0  0  0
  -18.0280  -28.1392   22.8499 C   0  0  0  0  0  0
  -24.1500  -36.7257   23.2638 C   0  0  0  0  0  0
  -25.9793  -30.7660   21.3838 C   0  0  0  0  0  0
  -26.0526  -29.3900   20.7169 C   0  0  0  0  0  0
  -27.2312  -28.5709   20.6957 C   0  0  0  0  0  0
  -26.0116  -26.8647   19.4915 C   0  0  0  0  0  0
  -24.8574  -27.6680   19.5022 C   0  0  0  0  0  0
  -23.6483  -29.8146   20.1664 C   0  0  0  0  0  0
  -25.4134  -36.3090   24.0334 C   0  0  1  0  0  0
  -20.5889  -28.3696   23.1304 C   0  0  2  0  0  0
  -20.6799  -26.9431   22.5416 C   0  0  0  0  0  0
  -19.5765  -26.6385   21.5233 C   0  0  0  0  0  0
  -18.1935  -26.7936   22.1627 C   0  0  0  0  0  0
  -19.1539  -28.8856   23.2889 C   0  0  0  0  0  0
  -18.9454  -30.1465   23.8900 C   0  0  0  0  0  0
  -17.6461  -30.6608   24.0547 C   0  0  0  0  0  0
  -25.9079  -34.9473   23.5099 C   0  0  0  0  0  0
  -16.5348  -29.9105   23.6333 C   0  0  0  0  0  0
  -16.7270  -28.6507   23.0374 C   0  0  0  0  0  0
  -26.4469  -31.6645   25.0751 C   0  0  0  0  0  0
  -25.3642  -31.3822   26.1441 C   0  0  0  0  0  0
  -27.0307  -30.3064   24.6240 C   0  0  0  0  0  0
  -27.6053  -32.4375   25.7495 C   0  0  0  0  0  0
  -27.5593  -37.1786   24.8462 C   0  0  0  0  0  0
  -21.4212  -29.3041   22.3696 N   0  0  0  0  0  0
  -26.4297  -37.3796   23.9422 N   0  0  0  0  0  0
  -24.7000  -31.0519   22.1009 N   0  0  0  0  0  0
  -23.4200  -28.8161   23.3078 O   0  0  0  0  0  0
  -28.3242  -26.3611   20.1238 O   0  0  0  0  0  0
  -26.5647  -34.8939   22.4660 O   0  0  0  0  0  0
  -23.5469  -32.1404   23.7262 O   0  0  0  0  0  0
  -29.5806  -18.4918   20.6587 C   0  0  0  0  0  0
  -30.4545  -17.3514   18.7003 C   0  0  0  0  0  0
  -30.0794  -19.7835   18.6587 C   0  0  0  0  0  0
  -29.9891  -17.2415   20.0321 C   0  0  0  0  0  0
  -29.6117  -19.7885   19.9901 C   0  0  0  0  0  0
  -30.4987  -18.5932   18.0314 C   0  0  0  0  0  0
  -30.3255  -23.8851   19.1234 C   0  0  0  0  0  0
  -29.6804  -23.8761   21.5513 C   0  0  0  0  0  0
  -28.0791  -24.8958   19.8421 C   0  0  0  0  0  0
  -28.6253  -22.1758   19.9374 C   0  0  0  0  0  0
  -29.1605  -23.7091   20.1169 C   0  0  0  0  0  0
  -29.8607  -15.8838   20.6360 N   0  0  0  0  0  0
  -29.2855  -21.0200   20.6260 O   0  0  0  0  0  0
  -30.9484  -18.6333   16.7531 F   0  0  0  0  0  0
  -31.4780  -12.5461   19.1855 H   0  0  0  0  0  0
  -30.3614  -11.4732   19.9797 H   0  0  0  0  0  0
  -29.8176  -11.7169   17.5350 H   0  0  0  0  0  0
  -29.6634  -13.4453   17.7080 H   0  0  0  0  0  0
  -27.9002  -11.2822   18.9045 H   0  0  0  0  0  0
  -27.3981  -12.5097   17.7719 H   0  0  0  0  0  0
  -27.6319  -14.2514   19.4348 H   0  0  0  0  0  0
  -28.6966  -12.2052   21.4414 H   0  0  0  0  0  0
  -28.4007  -13.9003   21.7556 H   0  0  0  0  0  0
  -25.2756   -9.5674   22.4715 H   0  0  0  0  0  0
  -23.9973   -7.4650   22.7514 H   0  0  0  0  0  0
  -21.0788   -8.8739   19.9006 H   0  0  0  0  0  0
  -22.3650  -10.9611   19.6120 H   0  0  0  0  0  0
  -21.1973   -7.6108   23.9674 H   0  0  0  0  0  0
  -21.1511   -6.0481   25.9082 H   0  0  0  0  0  0
  -22.0590   -2.7549   23.2866 H   0  0  0  0  0  0
  -22.4060  -11.9954   22.4860 H   0  0  0  0  0  0
  -21.1067  -13.1311   22.2564 H   0  0  0  0  0  0
  -24.6697  -15.8530   20.5475 H   0  0  0  0  0  0
  -26.2865  -15.6258   20.0934 H   0  0  0  0  0  0
  -26.7202  -32.5434   23.1097 H   0  0  0  0  0  0
  -25.0091  -33.9756   25.0416 H   0  0  0  0  0  0
  -22.7241  -31.3007   21.4055 H   0  0  0  0  0  0
  -23.3812  -35.9538   23.3290 H   0  0  0  0  0  0
  -24.3580  -36.8867   22.2048 H   0  0  0  0  0  0
  -23.7203  -37.6435   23.6659 H   0  0  0  0  0  0
  -26.1242  -31.5299   20.6178 H   0  0  0  0  0  0
  -26.8539  -30.8081   22.0221 H   0  0  0  0  0  0
  -28.1355  -28.9260   21.1703 H   0  0  0  0  0  0
  -25.9104  -25.9032   19.0146 H   0  0  0  0  0  0
  -23.9491  -27.2973   19.0466 H   0  0  0  0  0  0
  -23.7821  -30.5942   19.4163 H   0  0  0  0  0  0
  -22.7640  -29.2556   19.8563 H   0  0  0  0  0  0
  -25.1326  -36.1931   25.0830 H   0  0  0  0  0  0
  -20.9952  -28.3276   24.1440 H   0  0  0  0  0  0
  -20.5753  -26.2304   23.3612 H   0  0  0  0  0  0
  -21.6665  -26.7516   22.1181 H   0  0  0  0  0  0
  -19.6942  -25.6291   21.1277 H   0  0  0  0  0  0
  -19.6718  -27.3185   20.6761 H   0  0  0  0  0  0
  -17.4224  -26.6686   21.4014 H   0  0  0  0  0  0
  -18.0332  -26.0087   22.9025 H   0  0  0  0  0  0
  -19.7932  -30.7267   24.2295 H   0  0  0  0  0  0
  -17.5019  -31.6297   24.5139 H   0  0  0  0  0  0
  -15.5353  -30.3002   23.7666 H   0  0  0  0  0  0
  -15.8665  -28.0817   22.7116 H   0  0  0  0  0  0
  -24.5806  -30.7215   25.7721 H   0  0  0  0  0  0
  -24.8827  -32.3001   26.4827 H   0  0  0  0  0  0
  -25.7877  -30.8986   27.0246 H   0  0  0  0  0  0
  -26.2892  -29.6852   24.1202 H   0  0  0  0  0  0
  -27.3919  -29.7328   25.4781 H   0  0  0  0  0  0
  -27.8807  -30.4373   23.9537 H   0  0  0  0  0  0
  -27.2709  -33.3684   26.2086 H   0  0  0  0  0  0
  -28.3823  -32.6919   25.0280 H   0  0  0  0  0  0
  -28.0767  -31.8480   26.5367 H   0  0  0  0  0  0
  -28.2618  -38.0084   24.7561 H   0  0  0  0  0  0
  -28.1085  -36.2619   24.6249 H   0  0  0  0  0  0
  -27.2301  -37.1381   25.8858 H   0  0  0  0  0  0
  -20.9423  -29.8713   21.6846 H   0  0  0  0  0  0
  -26.0179  -38.2863   24.1446 H   0  0  0  0  0  0
  -29.2325  -18.4727   21.6819 H   0  0  0  0  0  0
  -30.7576  -16.4755   18.1480 H   0  0  0  0  0  0
  -30.1604  -20.7072   18.1067 H   0  0  0  0  0  0
  -30.7597  -24.8829   19.1830 H   0  0  0  0  0  0
  -29.9919  -23.7456   18.0935 H   0  0  0  0  0  0
  -31.1201  -23.1602   19.3066 H   0  0  0  0  0  0
  -30.0785  -24.8788   21.7115 H   0  0  0  0  0  0
  -30.4831  -23.1707   21.7675 H   0  0  0  0  0  0
  -28.8886  -23.7089   22.2796 H   0  0  0  0  0  0
  -27.1823  -24.6150   20.3926 H   0  0  0  0  0  0
  -27.8140  -24.8239   18.7865 H   0  0  0  0  0  0
  -28.4942  -21.9672   18.8751 H   0  0  0  0  0  0
  -27.6052  -22.1608   20.3225 H   0  0  0  0  0  0
  -28.9777  -15.7073   21.0858 H   0  0  0  0  0  0
  1 25  1  0  0  0
  1 30  2  0  0  0
  1 82  1  0  0  0
  2  3  1  0  0  0
  2 25  1  0  0  0
  2 85  1  0  0  0
  2 86  1  0  0  0
  3  4  1  0  0  0
  3 87  1  0  0  0
  3 88  1  0  0  0
  4  5  1  0  0  0
  4 89  1  0  0  0
  4 90  1  0  0  0
  5  6  1  0  0  0
  5 26  1  0  0  0
  5 91  1  0  0  0
  6 25  1  0  0  0
  6 92  1  0  0  0
  6 93  1  0  0  0
  7  8  2  0  0  0
  7 26  1  0  0  0
  7 29  1  0  0  0
  8  9  1  0  0  0
  8 22  1  0  0  0
  9 10  1  0  0  0
  9 27  2  0  0  0
 10 11  2  0  0  0
 10 15  1  0  0  0
 11 12  1  0  0  0
 11 94  1  0  0  0
 12 13  2  0  0  0
 12 95  1  0  0  0
 13 14  1  0  0  0
 13 31  1  0  0  0
 14 15  2  0  0  0
 14 96  1  0  0  0
 15 97  1  0  0  0
 16 17  2  0  0  0
 16 21  1  0  0  0
 16 31  1  0  0  0
 17 18  1  0  0  0
 17 98  1  0  0  0
 18 19  2  0  0  0
 18 99  1  0  0  0
 19 20  1  0  0  0
 19 24  1  0  0  0
 20 21  2  0  0  0
 20100  1  0  0  0
 21 23  1  0  0  0
 22 28  1  0  0  0
 22 32  2  0  0  0
 26 27  1  0  0  0
 28101  1  0  0  0
 28102  1  0  0  0
 29103  1  0  0  0
 29104  1  0  0  0
 33 34  1  0  0  0
 33 66  1  0  0  0
 33 70  2  0  0  0
 34 36  1  0  0  0
 34 59  1  0  0  0
 34105  1  0  0  0
 35 44  2  0  0  0
 35 45  1  0  0  0
 35 68  1  0  0  0
 36 56  1  0  0  0
 36106  1  0  0  0
 37 39  1  0  0  0
 37 47  1  0  0  0
 37 66  1  0  0  0
 37107  1  0  0  0
 38 43  2  0  0  0
 38 46  1  0  0  0
 38 47  1  0  0  0
 39 64  1  0  0  0
 39 67  2  0  0  0
 40 52  1  0  0  0
 40 53  2  0  0  0
 40 58  1  0  0  0
 41108  1  0  0  0
 41109  1  0  0  0
 41110  1  0  0  0
 41 48  1  0  0  0
 42 43  1  0  0  0
 42 66  1  0  0  0
 42111  1  0  0  0
 42112  1  0  0  0
 43 44  1  0  0  0
 44113  1  0  0  0
 45 46  2  0  0  0
 45114  1  0  0  0
 46115  1  0  0  0
 47116  1  0  0  0
 47117  1  0  0  0
 48 56  1  0  0  0
 48 65  1  0  0  0
 48118  1  0  0  0
 49 50  1  0  0  0
 49 53  1  0  0  0
 49 64  1  0  0  0
 49119  1  0  0  0
 50 51  1  0  0  0
 50120  1  0  0  0
 50121  1  0  0  0
 51 52  1  0  0  0
 51122  1  0  0  0
 51123  1  0  0  0
 52124  1  0  0  0
 52125  1  0  0  0
 53 54  1  0  0  0
 54 55  2  0  0  0
 54126  1  0  0  0
 55 57  1  0  0  0
 55127  1  0  0  0
 56 69  2  0  0  0
 57 58  2  0  0  0
 57128  1  0  0  0
 58129  1  0  0  0
 59 60  1  0  0  0
 59 61  1  0  0  0
 59 62  1  0  0  0
 60130  1  0  0  0
 60131  1  0  0  0
 60132  1  0  0  0
 61133  1  0  0  0
 61134  1  0  0  0
 61135  1  0  0  0
 62136  1  0  0  0
 62137  1  0  0  0
 62138  1  0  0  0
 63 65  1  0  0  0
 63139  1  0  0  0
 63140  1  0  0  0
 63141  1  0  0  0
 64142  1  0  0  0
 65143  1  0  0  0
 68 79  1  0  0  0
 71 74  2  0  0  0
 71 75  1  0  0  0
 71144  1  0  0  0
 72 74  1  0  0  0
 72 76  2  0  0  0
 72145  1  0  0  0
 73 75  2  0  0  0
 73 76  1  0  0  0
 73146  1  0  0  0
 74 82  1  0  0  0
 75 83  1  0  0  0
 76 84  1  0  0  0
 77147  1  0  0  0
 77148  1  0  0  0
 77149  1  0  0  0
 77 81  1  0  0  0
 78 81  1  0  0  0
 78150  1  0  0  0
 78151  1  0  0  0
 78152  1  0  0  0
 79 81  1  0  0  0
 79153  1  0  0  0
 79154  1  0  0  0
 80 81  1  0  0  0
 80 83  1  0  0  0
 80155  1  0  0  0
 80156  1  0  0  0
 82157  1  0  0  0
M  ISO  4   1 100  68 101  79 101  82 100
M  END
> <chiral flag>
0

> <version>
0

> <s_m_source_file>
/data/baiqing/PycharmProjects/Reinvent-master-3.2/result/LINK_invent/BTK/process_docking_weight1_custom_product_contain_oxygen_bond_distance_aromatic_linkinvent_7_9_3/rearranged_h_0140.sdf

> <i_m_source_file_index>
84

> <r_mmod_Potential_Energy-OPLS-2005>
235.293075561523

> <r_mmod_Stretch_Energy-OPLS-2005>
131.582733154297

> <r_mmod_Bend_Energy-OPLS-2005>
170.778106689453

> <r_mmod_Torsional_Energy-OPLS-2005>
251.910232543945

> <r_mmod_Improper_Torsional_Energy-OPLS-2005>
4.68502616882324

> <r_mmod_Van_der_Waal_Energy-OPLS-2005>
139.491836547852

> <r_mmod_Electrostatic_Energy-OPLS-2005>
-342.597900390625

> <r_mmod_Solvation_Energy-OPLS-2005>
-207.261444091797

> <b_mmod_Minimization_Converged-OPLS-2005>
0

> <r_mmod_RMS_Derivative-OPLS-2005>
4.51184749603271

$$$$
84
                    3D
 Structure written by MMmdl.
162170  0  0  1  0            999 V2000
  -30.7318  -14.4083   20.6344 C   0  0  0  0  0  0
  -30.4208  -12.2910   19.4031 C   0  0  0  0  0  0
  -29.4938  -12.5188   18.1929 C   0  0  0  0  0  0
  -28.0124  -12.3829   18.6012 C   0  0  0  0  0  0
  -27.6649  -13.2034   19.8732 C   0  0  2  0  0  0
  -28.7031  -12.9492   20.9893 C   0  0  0  0  0  0
  -25.2607  -13.8167   20.5660 C   0  0  0  0  0  0
  -24.1849  -13.0446   20.9159 C   0  0  0  0  0  0
  -24.6398  -11.6907   20.8709 C   0  0  0  0  0  0
  -23.9060  -10.4300   21.0380 C   0  0  0  0  0  0
  -24.3613   -9.4223   21.9160 C   0  0  0  0  0  0
  -23.6298   -8.2256   22.0741 C   0  0  0  0  0  0
  -22.4277   -8.0283   21.3537 C   0  0  0  0  0  0
  -21.9911   -9.0253   20.4633 C   0  0  0  0  0  0
  -22.7232  -10.2136   20.3037 C   0  0  0  0  0  0
  -21.6857   -6.0738   22.5281 C   0  0  0  0  0  0
  -21.4008   -6.5637   23.8215 C   0  0  0  0  0  0
  -21.3665   -5.6787   24.9174 C   0  0  0  0  0  0
  -21.6052   -4.3051   24.7220 C   0  0  0  0  0  0
  -21.8825   -3.8147   23.4342 C   0  0  0  0  0  0
  -21.9192   -4.6966   22.3399 C   0  0  0  0  0  0
  -22.7863  -13.5237   21.1815 C   0  0  0  0  0  0
  -22.1661   -4.2153   21.0975 F   0  0  0  0  0  0
  -21.5623   -3.4535   25.7734 F   0  0  0  0  0  0
  -30.0427  -13.2509   20.4505 N   0  0  0  0  0  0
  -26.3038  -12.9326   20.3334 N   0  0  0  0  0  0
  -25.9318  -11.6485   20.5715 N   0  0  0  0  0  0
  -22.0499  -12.8244   22.0383 N   0  0  0  0  0  0
  -25.4358  -15.1886   20.4062 N   0  0  0  0  0  0
  -31.8144  -14.6382   20.0840 O   0  0  0  0  0  0
  -21.6639   -6.8879   21.4243 O   0  0  0  0  0  0
  -22.3546  -14.5531   20.6642 O   0  0  0  0  0  0
  -24.6123  -31.8708   23.2106 C   0  0  0  0  0  0
  -25.9022  -32.4839   23.8393 C   0  0  1  0  0  0
  -27.2395  -27.4564   20.0842 C   0  0  0  0  0  0
  -25.5905  -33.8642   24.2326 N   0  0  0  0  0  0
  -23.3987  -30.4929   21.5531 C   0  0  2  0  0  0
  -24.8424  -28.9605   20.1192 C   0  0  0  0  0  0
  -22.7395  -29.4665   22.5022 C   0  0  0  0  0  0
  -18.0279  -28.1368   22.8494 C   0  0  0  0  0  0
  -24.1496  -36.7309   23.2633 C   0  0  0  0  0  0
  -25.9246  -30.8425   21.3604 C   0  0  0  0  0  0
  -26.0006  -29.4783   20.7091 C   0  0  0  0  0  0
  -27.1994  -28.7344   20.6838 C   0  0  0  0  0  0
  -26.0567  -26.9449   19.4984 C   0  0  0  0  0  0
  -24.8646  -27.6929   19.5137 C   0  0  0  0  0  0
  -23.6028  -29.8239   20.1685 C   0  0  0  0  0  0
  -25.4120  -36.3121   24.0333 C   0  0  1  0  0  0
  -20.5864  -28.3645   23.1343 C   0  0  2  0  0  0
  -20.6769  -26.9384   22.5427 C   0  0  0  0  0  0
  -19.5747  -26.6386   21.5223 C   0  0  0  0  0  0
  -18.1924  -26.7921   22.1627 C   0  0  0  0  0  0
  -19.1522  -28.8826   23.2920 C   0  0  0  0  0  0
  -18.9443  -30.1437   23.8917 C   0  0  0  0  0  0
  -17.6441  -30.6570   24.0563 C   0  0  0  0  0  0
  -25.9038  -34.9490   23.5125 C   0  0  0  0  0  0
  -16.5336  -29.9067   23.6319 C   0  0  0  0  0  0
  -16.7267  -28.6492   23.0333 C   0  0  0  0  0  0
  -26.4462  -31.6620   25.0715 C   0  0  0  0  0  0
  -25.3724  -31.3710   26.1453 C   0  0  0  0  0  0
  -27.0292  -30.3067   24.6077 C   0  0  0  0  0  0
  -27.6055  -32.4334   25.7458 C   0  0  0  0  0  0
  -27.5583  -37.1805   24.8460 C   0  0  0  0  0  0
  -21.4125  -29.3032   22.3763 N   0  0  0  0  0  0
  -26.4303  -37.3804   23.9401 N   0  0  0  0  0  0
  -24.6638  -31.0817   22.1005 N   0  0  0  0  0  0
  -23.4171  -28.8216   23.3063 O   0  0  0  0  0  0
  -28.4540  -26.8010   20.0701 O   0  0  0  0  0  0
  -26.5592  -34.8929   22.4676 O   0  0  0  0  0  0
  -23.5322  -32.1471   23.7497 O   0  0  0  0  0  0
  -29.3632  -17.6219   21.5922 C   0  0  0  0  0  0
  -30.9419  -19.4666   21.8193 C   0  0  0  0  0  0
  -31.7541  -17.1699   21.6857 C   0  0  0  0  0  0
  -29.6134  -19.0081   21.7075 C   0  0  0  0  0  0
  -30.4274  -16.6958   21.5529 C   0  0  0  0  0  0
  -32.0081  -18.5496   21.8209 C   0  0  0  0  0  0
  -28.4876  -19.9590   21.6854 C   0  0  0  0  0  0
  -27.4281  -24.9465   22.2446 C   0  0  0  0  0  0
  -28.3634  -20.8353   20.4448 C   0  0  0  0  0  0
  -27.9322  -22.2987   20.6954 C   0  0  0  0  0  0
  -29.0404  -23.2173   21.2539 C   0  0  0  0  0  0
  -28.5210  -25.3777   19.9589 C   0  0  0  0  0  0
  -28.6586  -24.7162   21.3490 C   0  0  1  0  0  0
  -27.6323  -20.0072   22.6156 N   0  0  0  0  0  0
  -30.1116  -15.3149   21.4087 N   0  0  0  0  0  0
  -33.2808  -18.9948   21.9494 F   0  0  0  0  0  0
  -31.4647  -12.3901   19.1001 H   0  0  0  0  0  0
  -30.3163  -11.2708   19.7764 H   0  0  0  0  0  0
  -29.7300  -11.8058   17.4027 H   0  0  0  0  0  0
  -29.6729  -13.5101   17.7719 H   0  0  0  0  0  0
  -27.8120  -11.3249   18.7750 H   0  0  0  0  0  0
  -27.3684  -12.6789   17.7723 H   0  0  0  0  0  0
  -27.7211  -14.2569   19.5989 H   0  0  0  0  0  0
  -28.6702  -11.9052   21.3034 H   0  0  0  0  0  0
  -28.4528  -13.5193   21.8847 H   0  0  0  0  0  0
  -25.2760   -9.5713   22.4721 H   0  0  0  0  0  0
  -24.0025   -7.4650   22.7450 H   0  0  0  0  0  0
  -21.0849   -8.8762   19.8932 H   0  0  0  0  0  0
  -22.3691  -10.9663   19.6135 H   0  0  0  0  0  0
  -21.2000   -7.6141   23.9732 H   0  0  0  0  0  0
  -21.1481   -6.0500   25.9081 H   0  0  0  0  0  0
  -22.0605   -2.7611   23.2834 H   0  0  0  0  0  0
  -22.4098  -11.9935   22.4838 H   0  0  0  0  0  0
  -21.1099  -13.1241   22.2513 H   0  0  0  0  0  0
  -24.6711  -15.8470   20.5075 H   0  0  0  0  0  0
  -26.2917  -15.6242   20.0864 H   0  0  0  0  0  0
  -26.7086  -32.5537   23.1151 H   0  0  0  0  0  0
  -25.0099  -33.9837   25.0497 H   0  0  0  0  0  0
  -22.6860  -31.3081   21.4140 H   0  0  0  0  0  0
  -23.3772  -35.9627   23.3308 H   0  0  0  0  0  0
  -24.3578  -36.8914   22.2043 H   0  0  0  0  0  0
  -23.7242  -37.6512   23.6642 H   0  0  0  0  0  0
  -26.0315  -31.6082   20.5906 H   0  0  0  0  0  0
  -26.8147  -30.8973   21.9756 H   0  0  0  0  0  0
  -28.0996  -29.1380   21.1248 H   0  0  0  0  0  0
  -26.0221  -25.9887   19.0018 H   0  0  0  0  0  0
  -23.9749  -27.2895   19.0505 H   0  0  0  0  0  0
  -23.7000  -30.5965   19.4046 H   0  0  0  0  0  0
  -22.7295  -29.2370   19.8798 H   0  0  0  0  0  0
  -25.1302  -36.1983   25.0831 H   0  0  0  0  0  0
  -20.9953  -28.3201   24.1466 H   0  0  0  0  0  0
  -20.5682  -26.2248   23.3608 H   0  0  0  0  0  0
  -21.6639  -26.7440   22.1210 H   0  0  0  0  0  0
  -19.6900  -25.6313   21.1220 H   0  0  0  0  0  0
  -19.6680  -27.3226   20.6776 H   0  0  0  0  0  0
  -17.4202  -26.6687   21.4015 H   0  0  0  0  0  0
  -18.0297  -26.0056   22.9014 H   0  0  0  0  0  0
  -19.7917  -30.7258   24.2284 H   0  0  0  0  0  0
  -17.4986  -31.6243   24.5175 H   0  0  0  0  0  0
  -15.5332  -30.2958   23.7641 H   0  0  0  0  0  0
  -15.8675  -28.0815   22.7017 H   0  0  0  0  0  0
  -24.5887  -30.7086   25.7746 H   0  0  0  0  0  0
  -24.8927  -32.2872   26.4917 H   0  0  0  0  0  0
  -25.8065  -30.8832   27.0194 H   0  0  0  0  0  0
  -26.2834  -29.6820   24.1147 H   0  0  0  0  0  0
  -27.4091  -29.7301   25.4522 H   0  0  0  0  0  0
  -27.8654  -30.4387   23.9206 H   0  0  0  0  0  0
  -27.2696  -33.3627   26.2069 H   0  0  0  0  0  0
  -28.3835  -32.6915   25.0258 H   0  0  0  0  0  0
  -28.0764  -31.8442   26.5334 H   0  0  0  0  0  0
  -28.2614  -38.0096   24.7528 H   0  0  0  0  0  0
  -28.1079  -36.2630   24.6282 H   0  0  0  0  0  0
  -27.2291  -37.1448   25.8862 H   0  0  0  0  0  0
  -20.9266  -29.8767   21.7007 H   0  0  0  0  0  0
  -26.0194  -38.2881   24.1413 H   0  0  0  0  0  0
  -28.3420  -17.2775   21.4968 H   0  0  0  0  0  0
  -31.1475  -20.5235   21.9115 H   0  0  0  0  0  0
  -32.5898  -16.4861   21.6844 H   0  0  0  0  0  0
  -27.5339  -24.4257   23.1964 H   0  0  0  0  0  0
  -26.5111  -24.6010   21.7676 H   0  0  0  0  0  0
  -27.2992  -26.0054   22.4706 H   0  0  0  0  0  0
  -27.6355  -20.3591   19.7881 H   0  0  0  0  0  0
  -29.3058  -20.8220   19.8941 H   0  0  0  0  0  0
  -27.0555  -22.3216   21.3435 H   0  0  0  0  0  0
  -27.5958  -22.6983   19.7404 H   0  0  0  0  0  0
  -29.9325  -23.1220   20.6332 H   0  0  0  0  0  0
  -29.3337  -22.8614   22.2424 H   0  0  0  0  0  0
  -27.7193  -24.9298   19.3800 H   0  0  0  0  0  0
  -29.4240  -25.1658   19.3856 H   0  0  0  0  0  0
  -29.4989  -25.2099   21.8409 H   0  0  0  0  0  0
  -27.8561  -19.3472   23.3524 H   0  0  0  0  0  0
  -29.2054  -15.0241   21.7442 H   0  0  0  0  0  0
  1 25  1  0  0  0
  1 30  2  0  0  0
  1 85  1  0  0  0
  2  3  1  0  0  0
  2 25  1  0  0  0
  2 87  1  0  0  0
  2 88  1  0  0  0
  3  4  1  0  0  0
  3 89  1  0  0  0
  3 90  1  0  0  0
  4  5  1  0  0  0
  4 91  1  0  0  0
  4 92  1  0  0  0
  5  6  1  0  0  0
  5 26  1  0  0  0
  5 93  1  0  0  0
  6 25  1  0  0  0
  6 94  1  0  0  0
  6 95  1  0  0  0
  7  8  2  0  0  0
  7 26  1  0  0  0
  7 29  1  0  0  0
  8  9  1  0  0  0
  8 22  1  0  0  0
  9 10  1  0  0  0
  9 27  2  0  0  0
 10 11  2  0  0  0
 10 15  1  0  0  0
 11 12  1  0  0  0
 11 96  1  0  0  0
 12 13  2  0  0  0
 12 97  1  0  0  0
 13 14  1  0  0  0
 13 31  1  0  0  0
 14 15  2  0  0  0
 14 98  1  0  0  0
 15 99  1  0  0  0
 16 17  2  0  0  0
 16 21  1  0  0  0
 16 31  1  0  0  0
 17 18  1  0  0  0
 17100  1  0  0  0
 18 19  2  0  0  0
 18101  1  0  0  0
 19 20  1  0  0  0
 19 24  1  0  0  0
 20 21  2  0  0  0
 20102  1  0  0  0
 21 23  1  0  0  0
 22 28  1  0  0  0
 22 32  2  0  0  0
 26 27  1  0  0  0
 28103  1  0  0  0
 28104  1  0  0  0
 29105  1  0  0  0
 29106  1  0  0  0
 33 34  1  0  0  0
 33 66  1  0  0  0
 33 70  2  0  0  0
 34 36  1  0  0  0
 34 59  1  0  0  0
 34107  1  0  0  0
 35 44  2  0  0  0
 35 45  1  0  0  0
 35 68  1  0  0  0
 36 56  1  0  0  0
 36108  1  0  0  0
 37 39  1  0  0  0
 37 47  1  0  0  0
 37 66  1  0  0  0
 37109  1  0  0  0
 38 43  2  0  0  0
 38 46  1  0  0  0
 38 47  1  0  0  0
 39 64  1  0  0  0
 39 67  2  0  0  0
 40 52  1  0  0  0
 40 53  2  0  0  0
 40 58  1  0  0  0
 41110  1  0  0  0
 41111  1  0  0  0
 41112  1  0  0  0
 41 48  1  0  0  0
 42 43  1  0  0  0
 42 66  1  0  0  0
 42113  1  0  0  0
 42114  1  0  0  0
 43 44  1  0  0  0
 44115  1  0  0  0
 45 46  2  0  0  0
 45116  1  0  0  0
 46117  1  0  0  0
 47118  1  0  0  0
 47119  1  0  0  0
 48 56  1  0  0  0
 48 65  1  0  0  0
 48120  1  0  0  0
 49 50  1  0  0  0
 49 53  1  0  0  0
 49 64  1  0  0  0
 49121  1  0  0  0
 50 51  1  0  0  0
 50122  1  0  0  0
 50123  1  0  0  0
 51 52  1  0  0  0
 51124  1  0  0  0
 51125  1  0  0  0
 52126  1  0  0  0
 52127  1  0  0  0
 53 54  1  0  0  0
 54 55  2  0  0  0
 54128  1  0  0  0
 55 57  1  0  0  0
 55129  1  0  0  0
 56 69  2  0  0  0
 57 58  2  0  0  0
 57130  1  0  0  0
 58131  1  0  0  0
 59 60  1  0  0  0
 59 61  1  0  0  0
 59 62  1  0  0  0
 60132  1  0  0  0
 60133  1  0  0  0
 60134  1  0  0  0
 61135  1  0  0  0
 61136  1  0  0  0
 61137  1  0  0  0
 62138  1  0  0  0
 62139  1  0  0  0
 62140  1  0  0  0
 63 65  1  0  0  0
 63141  1  0  0  0
 63142  1  0  0  0
 63143  1  0  0  0
 64144  1  0  0  0
 65145  1  0  0  0
 68 82  1  0  0  0
 71 74  2  0  0  0
 71 75  1  0  0  0
 71146  1  0  0  0
 72 74  1  0  0  0
 72 76  2  0  0  0
 72147  1  0  0  0
 73 75  2  0  0  0
 73 76  1  0  0  0
 73148  1  0  0  0
 74 77  1  0  0  0
 75 85  1  0  0  0
 76 86  1  0  0  0
 77 79  1  0  0  0
 77 84  2  0  0  0
 78149  1  0  0  0
 78150  1  0  0  0
 78151  1  0  0  0
 78 83  1  0  0  0
 79 80  1  0  0  0
 79152  1  0  0  0
 79153  1  0  0  0
 80 81  1  0  0  0
 80154  1  0  0  0
 80155  1  0  0  0
 81 83  1  0  0  0
 81156  1  0  0  0
 81157  1  0  0  0
 82 83  1  0  0  0
 82158  1  0  0  0
 82159  1  0  0  0
 83160  1  0  0  0
 84161  1  0  0  0
 85162  1  0  0  0
M  ISO  4   1 100  68 101  82 101  85 100
M  END
> <chiral flag>
0

> <version>
0

> <s_m_source_file>
/data/baiqing/PycharmProjects/Reinvent-master-3.2/result/LINK_invent/BTK/process_docking_weight1_custom_product_contain_oxygen_bond_distance_aromatic_linkinvent_7_9_3/rearranged_h_0140.sdf

> <i_m_source_file_index>
85

> <r_mmod_Potential_Energy-OPLS-2005>
-54.8142051696777

> <r_mmod_Stretch_Energy-OPLS-2005>
33.912540435791

> <r_mmod_Bend_Energy-OPLS-2005>
104.808746337891

> <r_mmod_Torsional_Energy-OPLS-2005>
233.727172851562

> <r_mmod_Improper_Torsional_Energy-OPLS-2005>
3.05739521980286

> <r_mmod_Van_der_Waal_Energy-OPLS-2005>
153.484756469727

> <r_mmod_Electrostatic_Energy-OPLS-2005>
-384.900268554688

> <r_mmod_Solvation_Energy-OPLS-2005>
-207.647903442383

> <b_mmod_Minimization_Converged-OPLS-2005>
0

> <r_mmod_RMS_Derivative-OPLS-2005>
2.02621507644653

$$$$
85
                    3D
 Structure written by MMmdl.
168176  0  0  1  0            999 V2000
  -30.6016  -14.7141   20.4591 C   0  0  0  0  0  0
  -30.4268  -12.4269   19.4827 C   0  0  0  0  0  0
  -29.5101  -12.5093   18.2420 C   0  0  0  0  0  0
  -28.0327  -12.3432   18.6485 C   0  0  0  0  0  0
  -27.6456  -13.2297   19.8630 C   0  0  2  0  0  0
  -28.6855  -13.1352   21.0015 C   0  0  0  0  0  0
  -25.2515  -13.8212   20.5714 C   0  0  0  0  0  0
  -24.1795  -13.0458   20.9191 C   0  0  0  0  0  0
  -24.6369  -11.6932   20.8728 C   0  0  0  0  0  0
  -23.9046  -10.4313   21.0388 C   0  0  0  0  0  0
  -24.3606   -9.4236   21.9168 C   0  0  0  0  0  0
  -23.6294   -8.2265   22.0747 C   0  0  0  0  0  0
  -22.4271   -8.0292   21.3555 C   0  0  0  0  0  0
  -21.9904   -9.0259   20.4642 C   0  0  0  0  0  0
  -22.7220  -10.2139   20.3045 C   0  0  0  0  0  0
  -21.6864   -6.0727   22.5283 C   0  0  0  0  0  0
  -21.4019   -6.5634   23.8213 C   0  0  0  0  0  0
  -21.3668   -5.6787   24.9179 C   0  0  0  0  0  0
  -21.6052   -4.3051   24.7232 C   0  0  0  0  0  0
  -21.8816   -3.8147   23.4351 C   0  0  0  0  0  0
  -21.9195   -4.6960   22.3403 C   0  0  0  0  0  0
  -22.7819  -13.5245   21.1866 C   0  0  0  0  0  0
  -22.1654   -4.2146   21.0976 F   0  0  0  0  0  0
  -21.5639   -3.4525   25.7743 F   0  0  0  0  0  0
  -29.9964  -13.4786   20.4349 N   0  0  0  0  0  0
  -26.2943  -12.9405   20.3336 N   0  0  0  0  0  0
  -25.9307  -11.6553   20.5766 N   0  0  0  0  0  0
  -22.0477  -12.8222   22.0426 N   0  0  0  0  0  0
  -25.4253  -15.1927   20.4156 N   0  0  0  0  0  0
  -31.7596  -14.8429   20.0494 O   0  0  0  0  0  0
  -21.6663   -6.8876   21.4240 O   0  0  0  0  0  0
  -22.3507  -14.5550   20.6721 O   0  0  0  0  0  0
  -24.6286  -31.8566   23.1988 C   0  0  0  0  0  0
  -25.9121  -32.4752   23.8334 C   0  0  1  0  0  0
  -27.2215  -27.2792   20.1215 C   0  0  0  0  0  0
  -25.5925  -33.8559   24.2255 N   0  0  0  0  0  0
  -23.4238  -30.4779   21.5421 C   0  0  2  0  0  0
  -24.8711  -28.9283   20.1076 C   0  0  0  0  0  0
  -22.7484  -29.4599   22.4926 C   0  0  0  0  0  0
  -18.0282  -28.1393   22.8481 C   0  0  0  0  0  0
  -24.1488  -36.7282   23.2641 C   0  0  0  0  0  0
  -25.9680  -30.7740   21.3767 C   0  0  0  0  0  0
  -26.0408  -29.3984   20.7180 C   0  0  0  0  0  0
  -27.2165  -28.5852   20.7156 C   0  0  0  0  0  0
  -26.0314  -26.8760   19.4754 C   0  0  0  0  0  0
  -24.8717  -27.6755   19.4758 C   0  0  0  0  0  0
  -23.6407  -29.8126   20.1572 C   0  0  0  0  0  0
  -25.4119  -36.3071   24.0325 C   0  0  1  0  0  0
  -20.5883  -28.3700   23.1274 C   0  0  2  0  0  0
  -20.6777  -26.9418   22.5411 C   0  0  0  0  0  0
  -19.5752  -26.6387   21.5214 C   0  0  0  0  0  0
  -18.1930  -26.7934   22.1621 C   0  0  0  0  0  0
  -19.1533  -28.8867   23.2874 C   0  0  0  0  0  0
  -18.9465  -30.1470   23.8895 C   0  0  0  0  0  0
  -17.6466  -30.6594   24.0568 C   0  0  0  0  0  0
  -25.9058  -34.9439   23.5090 C   0  0  0  0  0  0
  -16.5355  -29.9092   23.6335 C   0  0  0  0  0  0
  -16.7268  -28.6510   23.0347 C   0  0  0  0  0  0
  -26.4502  -31.6580   25.0722 C   0  0  0  0  0  0
  -25.3731  -31.3711   26.1443 C   0  0  0  0  0  0
  -27.0345  -30.3003   24.6191 C   0  0  0  0  0  0
  -27.6055  -32.4332   25.7482 C   0  0  0  0  0  0
  -27.5582  -37.1790   24.8463 C   0  0  0  0  0  0
  -21.4199  -29.3040   22.3666 N   0  0  0  0  0  0
  -26.4293  -37.3776   23.9407 N   0  0  0  0  0  0
  -24.6921  -31.0542   22.0954 N   0  0  0  0  0  0
  -23.4192  -28.8157   23.3032 O   0  0  0  0  0  0
  -28.3305  -26.4097   20.1969 O   0  0  0  0  0  0
  -26.5635  -34.8912   22.4662 O   0  0  0  0  0  0
  -23.5438  -32.1386   23.7290 O   0  0  0  0  0  0
  -28.7018  -19.3061   18.5291 C   0  0  0  0  0  0
  -29.3065  -16.9370   18.7079 C   0  0  0  0  0  0
  -29.4782  -18.4076   20.6441 C   0  0  0  0  0  0
  -28.8446  -18.0296   17.9483 C   0  0  0  0  0  0
  -29.0529  -19.5694   19.8708 C   0  0  0  0  0  0
  -29.6077  -17.0686   20.0797 C   0  0  0  0  0  0
  -28.4622  -17.8148   16.4968 C   0  0  0  0  0  0
  -29.1406  -22.5319   18.2751 C   0  0  0  0  0  0
  -31.0190  -21.9769   19.7651 C   0  0  0  0  0  0
  -29.0197  -23.7101   21.9583 C   0  0  0  0  0  0
  -30.6301  -24.7134   20.3670 C   0  0  0  0  0  0
  -28.8225  -21.0585   20.4302 C   0  0  0  0  0  0
  -28.2015  -24.9447   19.8864 C   0  0  0  0  0  0
  -29.5194  -22.3851   19.7642 C   0  0  0  0  0  0
  -29.3125  -23.8959   20.4576 C   0  0  0  0  0  0
  -29.8534  -15.8178   20.8314 N   0  0  0  0  0  0
  -31.4710  -12.5383   19.1855 H   0  0  0  0  0  0
  -30.3550  -11.4428   19.9483 H   0  0  0  0  0  0
  -29.7863  -11.7434   17.5168 H   0  0  0  0  0  0
  -29.6534  -13.4670   17.7404 H   0  0  0  0  0  0
  -27.8751  -11.2926   18.8944 H   0  0  0  0  0  0
  -27.3792  -12.5575   17.8019 H   0  0  0  0  0  0
  -27.6502  -14.2590   19.5030 H   0  0  0  0  0  0
  -28.7056  -12.1305   21.4244 H   0  0  0  0  0  0
  -28.4184  -13.8036   21.8219 H   0  0  0  0  0  0
  -25.2736   -9.5730   22.4753 H   0  0  0  0  0  0
  -24.0016   -7.4654   22.7450 H   0  0  0  0  0  0
  -21.0843   -8.8749   19.8941 H   0  0  0  0  0  0
  -22.3655  -10.9666   19.6158 H   0  0  0  0  0  0
  -21.2003   -7.6141   23.9717 H   0  0  0  0  0  0
  -21.1496   -6.0517   25.9075 H   0  0  0  0  0  0
  -22.0586   -2.7606   23.2860 H   0  0  0  0  0  0
  -22.4083  -11.9862   22.4779 H   0  0  0  0  0  0
  -21.1088  -13.1237   22.2638 H   0  0  0  0  0  0
  -24.6638  -15.8519   20.5336 H   0  0  0  0  0  0
  -26.2843  -15.6342   20.1106 H   0  0  0  0  0  0
  -26.7187  -32.5409   23.1072 H   0  0  0  0  0  0
  -25.0080  -33.9714   25.0403 H   0  0  0  0  0  0
  -22.7191  -31.3000   21.3960 H   0  0  0  0  0  0
  -23.3756  -35.9606   23.3291 H   0  0  0  0  0  0
  -24.3584  -36.8918   22.2057 H   0  0  0  0  0  0
  -23.7235  -37.6475   23.6678 H   0  0  0  0  0  0
  -26.1053  -31.5356   20.6085 H   0  0  0  0  0  0
  -26.8465  -30.8224   22.0081 H   0  0  0  0  0  0
  -28.1120  -28.9393   21.2077 H   0  0  0  0  0  0
  -25.9688  -25.9218   18.9750 H   0  0  0  0  0  0
  -23.9782  -27.3127   18.9876 H   0  0  0  0  0  0
  -23.7619  -30.5900   19.4016 H   0  0  0  0  0  0
  -22.7602  -29.2440   19.8538 H   0  0  0  0  0  0
  -25.1301  -36.1916   25.0820 H   0  0  0  0  0  0
  -20.9973  -28.3281   24.1396 H   0  0  0  0  0  0
  -20.5687  -26.2309   23.3617 H   0  0  0  0  0  0
  -21.6648  -26.7453   22.1202 H   0  0  0  0  0  0
  -19.6922  -25.6296   21.1251 H   0  0  0  0  0  0
  -19.6702  -27.3196   20.6745 H   0  0  0  0  0  0
  -17.4208  -26.6683   21.4020 H   0  0  0  0  0  0
  -18.0330  -26.0078   22.9016 H   0  0  0  0  0  0
  -19.7942  -30.7285   24.2263 H   0  0  0  0  0  0
  -17.5015  -31.6271   24.5168 H   0  0  0  0  0  0
  -15.5353  -30.2992   23.7666 H   0  0  0  0  0  0
  -15.8664  -28.0831   22.7061 H   0  0  0  0  0  0
  -24.5923  -30.7042   25.7770 H   0  0  0  0  0  0
  -24.8901  -32.2864   26.4871 H   0  0  0  0  0  0
  -25.8066  -30.8897   27.0215 H   0  0  0  0  0  0
  -26.2919  -29.6747   24.1226 H   0  0  0  0  0  0
  -27.4042  -29.7275   25.4700 H   0  0  0  0  0  0
  -27.8787  -30.4282   23.9414 H   0  0  0  0  0  0
  -27.2670  -33.3643   26.2034 H   0  0  0  0  0  0
  -28.3866  -32.6877   25.0308 H   0  0  0  0  0  0
  -28.0715  -31.8476   26.5410 H   0  0  0  0  0  0
  -28.2582  -38.0102   24.7532 H   0  0  0  0  0  0
  -28.1094  -36.2633   24.6265 H   0  0  0  0  0  0
  -27.2299  -37.1413   25.8865 H   0  0  0  0  0  0
  -20.9386  -29.8756   21.6868 H   0  0  0  0  0  0
  -26.0161  -38.2840   24.1437 H   0  0  0  0  0  0
  -28.2785  -20.0906   17.9232 H   0  0  0  0  0  0
  -29.3624  -15.9685   18.2321 H   0  0  0  0  0  0
  -29.6778  -18.5439   21.6974 H   0  0  0  0  0  0
  -27.9947  -18.7007   16.0643 H   0  0  0  0  0  0
  -27.7572  -16.9875   16.4068 H   0  0  0  0  0  0
  -29.3454  -17.5774   15.9032 H   0  0  0  0  0  0
  -29.5427  -21.7322   17.6558 H   0  0  0  0  0  0
  -29.5558  -23.4447   17.8480 H   0  0  0  0  0  0
  -28.0597  -22.5633   18.1373 H   0  0  0  0  0  0
  -31.1785  -21.0062   19.2948 H   0  0  0  0  0  0
  -31.4111  -21.8991   20.7802 H   0  0  0  0  0  0
  -31.6536  -22.6631   19.2053 H   0  0  0  0  0  0
  -28.9685  -24.6687   22.4767 H   0  0  0  0  0  0
  -29.7953  -23.1207   22.4478 H   0  0  0  0  0  0
  -28.0658  -23.2074   22.1197 H   0  0  0  0  0  0
  -30.5408  -25.6896   20.8426 H   0  0  0  0  0  0
  -30.9204  -24.8910   19.3310 H   0  0  0  0  0  0
  -31.4640  -24.2354   20.8792 H   0  0  0  0  0  0
  -29.1055  -21.0181   21.4824 H   0  0  0  0  0  0
  -27.7440  -21.2219   20.4408 H   0  0  0  0  0  0
  -27.2262  -24.5870   20.2182 H   0  0  0  0  0  0
  -28.1715  -24.9025   18.7993 H   0  0  0  0  0  0
  -29.1008  -15.5812   21.4601 H   0  0  0  0  0  0
  1 25  1  0  0  0
  1 30  2  0  0  0
  1 86  1  0  0  0
  2  3  1  0  0  0
  2 25  1  0  0  0
  2 87  1  0  0  0
  2 88  1  0  0  0
  3  4  1  0  0  0
  3 89  1  0  0  0
  3 90  1  0  0  0
  4  5  1  0  0  0
  4 91  1  0  0  0
  4 92  1  0  0  0
  5  6  1  0  0  0
  5 26  1  0  0  0
  5 93  1  0  0  0
  6 25  1  0  0  0
  6 94  1  0  0  0
  6 95  1  0  0  0
  7  8  2  0  0  0
  7 26  1  0  0  0
  7 29  1  0  0  0
  8  9  1  0  0  0
  8 22  1  0  0  0
  9 10  1  0  0  0
  9 27  2  0  0  0
 10 11  2  0  0  0
 10 15  1  0  0  0
 11 12  1  0  0  0
 11 96  1  0  0  0
 12 13  2  0  0  0
 12 97  1  0  0  0
 13 14  1  0  0  0
 13 31  1  0  0  0
 14 15  2  0  0  0
 14 98  1  0  0  0
 15 99  1  0  0  0
 16 17  2  0  0  0
 16 21  1  0  0  0
 16 31  1  0  0  0
 17 18  1  0  0  0
 17100  1  0  0  0
 18 19  2  0  0  0
 18101  1  0  0  0
 19 20  1  0  0  0
 19 24  1  0  0  0
 20 21  2  0  0  0
 20102  1  0  0  0
 21 23  1  0  0  0
 22 28  1  0  0  0
 22 32  2  0  0  0
 26 27  1  0  0  0
 28103  1  0  0  0
 28104  1  0  0  0
 29105  1  0  0  0
 29106  1  0  0  0
 33 34  1  0  0  0
 33 66  1  0  0  0
 33 70  2  0  0  0
 34 36  1  0  0  0
 34 59  1  0  0  0
 34107  1  0  0  0
 35 44  2  0  0  0
 35 45  1  0  0  0
 35 68  1  0  0  0
 36 56  1  0  0  0
 36108  1  0  0  0
 37 39  1  0  0  0
 37 47  1  0  0  0
 37 66  1  0  0  0
 37109  1  0  0  0
 38 43  2  0  0  0
 38 46  1  0  0  0
 38 47  1  0  0  0
 39 64  1  0  0  0
 39 67  2  0  0  0
 40 52  1  0  0  0
 40 53  2  0  0  0
 40 58  1  0  0  0
 41110  1  0  0  0
 41111  1  0  0  0
 41112  1  0  0  0
 41 48  1  0  0  0
 42 43  1  0  0  0
 42 66  1  0  0  0
 42113  1  0  0  0
 42114  1  0  0  0
 43 44  1  0  0  0
 44115  1  0  0  0
 45 46  2  0  0  0
 45116  1  0  0  0
 46117  1  0  0  0
 47118  1  0  0  0
 47119  1  0  0  0
 48 56  1  0  0  0
 48 65  1  0  0  0
 48120  1  0  0  0
 49 50  1  0  0  0
 49 53  1  0  0  0
 49 64  1  0  0  0
 49121  1  0  0  0
 50 51  1  0  0  0
 50122  1  0  0  0
 50123  1  0  0  0
 51 52  1  0  0  0
 51124  1  0  0  0
 51125  1  0  0  0
 52126  1  0  0  0
 52127  1  0  0  0
 53 54  1  0  0  0
 54 55  2  0  0  0
 54128  1  0  0  0
 55 57  1  0  0  0
 55129  1  0  0  0
 56 69  2  0  0  0
 57 58  2  0  0  0
 57130  1  0  0  0
 58131  1  0  0  0
 59 60  1  0  0  0
 59 61  1  0  0  0
 59 62  1  0  0  0
 60132  1  0  0  0
 60133  1  0  0  0
 60134  1  0  0  0
 61135  1  0  0  0
 61136  1  0  0  0
 61137  1  0  0  0
 62138  1  0  0  0
 62139  1  0  0  0
 62140  1  0  0  0
 63 65  1  0  0  0
 63141  1  0  0  0
 63142  1  0  0  0
 63143  1  0  0  0
 64144  1  0  0  0
 65145  1  0  0  0
 68 83  1  0  0  0
 71 74  2  0  0  0
 71 75  1  0  0  0
 71146  1  0  0  0
 72 74  1  0  0  0
 72 76  2  0  0  0
 72147  1  0  0  0
 73 75  2  0  0  0
 73 76  1  0  0  0
 73148  1  0  0  0
 74 77  1  0  0  0
 75 82  1  0  0  0
 76 86  1  0  0  0
 77149  1  0  0  0
 77150  1  0  0  0
 77151  1  0  0  0
 78152  1  0  0  0
 78153  1  0  0  0
 78154  1  0  0  0
 78 84  1  0  0  0
 79 84  1  0  0  0
 79155  1  0  0  0
 79156  1  0  0  0
 79157  1  0  0  0
 80158  1  0  0  0
 80159  1  0  0  0
 80160  1  0  0  0
 80 85  1  0  0  0
 81 85  1  0  0  0
 81161  1  0  0  0
 81162  1  0  0  0
 81163  1  0  0  0
 82 84  1  0  0  0
 82164  1  0  0  0
 82165  1  0  0  0
 83 85  1  0  0  0
 83166  1  0  0  0
 83167  1  0  0  0
 84 85  1  0  0  0
 86168  1  0  0  0
M  ISO  4   1 100  68 101  83 101  86 100
M  END
> <chiral flag>
0

> <version>
0

> <s_m_source_file>
/data/baiqing/PycharmProjects/Reinvent-master-3.2/result/LINK_invent/BTK/process_docking_weight1_custom_product_contain_oxygen_bond_distance_aromatic_linkinvent_7_9_3/rearranged_h_0140.sdf

> <i_m_source_file_index>
86

> <r_mmod_Potential_Energy-OPLS-2005>
277.620666503906

> <r_mmod_Stretch_Energy-OPLS-2005>
144.835754394531

> <r_mmod_Bend_Energy-OPLS-2005>
185.389144897461

> <r_mmod_Torsional_Energy-OPLS-2005>
284.771118164062

> <r_mmod_Improper_Torsional_Energy-OPLS-2005>
6.00959825515747

> <r_mmod_Van_der_Waal_Energy-OPLS-2005>
155.099899291992

> <r_mmod_Electrostatic_Energy-OPLS-2005>
-378.111663818359

> <r_mmod_Solvation_Energy-OPLS-2005>
-193.142395019531

> <b_mmod_Minimization_Converged-OPLS-2005>
0

> <r_mmod_RMS_Derivative-OPLS-2005>
1.89091789722443

$$$$
86
                    3D
 Structure written by MMmdl.
169177  0  0  1  0            999 V2000
  -30.6907  -14.5564   20.4872 C   0  0  0  0  0  0
  -30.4132  -12.3398   19.4678 C   0  0  0  0  0  0
  -29.4910  -12.4536   18.2365 C   0  0  0  0  0  0
  -28.0188  -12.3000   18.6560 C   0  0  0  0  0  0
  -27.6378  -13.2126   19.8499 C   0  0  2  0  0  0
  -28.6757  -13.1110   20.9910 C   0  0  0  0  0  0
  -25.2465  -13.8208   20.5707 C   0  0  0  0  0  0
  -24.1723  -13.0471   20.9249 C   0  0  0  0  0  0
  -24.6269  -11.6944   20.8732 C   0  0  0  0  0  0
  -23.8938  -10.4315   21.0394 C   0  0  0  0  0  0
  -24.3517   -9.4252   21.9160 C   0  0  0  0  0  0
  -23.6253   -8.2244   22.0717 C   0  0  0  0  0  0
  -22.4250   -8.0243   21.3494 C   0  0  0  0  0  0
  -21.9863   -9.0183   20.4580 C   0  0  0  0  0  0
  -22.7121  -10.2119   20.3019 C   0  0  0  0  0  0
  -21.6837   -6.0701   22.5254 C   0  0  0  0  0  0
  -21.3997   -6.5617   23.8185 C   0  0  0  0  0  0
  -21.3676   -5.6772   24.9150 C   0  0  0  0  0  0
  -21.6068   -4.3035   24.7207 C   0  0  0  0  0  0
  -21.8818   -3.8123   23.4328 C   0  0  0  0  0  0
  -21.9195   -4.6937   22.3376 C   0  0  0  0  0  0
  -22.7756  -13.5248   21.1968 C   0  0  0  0  0  0
  -22.1661   -4.2122   21.0954 F   0  0  0  0  0  0
  -21.5658   -3.4524   25.7726 F   0  0  0  0  0  0
  -30.0058  -13.3815   20.4246 N   0  0  0  0  0  0
  -26.2839  -12.9359   20.3248 N   0  0  0  0  0  0
  -25.9175  -11.6526   20.5714 N   0  0  0  0  0  0
  -22.0396  -12.8161   22.0489 N   0  0  0  0  0  0
  -25.4310  -15.1895   20.4122 N   0  0  0  0  0  0
  -31.8723  -14.6238   20.1500 O   0  0  0  0  0  0
  -21.6627   -6.8828   21.4210 O   0  0  0  0  0  0
  -22.3428  -14.5570   20.6861 O   0  0  0  0  0  0
  -24.6145  -31.8612   23.2061 C   0  0  0  0  0  0
  -25.9000  -32.4811   23.8376 C   0  0  1  0  0  0
  -27.2366  -27.3854   20.0990 C   0  0  0  0  0  0
  -25.5829  -33.8610   24.2325 N   0  0  0  0  0  0
  -23.4072  -30.4746   21.5480 C   0  0  2  0  0  0
  -24.8648  -28.9435   20.1027 C   0  0  0  0  0  0
  -22.7445  -29.4542   22.5010 C   0  0  0  0  0  0
  -18.0276  -28.1270   22.8519 C   0  0  0  0  0  0
  -24.1482  -36.7345   23.2636 C   0  0  0  0  0  0
  -25.9391  -30.8112   21.3684 C   0  0  0  0  0  0
  -26.0203  -29.4420   20.7140 C   0  0  0  0  0  0
  -27.2073  -28.6668   20.7114 C   0  0  0  0  0  0
  -26.0741  -26.9329   19.4379 C   0  0  0  0  0  0
  -24.8904  -27.6979   19.4501 C   0  0  0  0  0  0
  -23.6190  -29.8010   20.1635 C   0  0  0  0  0  0
  -25.4098  -36.3113   24.0322 C   0  0  1  0  0  0
  -20.5870  -28.3568   23.1342 C   0  0  2  0  0  0
  -20.6768  -26.9317   22.5415 C   0  0  0  0  0  0
  -19.5722  -26.6329   21.5213 C   0  0  0  0  0  0
  -18.1900  -26.7828   22.1637 C   0  0  0  0  0  0
  -19.1522  -28.8741   23.2925 C   0  0  0  0  0  0
  -18.9433  -30.1340   23.8925 C   0  0  0  0  0  0
  -17.6428  -30.6512   24.0513 C   0  0  0  0  0  0
  -25.8985  -34.9478   23.5136 C   0  0  0  0  0  0
  -16.5330  -29.8990   23.6300 C   0  0  0  0  0  0
  -16.7261  -28.6382   23.0390 C   0  0  0  0  0  0
  -26.4450  -31.6585   25.0706 C   0  0  0  0  0  0
  -25.3680  -31.3640   26.1419 C   0  0  0  0  0  0
  -27.0318  -30.3059   24.6063 C   0  0  0  0  0  0
  -27.5994  -32.4352   25.7491 C   0  0  0  0  0  0
  -27.5587  -37.1827   24.8445 C   0  0  0  0  0  0
  -21.4165  -29.2962   22.3778 N   0  0  0  0  0  0
  -26.4302  -37.3795   23.9372 N   0  0  0  0  0  0
  -24.6720  -31.0638   22.0998 N   0  0  0  0  0  0
  -23.4218  -28.8070   23.3030 O   0  0  0  0  0  0
  -28.3884  -26.6148   20.1875 O   0  0  0  0  0  0
  -26.5593  -34.8905   22.4730 O   0  0  0  0  0  0
  -23.5323  -32.1413   23.7420 O   0  0  0  0  0  0
  -29.3652  -18.0924   20.8629 C   0  0  0  0  0  0
  -31.3560  -17.4603   19.6336 C   0  0  0  0  0  0
  -30.6827  -19.8085   19.7379 C   0  0  0  0  0  0
  -30.2456  -17.0612   20.4227 C   0  0  0  0  0  0
  -29.5698  -19.4685   20.5425 C   0  0  0  0  0  0
  -31.5697  -18.8100   19.2961 C   0  0  0  0  0  0
  -31.0608  -22.3521   22.6202 C   0  0  0  0  0  0
  -27.6790  -25.1806   22.5026 C   0  0  0  0  0  0
  -26.3446  -23.8713   20.8598 C   0  0  0  0  0  0
  -28.1576  -22.3404   22.9875 C   0  0  0  0  0  0
  -30.1719  -23.2898   21.7781 C   0  0  0  0  0  0
  -28.3742  -25.1552   20.0570 C   0  0  0  0  0  0
  -28.5367  -21.7481   20.5522 C   0  0  0  0  0  0
  -27.7999  -24.2608   21.2494 C   0  0  0  0  0  0
  -28.6570  -22.9197   21.6198 C   0  0  1  0  0  0
  -29.9613  -15.6746   20.7578 N   0  0  0  0  0  0
  -28.6975  -20.4076   21.0850 O   0  0  0  0  0  0
  -32.6419  -19.1507   18.5402 F   0  0  0  0  0  0
  -31.4560  -12.4346   19.1621 H   0  0  0  0  0  0
  -30.3271  -11.3612   19.9410 H   0  0  0  0  0  0
  -29.7501  -11.6795   17.5143 H   0  0  0  0  0  0
  -29.6401  -13.4111   17.7361 H   0  0  0  0  0  0
  -27.8742  -11.2565   18.9408 H   0  0  0  0  0  0
  -27.3587  -12.4752   17.8067 H   0  0  0  0  0  0
  -27.6490  -14.2323   19.4665 H   0  0  0  0  0  0
  -28.6536  -12.1187   21.4434 H   0  0  0  0  0  0
  -28.4227  -13.8114   21.7884 H   0  0  0  0  0  0
  -25.2635   -9.5790   22.4756 H   0  0  0  0  0  0
  -23.9987   -7.4649   22.7434 H   0  0  0  0  0  0
  -21.0820   -8.8634   19.8846 H   0  0  0  0  0  0
  -22.3517  -10.9633   19.6138 H   0  0  0  0  0  0
  -21.1956   -7.6117   23.9674 H   0  0  0  0  0  0
  -21.1524   -6.0498   25.9052 H   0  0  0  0  0  0
  -22.0594   -2.7583   23.2816 H   0  0  0  0  0  0
  -22.4017  -11.9789   22.4806 H   0  0  0  0  0  0
  -21.0980  -13.1097   22.2689 H   0  0  0  0  0  0
  -24.6867  -15.8719   20.5112 H   0  0  0  0  0  0
  -26.2940  -15.5980   20.0768 H   0  0  0  0  0  0
  -26.7057  -32.5531   23.1110 H   0  0  0  0  0  0
  -24.9878  -33.9765   25.0403 H   0  0  0  0  0  0
  -22.6930  -31.2881   21.4014 H   0  0  0  0  0  0
  -23.3722  -35.9702   23.3286 H   0  0  0  0  0  0
  -24.3538  -36.9016   22.2050 H   0  0  0  0  0  0
  -23.7265  -37.6545   23.6690 H   0  0  0  0  0  0
  -26.0413  -31.5757   20.5968 H   0  0  0  0  0  0
  -26.8271  -30.8772   21.9837 H   0  0  0  0  0  0
  -28.0935  -29.0238   21.2183 H   0  0  0  0  0  0
  -26.0675  -25.9890   18.9139 H   0  0  0  0  0  0
  -24.0088  -27.3318   18.9389 H   0  0  0  0  0  0
  -23.7077  -30.5686   19.3933 H   0  0  0  0  0  0
  -22.7522  -29.1991   19.8809 H   0  0  0  0  0  0
  -25.1296  -36.1983   25.0822 H   0  0  0  0  0  0
  -20.9947  -28.3112   24.1466 H   0  0  0  0  0  0
  -20.5667  -26.2161   23.3580 H   0  0  0  0  0  0
  -21.6634  -26.7350   22.1181 H   0  0  0  0  0  0
  -19.6872  -25.6260   21.1177 H   0  0  0  0  0  0
  -19.6640  -27.3189   20.6773 H   0  0  0  0  0  0
  -17.4201  -26.6618   21.4008 H   0  0  0  0  0  0
  -18.0226  -25.9929   22.8977 H   0  0  0  0  0  0
  -19.7899  -30.7109   24.2382 H   0  0  0  0  0  0
  -17.4981  -31.6208   24.5070 H   0  0  0  0  0  0
  -15.5312  -30.2881   23.7589 H   0  0  0  0  0  0
  -15.8670  -28.0656   22.7174 H   0  0  0  0  0  0
  -24.5865  -30.7003   25.7697 H   0  0  0  0  0  0
  -24.8809  -32.2755   26.4903 H   0  0  0  0  0  0
  -25.7982  -30.8758   27.0171 H   0  0  0  0  0  0
  -26.2888  -29.6751   24.1156 H   0  0  0  0  0  0
  -27.4188  -29.7330   25.4496 H   0  0  0  0  0  0
  -27.8657  -30.4419   23.9158 H   0  0  0  0  0  0
  -27.2609  -33.3655   26.2036 H   0  0  0  0  0  0
  -28.3795  -32.6908   25.0320 H   0  0  0  0  0  0
  -28.0637  -31.8491   26.5426 H   0  0  0  0  0  0
  -28.2586  -38.0156   24.7557 H   0  0  0  0  0  0
  -28.1134  -36.2688   24.6234 H   0  0  0  0  0  0
  -27.2285  -37.1421   25.8847 H   0  0  0  0  0  0
  -20.9326  -29.8719   21.7030 H   0  0  0  0  0  0
  -26.0198  -38.2884   24.1362 H   0  0  0  0  0  0
  -28.5102  -17.8321   21.4701 H   0  0  0  0  0  0
  -32.0749  -16.7525   19.2554 H   0  0  0  0  0  0
  -30.9100  -20.8276   19.4675 H   0  0  0  0  0  0
  -32.0998  -22.6797   22.5765 H   0  0  0  0  0  0
  -31.0243  -21.3218   22.2698 H   0  0  0  0  0  0
  -30.7789  -22.3600   23.6754 H   0  0  0  0  0  0
  -27.0637  -26.0556   22.3023 H   0  0  0  0  0  0
  -28.6432  -25.5500   22.8476 H   0  0  0  0  0  0
  -27.1822  -24.7088   23.3490 H   0  0  0  0  0  0
  -25.6725  -24.7269   20.8865 H   0  0  0  0  0  0
  -25.8981  -23.1357   21.5260 H   0  0  0  0  0  0
  -26.2789  -23.4654   19.8481 H   0  0  0  0  0  0
  -28.6206  -21.3881   23.2425 H   0  0  0  0  0  0
  -27.0847  -22.1582   23.0131 H   0  0  0  0  0  0
  -28.4034  -22.9901   23.8278 H   0  0  0  0  0  0
  -30.6340  -23.3539   20.7930 H   0  0  0  0  0  0
  -30.2760  -24.2871   22.2019 H   0  0  0  0  0  0
  -27.9494  -24.8557   19.0987 H   0  0  0  0  0  0
  -29.4265  -24.9254   19.9215 H   0  0  0  0  0  0
  -29.1400  -21.9517   19.6712 H   0  0  0  0  0  0
  -27.5218  -21.7014   20.1667 H   0  0  0  0  0  0
  -29.0408  -15.4924   21.1287 H   0  0  0  0  0  0
  1 25  1  0  0  0
  1 30  2  0  0  0
  1 86  1  0  0  0
  2  3  1  0  0  0
  2 25  1  0  0  0
  2 89  1  0  0  0
  2 90  1  0  0  0
  3  4  1  0  0  0
  3 91  1  0  0  0
  3 92  1  0  0  0
  4  5  1  0  0  0
  4 93  1  0  0  0
  4 94  1  0  0  0
  5  6  1  0  0  0
  5 26  1  0  0  0
  5 95  1  0  0  0
  6 25  1  0  0  0
  6 96  1  0  0  0
  6 97  1  0  0  0
  7  8  2  0  0  0
  7 26  1  0  0  0
  7 29  1  0  0  0
  8  9  1  0  0  0
  8 22  1  0  0  0
  9 10  1  0  0  0
  9 27  2  0  0  0
 10 11  2  0  0  0
 10 15  1  0  0  0
 11 12  1  0  0  0
 11 98  1  0  0  0
 12 13  2  0  0  0
 12 99  1  0  0  0
 13 14  1  0  0  0
 13 31  1  0  0  0
 14 15  2  0  0  0
 14100  1  0  0  0
 15101  1  0  0  0
 16 17  2  0  0  0
 16 21  1  0  0  0
 16 31  1  0  0  0
 17 18  1  0  0  0
 17102  1  0  0  0
 18 19  2  0  0  0
 18103  1  0  0  0
 19 20  1  0  0  0
 19 24  1  0  0  0
 20 21  2  0  0  0
 20104  1  0  0  0
 21 23  1  0  0  0
 22 28  1  0  0  0
 22 32  2  0  0  0
 26 27  1  0  0  0
 28105  1  0  0  0
 28106  1  0  0  0
 29107  1  0  0  0
 29108  1  0  0  0
 33 34  1  0  0  0
 33 66  1  0  0  0
 33 70  2  0  0  0
 34 36  1  0  0  0
 34 59  1  0  0  0
 34109  1  0  0  0
 35 44  2  0  0  0
 35 45  1  0  0  0
 35 68  1  0  0  0
 36 56  1  0  0  0
 36110  1  0  0  0
 37 39  1  0  0  0
 37 47  1  0  0  0
 37 66  1  0  0  0
 37111  1  0  0  0
 38 43  2  0  0  0
 38 46  1  0  0  0
 38 47  1  0  0  0
 39 64  1  0  0  0
 39 67  2  0  0  0
 40 52  1  0  0  0
 40 53  2  0  0  0
 40 58  1  0  0  0
 41112  1  0  0  0
 41113  1  0  0  0
 41114  1  0  0  0
 41 48  1  0  0  0
 42 43  1  0  0  0
 42 66  1  0  0  0
 42115  1  0  0  0
 42116  1  0  0  0
 43 44  1  0  0  0
 44117  1  0  0  0
 45 46  2  0  0  0
 45118  1  0  0  0
 46119  1  0  0  0
 47120  1  0  0  0
 47121  1  0  0  0
 48 56  1  0  0  0
 48 65  1  0  0  0
 48122  1  0  0  0
 49 50  1  0  0  0
 49 53  1  0  0  0
 49 64  1  0  0  0
 49123  1  0  0  0
 50 51  1  0  0  0
 50124  1  0  0  0
 50125  1  0  0  0
 51 52  1  0  0  0
 51126  1  0  0  0
 51127  1  0  0  0
 52128  1  0  0  0
 52129  1  0  0  0
 53 54  1  0  0  0
 54 55  2  0  0  0
 54130  1  0  0  0
 55 57  1  0  0  0
 55131  1  0  0  0
 56 69  2  0  0  0
 57 58  2  0  0  0
 57132  1  0  0  0
 58133  1  0  0  0
 59 60  1  0  0  0
 59 61  1  0  0  0
 59 62  1  0  0  0
 60134  1  0  0  0
 60135  1  0  0  0
 60136  1  0  0  0
 61137  1  0  0  0
 61138  1  0  0  0
 61139  1  0  0  0
 62140  1  0  0  0
 62141  1  0  0  0
 62142  1  0  0  0
 63 65  1  0  0  0
 63143  1  0  0  0
 63144  1  0  0  0
 63145  1  0  0  0
 64146  1  0  0  0
 65147  1  0  0  0
 68 82  1  0  0  0
 71 74  2  0  0  0
 71 75  1  0  0  0
 71148  1  0  0  0
 72 74  1  0  0  0
 72 76  2  0  0  0
 72149  1  0  0  0
 73 75  2  0  0  0
 73 76  1  0  0  0
 73150  1  0  0  0
 74 86  1  0  0  0
 75 87  1  0  0  0
 76 88  1  0  0  0
 77 81  1  0  0  0
 77151  1  0  0  0
 77152  1  0  0  0
 77153  1  0  0  0
 78154  1  0  0  0
 78155  1  0  0  0
 78156  1  0  0  0
 78 84  1  0  0  0
 79 84  1  0  0  0
 79157  1  0  0  0
 79158  1  0  0  0
 79159  1  0  0  0
 80160  1  0  0  0
 80161  1  0  0  0
 80162  1  0  0  0
 80 85  1  0  0  0
 81 85  1  0  0  0
 81163  1  0  0  0
 81164  1  0  0  0
 82 84  1  0  0  0
 82165  1  0  0  0
 82166  1  0  0  0
 83 85  1  0  0  0
 83 87  1  0  0  0
 83167  1  0  0  0
 83168  1  0  0  0
 84 85  1  0  0  0
 86169  1  0  0  0
M  ISO  4   1 100  68 101  82 101  86 100
M  END
> <chiral flag>
0

> <version>
0

> <s_m_source_file>
/data/baiqing/PycharmProjects/Reinvent-master-3.2/result/LINK_invent/BTK/process_docking_weight1_custom_product_contain_oxygen_bond_distance_aromatic_linkinvent_7_9_3/rearranged_h_0140.sdf

> <i_m_source_file_index>
87

> <r_mmod_Potential_Energy-OPLS-2005>
174.957382202148

> <r_mmod_Stretch_Energy-OPLS-2005>
76.3903961181641

> <r_mmod_Bend_Energy-OPLS-2005>
161.279479980469

> <r_mmod_Torsional_Energy-OPLS-2005>
268.645843505859

> <r_mmod_Improper_Torsional_Energy-OPLS-2005>
4.35264730453491

> <r_mmod_Van_der_Waal_Energy-OPLS-2005>
178.465606689453

> <r_mmod_Electrostatic_Energy-OPLS-2005>
-356.951507568359

> <r_mmod_Solvation_Energy-OPLS-2005>
-191.420516967773

> <b_mmod_Minimization_Converged-OPLS-2005>
0

> <r_mmod_RMS_Derivative-OPLS-2005>
5.05466842651367

$$$$
87
                    3D
 Structure written by MMmdl.
182190  0  0  1  0            999 V2000
  -30.5212  -14.8596   20.4555 C   0  0  0  0  0  0
  -30.4493  -12.5261   19.4928 C   0  0  0  0  0  0
  -29.5234  -12.5264   18.2526 C   0  0  0  0  0  0
  -28.0505  -12.3258   18.6619 C   0  0  0  0  0  0
  -27.6401  -13.2312   19.8513 C   0  0  2  0  0  0
  -28.6802  -13.1810   20.9912 C   0  0  0  0  0  0
  -25.2514  -13.8197   20.5696 C   0  0  0  0  0  0
  -24.1803  -13.0445   20.9218 C   0  0  0  0  0  0
  -24.6388  -11.6917   20.8753 C   0  0  0  0  0  0
  -23.9065  -10.4296   21.0417 C   0  0  0  0  0  0
  -24.3620   -9.4209   21.9187 C   0  0  0  0  0  0
  -23.6295   -8.2244   22.0754 C   0  0  0  0  0  0
  -22.4278   -8.0286   21.3547 C   0  0  0  0  0  0
  -21.9918   -9.0255   20.4646 C   0  0  0  0  0  0
  -22.7244  -10.2137   20.3056 C   0  0  0  0  0  0
  -21.6851   -6.0739   22.5277 C   0  0  0  0  0  0
  -21.4011   -6.5643   23.8212 C   0  0  0  0  0  0
  -21.3660   -5.6799   24.9174 C   0  0  0  0  0  0
  -21.6043   -4.3057   24.7226 C   0  0  0  0  0  0
  -21.8818   -3.8150   23.4344 C   0  0  0  0  0  0
  -21.9189   -4.6964   22.3404 C   0  0  0  0  0  0
  -22.7819  -13.5229   21.1873 C   0  0  0  0  0  0
  -22.1662   -4.2151   21.0977 F   0  0  0  0  0  0
  -21.5631   -3.4543   25.7737 F   0  0  0  0  0  0
  -29.9722  -13.5860   20.4189 N   0  0  0  0  0  0
  -26.2919  -12.9388   20.3262 N   0  0  0  0  0  0
  -25.9309  -11.6532   20.5744 N   0  0  0  0  0  0
  -22.0468  -12.8221   22.0434 N   0  0  0  0  0  0
  -25.4229  -15.1921   20.4129 N   0  0  0  0  0  0
  -31.6990  -15.0004   20.1084 O   0  0  0  0  0  0
  -21.6640   -6.8883   21.4242 O   0  0  0  0  0  0
  -22.3500  -14.5526   20.6708 O   0  0  0  0  0  0
  -24.6394  -31.8512   23.1938 C   0  0  0  0  0  0
  -25.9193  -32.4731   23.8300 C   0  0  1  0  0  0
  -27.2106  -27.1932   20.1346 C   0  0  0  0  0  0
  -25.5961  -33.8537   24.2225 N   0  0  0  0  0  0
  -23.4382  -30.4745   21.5401 C   0  0  2  0  0  0
  -24.8837  -28.9148   20.1091 C   0  0  0  0  0  0
  -22.7546  -29.4584   22.4888 C   0  0  0  0  0  0
  -18.0319  -28.1357   22.8484 C   0  0  0  0  0  0
  -24.1492  -36.7264   23.2635 C   0  0  0  0  0  0
  -25.9914  -30.7422   21.3849 C   0  0  0  0  0  0
  -26.0608  -29.3614   20.7228 C   0  0  0  0  0  0
  -27.2269  -28.5152   20.7201 C   0  0  0  0  0  0
  -26.0067  -26.8399   19.4817 C   0  0  0  0  0  0
  -24.8671  -27.6667   19.4748 C   0  0  0  0  0  0
  -23.6589  -29.8114   20.1568 C   0  0  0  0  0  0
  -25.4124  -36.3058   24.0316 C   0  0  1  0  0  0
  -20.5920  -28.3708   23.1254 C   0  0  2  0  0  0
  -20.6825  -26.9418   22.5415 C   0  0  0  0  0  0
  -19.5802  -26.6360   21.5232 C   0  0  0  0  0  0
  -18.1973  -26.7893   22.1636 C   0  0  0  0  0  0
  -19.1565  -28.8850   23.2862 C   0  0  0  0  0  0
  -18.9478  -30.1451   23.8875 C   0  0  0  0  0  0
  -17.6476  -30.6578   24.0537 C   0  0  0  0  0  0
  -25.9074  -34.9432   23.5084 C   0  0  0  0  0  0
  -16.5372  -29.9060   23.6318 C   0  0  0  0  0  0
  -16.7304  -28.6468   23.0354 C   0  0  0  0  0  0
  -26.4522  -31.6570   25.0717 C   0  0  0  0  0  0
  -25.3707  -31.3748   26.1408 C   0  0  0  0  0  0
  -27.0379  -30.2973   24.6258 C   0  0  0  0  0  0
  -27.6062  -32.4325   25.7499 C   0  0  0  0  0  0
  -27.5580  -37.1789   24.8460 C   0  0  0  0  0  0
  -21.4242  -29.3061   22.3648 N   0  0  0  0  0  0
  -26.4290  -37.3762   23.9407 N   0  0  0  0  0  0
  -24.7096  -31.0410   22.0959 N   0  0  0  0  0  0
  -23.4217  -28.8115   23.3007 O   0  0  0  0  0  0
  -28.2695  -26.2308   20.2108 O   0  0  0  0  0  0
  -26.5647  -34.8915   22.4654 O   0  0  0  0  0  0
  -23.5529  -32.1367   23.7199 O   0  0  0  0  0  0
  -29.8641  -19.7813   19.7717 C   0  0  0  0  0  0
  -28.5052  -18.0792   21.4067 C   0  0  0  0  0  0
  -28.7669  -20.4066   20.4629 C   0  0  0  0  0  0
  -30.2383  -18.3788   19.8363 C   0  0  0  0  0  0
  -28.0588  -19.4697   21.3442 C   0  0  0  0  0  0
  -29.5423  -17.4398   20.6623 C   0  0  0  0  0  0
  -27.9984  -19.7380   24.5468 C   0  0  0  0  0  0
  -31.3701  -17.9036   18.9465 C   0  0  0  0  0  0
  -27.3023  -18.9853   25.6809 C   0  0  0  0  0  0
  -27.8611  -21.7873   18.5081 C   0  0  0  0  0  0
  -30.2548  -23.5582   19.5654 C   0  0  0  0  0  0
  -25.9736  -18.5196   22.6024 C   0  0  0  0  0  0
  -25.6815  -20.5756   21.4109 C   0  0  0  0  0  0
  -25.8842  -21.1206   24.3266 C   0  0  0  0  0  0
  -27.9750  -21.8863   23.3026 C   0  0  0  0  0  0
  -27.9648  -24.7443   19.9790 C   0  0  0  0  0  0
  -28.2581  -21.9037   19.9931 C   0  0  2  0  0  0
  -28.9092  -23.4081   20.2863 C   0  0  1  0  0  0
  -26.7760  -19.8160   22.2273 C   0  0  0  0  0  0
  -27.1467  -20.6073   23.5710 C   0  0  0  0  0  0
  -29.6594  -15.9244   20.7780 N   0  0  0  0  0  0
  -29.2246  -19.6488   24.4369 O   0  0  0  0  0  0
  -31.4841  -12.6876   19.1869 H   0  0  0  0  0  0
  -30.4343  -11.5548   19.9879 H   0  0  0  0  0  0
  -29.8265  -11.7446   17.5553 H   0  0  0  0  0  0
  -29.6312  -13.4718   17.7188 H   0  0  0  0  0  0
  -27.9243  -11.2783   18.9373 H   0  0  0  0  0  0
  -27.3933  -12.4982   17.8086 H   0  0  0  0  0  0
  -27.6285  -14.2484   19.4596 H   0  0  0  0  0  0
  -28.7435  -12.1799   21.4201 H   0  0  0  0  0  0
  -28.3858  -13.8368   21.8111 H   0  0  0  0  0  0
  -25.2761   -9.5688   22.4764 H   0  0  0  0  0  0
  -23.9999   -7.4639   22.7474 H   0  0  0  0  0  0
  -21.0846   -8.8777   19.8960 H   0  0  0  0  0  0
  -22.3693  -10.9679   19.6174 H   0  0  0  0  0  0
  -21.2003   -7.6151   23.9717 H   0  0  0  0  0  0
  -21.1486   -6.0528   25.9081 H   0  0  0  0  0  0
  -22.0595   -2.7608   23.2845 H   0  0  0  0  0  0
  -22.4082  -11.9878   22.4814 H   0  0  0  0  0  0
  -21.1085  -13.1254   22.2645 H   0  0  0  0  0  0
  -24.6524  -15.8425   20.5151 H   0  0  0  0  0  0
  -26.2586  -15.6281   20.0457 H   0  0  0  0  0  0
  -26.7261  -32.5346   23.1030 H   0  0  0  0  0  0
  -25.0094  -33.9651   25.0366 H   0  0  0  0  0  0
  -22.7368  -31.2998   21.3945 H   0  0  0  0  0  0
  -23.3762  -35.9585   23.3293 H   0  0  0  0  0  0
  -24.3578  -36.8901   22.2050 H   0  0  0  0  0  0
  -23.7234  -37.6454   23.6671 H   0  0  0  0  0  0
  -26.1429  -31.5021   20.6168 H   0  0  0  0  0  0
  -26.8639  -30.7869   22.0258 H   0  0  0  0  0  0
  -28.1239  -28.8510   21.2205 H   0  0  0  0  0  0
  -25.9019  -25.8878   18.9855 H   0  0  0  0  0  0
  -23.9680  -27.3223   18.9824 H   0  0  0  0  0  0
  -23.7908  -30.5892   19.4039 H   0  0  0  0  0  0
  -22.7735  -29.2525   19.8483 H   0  0  0  0  0  0
  -25.1312  -36.1896   25.0805 H   0  0  0  0  0  0
  -20.9993  -28.3303   24.1381 H   0  0  0  0  0  0
  -20.5754  -26.2320   23.3629 H   0  0  0  0  0  0
  -21.6684  -26.7456   22.1185 H   0  0  0  0  0  0
  -19.6999  -25.6264   21.1280 H   0  0  0  0  0  0
  -19.6731  -27.3168   20.6764 H   0  0  0  0  0  0
  -17.4251  -26.6653   21.4026 H   0  0  0  0  0  0
  -18.0360  -26.0033   22.9029 H   0  0  0  0  0  0
  -19.7954  -30.7266   24.2240 H   0  0  0  0  0  0
  -17.5030  -31.6262   24.5124 H   0  0  0  0  0  0
  -15.5371  -30.2952   23.7634 H   0  0  0  0  0  0
  -15.8711  -28.0775   22.7079 H   0  0  0  0  0  0
  -24.5883  -30.7109   25.7708 H   0  0  0  0  0  0
  -24.8892  -32.2930   26.4785 H   0  0  0  0  0  0
  -25.7979  -30.8934   27.0216 H   0  0  0  0  0  0
  -26.2988  -29.6702   24.1256 H   0  0  0  0  0  0
  -27.4001  -29.7261   25.4815 H   0  0  0  0  0  0
  -27.8895  -30.4217   23.9567 H   0  0  0  0  0  0
  -27.2658  -33.3633   26.2052 H   0  0  0  0  0  0
  -28.3880  -32.6883   25.0332 H   0  0  0  0  0  0
  -28.0721  -31.8467   26.5430 H   0  0  0  0  0  0
  -28.2598  -38.0089   24.7528 H   0  0  0  0  0  0
  -28.1087  -36.2626   24.6279 H   0  0  0  0  0  0
  -27.2298  -37.1426   25.8862 H   0  0  0  0  0  0
  -20.9433  -29.8772   21.6843 H   0  0  0  0  0  0
  -26.0171  -38.2835   24.1414 H   0  0  0  0  0  0
  -30.4084  -20.4056   19.0771 H   0  0  0  0  0  0
  -28.0078  -17.3790   22.0498 H   0  0  0  0  0  0
  -31.0334  -17.0971   18.2943 H   0  0  0  0  0  0
  -32.2001  -17.5407   19.5519 H   0  0  0  0  0  0
  -31.7487  -18.7041   18.3124 H   0  0  0  0  0  0
  -27.0958  -19.6658   26.5065 H   0  0  0  0  0  0
  -27.9377  -18.1806   26.0507 H   0  0  0  0  0  0
  -26.3584  -18.5525   25.3547 H   0  0  0  0  0  0
  -27.2099  -20.9261   18.3505 H   0  0  0  0  0  0
  -28.7318  -21.6627   17.8646 H   0  0  0  0  0  0
  -27.3092  -22.6563   18.1536 H   0  0  0  0  0  0
  -30.7523  -24.4817   19.8647 H   0  0  0  0  0  0
  -30.1282  -23.5893   18.4830 H   0  0  0  0  0  0
  -30.9221  -22.7302   19.8029 H   0  0  0  0  0  0
  -25.7147  -17.9451   21.7127 H   0  0  0  0  0  0
  -25.0301  -18.7298   23.1045 H   0  0  0  0  0  0
  -26.4867  -17.8455   23.2838 H   0  0  0  0  0  0
  -25.7278  -20.3301   20.3493 H   0  0  0  0  0  0
  -25.7027  -21.6547   21.5329 H   0  0  0  0  0  0
  -24.6650  -20.3384   21.7249 H   0  0  0  0  0  0
  -26.1534  -21.5691   25.2839 H   0  0  0  0  0  0
  -25.1575  -20.3407   24.5452 H   0  0  0  0  0  0
  -25.3572  -21.8972   23.7726 H   0  0  0  0  0  0
  -28.2317  -22.3939   24.2343 H   0  0  0  0  0  0
  -27.4234  -22.6079   22.7036 H   0  0  0  0  0  0
  -28.9204  -21.6742   22.8056 H   0  0  0  0  0  0
  -27.0300  -24.5480   20.5066 H   0  0  0  0  0  0
  -27.7226  -24.6877   18.9185 H   0  0  0  0  0  0
  -27.3250  -22.0547   20.4841 H   0  0  0  0  0  0
  -29.1307  -23.4549   21.3507 H   0  0  0  0  0  0
  -28.8144  -15.5281   21.1587 H   0  0  0  0  0  0
  1 25  1  0  0  0
  1 30  2  0  0  0
  1 91  1  0  0  0
  2  3  1  0  0  0
  2 25  1  0  0  0
  2 93  1  0  0  0
  2 94  1  0  0  0
  3  4  1  0  0  0
  3 95  1  0  0  0
  3 96  1  0  0  0
  4  5  1  0  0  0
  4 97  1  0  0  0
  4 98  1  0  0  0
  5  6  1  0  0  0
  5 26  1  0  0  0
  5 99  1  0  0  0
  6 25  1  0  0  0
  6100  1  0  0  0
  6101  1  0  0  0
  7  8  2  0  0  0
  7 26  1  0  0  0
  7 29  1  0  0  0
  8  9  1  0  0  0
  8 22  1  0  0  0
  9 10  1  0  0  0
  9 27  2  0  0  0
 10 11  2  0  0  0
 10 15  1  0  0  0
 11 12  1  0  0  0
 11102  1  0  0  0
 12 13  2  0  0  0
 12103  1  0  0  0
 13 14  1  0  0  0
 13 31  1  0  0  0
 14 15  2  0  0  0
 14104  1  0  0  0
 15105  1  0  0  0
 16 17  2  0  0  0
 16 21  1  0  0  0
 16 31  1  0  0  0
 17 18  1  0  0  0
 17106  1  0  0  0
 18 19  2  0  0  0
 18107  1  0  0  0
 19 20  1  0  0  0
 19 24  1  0  0  0
 20 21  2  0  0  0
 20108  1  0  0  0
 21 23  1  0  0  0
 22 28  1  0  0  0
 22 32  2  0  0  0
 26 27  1  0  0  0
 28109  1  0  0  0
 28110  1  0  0  0
 29111  1  0  0  0
 29112  1  0  0  0
 33 34  1  0  0  0
 33 66  1  0  0  0
 33 70  2  0  0  0
 34 36  1  0  0  0
 34 59  1  0  0  0
 34113  1  0  0  0
 35 44  2  0  0  0
 35 45  1  0  0  0
 35 68  1  0  0  0
 36 56  1  0  0  0
 36114  1  0  0  0
 37 39  1  0  0  0
 37 47  1  0  0  0
 37 66  1  0  0  0
 37115  1  0  0  0
 38 43  2  0  0  0
 38 46  1  0  0  0
 38 47  1  0  0  0
 39 64  1  0  0  0
 39 67  2  0  0  0
 40 52  1  0  0  0
 40 53  2  0  0  0
 40 58  1  0  0  0
 41116  1  0  0  0
 41117  1  0  0  0
 41118  1  0  0  0
 41 48  1  0  0  0
 42 43  1  0  0  0
 42 66  1  0  0  0
 42119  1  0  0  0
 42120  1  0  0  0
 43 44  1  0  0  0
 44121  1  0  0  0
 45 46  2  0  0  0
 45122  1  0  0  0
 46123  1  0  0  0
 47124  1  0  0  0
 47125  1  0  0  0
 48 56  1  0  0  0
 48 65  1  0  0  0
 48126  1  0  0  0
 49 50  1  0  0  0
 49 53  1  0  0  0
 49 64  1  0  0  0
 49127  1  0  0  0
 50 51  1  0  0  0
 50128  1  0  0  0
 50129  1  0  0  0
 51 52  1  0  0  0
 51130  1  0  0  0
 51131  1  0  0  0
 52132  1  0  0  0
 52133  1  0  0  0
 53 54  1  0  0  0
 54 55  2  0  0  0
 54134  1  0  0  0
 55 57  1  0  0  0
 55135  1  0  0  0
 56 69  2  0  0  0
 57 58  2  0  0  0
 57136  1  0  0  0
 58137  1  0  0  0
 59 60  1  0  0  0
 59 61  1  0  0  0
 59 62  1  0  0  0
 60138  1  0  0  0
 60139  1  0  0  0
 60140  1  0  0  0
 61141  1  0  0  0
 61142  1  0  0  0
 61143  1  0  0  0
 62144  1  0  0  0
 62145  1  0  0  0
 62146  1  0  0  0
 63 65  1  0  0  0
 63147  1  0  0  0
 63148  1  0  0  0
 63149  1  0  0  0
 64150  1  0  0  0
 65151  1  0  0  0
 68 86  1  0  0  0
 71 73  2  0  0  0
 71 74  1  0  0  0
 71152  1  0  0  0
 72 75  2  0  0  0
 72 76  1  0  0  0
 72153  1  0  0  0
 73 75  1  0  0  0
 73 87  1  0  0  0
 74 76  2  0  0  0
 74 78  1  0  0  0
 75 89  1  0  0  0
 76 91  1  0  0  0
 77 79  1  0  0  0
 77 90  1  0  0  0
 77 92  2  0  0  0
 78154  1  0  0  0
 78155  1  0  0  0
 78156  1  0  0  0
 79157  1  0  0  0
 79158  1  0  0  0
 79159  1  0  0  0
 80160  1  0  0  0
 80161  1  0  0  0
 80162  1  0  0  0
 80 87  1  0  0  0
 81163  1  0  0  0
 81164  1  0  0  0
 81165  1  0  0  0
 81 88  1  0  0  0
 82166  1  0  0  0
 82167  1  0  0  0
 82168  1  0  0  0
 82 89  1  0  0  0
 83 89  1  0  0  0
 83169  1  0  0  0
 83170  1  0  0  0
 83171  1  0  0  0
 84172  1  0  0  0
 84173  1  0  0  0
 84174  1  0  0  0
 84 90  1  0  0  0
 85 90  1  0  0  0
 85175  1  0  0  0
 85176  1  0  0  0
 85177  1  0  0  0
 86 88  1  0  0  0
 86178  1  0  0  0
 86179  1  0  0  0
 87 88  1  0  0  0
 87180  1  0  0  0
 88181  1  0  0  0
 89 90  1  0  0  0
 91182  1  0  0  0
M  ISO  4   1 100  68 101  86 101  91 100
M  END
> <chiral flag>
0

> <version>
0

> <s_m_source_file>
/data/baiqing/PycharmProjects/Reinvent-master-3.2/result/LINK_invent/BTK/process_docking_weight1_custom_product_contain_oxygen_bond_distance_aromatic_linkinvent_7_9_3/rearranged_h_0140.sdf

> <i_m_source_file_index>
88

> <r_mmod_Potential_Energy-OPLS-2005>
479.941162109375

> <r_mmod_Stretch_Energy-OPLS-2005>
226.043655395508

> <r_mmod_Bend_Energy-OPLS-2005>
299.739898681641

> <r_mmod_Torsional_Energy-OPLS-2005>
267.674377441406

> <r_mmod_Improper_Torsional_Energy-OPLS-2005>
5.56355381011963

> <r_mmod_Van_der_Waal_Energy-OPLS-2005>
176.317459106445

> <r_mmod_Electrostatic_Energy-OPLS-2005>
-428.158447265625

> <r_mmod_Solvation_Energy-OPLS-2005>
-208.749114990234

> <b_mmod_Minimization_Converged-OPLS-2005>
0

> <r_mmod_RMS_Derivative-OPLS-2005>
1.64303493499756

$$$$
88
                    3D
 Structure written by MMmdl.
164172  0  0  1  0            999 V2000
  -30.6511  -14.5097   20.6146 C   0  0  0  0  0  0
  -30.4491  -12.3482   19.4049 C   0  0  0  0  0  0
  -29.4996  -12.5288   18.1996 C   0  0  0  0  0  0
  -28.0214  -12.3732   18.6148 C   0  0  0  0  0  0
  -27.6692  -13.1971   19.8811 C   0  0  2  0  0  0
  -28.7128  -12.9335   20.9886 C   0  0  0  0  0  0
  -25.2639  -13.8136   20.5687 C   0  0  0  0  0  0
  -24.1867  -13.0432   20.9169 C   0  0  0  0  0  0
  -24.6402  -11.6893   20.8728 C   0  0  0  0  0  0
  -23.9060  -10.4292   21.0406 C   0  0  0  0  0  0
  -24.3612   -9.4209   21.9183 C   0  0  0  0  0  0
  -23.6291   -8.2243   22.0752 C   0  0  0  0  0  0
  -22.4271   -8.0285   21.3545 C   0  0  0  0  0  0
  -21.9908   -9.0257   20.4643 C   0  0  0  0  0  0
  -22.7235  -10.2137   20.3054 C   0  0  0  0  0  0
  -21.6851   -6.0741   22.5283 C   0  0  0  0  0  0
  -21.4009   -6.5642   23.8217 C   0  0  0  0  0  0
  -21.3656   -5.6794   24.9178 C   0  0  0  0  0  0
  -21.6045   -4.3058   24.7227 C   0  0  0  0  0  0
  -21.8819   -3.8150   23.4348 C   0  0  0  0  0  0
  -21.9193   -4.6969   22.3405 C   0  0  0  0  0  0
  -22.7893  -13.5248   21.1839 C   0  0  0  0  0  0
  -22.1662   -4.2155   21.0983 F   0  0  0  0  0  0
  -21.5631   -3.4540   25.7739 F   0  0  0  0  0  0
  -30.0435  -13.2961   20.4552 N   0  0  0  0  0  0
  -26.3070  -12.9281   20.3388 N   0  0  0  0  0  0
  -25.9329  -11.6452   20.5761 N   0  0  0  0  0  0
  -22.0522  -12.8243   22.0389 N   0  0  0  0  0  0
  -25.4400  -15.1850   20.4113 N   0  0  0  0  0  0
  -31.7220  -14.8049   20.0726 O   0  0  0  0  0  0
  -21.6635   -6.8883   21.4245 O   0  0  0  0  0  0
  -22.3583  -14.5563   20.6702 O   0  0  0  0  0  0
  -24.6199  -31.8647   23.2080 C   0  0  0  0  0  0
  -25.9074  -32.4810   23.8375 C   0  0  1  0  0  0
  -27.2354  -27.3869   20.0940 C   0  0  0  0  0  0
  -25.5915  -33.8611   24.2309 N   0  0  0  0  0  0
  -23.4095  -30.4898   21.5499 C   0  0  2  0  0  0
  -24.8556  -28.9535   20.1121 C   0  0  0  0  0  0
  -22.7440  -29.4642   22.4971 C   0  0  0  0  0  0
  -18.0285  -28.1374   22.8488 C   0  0  0  0  0  0
  -24.1489  -36.7303   23.2642 C   0  0  0  0  0  0
  -25.9447  -30.8155   21.3684 C   0  0  0  0  0  0
  -26.0205  -29.4478   20.7116 C   0  0  0  0  0  0
  -27.2105  -28.6733   20.6982 C   0  0  0  0  0  0
  -26.0448  -26.9282   19.4789 C   0  0  0  0  0  0
  -24.8655  -27.6946   19.4931 C   0  0  0  0  0  0
  -23.6200  -29.8253   20.1644 C   0  0  0  0  0  0
  -25.4107  -36.3104   24.0344 C   0  0  1  0  0  0
  -20.5877  -28.3664   23.1310 C   0  0  2  0  0  0
  -20.6776  -26.9396   22.5415 C   0  0  0  0  0  0
  -19.5755  -26.6378   21.5214 C   0  0  0  0  0  0
  -18.1933  -26.7918   22.1624 C   0  0  0  0  0  0
  -19.1534  -28.8835   23.2897 C   0  0  0  0  0  0
  -18.9461  -30.1441   23.8903 C   0  0  0  0  0  0
  -17.6462  -30.6576   24.0564 C   0  0  0  0  0  0
  -25.9042  -34.9471   23.5124 C   0  0  0  0  0  0
  -16.5352  -29.9079   23.6330 C   0  0  0  0  0  0
  -16.7274  -28.6502   23.0341 C   0  0  0  0  0  0
  -26.4473  -31.6598   25.0722 C   0  0  0  0  0  0
  -25.3720  -31.3719   26.1462 C   0  0  0  0  0  0
  -27.0311  -30.3044   24.6104 C   0  0  0  0  0  0
  -27.6047  -32.4316   25.7484 C   0  0  0  0  0  0
  -27.5581  -37.1805   24.8468 C   0  0  0  0  0  0
  -21.4162  -29.3034   22.3717 N   0  0  0  0  0  0
  -26.4293  -37.3789   23.9418 N   0  0  0  0  0  0
  -24.6764  -31.0715   22.1002 N   0  0  0  0  0  0
  -23.4197  -28.8177   23.3020 O   0  0  0  0  0  0
  -28.3918  -26.6076   20.1272 O   0  0  0  0  0  0
  -26.5601  -34.8928   22.4684 O   0  0  0  0  0  0
  -23.5382  -32.1415   23.7453 O   0  0  0  0  0  0
  -29.3759  -19.5098   22.1283 C   0  0  0  0  0  0
  -28.9865  -18.5291   23.0537 C   0  0  0  0  0  0
  -30.2903  -17.7674   20.6870 C   0  0  0  0  0  0
  -30.0360  -19.1629   20.9256 C   0  0  0  0  0  0
  -29.2266  -17.1668   22.8041 C   0  0  0  0  0  0
  -29.8852  -16.7625   21.6173 C   0  0  0  0  0  0
  -30.3338  -21.7620   20.4041 C   0  0  0  0  0  0
  -28.7381  -16.1457   23.8224 C   0  0  0  0  0  0
  -29.5135  -20.0801   18.6415 C   0  0  0  0  0  0
  -31.8821  -20.0449   19.4413 C   0  0  0  0  0  0
  -29.2756  -22.7640   19.8519 C   0  0  0  0  0  0
  -29.4565  -24.2765   20.2468 C   0  0  0  0  0  0
  -28.2624  -25.1892   19.8277 C   0  0  0  0  0  0
  -30.4147  -20.2667   19.8815 C   0  0  0  0  0  0
  -29.9642  -15.3402   21.4252 N   0  0  0  0  0  0
  -31.1249  -22.1506   21.2705 O   0  0  0  0  0  0
  -31.4845  -12.5002   19.0953 H   0  0  0  0  0  0
  -30.3991  -11.3262   19.7836 H   0  0  0  0  0  0
  -29.7447  -11.8091   17.4173 H   0  0  0  0  0  0
  -29.6499  -13.5166   17.7612 H   0  0  0  0  0  0
  -27.8378  -11.3144   18.8014 H   0  0  0  0  0  0
  -27.3666  -12.6533   17.7887 H   0  0  0  0  0  0
  -27.7249  -14.2512   19.6081 H   0  0  0  0  0  0
  -28.7076  -11.8768   21.2607 H   0  0  0  0  0  0
  -28.4457  -13.4537   21.9085 H   0  0  0  0  0  0
  -25.2759   -9.5688   22.4752 H   0  0  0  0  0  0
  -24.0005   -7.4634   22.7465 H   0  0  0  0  0  0
  -21.0842   -8.8779   19.8943 H   0  0  0  0  0  0
  -22.3700  -10.9679   19.6160 H   0  0  0  0  0  0
  -21.1992   -7.6147   23.9725 H   0  0  0  0  0  0
  -21.1478   -6.0519   25.9083 H   0  0  0  0  0  0
  -22.0599   -2.7613   23.2847 H   0  0  0  0  0  0
  -22.4124  -11.9896   22.4774 H   0  0  0  0  0  0
  -21.1140  -13.1276   22.2583 H   0  0  0  0  0  0
  -24.6817  -15.8481   20.5300 H   0  0  0  0  0  0
  -26.3050  -15.6223   20.1180 H   0  0  0  0  0  0
  -26.7139  -32.5492   23.1127 H   0  0  0  0  0  0
  -25.0074  -33.9757   25.0463 H   0  0  0  0  0  0
  -22.6998  -31.3087   21.4101 H   0  0  0  0  0  0
  -23.3757  -35.9634   23.3310 H   0  0  0  0  0  0
  -24.3587  -36.8903   22.2058 H   0  0  0  0  0  0
  -23.7232  -37.6509   23.6643 H   0  0  0  0  0  0
  -26.0625  -31.5817   20.6005 H   0  0  0  0  0  0
  -26.8316  -30.8668   21.9886 H   0  0  0  0  0  0
  -28.1060  -29.0508   21.1712 H   0  0  0  0  0  0
  -25.9974  -25.9716   18.9803 H   0  0  0  0  0  0
  -23.9718  -27.3079   19.0227 H   0  0  0  0  0  0
  -23.7313  -30.6031   19.4083 H   0  0  0  0  0  0
  -22.7417  -29.2506   19.8647 H   0  0  0  0  0  0
  -25.1281  -36.1968   25.0837 H   0  0  0  0  0  0
  -20.9967  -28.3223   24.1432 H   0  0  0  0  0  0
  -20.5688  -26.2265   23.3598 H   0  0  0  0  0  0
  -21.6640  -26.7434   22.1195 H   0  0  0  0  0  0
  -19.6919  -25.6295   21.1230 H   0  0  0  0  0  0
  -19.6697  -27.3201   20.6757 H   0  0  0  0  0  0
  -17.4200  -26.6671   21.4030 H   0  0  0  0  0  0
  -18.0330  -26.0054   22.9014 H   0  0  0  0  0  0
  -19.7939  -30.7260   24.2265 H   0  0  0  0  0  0
  -17.5022  -31.6261   24.5160 H   0  0  0  0  0  0
  -15.5354  -30.2986   23.7658 H   0  0  0  0  0  0
  -15.8673  -28.0837   22.7038 H   0  0  0  0  0  0
  -24.5899  -30.7056   25.7796 H   0  0  0  0  0  0
  -24.8902  -32.2887   26.4884 H   0  0  0  0  0  0
  -25.8064  -30.8905   27.0233 H   0  0  0  0  0  0
  -26.2868  -29.6809   24.1138 H   0  0  0  0  0  0
  -27.4073  -29.7272   25.4558 H   0  0  0  0  0  0
  -27.8700  -30.4377   23.9268 H   0  0  0  0  0  0
  -27.2671  -33.3616   26.2065 H   0  0  0  0  0  0
  -28.3853  -32.6867   25.0306 H   0  0  0  0  0  0
  -28.0707  -31.8429   26.5391 H   0  0  0  0  0  0
  -28.2593  -38.0107   24.7517 H   0  0  0  0  0  0
  -28.1076  -36.2639   24.6281 H   0  0  0  0  0  0
  -27.2302  -37.1436   25.8871 H   0  0  0  0  0  0
  -20.9325  -29.8772   21.6949 H   0  0  0  0  0  0
  -26.0184  -38.2869   24.1418 H   0  0  0  0  0  0
  -29.1363  -20.5348   22.3708 H   0  0  0  0  0  0
  -28.4755  -18.8332   23.9567 H   0  0  0  0  0  0
  -30.7586  -17.4597   19.7636 H   0  0  0  0  0  0
  -28.3417  -16.6276   24.7166 H   0  0  0  0  0  0
  -29.5506  -15.4897   24.1370 H   0  0  0  0  0  0
  -27.9427  -15.5325   23.3974 H   0  0  0  0  0  0
  -28.4599  -20.2147   18.8890 H   0  0  0  0  0  0
  -29.6164  -19.0789   18.2222 H   0  0  0  0  0  0
  -29.7680  -20.7785   17.8435 H   0  0  0  0  0  0
  -32.5580  -20.0531   20.2973 H   0  0  0  0  0  0
  -32.2178  -20.8241   18.7558 H   0  0  0  0  0  0
  -32.0240  -19.0956   18.9261 H   0  0  0  0  0  0
  -28.2999  -22.4161   20.1907 H   0  0  0  0  0  0
  -29.2632  -22.6977   18.7653 H   0  0  0  0  0  0
  -30.3702  -24.6543   19.7874 H   0  0  0  0  0  0
  -29.6014  -24.3612   21.3244 H   0  0  0  0  0  0
  -27.3784  -24.7924   20.3299 H   0  0  0  0  0  0
  -28.0991  -25.0775   18.7548 H   0  0  0  0  0  0
  -29.2552  -14.8374   21.9346 H   0  0  0  0  0  0
  1 25  1  0  0  0
  1 30  2  0  0  0
  1 85  1  0  0  0
  2  3  1  0  0  0
  2 25  1  0  0  0
  2 87  1  0  0  0
  2 88  1  0  0  0
  3  4  1  0  0  0
  3 89  1  0  0  0
  3 90  1  0  0  0
  4  5  1  0  0  0
  4 91  1  0  0  0
  4 92  1  0  0  0
  5  6  1  0  0  0
  5 26  1  0  0  0
  5 93  1  0  0  0
  6 25  1  0  0  0
  6 94  1  0  0  0
  6 95  1  0  0  0
  7  8  2  0  0  0
  7 26  1  0  0  0
  7 29  1  0  0  0
  8  9  1  0  0  0
  8 22  1  0  0  0
  9 10  1  0  0  0
  9 27  2  0  0  0
 10 11  2  0  0  0
 10 15  1  0  0  0
 11 12  1  0  0  0
 11 96  1  0  0  0
 12 13  2  0  0  0
 12 97  1  0  0  0
 13 14  1  0  0  0
 13 31  1  0  0  0
 14 15  2  0  0  0
 14 98  1  0  0  0
 15 99  1  0  0  0
 16 17  2  0  0  0
 16 21  1  0  0  0
 16 31  1  0  0  0
 17 18  1  0  0  0
 17100  1  0  0  0
 18 19  2  0  0  0
 18101  1  0  0  0
 19 20  1  0  0  0
 19 24  1  0  0  0
 20 21  2  0  0  0
 20102  1  0  0  0
 21 23  1  0  0  0
 22 28  1  0  0  0
 22 32  2  0  0  0
 26 27  1  0  0  0
 28103  1  0  0  0
 28104  1  0  0  0
 29105  1  0  0  0
 29106  1  0  0  0
 33 34  1  0  0  0
 33 66  1  0  0  0
 33 70  2  0  0  0
 34 36  1  0  0  0
 34 59  1  0  0  0
 34107  1  0  0  0
 35 44  2  0  0  0
 35 45  1  0  0  0
 35 68  1  0  0  0
 36 56  1  0  0  0
 36108  1  0  0  0
 37 39  1  0  0  0
 37 47  1  0  0  0
 37 66  1  0  0  0
 37109  1  0  0  0
 38 43  2  0  0  0
 38 46  1  0  0  0
 38 47  1  0  0  0
 39 64  1  0  0  0
 39 67  2  0  0  0
 40 52  1  0  0  0
 40 53  2  0  0  0
 40 58  1  0  0  0
 41110  1  0  0  0
 41111  1  0  0  0
 41112  1  0  0  0
 41 48  1  0  0  0
 42 43  1  0  0  0
 42 66  1  0  0  0
 42113  1  0  0  0
 42114  1  0  0  0
 43 44  1  0  0  0
 44115  1  0  0  0
 45 46  2  0  0  0
 45116  1  0  0  0
 46117  1  0  0  0
 47118  1  0  0  0
 47119  1  0  0  0
 48 56  1  0  0  0
 48 65  1  0  0  0
 48120  1  0  0  0
 49 50  1  0  0  0
 49 53  1  0  0  0
 49 64  1  0  0  0
 49121  1  0  0  0
 50 51  1  0  0  0
 50122  1  0  0  0
 50123  1  0  0  0
 51 52  1  0  0  0
 51124  1  0  0  0
 51125  1  0  0  0
 52126  1  0  0  0
 52127  1  0  0  0
 53 54  1  0  0  0
 54 55  2  0  0  0
 54128  1  0  0  0
 55 57  1  0  0  0
 55129  1  0  0  0
 56 69  2  0  0  0
 57 58  2  0  0  0
 57130  1  0  0  0
 58131  1  0  0  0
 59 60  1  0  0  0
 59 61  1  0  0  0
 59 62  1  0  0  0
 60132  1  0  0  0
 60133  1  0  0  0
 60134  1  0  0  0
 61135  1  0  0  0
 61136  1  0  0  0
 61137  1  0  0  0
 62138  1  0  0  0
 62139  1  0  0  0
 62140  1  0  0  0
 63 65  1  0  0  0
 63141  1  0  0  0
 63142  1  0  0  0
 63143  1  0  0  0
 64144  1  0  0  0
 65145  1  0  0  0
 68 83  1  0  0  0
 71 72  2  0  0  0
 71 74  1  0  0  0
 71146  1  0  0  0
 72 75  1  0  0  0
 72147  1  0  0  0
 73 74  2  0  0  0
 73 76  1  0  0  0
 73148  1  0  0  0
 74 84  1  0  0  0
 75 76  2  0  0  0
 75 78  1  0  0  0
 76 85  1  0  0  0
 77 81  1  0  0  0
 77 84  1  0  0  0
 77 86  2  0  0  0
 78149  1  0  0  0
 78150  1  0  0  0
 78151  1  0  0  0
 79152  1  0  0  0
 79153  1  0  0  0
 79154  1  0  0  0
 79 84  1  0  0  0
 80 84  1  0  0  0
 80155  1  0  0  0
 80156  1  0  0  0
 80157  1  0  0  0
 81 82  1  0  0  0
 81158  1  0  0  0
 81159  1  0  0  0
 82 83  1  0  0  0
 82160  1  0  0  0
 82161  1  0  0  0
 83162  1  0  0  0
 83163  1  0  0  0
 85164  1  0  0  0
M  ISO  4   1 100  68 101  83 101  85 100
M  END
> <chiral flag>
0

> <version>
0

> <s_m_source_file>
/data/baiqing/PycharmProjects/Reinvent-master-3.2/result/LINK_invent/BTK/process_docking_weight1_custom_product_contain_oxygen_bond_distance_aromatic_linkinvent_7_9_3/rearranged_h_0140.sdf

> <i_m_source_file_index>
89

> <r_mmod_Potential_Energy-OPLS-2005>
-1.8622385263443

> <r_mmod_Stretch_Energy-OPLS-2005>
59.6764602661133

> <r_mmod_Bend_Energy-OPLS-2005>
132.251388549805

> <r_mmod_Torsional_Energy-OPLS-2005>
223.736511230469

> <r_mmod_Improper_Torsional_Energy-OPLS-2005>
2.67176246643066

> <r_mmod_Van_der_Waal_Energy-OPLS-2005>
164.143157958984

> <r_mmod_Electrostatic_Energy-OPLS-2005>
-390.626678466797

> <r_mmod_Solvation_Energy-OPLS-2005>
-214.502532958984

> <b_mmod_Minimization_Converged-OPLS-2005>
0

> <r_mmod_RMS_Derivative-OPLS-2005>
1.00297105312347

$$$$
89
                    3D
 Structure written by MMmdl.
164173  0  0  1  0            999 V2000
  -30.6204  -14.6344   20.5000 C   0  0  0  0  0  0
  -30.4362  -12.3861   19.4554 C   0  0  0  0  0  0
  -29.5097  -12.5091   18.2253 C   0  0  0  0  0  0
  -28.0311  -12.3476   18.6336 C   0  0  0  0  0  0
  -27.6536  -13.2155   19.8638 C   0  0  2  0  0  0
  -28.6965  -13.0663   20.9946 C   0  0  0  0  0  0
  -25.2565  -13.8164   20.5695 C   0  0  0  0  0  0
  -24.1828  -13.0434   20.9190 C   0  0  0  0  0  0
  -24.6389  -11.6902   20.8724 C   0  0  0  0  0  0
  -23.9051  -10.4289   21.0400 C   0  0  0  0  0  0
  -24.3607   -9.4207   21.9176 C   0  0  0  0  0  0
  -23.6290   -8.2240   22.0747 C   0  0  0  0  0  0
  -22.4269   -8.0278   21.3542 C   0  0  0  0  0  0
  -21.9897   -9.0246   20.4642 C   0  0  0  0  0  0
  -22.7220  -10.2131   20.3050 C   0  0  0  0  0  0
  -21.6851   -6.0729   22.5278 C   0  0  0  0  0  0
  -21.4013   -6.5634   23.8212 C   0  0  0  0  0  0
  -21.3662   -5.6788   24.9176 C   0  0  0  0  0  0
  -21.6049   -4.3050   24.7224 C   0  0  0  0  0  0
  -21.8820   -3.8140   23.4345 C   0  0  0  0  0  0
  -21.9193   -4.6957   22.3402 C   0  0  0  0  0  0
  -22.7853  -13.5234   21.1857 C   0  0  0  0  0  0
  -22.1663   -4.2141   21.0981 F   0  0  0  0  0  0
  -21.5632   -3.4535   25.7739 F   0  0  0  0  0  0
  -30.0133  -13.4077   20.4339 N   0  0  0  0  0  0
  -26.2985  -12.9341   20.3308 N   0  0  0  0  0  0
  -25.9315  -11.6496   20.5733 N   0  0  0  0  0  0
  -22.0488  -12.8240   22.0418 N   0  0  0  0  0  0
  -25.4296  -15.1887   20.4156 N   0  0  0  0  0  0
  -31.7848  -14.7890   20.1188 O   0  0  0  0  0  0
  -21.6641   -6.8869   21.4238 O   0  0  0  0  0  0
  -22.3544  -14.5539   20.6702 O   0  0  0  0  0  0
  -24.6246  -31.8598   23.2032 C   0  0  0  0  0  0
  -25.9097  -32.4772   23.8362 C   0  0  1  0  0  0
  -27.2279  -27.3300   20.1302 C   0  0  0  0  0  0
  -25.5922  -33.8574   24.2293 N   0  0  0  0  0  0
  -23.4188  -30.4815   21.5451 C   0  0  2  0  0  0
  -24.8681  -28.9350   20.1129 C   0  0  0  0  0  0
  -22.7468  -29.4620   22.4951 C   0  0  0  0  0  0
  -18.0284  -28.1376   22.8483 C   0  0  0  0  0  0
  -24.1493  -36.7297   23.2638 C   0  0  0  0  0  0
  -25.9576  -30.7954   21.3719 C   0  0  0  0  0  0
  -26.0344  -29.4224   20.7170 C   0  0  0  0  0  0
  -27.2202  -28.6324   20.7133 C   0  0  0  0  0  0
  -26.0452  -26.8921   19.4970 C   0  0  0  0  0  0
  -24.8745  -27.6753   19.4925 C   0  0  0  0  0  0
  -23.6340  -29.8124   20.1612 C   0  0  0  0  0  0
  -25.4112  -36.3083   24.0337 C   0  0  1  0  0  0
  -20.5883  -28.3680   23.1289 C   0  0  2  0  0  0
  -20.6771  -26.9405   22.5415 C   0  0  0  0  0  0
  -19.5752  -26.6376   21.5212 C   0  0  0  0  0  0
  -18.1930  -26.7919   22.1618 C   0  0  0  0  0  0
  -19.1533  -28.8847   23.2878 C   0  0  0  0  0  0
  -18.9454  -30.1450   23.8893 C   0  0  0  0  0  0
  -17.6455  -30.6581   24.0560 C   0  0  0  0  0  0
  -25.9047  -34.9451   23.5115 C   0  0  0  0  0  0
  -16.5347  -29.9080   23.6330 C   0  0  0  0  0  0
  -16.7268  -28.6494   23.0351 C   0  0  0  0  0  0
  -26.4492  -31.6572   25.0721 C   0  0  0  0  0  0
  -25.3736  -31.3720   26.1464 C   0  0  0  0  0  0
  -27.0311  -30.2990   24.6164 C   0  0  0  0  0  0
  -27.6076  -32.4292   25.7474 C   0  0  0  0  0  0
  -27.5584  -37.1799   24.8464 C   0  0  0  0  0  0
  -21.4184  -29.3031   22.3686 N   0  0  0  0  0  0
  -26.4296  -37.3773   23.9409 N   0  0  0  0  0  0
  -24.6853  -31.0620   22.0971 N   0  0  0  0  0  0
  -23.4196  -28.8163   23.3031 O   0  0  0  0  0  0
  -28.3430  -26.4859   20.1562 O   0  0  0  0  0  0
  -26.5609  -34.8915   22.4679 O   0  0  0  0  0  0
  -23.5411  -32.1392   23.7364 O   0  0  0  0  0  0
  -28.7637  -19.3528   20.5083 C   0  0  0  0  0  0
  -28.7420  -17.9419   20.7336 C   0  0  0  0  0  0
  -31.1080  -17.8274   20.3618 C   0  0  0  0  0  0
  -29.9586  -20.0483   20.1909 C   0  0  0  0  0  0
  -31.1436  -19.2382   20.1389 C   0  0  0  0  0  0
  -29.9076  -17.1310   20.6431 C   0  0  0  0  0  0
  -29.1367  -22.7002   20.5063 C   0  0  0  0  0  0
  -28.8367  -23.9257   19.9549 C   0  0  0  0  0  0
  -29.1649  -24.1765   18.4966 C   0  0  0  0  0  0
  -29.0925  -22.8681   17.6936 C   0  0  0  0  0  0
  -30.0179  -21.7716   18.2507 C   0  0  0  0  0  0
  -29.9720  -21.5823   19.7919 C   0  0  2  0  0  0
  -33.2206  -20.3372   21.0932 C   0  0  0  0  0  0
  -32.5127  -19.8328   19.8301 C   0  0  0  0  0  0
  -28.1424  -25.1198   20.6914 C   0  0  0  0  0  0
  -29.8070  -15.6833   20.8486 N   0  0  0  0  0  0
  -31.4792  -12.5067   19.1582 H   0  0  0  0  0  0
  -30.3648  -11.3892   19.8935 H   0  0  0  0  0  0
  -29.7749  -11.7608   17.4770 H   0  0  0  0  0  0
  -29.6545  -13.4806   17.7511 H   0  0  0  0  0  0
  -27.8658  -11.2941   18.8617 H   0  0  0  0  0  0
  -27.3776  -12.5807   17.7919 H   0  0  0  0  0  0
  -27.6729  -14.2513   19.5250 H   0  0  0  0  0  0
  -28.7055  -12.0434   21.3744 H   0  0  0  0  0  0
  -28.4420  -13.6955   21.8492 H   0  0  0  0  0  0
  -25.2751   -9.5692   22.4746 H   0  0  0  0  0  0
  -24.0002   -7.4633   22.7468 H   0  0  0  0  0  0
  -21.0819   -8.8758   19.8960 H   0  0  0  0  0  0
  -22.3663  -10.9664   19.6160 H   0  0  0  0  0  0
  -21.2002   -7.6143   23.9711 H   0  0  0  0  0  0
  -21.1487   -6.0521   25.9080 H   0  0  0  0  0  0
  -22.0598   -2.7603   23.2847 H   0  0  0  0  0  0
  -22.4098  -11.9903   22.4812 H   0  0  0  0  0  0
  -21.1107  -13.1279   22.2618 H   0  0  0  0  0  0
  -24.6642  -15.8431   20.5350 H   0  0  0  0  0  0
  -26.2767  -15.6273   20.0788 H   0  0  0  0  0  0
  -26.7166  -32.5460   23.1115 H   0  0  0  0  0  0
  -25.0086  -33.9716   25.0452 H   0  0  0  0  0  0
  -22.7129  -31.3018   21.4009 H   0  0  0  0  0  0
  -23.3754  -35.9628   23.3290 H   0  0  0  0  0  0
  -24.3595  -36.8915   22.2054 H   0  0  0  0  0  0
  -23.7243  -37.6499   23.6658 H   0  0  0  0  0  0
  -26.0854  -31.5574   20.6016 H   0  0  0  0  0  0
  -26.8395  -30.8469   21.9994 H   0  0  0  0  0  0
  -28.1164  -29.0013   21.1923 H   0  0  0  0  0  0
  -26.0201  -25.9267   19.0108 H   0  0  0  0  0  0
  -23.9824  -27.2977   19.0120 H   0  0  0  0  0  0
  -23.7498  -30.5871   19.4022 H   0  0  0  0  0  0
  -22.7559  -29.2379   19.8613 H   0  0  0  0  0  0
  -25.1290  -36.1941   25.0829 H   0  0  0  0  0  0
  -20.9972  -28.3241   24.1411 H   0  0  0  0  0  0
  -20.5663  -26.2286   23.3610 H   0  0  0  0  0  0
  -21.6637  -26.7430   22.1212 H   0  0  0  0  0  0
  -19.6911  -25.6287   21.1240 H   0  0  0  0  0  0
  -19.6689  -27.3185   20.6746 H   0  0  0  0  0  0
  -17.4204  -26.6666   21.4019 H   0  0  0  0  0  0
  -18.0328  -26.0063   22.9013 H   0  0  0  0  0  0
  -19.7935  -30.7264   24.2259 H   0  0  0  0  0  0
  -17.5013  -31.6264   24.5154 H   0  0  0  0  0  0
  -15.5347  -30.2977   23.7660 H   0  0  0  0  0  0
  -15.8666  -28.0813   22.7068 H   0  0  0  0  0  0
  -24.5920  -30.7046   25.7814 H   0  0  0  0  0  0
  -24.8914  -32.2883   26.4881 H   0  0  0  0  0  0
  -25.8073  -30.8921   27.0244 H   0  0  0  0  0  0
  -26.2865  -29.6752   24.1205 H   0  0  0  0  0  0
  -27.4017  -29.7242   25.4659 H   0  0  0  0  0  0
  -27.8740  -30.4263   23.9366 H   0  0  0  0  0  0
  -27.2720  -33.3608   26.2042 H   0  0  0  0  0  0
  -28.3885  -32.6810   25.0285 H   0  0  0  0  0  0
  -28.0743  -31.8410   26.5385 H   0  0  0  0  0  0
  -28.2604  -38.0095   24.7509 H   0  0  0  0  0  0
  -28.1075  -36.2626   24.6288 H   0  0  0  0  0  0
  -27.2308  -37.1447   25.8869 H   0  0  0  0  0  0
  -20.9367  -29.8752   21.6888 H   0  0  0  0  0  0
  -26.0181  -38.2850   24.1401 H   0  0  0  0  0  0
  -27.8338  -19.9020   20.5527 H   0  0  0  0  0  0
  -27.7913  -17.4785   20.9584 H   0  0  0  0  0  0
  -32.0351  -17.2765   20.3051 H   0  0  0  0  0  0
  -28.8963  -22.5167   21.5436 H   0  0  0  0  0  0
  -30.1530  -24.6332   18.4246 H   0  0  0  0  0  0
  -28.4539  -24.8913   18.0800 H   0  0  0  0  0  0
  -29.3291  -23.0583   16.6463 H   0  0  0  0  0  0
  -28.0642  -22.5033   17.7076 H   0  0  0  0  0  0
  -31.0409  -21.9899   17.9418 H   0  0  0  0  0  0
  -29.7641  -20.8326   17.7558 H   0  0  0  0  0  0
  -30.9505  -21.9066   20.1411 H   0  0  0  0  0  0
  -34.1943  -20.7624   20.8490 H   0  0  0  0  0  0
  -33.3844  -19.5242   21.8015 H   0  0  0  0  0  0
  -32.6402  -21.1082   21.6005 H   0  0  0  0  0  0
  -32.4412  -20.6265   19.0895 H   0  0  0  0  0  0
  -33.1337  -19.0719   19.3556 H   0  0  0  0  0  0
  -28.4831  -25.1190   21.7275 H   0  0  0  0  0  0
  -27.0832  -24.8682   20.7445 H   0  0  0  0  0  0
  -28.8995  -15.3703   21.1564 H   0  0  0  0  0  0
  1 25  1  0  0  0
  1 30  2  0  0  0
  1 86  1  0  0  0
  2  3  1  0  0  0
  2 25  1  0  0  0
  2 87  1  0  0  0
  2 88  1  0  0  0
  3  4  1  0  0  0
  3 89  1  0  0  0
  3 90  1  0  0  0
  4  5  1  0  0  0
  4 91  1  0  0  0
  4 92  1  0  0  0
  5  6  1  0  0  0
  5 26  1  0  0  0
  5 93  1  0  0  0
  6 25  1  0  0  0
  6 94  1  0  0  0
  6 95  1  0  0  0
  7  8  2  0  0  0
  7 26  1  0  0  0
  7 29  1  0  0  0
  8  9  1  0  0  0
  8 22  1  0  0  0
  9 10  1  0  0  0
  9 27  2  0  0  0
 10 11  2  0  0  0
 10 15  1  0  0  0
 11 12  1  0  0  0
 11 96  1  0  0  0
 12 13  2  0  0  0
 12 97  1  0  0  0
 13 14  1  0  0  0
 13 31  1  0  0  0
 14 15  2  0  0  0
 14 98  1  0  0  0
 15 99  1  0  0  0
 16 17  2  0  0  0
 16 21  1  0  0  0
 16 31  1  0  0  0
 17 18  1  0  0  0
 17100  1  0  0  0
 18 19  2  0  0  0
 18101  1  0  0  0
 19 20  1  0  0  0
 19 24  1  0  0  0
 20 21  2  0  0  0
 20102  1  0  0  0
 21 23  1  0  0  0
 22 28  1  0  0  0
 22 32  2  0  0  0
 26 27  1  0  0  0
 28103  1  0  0  0
 28104  1  0  0  0
 29105  1  0  0  0
 29106  1  0  0  0
 33 34  1  0  0  0
 33 66  1  0  0  0
 33 70  2  0  0  0
 34 36  1  0  0  0
 34 59  1  0  0  0
 34107  1  0  0  0
 35 44  2  0  0  0
 35 45  1  0  0  0
 35 68  1  0  0  0
 36 56  1  0  0  0
 36108  1  0  0  0
 37 39  1  0  0  0
 37 47  1  0  0  0
 37 66  1  0  0  0
 37109  1  0  0  0
 38 43  2  0  0  0
 38 46  1  0  0  0
 38 47  1  0  0  0
 39 64  1  0  0  0
 39 67  2  0  0  0
 40 52  1  0  0  0
 40 53  2  0  0  0
 40 58  1  0  0  0
 41110  1  0  0  0
 41111  1  0  0  0
 41112  1  0  0  0
 41 48  1  0  0  0
 42 43  1  0  0  0
 42 66  1  0  0  0
 42113  1  0  0  0
 42114  1  0  0  0
 43 44  1  0  0  0
 44115  1  0  0  0
 45 46  2  0  0  0
 45116  1  0  0  0
 46117  1  0  0  0
 47118  1  0  0  0
 47119  1  0  0  0
 48 56  1  0  0  0
 48 65  1  0  0  0
 48120  1  0  0  0
 49 50  1  0  0  0
 49 53  1  0  0  0
 49 64  1  0  0  0
 49121  1  0  0  0
 50 51  1  0  0  0
 50122  1  0  0  0
 50123  1  0  0  0
 51 52  1  0  0  0
 51124  1  0  0  0
 51125  1  0  0  0
 52126  1  0  0  0
 52127  1  0  0  0
 53 54  1  0  0  0
 54 55  2  0  0  0
 54128  1  0  0  0
 55 57  1  0  0  0
 55129  1  0  0  0
 56 69  2  0  0  0
 57 58  2  0  0  0
 57130  1  0  0  0
 58131  1  0  0  0
 59 60  1  0  0  0
 59 61  1  0  0  0
 59 62  1  0  0  0
 60132  1  0  0  0
 60133  1  0  0  0
 60134  1  0  0  0
 61135  1  0  0  0
 61136  1  0  0  0
 61137  1  0  0  0
 62138  1  0  0  0
 62139  1  0  0  0
 62140  1  0  0  0
 63 65  1  0  0  0
 63141  1  0  0  0
 63142  1  0  0  0
 63143  1  0  0  0
 64144  1  0  0  0
 65145  1  0  0  0
 68 85  1  0  0  0
 71 72  2  0  0  0
 71 74  1  0  0  0
 71146  1  0  0  0
 72 76  1  0  0  0
 72147  1  0  0  0
 73 75  1  0  0  0
 73 76  2  0  0  0
 73148  1  0  0  0
 74 75  2  0  0  0
 74 82  1  0  0  0
 75 84  1  0  0  0
 76 86  1  0  0  0
 77 78  2  0  0  0
 77 82  1  0  0  0
 77149  1  0  0  0
 78 79  1  0  0  0
 78 85  1  0  0  0
 79 80  1  0  0  0
 79150  1  0  0  0
 79151  1  0  0  0
 80 81  1  0  0  0
 80152  1  0  0  0
 80153  1  0  0  0
 81 82  1  0  0  0
 81154  1  0  0  0
 81155  1  0  0  0
 82156  1  0  0  0
 83 84  1  0  0  0
 83157  1  0  0  0
 83158  1  0  0  0
 83159  1  0  0  0
 84160  1  0  0  0
 84161  1  0  0  0
 85162  1  0  0  0
 85163  1  0  0  0
 86164  1  0  0  0
M  ISO  4   1 100  68 101  85 101  86 100
M  END
> <chiral flag>
0

> <version>
0

> <s_m_source_file>
/data/baiqing/PycharmProjects/Reinvent-master-3.2/result/LINK_invent/BTK/process_docking_weight1_custom_product_contain_oxygen_bond_distance_aromatic_linkinvent_7_9_3/rearranged_h_0140.sdf

> <i_m_source_file_index>
90

> <r_mmod_Potential_Energy-OPLS-2005>
109.043357849121

> <r_mmod_Stretch_Energy-OPLS-2005>
79.6928024291992

> <r_mmod_Bend_Energy-OPLS-2005>
144.400588989258

> <r_mmod_Torsional_Energy-OPLS-2005>
256.077087402344

> <r_mmod_Improper_Torsional_Energy-OPLS-2005>
4.65496873855591

> <r_mmod_Van_der_Waal_Energy-OPLS-2005>
148.384292602539

> <r_mmod_Electrostatic_Energy-OPLS-2005>
-374.484497070312

> <r_mmod_Solvation_Energy-OPLS-2005>
-194.868759155273

> <b_mmod_Minimization_Converged-OPLS-2005>
0

> <r_mmod_RMS_Derivative-OPLS-2005>
1.11176562309265

$$$$
90
                    3D
 Structure written by MMmdl.
173181  0  0  1  0            999 V2000
  -30.6875  -14.4900   20.5728 C   0  0  0  0  0  0
  -30.4339  -12.3180   19.4176 C   0  0  0  0  0  0
  -29.5020  -12.5111   18.2034 C   0  0  0  0  0  0
  -28.0212  -12.3698   18.6127 C   0  0  0  0  0  0
  -27.6651  -13.2019   19.8740 C   0  0  2  0  0  0
  -28.7083  -12.9824   20.9921 C   0  0  0  0  0  0
  -25.2635  -13.8149   20.5685 C   0  0  0  0  0  0
  -24.1866  -13.0435   20.9168 C   0  0  0  0  0  0
  -24.6403  -11.6897   20.8711 C   0  0  0  0  0  0
  -23.9053  -10.4287   21.0385 C   0  0  0  0  0  0
  -24.3610   -9.4207   21.9164 C   0  0  0  0  0  0
  -23.6290   -8.2240   22.0744 C   0  0  0  0  0  0
  -22.4273   -8.0271   21.3534 C   0  0  0  0  0  0
  -21.9900   -9.0238   20.4633 C   0  0  0  0  0  0
  -22.7222  -10.2123   20.3034 C   0  0  0  0  0  0
  -21.6856   -6.0725   22.5276 C   0  0  0  0  0  0
  -21.4012   -6.5629   23.8206 C   0  0  0  0  0  0
  -21.3658   -5.6788   24.9172 C   0  0  0  0  0  0
  -21.6049   -4.3050   24.7226 C   0  0  0  0  0  0
  -21.8823   -3.8135   23.4349 C   0  0  0  0  0  0
  -21.9198   -4.6952   22.3404 C   0  0  0  0  0  0
  -22.7893  -13.5250   21.1823 C   0  0  0  0  0  0
  -22.1668   -4.2130   21.0984 F   0  0  0  0  0  0
  -21.5628   -3.4539   25.7743 F   0  0  0  0  0  0
  -30.0368  -13.3006   20.4399 N   0  0  0  0  0  0
  -26.3057  -12.9298   20.3360 N   0  0  0  0  0  0
  -25.9331  -11.6462   20.5739 N   0  0  0  0  0  0
  -22.0517  -12.8239   22.0372 N   0  0  0  0  0  0
  -25.4381  -15.1862   20.4107 N   0  0  0  0  0  0
  -31.8252  -14.6806   20.1309 O   0  0  0  0  0  0
  -21.6644   -6.8863   21.4234 O   0  0  0  0  0  0
  -22.3580  -14.5549   20.6660 O   0  0  0  0  0  0
  -24.6174  -31.8662   23.2133 C   0  0  0  0  0  0
  -25.9062  -32.4827   23.8419 C   0  0  1  0  0  0
  -27.2272  -27.4058   20.0937 C   0  0  0  0  0  0
  -25.5927  -33.8626   24.2342 N   0  0  0  0  0  0
  -23.4079  -30.4925   21.5533 C   0  0  2  0  0  0
  -24.8545  -28.9627   20.1145 C   0  0  0  0  0  0
  -22.7439  -29.4653   22.4983 C   0  0  0  0  0  0
  -18.0269  -28.1388   22.8497 C   0  0  0  0  0  0
  -24.1479  -36.7311   23.2641 C   0  0  0  0  0  0
  -25.9435  -30.8193   21.3771 C   0  0  0  0  0  0
  -26.0187  -29.4547   20.7187 C   0  0  0  0  0  0
  -27.2111  -28.6860   20.7030 C   0  0  0  0  0  0
  -26.0476  -26.9544   19.4661 C   0  0  0  0  0  0
  -24.8660  -27.7127   19.4808 C   0  0  0  0  0  0
  -23.6207  -29.8345   20.1654 C   0  0  0  0  0  0
  -25.4101  -36.3108   24.0342 C   0  0  1  0  0  0
  -20.5868  -28.3681   23.1321 C   0  0  2  0  0  0
  -20.6783  -26.9422   22.5417 C   0  0  0  0  0  0
  -19.5758  -26.6388   21.5221 C   0  0  0  0  0  0
  -18.1927  -26.7934   22.1619 C   0  0  0  0  0  0
  -19.1517  -28.8846   23.2903 C   0  0  0  0  0  0
  -18.9442  -30.1449   23.8924 C   0  0  0  0  0  0
  -17.6445  -30.6601   24.0561 C   0  0  0  0  0  0
  -25.9031  -34.9482   23.5132 C   0  0  0  0  0  0
  -16.5341  -29.9101   23.6330 C   0  0  0  0  0  0
  -16.7252  -28.6510   23.0366 C   0  0  0  0  0  0
  -26.4490  -31.6626   25.0755 C   0  0  0  0  0  0
  -25.3756  -31.3730   26.1497 C   0  0  0  0  0  0
  -27.0337  -30.3073   24.6164 C   0  0  0  0  0  0
  -27.6063  -32.4350   25.7521 C   0  0  0  0  0  0
  -27.5575  -37.1815   24.8465 C   0  0  0  0  0  0
  -21.4157  -29.3045   22.3728 N   0  0  0  0  0  0
  -26.4282  -37.3793   23.9413 N   0  0  0  0  0  0
  -24.6742  -31.0743   22.1050 N   0  0  0  0  0  0
  -23.4195  -28.8184   23.3028 O   0  0  0  0  0  0
  -28.3645  -26.6133   20.0965 O   0  0  0  0  0  0
  -26.5564  -34.8927   22.4673 O   0  0  0  0  0  0
  -23.5355  -32.1428   23.7504 O   0  0  0  0  0  0
  -31.4683  -18.6885   22.2729 C   0  0  0  0  0  0
  -30.8575  -19.6424   21.4385 C   0  0  0  0  0  0
  -31.1732  -17.3206   22.1270 C   0  0  0  0  0  0
  -29.9341  -19.2475   20.4471 C   0  0  0  0  0  0
  -29.6423  -17.8528   20.2899 C   0  0  0  0  0  0
  -30.2691  -16.8858   21.1352 C   0  0  0  0  0  0
  -28.7715  -24.2555   19.3131 C   0  0  0  0  0  0
  -28.6806  -17.3925   19.1955 C   0  0  0  0  0  0
  -24.4583  -23.7228   18.6956 C   0  0  0  0  0  0
  -26.1668  -21.1920   19.4677 C   0  0  0  0  0  0
  -28.5990  -22.3901   17.6318 C   0  0  0  0  0  0
  -29.3365  -20.3147   19.5057 C   0  0  0  0  0  0
  -28.1616  -25.1998   20.3916 C   0  0  0  0  0  0
  -25.8783  -23.3547   18.2385 C   0  0  0  0  0  0
  -29.0935  -21.7728   20.0510 C   0  0  0  0  0  0
  -26.7126  -22.6311   19.3297 C   0  0  2  0  0  0
  -28.2762  -22.7593   19.1114 C   0  0  1  0  0  0
  -29.9383  -15.4958   21.0740 N   0  0  0  0  0  0
  -29.7009  -24.6889   18.6214 O   0  0  0  0  0  0
  -31.4763  -12.4323   19.1129 H   0  0  0  0  0  0
  -30.3511  -11.3034   19.8107 H   0  0  0  0  0  0
  -29.7441  -11.7885   17.4227 H   0  0  0  0  0  0
  -29.6721  -13.4959   17.7666 H   0  0  0  0  0  0
  -27.8301  -11.3126   18.7994 H   0  0  0  0  0  0
  -27.3722  -12.6511   17.7823 H   0  0  0  0  0  0
  -27.7070  -14.2492   19.5783 H   0  0  0  0  0  0
  -28.6930  -11.9444   21.3290 H   0  0  0  0  0  0
  -28.4683  -13.5774   21.8741 H   0  0  0  0  0  0
  -25.2759   -9.5693   22.4725 H   0  0  0  0  0  0
  -23.9994   -7.4648   22.7478 H   0  0  0  0  0  0
  -21.0818   -8.8752   19.8955 H   0  0  0  0  0  0
  -22.3671  -10.9652   19.6131 H   0  0  0  0  0  0
  -21.1998   -7.6137   23.9706 H   0  0  0  0  0  0
  -21.1483   -6.0515   25.9075 H   0  0  0  0  0  0
  -22.0605   -2.7593   23.2861 H   0  0  0  0  0  0
  -22.4122  -11.9898   22.4766 H   0  0  0  0  0  0
  -21.1122  -13.1239   22.2548 H   0  0  0  0  0  0
  -24.6703  -15.8400   20.5166 H   0  0  0  0  0  0
  -26.2906  -15.6262   20.0897 H   0  0  0  0  0  0
  -26.7140  -32.5512   23.1177 H   0  0  0  0  0  0
  -25.0166  -33.9810   25.0553 H   0  0  0  0  0  0
  -22.6960  -31.3089   21.4165 H   0  0  0  0  0  0
  -23.3743  -35.9639   23.3302 H   0  0  0  0  0  0
  -24.3581  -36.8917   22.2055 H   0  0  0  0  0  0
  -23.7227  -37.6522   23.6648 H   0  0  0  0  0  0
  -26.0684  -31.5840   20.6090 H   0  0  0  0  0  0
  -26.8287  -30.8644   22.0000 H   0  0  0  0  0  0
  -28.1077  -29.0600   21.1772 H   0  0  0  0  0  0
  -26.0328  -26.0149   18.9487 H   0  0  0  0  0  0
  -23.9798  -27.3344   18.9904 H   0  0  0  0  0  0
  -23.7422  -30.6154   19.4132 H   0  0  0  0  0  0
  -22.7419  -29.2643   19.8587 H   0  0  0  0  0  0
  -25.1275  -36.1979   25.0837 H   0  0  0  0  0  0
  -20.9943  -28.3230   24.1447 H   0  0  0  0  0  0
  -20.5731  -26.2267   23.3592 H   0  0  0  0  0  0
  -21.6646  -26.7505   22.1176 H   0  0  0  0  0  0
  -19.6930  -25.6298   21.1249 H   0  0  0  0  0  0
  -19.6711  -27.3193   20.6752 H   0  0  0  0  0  0
  -17.4213  -26.6689   21.4009 H   0  0  0  0  0  0
  -18.0328  -26.0068   22.9007 H   0  0  0  0  0  0
  -19.7912  -30.7253   24.2329 H   0  0  0  0  0  0
  -17.5001  -31.6292   24.5136 H   0  0  0  0  0  0
  -15.5344  -30.3016   23.7653 H   0  0  0  0  0  0
  -15.8645  -28.0833   22.7108 H   0  0  0  0  0  0
  -24.5925  -30.7086   25.7829 H   0  0  0  0  0  0
  -24.8954  -32.2885   26.4969 H   0  0  0  0  0  0
  -25.8106  -30.8882   27.0245 H   0  0  0  0  0  0
  -26.2906  -29.6834   24.1185 H   0  0  0  0  0  0
  -27.4072  -29.7316   25.4645 H   0  0  0  0  0  0
  -27.8756  -30.4403   23.9361 H   0  0  0  0  0  0
  -27.2695  -33.3647   26.2123 H   0  0  0  0  0  0
  -28.3876  -32.6920   25.0355 H   0  0  0  0  0  0
  -28.0734  -31.8457   26.5423 H   0  0  0  0  0  0
  -28.2597  -38.0110   24.7515 H   0  0  0  0  0  0
  -28.1070  -36.2646   24.6283 H   0  0  0  0  0  0
  -27.2299  -37.1455   25.8870 H   0  0  0  0  0  0
  -20.9320  -29.8761   21.6950 H   0  0  0  0  0  0
  -26.0169  -38.2872   24.1406 H   0  0  0  0  0  0
  -32.1711  -19.0097   23.0297 H   0  0  0  0  0  0
  -31.1233  -20.6832   21.5607 H   0  0  0  0  0  0
  -31.6415  -16.6084   22.7926 H   0  0  0  0  0  0
  -27.6468  -17.5880   19.4840 H   0  0  0  0  0  0
  -28.7701  -16.3321   18.9668 H   0  0  0  0  0  0
  -28.8783  -17.9127   18.2581 H   0  0  0  0  0  0
  -23.9424  -24.2990   17.9279 H   0  0  0  0  0  0
  -24.4713  -24.3213   19.6071 H   0  0  0  0  0  0
  -23.8544  -22.8367   18.8891 H   0  0  0  0  0  0
  -25.1031  -21.1966   19.7016 H   0  0  0  0  0  0
  -26.6344  -20.6376   20.2807 H   0  0  0  0  0  0
  -26.2792  -20.6254   18.5439 H   0  0  0  0  0  0
  -29.6704  -22.2644   17.4744 H   0  0  0  0  0  0
  -28.2780  -23.1595   16.9291 H   0  0  0  0  0  0
  -28.1125  -21.4666   17.3207 H   0  0  0  0  0  0
  -28.4037  -19.9336   19.1068 H   0  0  0  0  0  0
  -30.0154  -20.3558   18.6542 H   0  0  0  0  0  0
  -28.6634  -24.9931   21.3364 H   0  0  0  0  0  0
  -27.1126  -24.9817   20.5676 H   0  0  0  0  0  0
  -26.3816  -24.2537   17.8898 H   0  0  0  0  0  0
  -25.8063  -22.7286   17.3470 H   0  0  0  0  0  0
  -30.0694  -22.2110   20.2634 H   0  0  0  0  0  0
  -28.5933  -21.7112   21.0187 H   0  0  0  0  0  0
  -26.4762  -23.0806   20.2922 H   0  0  0  0  0  0
  -28.9911  -15.2478   21.3143 H   0  0  0  0  0  0
  1 25  1  0  0  0
  1 30  2  0  0  0
  1 88  1  0  0  0
  2  3  1  0  0  0
  2 25  1  0  0  0
  2 90  1  0  0  0
  2 91  1  0  0  0
  3  4  1  0  0  0
  3 92  1  0  0  0
  3 93  1  0  0  0
  4  5  1  0  0  0
  4 94  1  0  0  0
  4 95  1  0  0  0
  5  6  1  0  0  0
  5 26  1  0  0  0
  5 96  1  0  0  0
  6 25  1  0  0  0
  6 97  1  0  0  0
  6 98  1  0  0  0
  7  8  2  0  0  0
  7 26  1  0  0  0
  7 29  1  0  0  0
  8  9  1  0  0  0
  8 22  1  0  0  0
  9 10  1  0  0  0
  9 27  2  0  0  0
 10 11  2  0  0  0
 10 15  1  0  0  0
 11 12  1  0  0  0
 11 99  1  0  0  0
 12 13  2  0  0  0
 12100  1  0  0  0
 13 14  1  0  0  0
 13 31  1  0  0  0
 14 15  2  0  0  0
 14101  1  0  0  0
 15102  1  0  0  0
 16 17  2  0  0  0
 16 21  1  0  0  0
 16 31  1  0  0  0
 17 18  1  0  0  0
 17103  1  0  0  0
 18 19  2  0  0  0
 18104  1  0  0  0
 19 20  1  0  0  0
 19 24  1  0  0  0
 20 21  2  0  0  0
 20105  1  0  0  0
 21 23  1  0  0  0
 22 28  1  0  0  0
 22 32  2  0  0  0
 26 27  1  0  0  0
 28106  1  0  0  0
 28107  1  0  0  0
 29108  1  0  0  0
 29109  1  0  0  0
 33 34  1  0  0  0
 33 66  1  0  0  0
 33 70  2  0  0  0
 34 36  1  0  0  0
 34 59  1  0  0  0
 34110  1  0  0  0
 35 44  2  0  0  0
 35 45  1  0  0  0
 35 68  1  0  0  0
 36 56  1  0  0  0
 36111  1  0  0  0
 37 39  1  0  0  0
 37 47  1  0  0  0
 37 66  1  0  0  0
 37112  1  0  0  0
 38 43  2  0  0  0
 38 46  1  0  0  0
 38 47  1  0  0  0
 39 64  1  0  0  0
 39 67  2  0  0  0
 40 52  1  0  0  0
 40 53  2  0  0  0
 40 58  1  0  0  0
 41113  1  0  0  0
 41114  1  0  0  0
 41115  1  0  0  0
 41 48  1  0  0  0
 42 43  1  0  0  0
 42 66  1  0  0  0
 42116  1  0  0  0
 42117  1  0  0  0
 43 44  1  0  0  0
 44118  1  0  0  0
 45 46  2  0  0  0
 45119  1  0  0  0
 46120  1  0  0  0
 47121  1  0  0  0
 47122  1  0  0  0
 48 56  1  0  0  0
 48 65  1  0  0  0
 48123  1  0  0  0
 49 50  1  0  0  0
 49 53  1  0  0  0
 49 64  1  0  0  0
 49124  1  0  0  0
 50 51  1  0  0  0
 50125  1  0  0  0
 50126  1  0  0  0
 51 52  1  0  0  0
 51127  1  0  0  0
 51128  1  0  0  0
 52129  1  0  0  0
 52130  1  0  0  0
 53 54  1  0  0  0
 54 55  2  0  0  0
 54131  1  0  0  0
 55 57  1  0  0  0
 55132  1  0  0  0
 56 69  2  0  0  0
 57 58  2  0  0  0
 57133  1  0  0  0
 58134  1  0  0  0
 59 60  1  0  0  0
 59 61  1  0  0  0
 59 62  1  0  0  0
 60135  1  0  0  0
 60136  1  0  0  0
 60137  1  0  0  0
 61138  1  0  0  0
 61139  1  0  0  0
 61140  1  0  0  0
 62141  1  0  0  0
 62142  1  0  0  0
 62143  1  0  0  0
 63 65  1  0  0  0
 63144  1  0  0  0
 63145  1  0  0  0
 63146  1  0  0  0
 64147  1  0  0  0
 65148  1  0  0  0
 68 83  1  0  0  0
 71 72  2  0  0  0
 71 73  1  0  0  0
 71149  1  0  0  0
 72 74  1  0  0  0
 72150  1  0  0  0
 73 76  2  0  0  0
 73151  1  0  0  0
 74 75  2  0  0  0
 74 82  1  0  0  0
 75 76  1  0  0  0
 75 78  1  0  0  0
 76 88  1  0  0  0
 77 83  1  0  0  0
 77 89  2  0  0  0
 77 87  1  0  0  0
 78152  1  0  0  0
 78153  1  0  0  0
 78154  1  0  0  0
 79 84  1  0  0  0
 79155  1  0  0  0
 79156  1  0  0  0
 79157  1  0  0  0
 80158  1  0  0  0
 80159  1  0  0  0
 80160  1  0  0  0
 80 86  1  0  0  0
 81161  1  0  0  0
 81162  1  0  0  0
 81163  1  0  0  0
 81 87  1  0  0  0
 82 85  1  0  0  0
 82164  1  0  0  0
 82165  1  0  0  0
 83166  1  0  0  0
 83167  1  0  0  0
 84 86  1  0  0  0
 84168  1  0  0  0
 84169  1  0  0  0
 85 87  1  0  0  0
 85170  1  0  0  0
 85171  1  0  0  0
 86 87  1  0  0  0
 86172  1  0  0  0
 88173  1  0  0  0
M  ISO  4   1 100  68 101  83 101  88 100
M  END
> <chiral flag>
0

> <version>
0

> <s_m_source_file>
/data/baiqing/PycharmProjects/Reinvent-master-3.2/result/LINK_invent/BTK/process_docking_weight1_custom_product_contain_oxygen_bond_distance_aromatic_linkinvent_7_9_3/rearranged_h_0140.sdf

> <i_m_source_file_index>
91

> <r_mmod_Potential_Energy-OPLS-2005>
82.955680847168

> <r_mmod_Stretch_Energy-OPLS-2005>
61.7362670898438

> <r_mmod_Bend_Energy-OPLS-2005>
114.35359954834

> <r_mmod_Torsional_Energy-OPLS-2005>
276.281127929688

> <r_mmod_Improper_Torsional_Energy-OPLS-2005>
4.21744966506958

> <r_mmod_Van_der_Waal_Energy-OPLS-2005>
170.112899780273

> <r_mmod_Electrostatic_Energy-OPLS-2005>
-342.716979980469

> <r_mmod_Solvation_Energy-OPLS-2005>
-218.001693725586

> <b_mmod_Minimization_Converged-OPLS-2005>
0

> <r_mmod_RMS_Derivative-OPLS-2005>
2.26482939720154

$$$$
91
                    3D
 Structure written by MMmdl.
149157  0  0  1  0            999 V2000
  -30.5236  -14.8806   20.4387 C   0  0  0  0  0  0
  -30.4530  -12.5412   19.4834 C   0  0  0  0  0  0
  -29.5228  -12.5263   18.2463 C   0  0  0  0  0  0
  -28.0511  -12.3239   18.6601 C   0  0  0  0  0  0
  -27.6386  -13.2331   19.8466 C   0  0  2  0  0  0
  -28.6850  -13.1982   20.9818 C   0  0  0  0  0  0
  -25.2503  -13.8168   20.5690 C   0  0  0  0  0  0
  -24.1806  -13.0420   20.9235 C   0  0  0  0  0  0
  -24.6399  -11.6901   20.8759 C   0  0  0  0  0  0
  -23.9067  -10.4285   21.0416 C   0  0  0  0  0  0
  -24.3613   -9.4198   21.9196 C   0  0  0  0  0  0
  -23.6295   -8.2227   22.0751 C   0  0  0  0  0  0
  -22.4276   -8.0273   21.3541 C   0  0  0  0  0  0
  -21.9912   -9.0245   20.4642 C   0  0  0  0  0  0
  -22.7239  -10.2130   20.3062 C   0  0  0  0  0  0
  -21.6845   -6.0740   22.5282 C   0  0  0  0  0  0
  -21.4009   -6.5643   23.8218 C   0  0  0  0  0  0
  -21.3661   -5.6789   24.9181 C   0  0  0  0  0  0
  -21.6044   -4.3052   24.7227 C   0  0  0  0  0  0
  -21.8818   -3.8152   23.4344 C   0  0  0  0  0  0
  -21.9186   -4.6968   22.3402 C   0  0  0  0  0  0
  -22.7826  -13.5209   21.1884 C   0  0  0  0  0  0
  -22.1656   -4.2154   21.0978 F   0  0  0  0  0  0
  -21.5629   -3.4535   25.7739 F   0  0  0  0  0  0
  -29.9717  -13.6068   20.3993 N   0  0  0  0  0  0
  -26.2926  -12.9378   20.3254 N   0  0  0  0  0  0
  -25.9331  -11.6524   20.5747 N   0  0  0  0  0  0
  -22.0457  -12.8214   22.0437 N   0  0  0  0  0  0
  -25.4164  -15.1887   20.4058 N   0  0  0  0  0  0
  -31.7167  -15.0213   20.1490 O   0  0  0  0  0  0
  -21.6631   -6.8879   21.4244 O   0  0  0  0  0  0
  -22.3522  -14.5514   20.6722 O   0  0  0  0  0  0
  -24.6399  -31.8477   23.1912 C   0  0  0  0  0  0
  -25.9192  -32.4708   23.8293 C   0  0  1  0  0  0
  -27.2251  -27.1830   20.1548 C   0  0  0  0  0  0
  -25.5965  -33.8515   24.2220 N   0  0  0  0  0  0
  -23.4416  -30.4677   21.5352 C   0  0  2  0  0  0
  -24.8927  -28.8968   20.1149 C   0  0  0  0  0  0
  -22.7547  -29.4577   22.4874 C   0  0  0  0  0  0
  -18.0305  -28.1393   22.8479 C   0  0  0  0  0  0
  -24.1493  -36.7257   23.2644 C   0  0  0  0  0  0
  -25.9939  -30.7377   21.3816 C   0  0  0  0  0  0
  -26.0681  -29.3512   20.7270 C   0  0  0  0  0  0
  -27.2393  -28.5117   20.7269 C   0  0  0  0  0  0
  -26.0260  -26.8142   19.5100 C   0  0  0  0  0  0
  -24.8815  -27.6391   19.4912 C   0  0  0  0  0  0
  -23.6666  -29.7942   20.1550 C   0  0  0  0  0  0
  -25.4122  -36.3037   24.0323 C   0  0  1  0  0  0
  -20.5919  -28.3723   23.1238 C   0  0  2  0  0  0
  -20.6782  -26.9428   22.5404 C   0  0  0  0  0  0
  -19.5757  -26.6380   21.5211 C   0  0  0  0  0  0
  -18.1942  -26.7933   22.1620 C   0  0  0  0  0  0
  -19.1562  -28.8874   23.2852 C   0  0  0  0  0  0
  -18.9477  -30.1470   23.8877 C   0  0  0  0  0  0
  -17.6473  -30.6586   24.0564 C   0  0  0  0  0  0
  -25.9069  -34.9412   23.5069 C   0  0  0  0  0  0
  -16.5366  -29.9081   23.6335 C   0  0  0  0  0  0
  -16.7289  -28.6502   23.0354 C   0  0  0  0  0  0
  -26.4530  -31.6558   25.0713 C   0  0  0  0  0  0
  -25.3734  -31.3729   26.1420 C   0  0  0  0  0  0
  -27.0385  -30.2959   24.6258 C   0  0  0  0  0  0
  -27.6075  -32.4315   25.7490 C   0  0  0  0  0  0
  -27.5576  -37.1786   24.8471 C   0  0  0  0  0  0
  -21.4249  -29.3055   22.3615 N   0  0  0  0  0  0
  -26.4288  -37.3748   23.9411 N   0  0  0  0  0  0
  -24.7114  -31.0380   22.0917 N   0  0  0  0  0  0
  -23.4208  -28.8128   23.3012 O   0  0  0  0  0  0
  -28.2912  -26.2293   20.1712 O   0  0  0  0  0  0
  -26.5646  -34.8911   22.4644 O   0  0  0  0  0  0
  -23.5529  -32.1333   23.7157 O   0  0  0  0  0  0
  -28.1446  -19.5768   20.4097 C   0  0  0  0  0  0
  -30.4678  -19.8720   20.7057 C   0  0  0  0  0  0
  -28.3420  -18.1456   20.3772 C   0  0  0  0  0  0
  -30.6706  -18.4275   20.6604 C   0  0  0  0  0  0
  -29.1901  -20.5317   20.6020 C   0  0  0  0  0  0
  -29.6030  -17.4781   20.5222 C   0  0  0  0  0  0
  -28.7694  -23.4635   20.1164 C   0  0  0  0  0  0
  -28.8896  -22.0962   21.0119 C   0  0  0  0  0  0
  -28.0249  -24.8074   20.6981 C   0  0  0  0  0  0
  -29.6326  -15.9589   20.6036 N   0  0  0  0  0  0
  -29.2482  -23.4824   18.9782 O   0  0  0  0  0  0
  -31.4839  -12.7142   19.1704 H   0  0  0  0  0  0
  -30.4502  -11.5726   19.9859 H   0  0  0  0  0  0
  -29.8293  -11.7430   17.5520 H   0  0  0  0  0  0
  -29.6217  -13.4689   17.7051 H   0  0  0  0  0  0
  -27.9292  -11.2769   18.9408 H   0  0  0  0  0  0
  -27.3900  -12.4889   17.8084 H   0  0  0  0  0  0
  -27.6184  -14.2476   19.4488 H   0  0  0  0  0  0
  -28.7551  -12.2005   21.4162 H   0  0  0  0  0  0
  -28.3958  -13.8640   21.7964 H   0  0  0  0  0  0
  -25.2755   -9.5670   22.4782 H   0  0  0  0  0  0
  -23.9999   -7.4610   22.7466 H   0  0  0  0  0  0
  -21.0837   -8.8762   19.8952 H   0  0  0  0  0  0
  -22.3692  -10.9669   19.6171 H   0  0  0  0  0  0
  -21.2004   -7.6153   23.9728 H   0  0  0  0  0  0
  -21.1484   -6.0521   25.9083 H   0  0  0  0  0  0
  -22.0601   -2.7617   23.2839 H   0  0  0  0  0  0
  -22.4071  -11.9877   22.4830 H   0  0  0  0  0  0
  -21.1076  -13.1255   22.2629 H   0  0  0  0  0  0
  -24.6328  -15.8269   20.4894 H   0  0  0  0  0  0
  -26.2302  -15.6154   19.9859 H   0  0  0  0  0  0
  -26.7269  -32.5331   23.1038 H   0  0  0  0  0  0
  -25.0128  -33.9642   25.0377 H   0  0  0  0  0  0
  -22.7431  -31.2924   21.3797 H   0  0  0  0  0  0
  -23.3755  -35.9588   23.3298 H   0  0  0  0  0  0
  -24.3587  -36.8886   22.2060 H   0  0  0  0  0  0
  -23.7245  -37.6455   23.6677 H   0  0  0  0  0  0
  -26.1427  -31.4929   20.6086 H   0  0  0  0  0  0
  -26.8679  -30.7904   22.0192 H   0  0  0  0  0  0
  -28.1394  -28.8603   21.2137 H   0  0  0  0  0  0
  -25.9625  -25.8507   19.0246 H   0  0  0  0  0  0
  -23.9853  -27.2856   19.0005 H   0  0  0  0  0  0
  -23.8022  -30.5676   19.3980 H   0  0  0  0  0  0
  -22.7826  -29.2343   19.8446 H   0  0  0  0  0  0
  -25.1307  -36.1866   25.0814 H   0  0  0  0  0  0
  -21.0023  -28.3306   24.1354 H   0  0  0  0  0  0
  -20.5665  -26.2344   23.3627 H   0  0  0  0  0  0
  -21.6646  -26.7425   22.1203 H   0  0  0  0  0  0
  -19.6918  -25.6287   21.1251 H   0  0  0  0  0  0
  -19.6684  -27.3180   20.6734 H   0  0  0  0  0  0
  -17.4213  -26.6694   21.4022 H   0  0  0  0  0  0
  -18.0336  -26.0077   22.9014 H   0  0  0  0  0  0
  -19.7954  -30.7293   24.2235 H   0  0  0  0  0  0
  -17.5025  -31.6265   24.5166 H   0  0  0  0  0  0
  -15.5366  -30.2974   23.7662 H   0  0  0  0  0  0
  -15.8694  -28.0808   22.7078 H   0  0  0  0  0  0
  -24.5938  -30.7043   25.7752 H   0  0  0  0  0  0
  -24.8892  -32.2895   26.4799 H   0  0  0  0  0  0
  -25.8041  -30.8948   27.0226 H   0  0  0  0  0  0
  -26.2984  -29.6688   24.1276 H   0  0  0  0  0  0
  -27.4027  -29.7253   25.4812 H   0  0  0  0  0  0
  -27.8883  -30.4207   23.9543 H   0  0  0  0  0  0
  -27.2686  -33.3641   26.2018 H   0  0  0  0  0  0
  -28.3909  -32.6833   25.0326 H   0  0  0  0  0  0
  -28.0723  -31.8468   26.5441 H   0  0  0  0  0  0
  -28.2587  -38.0087   24.7505 H   0  0  0  0  0  0
  -28.1068  -36.2613   24.6298 H   0  0  0  0  0  0
  -27.2296  -37.1438   25.8876 H   0  0  0  0  0  0
  -20.9460  -29.8765   21.6790 H   0  0  0  0  0  0
  -26.0147  -38.2813   24.1407 H   0  0  0  0  0  0
  -27.1272  -19.9397   20.3593 H   0  0  0  0  0  0
  -31.3362  -20.4870   20.8979 H   0  0  0  0  0  0
  -27.4548  -17.5376   20.2736 H   0  0  0  0  0  0
  -31.6757  -18.0516   20.7945 H   0  0  0  0  0  0
  -29.6466  -22.3365   21.7587 H   0  0  0  0  0  0
  -27.9612  -22.0654   21.5818 H   0  0  0  0  0  0
  -28.2445  -24.8354   21.7654 H   0  0  0  0  0  0
  -26.9554  -24.6084   20.6393 H   0  0  0  0  0  0
  -28.7110  -15.5804   20.7540 H   0  0  0  0  0  0
  1 25  1  0  0  0
  1 30  2  0  0  0
  1 80  1  0  0  0
  2  3  1  0  0  0
  2 25  1  0  0  0
  2 82  1  0  0  0
  2 83  1  0  0  0
  3  4  1  0  0  0
  3 84  1  0  0  0
  3 85  1  0  0  0
  4  5  1  0  0  0
  4 86  1  0  0  0
  4 87  1  0  0  0
  5  6  1  0  0  0
  5 26  1  0  0  0
  5 88  1  0  0  0
  6 25  1  0  0  0
  6 89  1  0  0  0
  6 90  1  0  0  0
  7  8  2  0  0  0
  7 26  1  0  0  0
  7 29  1  0  0  0
  8  9  1  0  0  0
  8 22  1  0  0  0
  9 10  1  0  0  0
  9 27  2  0  0  0
 10 11  2  0  0  0
 10 15  1  0  0  0
 11 12  1  0  0  0
 11 91  1  0  0  0
 12 13  2  0  0  0
 12 92  1  0  0  0
 13 14  1  0  0  0
 13 31  1  0  0  0
 14 15  2  0  0  0
 14 93  1  0  0  0
 15 94  1  0  0  0
 16 17  2  0  0  0
 16 21  1  0  0  0
 16 31  1  0  0  0
 17 18  1  0  0  0
 17 95  1  0  0  0
 18 19  2  0  0  0
 18 96  1  0  0  0
 19 20  1  0  0  0
 19 24  1  0  0  0
 20 21  2  0  0  0
 20 97  1  0  0  0
 21 23  1  0  0  0
 22 28  1  0  0  0
 22 32  2  0  0  0
 26 27  1  0  0  0
 28 98  1  0  0  0
 28 99  1  0  0  0
 29100  1  0  0  0
 29101  1  0  0  0
 33 34  1  0  0  0
 33 66  1  0  0  0
 33 70  2  0  0  0
 34 36  1  0  0  0
 34 59  1  0  0  0
 34102  1  0  0  0
 35 44  2  0  0  0
 35 45  1  0  0  0
 35 68  1  0  0  0
 36 56  1  0  0  0
 36103  1  0  0  0
 37 39  1  0  0  0
 37 47  1  0  0  0
 37 66  1  0  0  0
 37104  1  0  0  0
 38 43  2  0  0  0
 38 46  1  0  0  0
 38 47  1  0  0  0
 39 64  1  0  0  0
 39 67  2  0  0  0
 40 52  1  0  0  0
 40 53  2  0  0  0
 40 58  1  0  0  0
 41105  1  0  0  0
 41106  1  0  0  0
 41107  1  0  0  0
 41 48  1  0  0  0
 42 43  1  0  0  0
 42 66  1  0  0  0
 42108  1  0  0  0
 42109  1  0  0  0
 43 44  1  0  0  0
 44110  1  0  0  0
 45 46  2  0  0  0
 45111  1  0  0  0
 46112  1  0  0  0
 47113  1  0  0  0
 47114  1  0  0  0
 48 56  1  0  0  0
 48 65  1  0  0  0
 48115  1  0  0  0
 49 50  1  0  0  0
 49 53  1  0  0  0
 49 64  1  0  0  0
 49116  1  0  0  0
 50 51  1  0  0  0
 50117  1  0  0  0
 50118  1  0  0  0
 51 52  1  0  0  0
 51119  1  0  0  0
 51120  1  0  0  0
 52121  1  0  0  0
 52122  1  0  0  0
 53 54  1  0  0  0
 54 55  2  0  0  0
 54123  1  0  0  0
 55 57  1  0  0  0
 55124  1  0  0  0
 56 69  2  0  0  0
 57 58  2  0  0  0
 57125  1  0  0  0
 58126  1  0  0  0
 59 60  1  0  0  0
 59 61  1  0  0  0
 59 62  1  0  0  0
 60127  1  0  0  0
 60128  1  0  0  0
 60129  1  0  0  0
 61130  1  0  0  0
 61131  1  0  0  0
 61132  1  0  0  0
 62133  1  0  0  0
 62134  1  0  0  0
 62135  1  0  0  0
 63 65  1  0  0  0
 63136  1  0  0  0
 63137  1  0  0  0
 63138  1  0  0  0
 64139  1  0  0  0
 65140  1  0  0  0
 68 79  1  0  0  0
 71 73  2  0  0  0
 71 75  1  0  0  0
 71141  1  0  0  0
 72 74  1  0  0  0
 72 75  2  0  0  0
 72142  1  0  0  0
 73 76  1  0  0  0
 73143  1  0  0  0
 74 76  2  0  0  0
 74144  1  0  0  0
 75 78  1  0  0  0
 76 80  1  0  0  0
 77 78  1  0  0  0
 77 79  1  0  0  0
 77 81  2  0  0  0
 78145  1  0  0  0
 78146  1  0  0  0
 79147  1  0  0  0
 79148  1  0  0  0
 80149  1  0  0  0
M  ISO  4   1 100  68 101  79 101  80 100
M  END
> <chiral flag>
0

> <version>
0

> <s_m_source_file>
/data/baiqing/PycharmProjects/Reinvent-master-3.2/result/LINK_invent/BTK/process_docking_weight1_custom_product_contain_oxygen_bond_distance_aromatic_linkinvent_7_9_3/rearranged_h_0140.sdf

> <i_m_source_file_index>
92

> <r_mmod_Potential_Energy-OPLS-2005>
400.891662597656

> <r_mmod_Stretch_Energy-OPLS-2005>
190.348342895508

> <r_mmod_Bend_Energy-OPLS-2005>
246.220825195312

> <r_mmod_Torsional_Energy-OPLS-2005>
239.763366699219

> <r_mmod_Improper_Torsional_Energy-OPLS-2005>
8.05712699890137

> <r_mmod_Van_der_Waal_Energy-OPLS-2005>
125.758323669434

> <r_mmod_Electrostatic_Energy-OPLS-2005>
-323.222045898438

> <r_mmod_Solvation_Energy-OPLS-2005>
-235.949417114258

> <b_mmod_Minimization_Converged-OPLS-2005>
0

> <r_mmod_RMS_Derivative-OPLS-2005>
1.16822123527527

$$$$
92
                    3D
 Structure written by MMmdl.
172181  0  0  1  0            999 V2000
  -30.6626  -14.5767   20.5286 C   0  0  0  0  0  0
  -30.4312  -12.3604   19.4424 C   0  0  0  0  0  0
  -29.5062  -12.5105   18.2152 C   0  0  0  0  0  0
  -28.0268  -12.3470   18.6203 C   0  0  0  0  0  0
  -27.6530  -13.2108   19.8537 C   0  0  2  0  0  0
  -28.6934  -13.0538   20.9844 C   0  0  0  0  0  0
  -25.2549  -13.8159   20.5617 C   0  0  0  0  0  0
  -24.1814  -13.0442   20.9155 C   0  0  0  0  0  0
  -24.6373  -11.6912   20.8692 C   0  0  0  0  0  0
  -23.9043  -10.4304   21.0382 C   0  0  0  0  0  0
  -24.3607   -9.4224   21.9160 C   0  0  0  0  0  0
  -23.6299   -8.2247   22.0741 C   0  0  0  0  0  0
  -22.4279   -8.0272   21.3534 C   0  0  0  0  0  0
  -21.9900   -9.0241   20.4634 C   0  0  0  0  0  0
  -22.7214  -10.2132   20.3041 C   0  0  0  0  0  0
  -21.6850   -6.0724   22.5279 C   0  0  0  0  0  0
  -21.4007   -6.5624   23.8208 C   0  0  0  0  0  0
  -21.3666   -5.6771   24.9170 C   0  0  0  0  0  0
  -21.6051   -4.3041   24.7219 C   0  0  0  0  0  0
  -21.8815   -3.8137   23.4331 C   0  0  0  0  0  0
  -21.9187   -4.6949   22.3393 C   0  0  0  0  0  0
  -22.7840  -13.5253   21.1820 C   0  0  0  0  0  0
  -22.1659   -4.2131   21.0973 F   0  0  0  0  0  0
  -21.5650   -3.4528   25.7731 F   0  0  0  0  0  0
  -30.0144  -13.3765   20.4250 N   0  0  0  0  0  0
  -26.2975  -12.9335   20.3234 N   0  0  0  0  0  0
  -25.9297  -11.6495   20.5681 N   0  0  0  0  0  0
  -22.0446  -12.8287   22.0378 N   0  0  0  0  0  0
  -25.4277  -15.1875   20.4010 N   0  0  0  0  0  0
  -31.8341  -14.7112   20.1698 O   0  0  0  0  0  0
  -21.6639   -6.8873   21.4244 O   0  0  0  0  0  0
  -22.3525  -14.5544   20.6640 O   0  0  0  0  0  0
  -24.6255  -31.8639   23.2078 C   0  0  0  0  0  0
  -25.9127  -32.4811   23.8366 C   0  0  1  0  0  0
  -27.2172  -27.3529   20.1234 C   0  0  0  0  0  0
  -25.5980  -33.8603   24.2329 N   0  0  0  0  0  0
  -23.4128  -30.4902   21.5502 C   0  0  2  0  0  0
  -24.8548  -28.9427   20.1254 C   0  0  0  0  0  0
  -22.7463  -29.4649   22.4973 C   0  0  0  0  0  0
  -18.0290  -28.1367   22.8494 C   0  0  0  0  0  0
  -24.1478  -36.7275   23.2627 C   0  0  0  0  0  0
  -25.9486  -30.8090   21.3641 C   0  0  0  0  0  0
  -26.0234  -29.4325   20.7234 C   0  0  0  0  0  0
  -27.2116  -28.6504   20.7122 C   0  0  0  0  0  0
  -26.0275  -26.9058   19.5175 C   0  0  0  0  0  0
  -24.8550  -27.6799   19.5146 C   0  0  0  0  0  0
  -23.6247  -29.8244   20.1653 C   0  0  0  0  0  0
  -25.4103  -36.3092   24.0341 C   0  0  1  0  0  0
  -20.5883  -28.3656   23.1300 C   0  0  2  0  0  0
  -20.6778  -26.9390   22.5396 C   0  0  0  0  0  0
  -19.5745  -26.6384   21.5204 C   0  0  0  0  0  0
  -18.1925  -26.7913   22.1622 C   0  0  0  0  0  0
  -19.1541  -28.8830   23.2890 C   0  0  0  0  0  0
  -18.9460  -30.1442   23.8880 C   0  0  0  0  0  0
  -17.6460  -30.6571   24.0556 C   0  0  0  0  0  0
  -25.9038  -34.9471   23.5120 C   0  0  0  0  0  0
  -16.5342  -29.9065   23.6322 C   0  0  0  0  0  0
  -16.7280  -28.6491   23.0347 C   0  0  0  0  0  0
  -26.4536  -31.6591   25.0687 C   0  0  0  0  0  0
  -25.3811  -31.3684   26.1433 C   0  0  0  0  0  0
  -27.0323  -30.3019   24.6035 C   0  0  0  0  0  0
  -27.6133  -32.4258   25.7447 C   0  0  0  0  0  0
  -27.5567  -37.1797   24.8477 C   0  0  0  0  0  0
  -21.4183  -29.3036   22.3721 N   0  0  0  0  0  0
  -26.4279  -37.3802   23.9428 N   0  0  0  0  0  0
  -24.6810  -31.0694   22.0983 N   0  0  0  0  0  0
  -23.4227  -28.8187   23.3020 O   0  0  0  0  0  0
  -28.3734  -26.5884   20.0046 O   0  0  0  0  0  0
  -26.5569  -34.8948   22.4656 O   0  0  0  0  0  0
  -23.5431  -32.1410   23.7445 O   0  0  0  0  0  0
  -31.0179  -19.7949   20.7525 C   0  0  0  0  0  0
  -31.3988  -17.4967   21.5000 C   0  0  0  0  0  0
  -29.4390  -18.0390   20.1636 C   0  0  0  0  0  0
  -31.7865  -18.8541   21.4708 C   0  0  0  0  0  0
  -29.8452  -19.4155   20.0669 C   0  0  0  0  0  0
  -30.2383  -17.0570   20.8294 C   0  0  0  0  0  0
  -27.7859  -23.8429   18.6953 C   0  0  0  0  0  0
  -27.7939  -22.3490   18.3412 C   0  0  0  0  0  0
  -28.8661  -22.6477   20.4146 C   0  0  0  0  0  0
  -27.9500  -23.9283   20.2129 C   0  0  2  0  0  0
  -26.6002  -23.6987   20.9338 C   0  0  0  0  0  0
  -32.9317  -20.4860   23.0723 C   0  0  0  0  0  0
  -28.6049  -19.6210   17.8633 C   0  0  0  0  0  0
  -33.0872  -19.2824   22.1332 C   0  0  0  0  0  0
  -28.5519  -25.3187   20.7172 C   0  0  0  0  0  0
  -29.2535  -20.4259   19.0266 C   0  0  1  0  0  0
  -29.8780  -15.6535   20.8268 N   0  0  0  0  0  0
  -28.3651  -21.5792   19.4814 N   0  3  2  0  0  0
  -31.4758  -12.4723   19.1460 H   0  0  0  0  0  0
  -30.3487  -11.3584   19.8689 H   0  0  0  0  0  0
  -29.7742  -11.7828   17.4474 H   0  0  0  0  0  0
  -29.6513  -13.4964   17.7670 H   0  0  0  0  0  0
  -27.8579  -11.2930   18.8399 H   0  0  0  0  0  0
  -27.3780  -12.5881   17.7772 H   0  0  0  0  0  0
  -27.6788  -14.2479   19.5174 H   0  0  0  0  0  0
  -28.6878  -12.0331   21.3675 H   0  0  0  0  0  0
  -28.4461  -13.6920   21.8333 H   0  0  0  0  0  0
  -25.2751   -9.5721   22.4725 H   0  0  0  0  0  0
  -24.0014   -7.4649   22.7462 H   0  0  0  0  0  0
  -21.0827   -8.8751   19.8948 H   0  0  0  0  0  0
  -22.3656  -10.9664   19.6150 H   0  0  0  0  0  0
  -21.2000   -7.6132   23.9723 H   0  0  0  0  0  0
  -21.1496   -6.0495   25.9078 H   0  0  0  0  0  0
  -22.0594   -2.7602   23.2827 H   0  0  0  0  0  0
  -22.4039  -11.9996   22.4873 H   0  0  0  0  0  0
  -21.1044  -13.1339   22.2481 H   0  0  0  0  0  0
  -24.6594  -15.8436   20.4925 H   0  0  0  0  0  0
  -26.2812  -15.6214   20.0764 H   0  0  0  0  0  0
  -26.7182  -32.5489   23.1116 H   0  0  0  0  0  0
  -25.0286  -33.9773   25.0580 H   0  0  0  0  0  0
  -22.7024  -31.3088   21.4109 H   0  0  0  0  0  0
  -23.3764  -35.9578   23.3294 H   0  0  0  0  0  0
  -24.3559  -36.8876   22.2030 H   0  0  0  0  0  0
  -23.7206  -37.6485   23.6617 H   0  0  0  0  0  0
  -26.0548  -31.5592   20.5791 H   0  0  0  0  0  0
  -26.8412  -30.8771   21.9726 H   0  0  0  0  0  0
  -28.1175  -29.0365   21.1605 H   0  0  0  0  0  0
  -25.9813  -25.9582   19.0205 H   0  0  0  0  0  0
  -23.9648  -27.2993   19.0328 H   0  0  0  0  0  0
  -23.7486  -30.5978   19.4056 H   0  0  0  0  0  0
  -22.7430  -29.2535   19.8643 H   0  0  0  0  0  0
  -25.1285  -36.1940   25.0836 H   0  0  0  0  0  0
  -20.9984  -28.3197   24.1417 H   0  0  0  0  0  0
  -20.5655  -26.2269   23.3581 H   0  0  0  0  0  0
  -21.6654  -26.7401   22.1186 H   0  0  0  0  0  0
  -19.6881  -25.6305   21.1205 H   0  0  0  0  0  0
  -19.6676  -27.3210   20.6743 H   0  0  0  0  0  0
  -17.4205  -26.6676   21.4014 H   0  0  0  0  0  0
  -18.0316  -26.0058   22.9016 H   0  0  0  0  0  0
  -19.7939  -30.7276   24.2220 H   0  0  0  0  0  0
  -17.5016  -31.6244   24.5167 H   0  0  0  0  0  0
  -15.5346  -30.2960   23.7655 H   0  0  0  0  0  0
  -15.8690  -28.0804   22.7033 H   0  0  0  0  0  0
  -24.6035  -30.6956   25.7799 H   0  0  0  0  0  0
  -24.8940  -32.2828   26.4817 H   0  0  0  0  0  0
  -25.8205  -30.8934   27.0216 H   0  0  0  0  0  0
  -26.2814  -29.6805   24.1121 H   0  0  0  0  0  0
  -27.4149  -29.7224   25.4456 H   0  0  0  0  0  0
  -27.8670  -30.4339   23.9135 H   0  0  0  0  0  0
  -27.2791  -33.3582   26.1998 H   0  0  0  0  0  0
  -28.3973  -32.6747   25.0281 H   0  0  0  0  0  0
  -28.0759  -31.8370   26.5381 H   0  0  0  0  0  0
  -28.2614  -38.0068   24.7537 H   0  0  0  0  0  0
  -28.1045  -36.2615   24.6303 H   0  0  0  0  0  0
  -27.2294  -37.1448   25.8884 H   0  0  0  0  0  0
  -20.9341  -29.8794   21.6968 H   0  0  0  0  0  0
  -26.0160  -38.2876   24.1459 H   0  0  0  0  0  0
  -31.3763  -20.8116   20.6598 H   0  0  0  0  0  0
  -32.0130  -16.7797   22.0280 H   0  0  0  0  0  0
  -28.5605  -17.6956   19.6372 H   0  0  0  0  0  0
  -26.8795  -24.2972   18.3108 H   0  0  0  0  0  0
  -28.6249  -24.3409   18.2049 H   0  0  0  0  0  0
  -28.3762  -22.2513   17.4258 H   0  0  0  0  0  0
  -26.7849  -21.9857   18.1367 H   0  0  0  0  0  0
  -28.8733  -22.2947   21.4461 H   0  0  0  0  0  0
  -29.8986  -22.8858   20.1492 H   0  0  0  0  0  0
  -26.1231  -22.7618   20.6509 H   0  0  0  0  0  0
  -25.8840  -24.4913   20.7274 H   0  0  0  0  0  0
  -26.7381  -23.6683   22.0148 H   0  0  0  0  0  0
  -33.8938  -20.7541   23.5098 H   0  0  0  0  0  0
  -32.2446  -20.2649   23.8901 H   0  0  0  0  0  0
  -32.5636  -21.3658   22.5454 H   0  0  0  0  0  0
  -29.2539  -18.8019   17.5506 H   0  0  0  0  0  0
  -28.4340  -20.2001   16.9580 H   0  0  0  0  0  0
  -27.6447  -19.1963   18.1576 H   0  0  0  0  0  0
  -33.8044  -19.5198   21.3453 H   0  0  0  0  0  0
  -33.5098  -18.4463   22.6916 H   0  0  0  0  0  0
  -29.6354  -25.1951   20.7312 H   0  0  0  0  0  0
  -28.2979  -25.4767   21.7667 H   0  0  0  0  0  0
  -30.1293  -20.9067   18.5852 H   0  0  0  0  0  0
  -28.8980  -15.4423   20.9392 H   0  0  0  0  0  0
  -27.5799  -21.1566   19.9547 H   0  0  0  0  0  0
  1 25  1  0  0  0
  1 30  2  0  0  0
  1 87  1  0  0  0
  2  3  1  0  0  0
  2 25  1  0  0  0
  2 89  1  0  0  0
  2 90  1  0  0  0
  3  4  1  0  0  0
  3 91  1  0  0  0
  3 92  1  0  0  0
  4  5  1  0  0  0
  4 93  1  0  0  0
  4 94  1  0  0  0
  5  6  1  0  0  0
  5 26  1  0  0  0
  5 95  1  0  0  0
  6 25  1  0  0  0
  6 96  1  0  0  0
  6 97  1  0  0  0
  7  8  2  0  0  0
  7 26  1  0  0  0
  7 29  1  0  0  0
  8  9  1  0  0  0
  8 22  1  0  0  0
  9 10  1  0  0  0
  9 27  2  0  0  0
 10 11  2  0  0  0
 10 15  1  0  0  0
 11 12  1  0  0  0
 11 98  1  0  0  0
 12 13  2  0  0  0
 12 99  1  0  0  0
 13 14  1  0  0  0
 13 31  1  0  0  0
 14 15  2  0  0  0
 14100  1  0  0  0
 15101  1  0  0  0
 16 17  2  0  0  0
 16 21  1  0  0  0
 16 31  1  0  0  0
 17 18  1  0  0  0
 17102  1  0  0  0
 18 19  2  0  0  0
 18103  1  0  0  0
 19 20  1  0  0  0
 19 24  1  0  0  0
 20 21  2  0  0  0
 20104  1  0  0  0
 21 23  1  0  0  0
 22 28  1  0  0  0
 22 32  2  0  0  0
 26 27  1  0  0  0
 28105  1  0  0  0
 28106  1  0  0  0
 29107  1  0  0  0
 29108  1  0  0  0
 33 34  1  0  0  0
 33 66  1  0  0  0
 33 70  2  0  0  0
 34 36  1  0  0  0
 34 59  1  0  0  0
 34109  1  0  0  0
 35 44  2  0  0  0
 35 45  1  0  0  0
 35 68  1  0  0  0
 36 56  1  0  0  0
 36110  1  0  0  0
 37 39  1  0  0  0
 37 47  1  0  0  0
 37 66  1  0  0  0
 37111  1  0  0  0
 38 43  2  0  0  0
 38 46  1  0  0  0
 38 47  1  0  0  0
 39 64  1  0  0  0
 39 67  2  0  0  0
 40 52  1  0  0  0
 40 53  2  0  0  0
 40 58  1  0  0  0
 41112  1  0  0  0
 41113  1  0  0  0
 41114  1  0  0  0
 41 48  1  0  0  0
 42 43  1  0  0  0
 42 66  1  0  0  0
 42115  1  0  0  0
 42116  1  0  0  0
 43 44  1  0  0  0
 44117  1  0  0  0
 45 46  2  0  0  0
 45118  1  0  0  0
 46119  1  0  0  0
 47120  1  0  0  0
 47121  1  0  0  0
 48 56  1  0  0  0
 48 65  1  0  0  0
 48122  1  0  0  0
 49 50  1  0  0  0
 49 53  1  0  0  0
 49 64  1  0  0  0
 49123  1  0  0  0
 50 51  1  0  0  0
 50124  1  0  0  0
 50125  1  0  0  0
 51 52  1  0  0  0
 51126  1  0  0  0
 51127  1  0  0  0
 52128  1  0  0  0
 52129  1  0  0  0
 53 54  1  0  0  0
 54 55  2  0  0  0
 54130  1  0  0  0
 55 57  1  0  0  0
 55131  1  0  0  0
 56 69  2  0  0  0
 57 58  2  0  0  0
 57132  1  0  0  0
 58133  1  0  0  0
 59 60  1  0  0  0
 59 61  1  0  0  0
 59 62  1  0  0  0
 60134  1  0  0  0
 60135  1  0  0  0
 60136  1  0  0  0
 61137  1  0  0  0
 61138  1  0  0  0
 61139  1  0  0  0
 62140  1  0  0  0
 62141  1  0  0  0
 62142  1  0  0  0
 63 65  1  0  0  0
 63143  1  0  0  0
 63144  1  0  0  0
 63145  1  0  0  0
 64146  1  0  0  0
 65147  1  0  0  0
 68 85  1  0  0  0
 71 74  2  0  0  0
 71 75  1  0  0  0
 71148  1  0  0  0
 72 74  1  0  0  0
 72 76  2  0  0  0
 72149  1  0  0  0
 73 75  2  0  0  0
 73 76  1  0  0  0
 73150  1  0  0  0
 74 84  1  0  0  0
 75 86  1  0  0  0
 76 87  1  0  0  0
 77 78  1  0  0  0
 77 80  1  0  0  0
 77151  1  0  0  0
 77152  1  0  0  0
 78153  1  0  0  0
 78154  1  0  0  0
 78 88  1  0  0  0
 79 80  1  0  0  0
 79 88  1  0  0  0
 79155  1  0  0  0
 79156  1  0  0  0
 80 81  1  0  0  0
 80 85  1  0  0  0
 81157  1  0  0  0
 81158  1  0  0  0
 81159  1  0  0  0
 82 84  1  0  0  0
 82160  1  0  0  0
 82161  1  0  0  0
 82162  1  0  0  0
 83163  1  0  0  0
 83164  1  0  0  0
 83165  1  0  0  0
 83 86  1  0  0  0
 84166  1  0  0  0
 84167  1  0  0  0
 85168  1  0  0  0
 85169  1  0  0  0
 86 88  1  0  0  0
 86170  1  0  0  0
 87171  1  0  0  0
 88172  1  0  0  0
M  CHG  1  88   1
M  ISO  4   1 100  68 101  85 101  87 100
M  END
> <chiral flag>
0

> <version>
0

> <s_m_source_file>
/data/baiqing/PycharmProjects/Reinvent-master-3.2/result/LINK_invent/BTK/process_docking_weight1_custom_product_contain_oxygen_bond_distance_aromatic_linkinvent_7_9_3/rearranged_h_0140.sdf

> <i_m_source_file_index>
93

> <r_mmod_Potential_Energy-OPLS-2005>
37.1622581481934

> <r_mmod_Stretch_Energy-OPLS-2005>
69.9093856811523

> <r_mmod_Bend_Energy-OPLS-2005>
178.332366943359

> <r_mmod_Torsional_Energy-OPLS-2005>
326.674438476562

> <r_mmod_Improper_Torsional_Energy-OPLS-2005>
7.87365055084229

> <r_mmod_Van_der_Waal_Energy-OPLS-2005>
147.534957885742

> <r_mmod_Electrostatic_Energy-OPLS-2005>
-284.791137695312

> <r_mmod_Solvation_Energy-OPLS-2005>
-438.019866943359

> <b_mmod_Minimization_Converged-OPLS-2005>
0

> <r_mmod_RMS_Derivative-OPLS-2005>
3.45064067840576

$$$$
93
                    3D
 Structure written by MMmdl.
155163  0  0  1  0            999 V2000
  -30.6638  -14.5858   20.5231 C   0  0  0  0  0  0
  -30.4293  -12.3618   19.4500 C   0  0  0  0  0  0
  -29.5079  -12.5224   18.2214 C   0  0  0  0  0  0
  -28.0281  -12.3703   18.6256 C   0  0  0  0  0  0
  -27.6589  -13.2199   19.8713 C   0  0  2  0  0  0
  -28.7020  -13.0517   20.9996 C   0  0  0  0  0  0
  -25.2601  -13.8169   20.5684 C   0  0  0  0  0  0
  -24.1861  -13.0440   20.9188 C   0  0  0  0  0  0
  -24.6433  -11.6913   20.8723 C   0  0  0  0  0  0
  -23.9095  -10.4298   21.0396 C   0  0  0  0  0  0
  -24.3643   -9.4220   21.9182 C   0  0  0  0  0  0
  -23.6304   -8.2258   22.0767 C   0  0  0  0  0  0
  -22.4294   -8.0296   21.3548 C   0  0  0  0  0  0
  -21.9923   -9.0269   20.4656 C   0  0  0  0  0  0
  -22.7258  -10.2147   20.3050 C   0  0  0  0  0  0
  -21.6858   -6.0762   22.5283 C   0  0  0  0  0  0
  -21.4020   -6.5660   23.8224 C   0  0  0  0  0  0
  -21.3655   -5.6810   24.9182 C   0  0  0  0  0  0
  -21.6036   -4.3063   24.7228 C   0  0  0  0  0  0
  -21.8812   -3.8170   23.4336 C   0  0  0  0  0  0
  -21.9198   -4.6988   22.3411 C   0  0  0  0  0  0
  -22.7879  -13.5240   21.1813 C   0  0  0  0  0  0
  -22.1662   -4.2181   21.0979 F   0  0  0  0  0  0
  -21.5622   -3.4545   25.7734 F   0  0  0  0  0  0
  -30.0264  -13.3760   20.4444 N   0  0  0  0  0  0
  -26.3029  -12.9358   20.3336 N   0  0  0  0  0  0
  -25.9363  -11.6499   20.5728 N   0  0  0  0  0  0
  -22.0515  -12.8255   22.0377 N   0  0  0  0  0  0
  -25.4291  -15.1895   20.4112 N   0  0  0  0  0  0
  -31.8058  -14.7407   20.0816 O   0  0  0  0  0  0
  -21.6642   -6.8899   21.4246 O   0  0  0  0  0  0
  -22.3570  -14.5555   20.6662 O   0  0  0  0  0  0
  -24.6240  -31.8596   23.2024 C   0  0  0  0  0  0
  -25.9092  -32.4782   23.8353 C   0  0  1  0  0  0
  -27.2369  -27.3352   20.1188 C   0  0  0  0  0  0
  -25.5909  -33.8585   24.2277 N   0  0  0  0  0  0
  -23.4174  -30.4820   21.5440 C   0  0  2  0  0  0
  -24.8679  -28.9395   20.1103 C   0  0  0  0  0  0
  -22.7459  -29.4638   22.4946 C   0  0  0  0  0  0
  -18.0276  -28.1418   22.8491 C   0  0  0  0  0  0
  -24.1461  -36.7273   23.2645 C   0  0  0  0  0  0
  -25.9575  -30.7945   21.3734 C   0  0  0  0  0  0
  -26.0349  -29.4243   20.7146 C   0  0  0  0  0  0
  -27.2213  -28.6359   20.7075 C   0  0  0  0  0  0
  -26.0442  -26.8972   19.4957 C   0  0  0  0  0  0
  -24.8759  -27.6808   19.4912 C   0  0  0  0  0  0
  -23.6312  -29.8128   20.1605 C   0  0  0  0  0  0
  -25.4094  -36.3085   24.0336 C   0  0  1  0  0  0
  -20.5863  -28.3705   23.1288 C   0  0  2  0  0  0
  -20.6753  -26.9424   22.5426 C   0  0  0  0  0  0
  -19.5738  -26.6403   21.5214 C   0  0  0  0  0  0
  -18.1921  -26.7959   22.1629 C   0  0  0  0  0  0
  -19.1528  -28.8882   23.2877 C   0  0  0  0  0  0
  -18.9469  -30.1473   23.8910 C   0  0  0  0  0  0
  -17.6477  -30.6616   24.0580 C   0  0  0  0  0  0
  -25.9043  -34.9455   23.5107 C   0  0  0  0  0  0
  -16.5357  -29.9128   23.6341 C   0  0  0  0  0  0
  -16.7267  -28.6543   23.0351 C   0  0  0  0  0  0
  -26.4497  -31.6606   25.0719 C   0  0  0  0  0  0
  -25.3754  -31.3731   26.1456 C   0  0  0  0  0  0
  -27.0364  -30.3029   24.6194 C   0  0  0  0  0  0
  -27.6043  -32.4356   25.7492 C   0  0  0  0  0  0
  -27.5560  -37.1786   24.8469 C   0  0  0  0  0  0
  -21.4174  -29.3041   22.3673 N   0  0  0  0  0  0
  -26.4273  -37.3782   23.9428 N   0  0  0  0  0  0
  -24.6847  -31.0613   22.0968 N   0  0  0  0  0  0
  -23.4181  -28.8180   23.3025 O   0  0  0  0  0  0
  -28.3699  -26.5072   20.1724 O   0  0  0  0  0  0
  -26.5619  -34.8934   22.4676 O   0  0  0  0  0  0
  -23.5415  -32.1393   23.7357 O   0  0  0  0  0  0
  -30.9567  -19.1208   19.7498 C   0  0  0  0  0  0
  -30.9266  -17.7036   19.8946 C   0  0  0  0  0  0
  -29.2719  -17.9436   21.6182 C   0  0  0  0  0  0
  -30.1373  -19.9990   20.5155 C   0  0  0  0  0  0
  -29.3203  -19.3661   21.4999 C   0  0  0  0  0  0
  -30.0677  -17.0732   20.8298 C   0  0  0  0  0  0
  -30.3053  -21.5199   20.3253 C   0  0  0  0  0  0
  -28.5180  -20.1773   22.5028 C   0  0  0  0  0  0
  -29.0809  -22.5033   20.2380 C   0  0  0  0  0  0
  -29.3629  -24.0665   20.4003 C   0  0  0  0  0  0
  -28.1728  -25.0506   20.0438 C   0  0  0  0  0  0
  -29.9292  -15.6305   21.0021 N   0  0  0  0  0  0
  -31.4305  -22.0013   20.1555 O   0  0  0  0  0  0
  -31.4770  -12.4593   19.1578 H   0  0  0  0  0  0
  -30.3313  -11.3586   19.8663 H   0  0  0  0  0  0
  -29.7630  -11.7877   17.4562 H   0  0  0  0  0  0
  -29.6671  -13.5048   17.7724 H   0  0  0  0  0  0
  -27.8505  -11.3134   18.8250 H   0  0  0  0  0  0
  -27.3816  -12.6354   17.7881 H   0  0  0  0  0  0
  -27.6852  -14.2618   19.5534 H   0  0  0  0  0  0
  -28.7003  -12.0265   21.3719 H   0  0  0  0  0  0
  -28.4509  -13.6768   21.8567 H   0  0  0  0  0  0
  -25.2784   -9.5696   22.4760 H   0  0  0  0  0  0
  -24.0020   -7.4654   22.7491 H   0  0  0  0  0  0
  -21.0851   -8.8772   19.8963 H   0  0  0  0  0  0
  -22.3697  -10.9686   19.6164 H   0  0  0  0  0  0
  -21.2006   -7.6171   23.9730 H   0  0  0  0  0  0
  -21.1478   -6.0544   25.9089 H   0  0  0  0  0  0
  -22.0589   -2.7629   23.2827 H   0  0  0  0  0  0
  -22.4117  -11.9933   22.4796 H   0  0  0  0  0  0
  -21.1120  -13.1265   22.2528 H   0  0  0  0  0  0
  -24.6568  -15.8380   20.5147 H   0  0  0  0  0  0
  -26.2737  -15.6304   20.0670 H   0  0  0  0  0  0
  -26.7160  -32.5467   23.1104 H   0  0  0  0  0  0
  -25.0053  -33.9725   25.0422 H   0  0  0  0  0  0
  -22.7108  -31.3027   21.3998 H   0  0  0  0  0  0
  -23.3736  -35.9587   23.3335 H   0  0  0  0  0  0
  -24.3527  -36.8869   22.2053 H   0  0  0  0  0  0
  -23.7214  -37.6473   23.6655 H   0  0  0  0  0  0
  -26.0898  -31.5555   20.6032 H   0  0  0  0  0  0
  -26.8366  -30.8409   22.0049 H   0  0  0  0  0  0
  -28.1166  -29.0079   21.1876 H   0  0  0  0  0  0
  -25.9831  -25.9340   19.0128 H   0  0  0  0  0  0
  -23.9827  -27.3015   19.0142 H   0  0  0  0  0  0
  -23.7389  -30.5841   19.3973 H   0  0  0  0  0  0
  -22.7546  -29.2309   19.8671 H   0  0  0  0  0  0
  -25.1279  -36.1929   25.0825 H   0  0  0  0  0  0
  -20.9969  -28.3300   24.1402 H   0  0  0  0  0  0
  -20.5621  -26.2332   23.3631 H   0  0  0  0  0  0
  -21.6634  -26.7441   22.1234 H   0  0  0  0  0  0
  -19.6889  -25.6312   21.1249 H   0  0  0  0  0  0
  -19.6681  -27.3224   20.6753 H   0  0  0  0  0  0
  -17.4173  -26.6698   21.4035 H   0  0  0  0  0  0
  -18.0318  -26.0107   22.9041 H   0  0  0  0  0  0
  -19.7941  -30.7275   24.2290 H   0  0  0  0  0  0
  -17.5040  -31.6304   24.5178 H   0  0  0  0  0  0
  -15.5360  -30.3062   23.7649 H   0  0  0  0  0  0
  -15.8657  -28.0883   22.7074 H   0  0  0  0  0  0
  -24.5872  -30.7166   25.7770 H   0  0  0  0  0  0
  -24.9022  -32.2897   26.4968 H   0  0  0  0  0  0
  -25.8067  -30.8826   27.0190 H   0  0  0  0  0  0
  -26.2957  -29.6749   24.1233 H   0  0  0  0  0  0
  -27.4068  -29.7305   25.4710 H   0  0  0  0  0  0
  -27.8809  -30.4308   23.9420 H   0  0  0  0  0  0
  -27.2626  -33.3626   26.2107 H   0  0  0  0  0  0
  -28.3825  -32.6985   25.0320 H   0  0  0  0  0  0
  -28.0756  -31.8495   26.5380 H   0  0  0  0  0  0
  -28.2605  -38.0063   24.7510 H   0  0  0  0  0  0
  -28.1033  -36.2598   24.6306 H   0  0  0  0  0  0
  -27.2269  -37.1442   25.8869 H   0  0  0  0  0  0
  -20.9367  -29.8758   21.6862 H   0  0  0  0  0  0
  -26.0150  -38.2844   24.1455 H   0  0  0  0  0  0
  -31.6411  -19.5410   19.0258 H   0  0  0  0  0  0
  -31.5734  -17.1092   19.2659 H   0  0  0  0  0  0
  -28.6192  -17.5129   22.3644 H   0  0  0  0  0  0
  -28.3221  -19.5984   23.4061 H   0  0  0  0  0  0
  -27.5574  -20.4711   22.0791 H   0  0  0  0  0  0
  -29.0618  -21.0697   22.8197 H   0  0  0  0  0  0
  -28.3198  -22.2027   20.9522 H   0  0  0  0  0  0
  -28.6390  -22.3328   19.2573 H   0  0  0  0  0  0
  -30.2273  -24.3378   19.7928 H   0  0  0  0  0  0
  -29.6676  -24.2464   21.4322 H   0  0  0  0  0  0
  -27.8834  -24.8382   19.0147 H   0  0  0  0  0  0
  -27.3234  -24.7705   20.6696 H   0  0  0  0  0  0
  -29.0805  -15.3383   21.4606 H   0  0  0  0  0  0
  1 25  1  0  0  0
  1 30  2  0  0  0
  1 82  1  0  0  0
  2  3  1  0  0  0
  2 25  1  0  0  0
  2 84  1  0  0  0
  2 85  1  0  0  0
  3  4  1  0  0  0
  3 86  1  0  0  0
  3 87  1  0  0  0
  4  5  1  0  0  0
  4 88  1  0  0  0
  4 89  1  0  0  0
  5  6  1  0  0  0
  5 26  1  0  0  0
  5 90  1  0  0  0
  6 25  1  0  0  0
  6 91  1  0  0  0
  6 92  1  0  0  0
  7  8  2  0  0  0
  7 26  1  0  0  0
  7 29  1  0  0  0
  8  9  1  0  0  0
  8 22  1  0  0  0
  9 10  1  0  0  0
  9 27  2  0  0  0
 10 11  2  0  0  0
 10 15  1  0  0  0
 11 12  1  0  0  0
 11 93  1  0  0  0
 12 13  2  0  0  0
 12 94  1  0  0  0
 13 14  1  0  0  0
 13 31  1  0  0  0
 14 15  2  0  0  0
 14 95  1  0  0  0
 15 96  1  0  0  0
 16 17  2  0  0  0
 16 21  1  0  0  0
 16 31  1  0  0  0
 17 18  1  0  0  0
 17 97  1  0  0  0
 18 19  2  0  0  0
 18 98  1  0  0  0
 19 20  1  0  0  0
 19 24  1  0  0  0
 20 21  2  0  0  0
 20 99  1  0  0  0
 21 23  1  0  0  0
 22 28  1  0  0  0
 22 32  2  0  0  0
 26 27  1  0  0  0
 28100  1  0  0  0
 28101  1  0  0  0
 29102  1  0  0  0
 29103  1  0  0  0
 33 34  1  0  0  0
 33 66  1  0  0  0
 33 70  2  0  0  0
 34 36  1  0  0  0
 34 59  1  0  0  0
 34104  1  0  0  0
 35 44  2  0  0  0
 35 45  1  0  0  0
 35 68  1  0  0  0
 36 56  1  0  0  0
 36105  1  0  0  0
 37 39  1  0  0  0
 37 47  1  0  0  0
 37 66  1  0  0  0
 37106  1  0  0  0
 38 43  2  0  0  0
 38 46  1  0  0  0
 38 47  1  0  0  0
 39 64  1  0  0  0
 39 67  2  0  0  0
 40 52  1  0  0  0
 40 53  2  0  0  0
 40 58  1  0  0  0
 41107  1  0  0  0
 41108  1  0  0  0
 41109  1  0  0  0
 41 48  1  0  0  0
 42 43  1  0  0  0
 42 66  1  0  0  0
 42110  1  0  0  0
 42111  1  0  0  0
 43 44  1  0  0  0
 44112  1  0  0  0
 45 46  2  0  0  0
 45113  1  0  0  0
 46114  1  0  0  0
 47115  1  0  0  0
 47116  1  0  0  0
 48 56  1  0  0  0
 48 65  1  0  0  0
 48117  1  0  0  0
 49 50  1  0  0  0
 49 53  1  0  0  0
 49 64  1  0  0  0
 49118  1  0  0  0
 50 51  1  0  0  0
 50119  1  0  0  0
 50120  1  0  0  0
 51 52  1  0  0  0
 51121  1  0  0  0
 51122  1  0  0  0
 52123  1  0  0  0
 52124  1  0  0  0
 53 54  1  0  0  0
 54 55  2  0  0  0
 54125  1  0  0  0
 55 57  1  0  0  0
 55126  1  0  0  0
 56 69  2  0  0  0
 57 58  2  0  0  0
 57127  1  0  0  0
 58128  1  0  0  0
 59 60  1  0  0  0
 59 61  1  0  0  0
 59 62  1  0  0  0
 60129  1  0  0  0
 60130  1  0  0  0
 60131  1  0  0  0
 61132  1  0  0  0
 61133  1  0  0  0
 61134  1  0  0  0
 62135  1  0  0  0
 62136  1  0  0  0
 62137  1  0  0  0
 63 65  1  0  0  0
 63138  1  0  0  0
 63139  1  0  0  0
 63140  1  0  0  0
 64141  1  0  0  0
 65142  1  0  0  0
 68 81  1  0  0  0
 71 72  2  0  0  0
 71 74  1  0  0  0
 71143  1  0  0  0
 72 76  1  0  0  0
 72144  1  0  0  0
 73 75  1  0  0  0
 73 76  2  0  0  0
 73145  1  0  0  0
 74 75  2  0  0  0
 74 77  1  0  0  0
 75 78  1  0  0  0
 76 82  1  0  0  0
 77 79  1  0  0  0
 77 83  2  0  0  0
 78146  1  0  0  0
 78147  1  0  0  0
 78148  1  0  0  0
 79 80  1  0  0  0
 79149  1  0  0  0
 79150  1  0  0  0
 80 81  1  0  0  0
 80151  1  0  0  0
 80152  1  0  0  0
 81153  1  0  0  0
 81154  1  0  0  0
 82155  1  0  0  0
M  ISO  4   1 100  68 101  81 101  82 100
M  END
> <chiral flag>
0

> <version>
0

> <s_m_source_file>
/data/baiqing/PycharmProjects/Reinvent-master-3.2/result/LINK_invent/BTK/process_docking_weight1_custom_product_contain_oxygen_bond_distance_aromatic_linkinvent_7_9_3/rearranged_h_0140.sdf

> <i_m_source_file_index>
94

> <r_mmod_Potential_Energy-OPLS-2005>
72.3189315795898

> <r_mmod_Stretch_Energy-OPLS-2005>
74.6097412109375

> <r_mmod_Bend_Energy-OPLS-2005>
130.679046630859

> <r_mmod_Torsional_Energy-OPLS-2005>
243.826629638672

> <r_mmod_Improper_Torsional_Energy-OPLS-2005>
4.30102205276489

> <r_mmod_Van_der_Waal_Energy-OPLS-2005>
151.567749023438

> <r_mmod_Electrostatic_Energy-OPLS-2005>
-349.7041015625

> <r_mmod_Solvation_Energy-OPLS-2005>
-218.950820922852

> <b_mmod_Minimization_Converged-OPLS-2005>
0

> <r_mmod_RMS_Derivative-OPLS-2005>
3.0055046081543

$$$$
94
                    3D
 Structure written by MMmdl.
152161  0  0  1  0            999 V2000
  -30.5679  -14.9702   20.4053 C   0  0  0  0  0  0
  -30.4384  -12.6056   19.4887 C   0  0  0  0  0  0
  -29.5190  -12.5244   18.2494 C   0  0  0  0  0  0
  -28.0560  -12.2942   18.6731 C   0  0  0  0  0  0
  -27.6257  -13.2330   19.8284 C   0  0  2  0  0  0
  -28.6749  -13.2920   20.9620 C   0  0  0  0  0  0
  -25.2402  -13.8136   20.5666 C   0  0  0  0  0  0
  -24.1752  -13.0382   20.9273 C   0  0  0  0  0  0
  -24.6381  -11.6878   20.8805 C   0  0  0  0  0  0
  -23.9065  -10.4262   21.0439 C   0  0  0  0  0  0
  -24.3620   -9.4180   21.9205 C   0  0  0  0  0  0
  -23.6296   -8.2218   22.0762 C   0  0  0  0  0  0
  -22.4275   -8.0269   21.3549 C   0  0  0  0  0  0
  -21.9915   -9.0244   20.4648 C   0  0  0  0  0  0
  -22.7252  -10.2119   20.3070 C   0  0  0  0  0  0
  -21.6844   -6.0733   22.5283 C   0  0  0  0  0  0
  -21.4009   -6.5636   23.8221 C   0  0  0  0  0  0
  -21.3655   -5.6791   24.9182 C   0  0  0  0  0  0
  -21.6043   -4.3052   24.7229 C   0  0  0  0  0  0
  -21.8816   -3.8146   23.4349 C   0  0  0  0  0  0
  -21.9190   -4.6962   22.3408 C   0  0  0  0  0  0
  -22.7776  -13.5174   21.1911 C   0  0  0  0  0  0
  -22.1664   -4.2151   21.0982 F   0  0  0  0  0  0
  -21.5632   -3.4534   25.7743 F   0  0  0  0  0  0
  -29.9417  -13.7193   20.3501 N   0  0  0  0  0  0
  -26.2849  -12.9367   20.3202 N   0  0  0  0  0  0
  -25.9307  -11.6516   20.5770 N   0  0  0  0  0  0
  -22.0400  -12.8187   22.0460 N   0  0  0  0  0  0
  -25.3885  -15.1847   20.3945 N   0  0  0  0  0  0
  -31.7816  -14.9842   20.1671 O   0  0  0  0  0  0
  -21.6628   -6.8874   21.4249 O   0  0  0  0  0  0
  -22.3471  -14.5476   20.6725 O   0  0  0  0  0  0
  -24.6452  -31.8436   23.1889 C   0  0  0  0  0  0
  -25.9219  -32.4693   23.8278 C   0  0  1  0  0  0
  -27.2141  -27.1265   20.1425 C   0  0  0  0  0  0
  -25.5962  -33.8499   24.2189 N   0  0  0  0  0  0
  -23.4494  -30.4644   21.5353 C   0  0  2  0  0  0
  -24.8987  -28.8951   20.1084 C   0  0  0  0  0  0
  -22.7582  -29.4543   22.4857 C   0  0  0  0  0  0
  -18.0305  -28.1399   22.8475 C   0  0  0  0  0  0
  -24.1494  -36.7257   23.2640 C   0  0  0  0  0  0
  -26.0082  -30.7127   21.3919 C   0  0  0  0  0  0
  -26.0783  -29.3249   20.7297 C   0  0  0  0  0  0
  -27.2381  -28.4571   20.7303 C   0  0  0  0  0  0
  -26.0115  -26.8153   19.4667 C   0  0  0  0  0  0
  -24.8791  -27.6536   19.4609 C   0  0  0  0  0  0
  -23.6765  -29.7980   20.1533 C   0  0  0  0  0  0
  -25.4128  -36.3033   24.0310 C   0  0  1  0  0  0
  -20.5923  -28.3731   23.1228 C   0  0  2  0  0  0
  -20.6792  -26.9434   22.5398 C   0  0  0  0  0  0
  -19.5762  -26.6383   21.5211 C   0  0  0  0  0  0
  -18.1946  -26.7935   22.1625 C   0  0  0  0  0  0
  -19.1564  -28.8882   23.2843 C   0  0  0  0  0  0
  -18.9475  -30.1477   23.8873 C   0  0  0  0  0  0
  -17.6472  -30.6596   24.0557 C   0  0  0  0  0  0
  -25.9079  -34.9407   23.5061 C   0  0  0  0  0  0
  -16.5364  -29.9088   23.6337 C   0  0  0  0  0  0
  -16.7290  -28.6507   23.0359 C   0  0  0  0  0  0
  -26.4528  -31.6564   25.0728 C   0  0  0  0  0  0
  -25.3704  -31.3759   26.1415 C   0  0  0  0  0  0
  -27.0388  -30.2952   24.6330 C   0  0  0  0  0  0
  -27.6054  -32.4334   25.7514 C   0  0  0  0  0  0
  -27.5575  -37.1793   24.8467 C   0  0  0  0  0  0
  -21.4273  -29.3053   22.3601 N   0  0  0  0  0  0
  -26.4293  -37.3745   23.9399 N   0  0  0  0  0  0
  -24.7206  -31.0280   22.0933 N   0  0  0  0  0  0
  -23.4220  -28.8092   23.3010 O   0  0  0  0  0  0
  -28.2441  -26.1087   20.2175 O   0  0  0  0  0  0
  -26.5667  -34.8901   22.4641 O   0  0  0  0  0  0
  -23.5566  -32.1316   23.7098 O   0  0  0  0  0  0
  -31.0207  -18.7668   20.1474 C   0  0  0  0  0  0
  -30.5051  -20.1446   20.1493 C   0  0  0  0  0  0
  -28.2311  -19.4050   20.5649 C   0  0  0  0  0  0
  -28.7506  -18.0584   20.5715 C   0  0  0  0  0  0
  -30.1203  -17.6829   20.3671 C   0  0  0  0  0  0
  -29.1160  -20.5429   20.3503 C   0  0  0  0  0  0
  -28.9478  -23.3239   20.2530 C   0  0  0  0  0  0
  -28.3846  -16.5691   20.6896 C   0  0  0  0  0  0
  -26.9604  -24.4147   21.5281 C   0  0  0  0  0  0
  -27.8600  -24.5882   20.2854 C   0  0  1  0  0  0
  -29.8469  -16.2085   20.4796 N   0  0  0  0  0  0
  -28.5272  -21.9662   20.3345 N   0  0  0  0  0  0
  -30.1464  -23.5914   20.1413 O   0  0  0  0  0  0
  -31.4705  -12.7591   19.1700 H   0  0  0  0  0  0
  -30.4374  -11.6614   20.0358 H   0  0  0  0  0  0
  -29.8500  -11.7261   17.5841 H   0  0  0  0  0  0
  -29.5950  -13.4499   17.6770 H   0  0  0  0  0  0
  -27.9645  -11.2551   18.9912 H   0  0  0  0  0  0
  -27.3895  -12.4103   17.8170 H   0  0  0  0  0  0
  -27.5745  -14.2145   19.3663 H   0  0  0  0  0  0
  -28.7807  -12.3218   21.4494 H   0  0  0  0  0  0
  -28.3675  -13.9892   21.7414 H   0  0  0  0  0  0
  -25.2762   -9.5649   22.4784 H   0  0  0  0  0  0
  -24.0000   -7.4596   22.7470 H   0  0  0  0  0  0
  -21.0848   -8.8765   19.8945 H   0  0  0  0  0  0
  -22.3721  -10.9664   19.6176 H   0  0  0  0  0  0
  -21.1999   -7.6146   23.9728 H   0  0  0  0  0  0
  -21.1482   -6.0518   25.9087 H   0  0  0  0  0  0
  -22.0597   -2.7610   23.2849 H   0  0  0  0  0  0
  -22.4012  -11.9867   22.4894 H   0  0  0  0  0  0
  -21.1005  -13.1215   22.2621 H   0  0  0  0  0  0
  -24.5848  -15.8012   20.4529 H   0  0  0  0  0  0
  -26.1626  -15.5979   19.8961 H   0  0  0  0  0  0
  -26.7288  -32.5289   23.1005 H   0  0  0  0  0  0
  -25.0074  -33.9617   25.0312 H   0  0  0  0  0  0
  -22.7533  -31.2913   21.3819 H   0  0  0  0  0  0
  -23.3753  -35.9592   23.3309 H   0  0  0  0  0  0
  -24.3569  -36.8884   22.2052 H   0  0  0  0  0  0
  -23.7254  -37.6458   23.6675 H   0  0  0  0  0  0
  -26.1693  -31.4693   20.6225 H   0  0  0  0  0  0
  -26.8764  -30.7586   22.0375 H   0  0  0  0  0  0
  -28.1347  -28.7798   21.2408 H   0  0  0  0  0  0
  -25.8994  -25.8766   18.9499 H   0  0  0  0  0  0
  -23.9826  -27.3227   18.9550 H   0  0  0  0  0  0
  -23.8155  -30.5743   19.3995 H   0  0  0  0  0  0
  -22.7903  -29.2427   19.8404 H   0  0  0  0  0  0
  -25.1319  -36.1863   25.0802 H   0  0  0  0  0  0
  -21.0012  -28.3317   24.1351 H   0  0  0  0  0  0
  -20.5688  -26.2348   23.3620 H   0  0  0  0  0  0
  -21.6657  -26.7440   22.1195 H   0  0  0  0  0  0
  -19.6927  -25.6287   21.1261 H   0  0  0  0  0  0
  -19.6695  -27.3174   20.6726 H   0  0  0  0  0  0
  -17.4215  -26.6673   21.4035 H   0  0  0  0  0  0
  -18.0351  -26.0085   22.9030 H   0  0  0  0  0  0
  -19.7952  -30.7296   24.2237 H   0  0  0  0  0  0
  -17.5027  -31.6274   24.5163 H   0  0  0  0  0  0
  -15.5367  -30.2983   23.7672 H   0  0  0  0  0  0
  -15.8690  -28.0814   22.7096 H   0  0  0  0  0  0
  -24.5884  -30.7111   25.7724 H   0  0  0  0  0  0
  -24.8892  -32.2943   26.4788 H   0  0  0  0  0  0
  -25.7973  -30.8954   27.0228 H   0  0  0  0  0  0
  -26.3009  -29.6676   24.1320 H   0  0  0  0  0  0
  -27.3958  -29.7251   25.4918 H   0  0  0  0  0  0
  -27.8941  -30.4164   23.9681 H   0  0  0  0  0  0
  -27.2646  -33.3653   26.2036 H   0  0  0  0  0  0
  -28.3896  -32.6867   25.0368 H   0  0  0  0  0  0
  -28.0694  -31.8500   26.5478 H   0  0  0  0  0  0
  -28.2599  -38.0082   24.7495 H   0  0  0  0  0  0
  -28.1066  -36.2612   24.6325 H   0  0  0  0  0  0
  -27.2289  -37.1476   25.8869 H   0  0  0  0  0  0
  -20.9493  -29.8767   21.6773 H   0  0  0  0  0  0
  -26.0161  -38.2816   24.1385 H   0  0  0  0  0  0
  -32.0705  -18.5776   19.9707 H   0  0  0  0  0  0
  -31.2232  -20.9329   19.9744 H   0  0  0  0  0  0
  -27.1727  -19.5623   20.7135 H   0  0  0  0  0  0
  -27.7324  -16.2918   19.8667 H   0  0  0  0  0  0
  -27.9752  -16.3053   21.6649 H   0  0  0  0  0  0
  -26.7154  -23.3718   21.7274 H   0  0  0  0  0  0
  -26.0079  -24.9300   21.4144 H   0  0  0  0  0  0
  -27.4458  -24.8131   22.4186 H   0  0  0  0  0  0
  -27.2635  -24.3732   19.4016 H   0  0  0  0  0  0
  -27.5209  -21.9466   20.4270 H   0  0  0  0  0  0
  1 25  1  0  0  0
  1 30  2  0  0  0
  1 81  1  0  0  0
  2  3  1  0  0  0
  2 25  1  0  0  0
  2 84  1  0  0  0
  2 85  1  0  0  0
  3  4  1  0  0  0
  3 86  1  0  0  0
  3 87  1  0  0  0
  4  5  1  0  0  0
  4 88  1  0  0  0
  4 89  1  0  0  0
  5  6  1  0  0  0
  5 26  1  0  0  0
  5 90  1  0  0  0
  6 25  1  0  0  0
  6 91  1  0  0  0
  6 92  1  0  0  0
  7  8  2  0  0  0
  7 26  1  0  0  0
  7 29  1  0  0  0
  8  9  1  0  0  0
  8 22  1  0  0  0
  9 10  1  0  0  0
  9 27  2  0  0  0
 10 11  2  0  0  0
 10 15  1  0  0  0
 11 12  1  0  0  0
 11 93  1  0  0  0
 12 13  2  0  0  0
 12 94  1  0  0  0
 13 14  1  0  0  0
 13 31  1  0  0  0
 14 15  2  0  0  0
 14 95  1  0  0  0
 15 96  1  0  0  0
 16 17  2  0  0  0
 16 21  1  0  0  0
 16 31  1  0  0  0
 17 18  1  0  0  0
 17 97  1  0  0  0
 18 19  2  0  0  0
 18 98  1  0  0  0
 19 20  1  0  0  0
 19 24  1  0  0  0
 20 21  2  0  0  0
 20 99  1  0  0  0
 21 23  1  0  0  0
 22 28  1  0  0  0
 22 32  2  0  0  0
 26 27  1  0  0  0
 28100  1  0  0  0
 28101  1  0  0  0
 29102  1  0  0  0
 29103  1  0  0  0
 33 34  1  0  0  0
 33 66  1  0  0  0
 33 70  2  0  0  0
 34 36  1  0  0  0
 34 59  1  0  0  0
 34104  1  0  0  0
 35 44  2  0  0  0
 35 45  1  0  0  0
 35 68  1  0  0  0
 36 56  1  0  0  0
 36105  1  0  0  0
 37 39  1  0  0  0
 37 47  1  0  0  0
 37 66  1  0  0  0
 37106  1  0  0  0
 38 43  2  0  0  0
 38 46  1  0  0  0
 38 47  1  0  0  0
 39 64  1  0  0  0
 39 67  2  0  0  0
 40 52  1  0  0  0
 40 53  2  0  0  0
 40 58  1  0  0  0
 41107  1  0  0  0
 41108  1  0  0  0
 41109  1  0  0  0
 41 48  1  0  0  0
 42 43  1  0  0  0
 42 66  1  0  0  0
 42110  1  0  0  0
 42111  1  0  0  0
 43 44  1  0  0  0
 44112  1  0  0  0
 45 46  2  0  0  0
 45113  1  0  0  0
 46114  1  0  0  0
 47115  1  0  0  0
 47116  1  0  0  0
 48 56  1  0  0  0
 48 65  1  0  0  0
 48117  1  0  0  0
 49 50  1  0  0  0
 49 53  1  0  0  0
 49 64  1  0  0  0
 49118  1  0  0  0
 50 51  1  0  0  0
 50119  1  0  0  0
 50120  1  0  0  0
 51 52  1  0  0  0
 51121  1  0  0  0
 51122  1  0  0  0
 52123  1  0  0  0
 52124  1  0  0  0
 53 54  1  0  0  0
 54 55  2  0  0  0
 54125  1  0  0  0
 55 57  1  0  0  0
 55126  1  0  0  0
 56 69  2  0  0  0
 57 58  2  0  0  0
 57127  1  0  0  0
 58128  1  0  0  0
 59 60  1  0  0  0
 59 61  1  0  0  0
 59 62  1  0  0  0
 60129  1  0  0  0
 60130  1  0  0  0
 60131  1  0  0  0
 61132  1  0  0  0
 61133  1  0  0  0
 61134  1  0  0  0
 62135  1  0  0  0
 62136  1  0  0  0
 62137  1  0  0  0
 63 65  1  0  0  0
 63138  1  0  0  0
 63139  1  0  0  0
 63140  1  0  0  0
 64141  1  0  0  0
 65142  1  0  0  0
 68 80  1  0  0  0
 71 72  2  0  0  0
 71 75  1  0  0  0
 71143  1  0  0  0
 72 76  1  0  0  0
 72144  1  0  0  0
 73 74  1  0  0  0
 73 76  2  0  0  0
 73145  1  0  0  0
 74 75  2  0  0  0
 74 78  1  0  0  0
 75 81  1  0  0  0
 76 82  1  0  0  0
 77 80  1  0  0  0
 77 82  1  0  0  0
 77 83  2  0  0  0
 78 81  1  0  0  0
 78146  1  0  0  0
 78147  1  0  0  0
 79148  1  0  0  0
 79149  1  0  0  0
 79150  1  0  0  0
 79 80  1  0  0  0
 80151  1  0  0  0
 82152  1  0  0  0
M  ISO  4   1 100  68 101  80 101  81 100
M  END
> <chiral flag>
0

> <version>
0

> <s_m_source_file>
/data/baiqing/PycharmProjects/Reinvent-master-3.2/result/LINK_invent/BTK/process_docking_weight1_custom_product_contain_oxygen_bond_distance_aromatic_linkinvent_7_9_3/rearranged_h_0140.sdf

> <i_m_source_file_index>
95

> <r_mmod_Potential_Energy-OPLS-2005>
976.289245605469

> <r_mmod_Stretch_Energy-OPLS-2005>
251.156753540039

> <r_mmod_Bend_Energy-OPLS-2005>
689.114929199219

> <r_mmod_Torsional_Energy-OPLS-2005>
273.643127441406

> <r_mmod_Improper_Torsional_Energy-OPLS-2005>
6.50361156463623

> <r_mmod_Van_der_Waal_Energy-OPLS-2005>
128.522155761719

> <r_mmod_Electrostatic_Energy-OPLS-2005>
-346.114288330078

> <r_mmod_Solvation_Energy-OPLS-2005>
-233.773971557617

> <b_mmod_Minimization_Converged-OPLS-2005>
0

> <r_mmod_RMS_Derivative-OPLS-2005>
1.25957369804382

$$$$
95
                    3D
 Structure written by MMmdl.
162170  0  0  1  0            999 V2000
  -30.6312  -14.6844   20.4620 C   0  0  0  0  0  0
  -30.4381  -12.4110   19.4647 C   0  0  0  0  0  0
  -29.5169  -12.4701   18.2282 C   0  0  0  0  0  0
  -28.0461  -12.2930   18.6535 C   0  0  0  0  0  0
  -27.6489  -13.2128   19.8427 C   0  0  2  0  0  0
  -28.6941  -13.1509   20.9767 C   0  0  0  0  0  0
  -25.2603  -13.8175   20.5694 C   0  0  0  0  0  0
  -24.1850  -13.0434   20.9199 C   0  0  0  0  0  0
  -24.6416  -11.6905   20.8722 C   0  0  0  0  0  0
  -23.9090  -10.4289   21.0405 C   0  0  0  0  0  0
  -24.3645   -9.4212   21.9185 C   0  0  0  0  0  0
  -23.6308   -8.2255   22.0757 C   0  0  0  0  0  0
  -22.4287   -8.0295   21.3560 C   0  0  0  0  0  0
  -21.9931   -9.0271   20.4667 C   0  0  0  0  0  0
  -22.7264  -10.2147   20.3062 C   0  0  0  0  0  0
  -21.6854   -6.0753   22.5291 C   0  0  0  0  0  0
  -21.4008   -6.5656   23.8223 C   0  0  0  0  0  0
  -21.3653   -5.6807   24.9184 C   0  0  0  0  0  0
  -21.6029   -4.3069   24.7241 C   0  0  0  0  0  0
  -21.8825   -3.8165   23.4360 C   0  0  0  0  0  0
  -21.9192   -4.6975   22.3414 C   0  0  0  0  0  0
  -22.7884  -13.5235   21.1882 C   0  0  0  0  0  0
  -22.1663   -4.2154   21.0990 F   0  0  0  0  0  0
  -21.5614   -3.4558   25.7759 F   0  0  0  0  0  0
  -29.9937  -13.4767   20.3829 N   0  0  0  0  0  0
  -26.2994  -12.9321   20.3239 N   0  0  0  0  0  0
  -25.9334  -11.6493   20.5734 N   0  0  0  0  0  0
  -22.0556  -12.8177   22.0439 N   0  0  0  0  0  0
  -25.4370  -15.1894   20.4195 N   0  0  0  0  0  0
  -31.8462  -14.7565   20.2680 O   0  0  0  0  0  0
  -21.6645   -6.8893   21.4250 O   0  0  0  0  0  0
  -22.3566  -14.5556   20.6765 O   0  0  0  0  0  0
  -24.6266  -31.8616   23.2038 C   0  0  0  0  0  0
  -25.9110  -32.4803   23.8373 C   0  0  1  0  0  0
  -27.2028  -27.3111   20.0943 C   0  0  0  0  0  0
  -25.5912  -33.8605   24.2297 N   0  0  0  0  0  0
  -23.4216  -30.4884   21.5465 C   0  0  2  0  0  0
  -24.8613  -28.9435   20.1064 C   0  0  0  0  0  0
  -22.7470  -29.4679   22.4926 C   0  0  0  0  0  0
  -18.0305  -28.1372   22.8508 C   0  0  0  0  0  0
  -24.1488  -36.7290   23.2645 C   0  0  0  0  0  0
  -25.9654  -30.7838   21.3783 C   0  0  0  0  0  0
  -26.0327  -29.4114   20.7164 C   0  0  0  0  0  0
  -27.2109  -28.6048   20.7044 C   0  0  0  0  0  0
  -26.0136  -26.9010   19.4558 C   0  0  0  0  0  0
  -24.8530  -27.6941   19.4692 C   0  0  0  0  0  0
  -23.6339  -29.8299   20.1603 C   0  0  0  0  0  0
  -25.4114  -36.3108   24.0341 C   0  0  1  0  0  0
  -20.5911  -28.3739   23.1265 C   0  0  2  0  0  0
  -20.6813  -26.9483   22.5326 C   0  0  0  0  0  0
  -19.5762  -26.6419   21.5174 C   0  0  0  0  0  0
  -18.1957  -26.7922   22.1634 C   0  0  0  0  0  0
  -19.1550  -28.8872   23.2884 C   0  0  0  0  0  0
  -18.9458  -30.1483   23.8857 C   0  0  0  0  0  0
  -17.6450  -30.6600   24.0538 C   0  0  0  0  0  0
  -25.9043  -34.9465   23.5121 C   0  0  0  0  0  0
  -16.5339  -29.9076   23.6330 C   0  0  0  0  0  0
  -16.7286  -28.6490   23.0374 C   0  0  0  0  0  0
  -26.4470  -31.6613   25.0749 C   0  0  0  0  0  0
  -25.3679  -31.3739   26.1464 C   0  0  0  0  0  0
  -27.0306  -30.3043   24.6196 C   0  0  0  0  0  0
  -27.6067  -32.4312   25.7495 C   0  0  0  0  0  0
  -27.5581  -37.1802   24.8469 C   0  0  0  0  0  0
  -21.4185  -29.3097   22.3652 N   0  0  0  0  0  0
  -26.4294  -37.3793   23.9407 N   0  0  0  0  0  0
  -24.6901  -31.0614   22.0992 N   0  0  0  0  0  0
  -23.4196  -28.8206   23.3000 O   0  0  0  0  0  0
  -28.2923  -26.4294   20.0927 O   0  0  0  0  0  0
  -26.5638  -34.8928   22.4701 O   0  0  0  0  0  0
  -23.5406  -32.1418   23.7354 O   0  0  0  0  0  0
  -29.5184  -18.3108   20.1748 C   0  0  0  0  0  0
  -28.3235  -19.3144   22.0213 C   0  0  0  0  0  0
  -28.8907  -16.9208   22.0778 C   0  0  0  0  0  0
  -28.9607  -19.5095   20.7704 C   0  0  0  0  0  0
  -29.4851  -17.0025   20.8009 C   0  0  0  0  0  0
  -28.3060  -18.0590   22.6683 C   0  0  0  0  0  0
  -28.1063  -23.6549   18.4551 C   0  0  0  0  0  0
  -29.1686  -22.5206   22.0576 C   0  0  0  0  0  0
  -26.9036  -22.1077   20.9665 C   0  0  0  0  0  0
  -29.0238  -20.9426   20.0603 C   0  0  0  0  0  0
  -28.0347  -25.0583   20.6050 C   0  0  0  0  0  0
  -28.6186  -23.7230   19.9096 C   0  0  1  0  0  0
  -28.4236  -22.3104   20.7154 C   0  0  0  0  0  0
  -29.8793  -15.7779   20.0985 N   0  0  0  0  0  0
  -27.6880  -17.9412   23.8688 F   0  0  0  0  0  0
  -31.4819  -12.5177   19.1647 H   0  0  0  0  0  0
  -30.3629  -11.4371   19.9495 H   0  0  0  0  0  0
  -29.7982  -11.6895   17.5204 H   0  0  0  0  0  0
  -29.6465  -13.4186   17.7058 H   0  0  0  0  0  0
  -27.9259  -11.2501   18.9491 H   0  0  0  0  0  0
  -27.3795  -12.4431   17.8035 H   0  0  0  0  0  0
  -27.6471  -14.2302   19.4553 H   0  0  0  0  0  0
  -28.7228  -12.1652   21.4412 H   0  0  0  0  0  0
  -28.4390  -13.8562   21.7666 H   0  0  0  0  0  0
  -25.2805   -9.5663   22.4746 H   0  0  0  0  0  0
  -24.0018   -7.4647   22.7472 H   0  0  0  0  0  0
  -21.0864   -8.8816   19.8978 H   0  0  0  0  0  0
  -22.3754  -10.9691   19.6168 H   0  0  0  0  0  0
  -21.1999   -7.6166   23.9720 H   0  0  0  0  0  0
  -21.1455   -6.0543   25.9083 H   0  0  0  0  0  0
  -22.0604   -2.7623   23.2870 H   0  0  0  0  0  0
  -22.4205  -11.9799   22.4714 H   0  0  0  0  0  0
  -21.1194  -13.1177   22.2712 H   0  0  0  0  0  0
  -24.6884  -15.8548   20.5771 H   0  0  0  0  0  0
  -26.3095  -15.6322   20.1531 H   0  0  0  0  0  0
  -26.7195  -32.5467   23.1135 H   0  0  0  0  0  0
  -25.0007  -33.9742   25.0412 H   0  0  0  0  0  0
  -22.7176  -31.3109   21.4050 H   0  0  0  0  0  0
  -23.3755  -35.9613   23.3307 H   0  0  0  0  0  0
  -24.3576  -36.8896   22.2056 H   0  0  0  0  0  0
  -23.7221  -37.6486   23.6650 H   0  0  0  0  0  0
  -26.1029  -31.5439   20.6082 H   0  0  0  0  0  0
  -26.8466  -30.8296   22.0085 H   0  0  0  0  0  0
  -28.1106  -28.9537   21.1931 H   0  0  0  0  0  0
  -25.9712  -25.9467   18.9480 H   0  0  0  0  0  0
  -23.9569  -27.3341   18.9827 H   0  0  0  0  0  0
  -23.7605  -30.6088   19.4067 H   0  0  0  0  0  0
  -22.7512  -29.2674   19.8549 H   0  0  0  0  0  0
  -25.1289  -36.1967   25.0828 H   0  0  0  0  0  0
  -21.0012  -28.3289   24.1379 H   0  0  0  0  0  0
  -20.5807  -26.2358   23.3536 H   0  0  0  0  0  0
  -21.6673  -26.7584   22.1052 H   0  0  0  0  0  0
  -19.6915  -25.6341   21.1176 H   0  0  0  0  0  0
  -19.6643  -27.3286   20.6738 H   0  0  0  0  0  0
  -17.4201  -26.6707   21.4060 H   0  0  0  0  0  0
  -18.0412  -26.0048   22.9017 H   0  0  0  0  0  0
  -19.7916  -30.7344   24.2229 H   0  0  0  0  0  0
  -17.4972  -31.6285   24.5102 H   0  0  0  0  0  0
  -15.5338  -30.2959   23.7664 H   0  0  0  0  0  0
  -15.8676  -28.0796   22.7101 H   0  0  0  0  0  0
  -24.5870  -30.7089   25.7760 H   0  0  0  0  0  0
  -24.8842  -32.2888   26.4878 H   0  0  0  0  0  0
  -25.7963  -30.8907   27.0254 H   0  0  0  0  0  0
  -26.2888  -29.6815   24.1183 H   0  0  0  0  0  0
  -27.3980  -29.7279   25.4692 H   0  0  0  0  0  0
  -27.8768  -30.4354   23.9457 H   0  0  0  0  0  0
  -27.2753  -33.3625   26.2088 H   0  0  0  0  0  0
  -28.3856  -32.6823   25.0293 H   0  0  0  0  0  0
  -28.0765  -31.8414   26.5374 H   0  0  0  0  0  0
  -28.2613  -38.0090   24.7521 H   0  0  0  0  0  0
  -28.1070  -36.2616   24.6294 H   0  0  0  0  0  0
  -27.2303  -37.1466   25.8879 H   0  0  0  0  0  0
  -20.9364  -29.8776   21.6836 H   0  0  0  0  0  0
  -26.0179  -38.2868   24.1403 H   0  0  0  0  0  0
  -29.9652  -18.3976   19.1953 H   0  0  0  0  0  0
  -27.8154  -20.1224   22.5234 H   0  0  0  0  0  0
  -28.8180  -15.9778   22.5980 H   0  0  0  0  0  0
  -28.3933  -24.5546   17.9077 H   0  0  0  0  0  0
  -27.0203  -23.5903   18.3945 H   0  0  0  0  0  0
  -28.5227  -22.8068   17.9131 H   0  0  0  0  0  0
  -29.2341  -21.6373   22.6825 H   0  0  0  0  0  0
  -28.7027  -23.2815   22.6805 H   0  0  0  0  0  0
  -30.1987  -22.8288   21.8795 H   0  0  0  0  0  0
  -26.6109  -22.3606   21.9855 H   0  0  0  0  0  0
  -26.5818  -21.0822   20.7848 H   0  0  0  0  0  0
  -26.2823  -22.7185   20.3152 H   0  0  0  0  0  0
  -28.5692  -20.8045   19.0785 H   0  0  0  0  0  0
  -30.0796  -21.1189   19.8539 H   0  0  0  0  0  0
  -28.4329  -25.1145   21.6148 H   0  0  0  0  0  0
  -26.9652  -24.9111   20.7489 H   0  0  0  0  0  0
  -29.6929  -23.8860   19.8230 H   0  0  0  0  0  0
  -30.0438  -15.9539   19.1194 H   0  0  0  0  0  0
  1 25  1  0  0  0
  1 30  2  0  0  0
  1 84  1  0  0  0
  2  3  1  0  0  0
  2 25  1  0  0  0
  2 86  1  0  0  0
  2 87  1  0  0  0
  3  4  1  0  0  0
  3 88  1  0  0  0
  3 89  1  0  0  0
  4  5  1  0  0  0
  4 90  1  0  0  0
  4 91  1  0  0  0
  5  6  1  0  0  0
  5 26  1  0  0  0
  5 92  1  0  0  0
  6 25  1  0  0  0
  6 93  1  0  0  0
  6 94  1  0  0  0
  7  8  2  0  0  0
  7 26  1  0  0  0
  7 29  1  0  0  0
  8  9  1  0  0  0
  8 22  1  0  0  0
  9 10  1  0  0  0
  9 27  2  0  0  0
 10 11  2  0  0  0
 10 15  1  0  0  0
 11 12  1  0  0  0
 11 95  1  0  0  0
 12 13  2  0  0  0
 12 96  1  0  0  0
 13 14  1  0  0  0
 13 31  1  0  0  0
 14 15  2  0  0  0
 14 97  1  0  0  0
 15 98  1  0  0  0
 16 17  2  0  0  0
 16 21  1  0  0  0
 16 31  1  0  0  0
 17 18  1  0  0  0
 17 99  1  0  0  0
 18 19  2  0  0  0
 18100  1  0  0  0
 19 20  1  0  0  0
 19 24  1  0  0  0
 20 21  2  0  0  0
 20101  1  0  0  0
 21 23  1  0  0  0
 22 28  1  0  0  0
 22 32  2  0  0  0
 26 27  1  0  0  0
 28102  1  0  0  0
 28103  1  0  0  0
 29104  1  0  0  0
 29105  1  0  0  0
 33 34  1  0  0  0
 33 66  1  0  0  0
 33 70  2  0  0  0
 34 36  1  0  0  0
 34 59  1  0  0  0
 34106  1  0  0  0
 35 44  2  0  0  0
 35 45  1  0  0  0
 35 68  1  0  0  0
 36 56  1  0  0  0
 36107  1  0  0  0
 37 39  1  0  0  0
 37 47  1  0  0  0
 37 66  1  0  0  0
 37108  1  0  0  0
 38 43  2  0  0  0
 38 46  1  0  0  0
 38 47  1  0  0  0
 39 64  1  0  0  0
 39 67  2  0  0  0
 40 52  1  0  0  0
 40 53  2  0  0  0
 40 58  1  0  0  0
 41109  1  0  0  0
 41110  1  0  0  0
 41111  1  0  0  0
 41 48  1  0  0  0
 42 43  1  0  0  0
 42 66  1  0  0  0
 42112  1  0  0  0
 42113  1  0  0  0
 43 44  1  0  0  0
 44114  1  0  0  0
 45 46  2  0  0  0
 45115  1  0  0  0
 46116  1  0  0  0
 47117  1  0  0  0
 47118  1  0  0  0
 48 56  1  0  0  0
 48 65  1  0  0  0
 48119  1  0  0  0
 49 50  1  0  0  0
 49 53  1  0  0  0
 49 64  1  0  0  0
 49120  1  0  0  0
 50 51  1  0  0  0
 50121  1  0  0  0
 50122  1  0  0  0
 51 52  1  0  0  0
 51123  1  0  0  0
 51124  1  0  0  0
 52125  1  0  0  0
 52126  1  0  0  0
 53 54  1  0  0  0
 54 55  2  0  0  0
 54127  1  0  0  0
 55 57  1  0  0  0
 55128  1  0  0  0
 56 69  2  0  0  0
 57 58  2  0  0  0
 57129  1  0  0  0
 58130  1  0  0  0
 59 60  1  0  0  0
 59 61  1  0  0  0
 59 62  1  0  0  0
 60131  1  0  0  0
 60132  1  0  0  0
 60133  1  0  0  0
 61134  1  0  0  0
 61135  1  0  0  0
 61136  1  0  0  0
 62137  1  0  0  0
 62138  1  0  0  0
 62139  1  0  0  0
 63 65  1  0  0  0
 63140  1  0  0  0
 63141  1  0  0  0
 63142  1  0  0  0
 64143  1  0  0  0
 65144  1  0  0  0
 68 81  1  0  0  0
 71 74  2  0  0  0
 71 75  1  0  0  0
 71145  1  0  0  0
 72 74  1  0  0  0
 72 76  2  0  0  0
 72146  1  0  0  0
 73 75  2  0  0  0
 73 76  1  0  0  0
 73147  1  0  0  0
 74 80  1  0  0  0
 75 84  1  0  0  0
 76 85  1  0  0  0
 77148  1  0  0  0
 77149  1  0  0  0
 77150  1  0  0  0
 77 82  1  0  0  0
 78151  1  0  0  0
 78152  1  0  0  0
 78153  1  0  0  0
 78 83  1  0  0  0
 79 83  1  0  0  0
 79154  1  0  0  0
 79155  1  0  0  0
 79156  1  0  0  0
 80 83  1  0  0  0
 80157  1  0  0  0
 80158  1  0  0  0
 81 82  1  0  0  0
 81159  1  0  0  0
 81160  1  0  0  0
 82 83  1  0  0  0
 82161  1  0  0  0
 84162  1  0  0  0
M  ISO  4   1 100  68 101  81 101  84 100
M  END
> <chiral flag>
0

> <version>
0

> <s_m_source_file>
/data/baiqing/PycharmProjects/Reinvent-master-3.2/result/LINK_invent/BTK/process_docking_weight1_custom_product_contain_oxygen_bond_distance_aromatic_linkinvent_7_9_3/rearranged_h_0140.sdf

> <i_m_source_file_index>
96

> <r_mmod_Potential_Energy-OPLS-2005>
294.805541992188

> <r_mmod_Stretch_Energy-OPLS-2005>
110.141731262207

> <r_mmod_Bend_Energy-OPLS-2005>
169.775238037109

> <r_mmod_Torsional_Energy-OPLS-2005>
318.950500488281

> <r_mmod_Improper_Torsional_Energy-OPLS-2005>
26.9934501647949

> <r_mmod_Van_der_Waal_Energy-OPLS-2005>
142.442687988281

> <r_mmod_Electrostatic_Energy-OPLS-2005>
-355.768951416016

> <r_mmod_Solvation_Energy-OPLS-2005>
-185.902481079102

> <b_mmod_Minimization_Converged-OPLS-2005>
0

> <r_mmod_RMS_Derivative-OPLS-2005>
3.94918942451477

$$$$
96
                    3D
 Structure written by MMmdl.
178187  0  0  1  0            999 V2000
  -30.7781  -14.3500   20.6896 C   0  0  0  0  0  0
  -30.4053  -12.2859   19.3820 C   0  0  0  0  0  0
  -29.4731  -12.5372   18.1833 C   0  0  0  0  0  0
  -27.9988  -12.3896   18.6040 C   0  0  0  0  0  0
  -27.6621  -13.2046   19.8797 C   0  0  2  0  0  0
  -28.7030  -12.9386   20.9900 C   0  0  0  0  0  0
  -25.2561  -13.8150   20.5684 C   0  0  0  0  0  0
  -24.1816  -13.0436   20.9171 C   0  0  0  0  0  0
  -24.6367  -11.6895   20.8719 C   0  0  0  0  0  0
  -23.9034  -10.4285   21.0389 C   0  0  0  0  0  0
  -24.3589   -9.4204   21.9174 C   0  0  0  0  0  0
  -23.6274   -8.2236   22.0747 C   0  0  0  0  0  0
  -22.4260   -8.0256   21.3537 C   0  0  0  0  0  0
  -21.9887   -9.0229   20.4641 C   0  0  0  0  0  0
  -22.7203  -10.2117   20.3047 C   0  0  0  0  0  0
  -21.6849   -6.0714   22.5272 C   0  0  0  0  0  0
  -21.4016   -6.5628   23.8201 C   0  0  0  0  0  0
  -21.3669   -5.6788   24.9170 C   0  0  0  0  0  0
  -21.6048   -4.3046   24.7230 C   0  0  0  0  0  0
  -21.8817   -3.8132   23.4349 C   0  0  0  0  0  0
  -21.9187   -4.6944   22.3400 C   0  0  0  0  0  0
  -22.7835  -13.5206   21.1850 C   0  0  0  0  0  0
  -22.1657   -4.2127   21.0983 F   0  0  0  0  0  0
  -21.5634   -3.4535   25.7748 F   0  0  0  0  0  0
  -30.0436  -13.2333   20.4473 N   0  0  0  0  0  0
  -26.3016  -12.9335   20.3391 N   0  0  0  0  0  0
  -25.9292  -11.6490   20.5753 N   0  0  0  0  0  0
  -22.0498  -12.8207   22.0423 N   0  0  0  0  0  0
  -25.4255  -15.1881   20.4092 N   0  0  0  0  0  0
  -31.8059  -14.6272   20.0654 O   0  0  0  0  0  0
  -21.6631   -6.8850   21.4229 O   0  0  0  0  0  0
  -22.3523  -14.5525   20.6705 O   0  0  0  0  0  0
  -24.6172  -31.8683   23.2100 C   0  0  0  0  0  0
  -25.9060  -32.4822   23.8437 C   0  0  1  0  0  0
  -27.2353  -27.4107   20.1323 C   0  0  0  0  0  0
  -25.5886  -33.8618   24.2341 N   0  0  0  0  0  0
  -23.4131  -30.4859   21.5472 C   0  0  2  0  0  0
  -24.8681  -28.9572   20.1070 C   0  0  0  0  0  0
  -22.7473  -29.4603   22.4955 C   0  0  0  0  0  0
  -18.0262  -28.1362   22.8463 C   0  0  0  0  0  0
  -24.1510  -36.7333   23.2659 C   0  0  0  0  0  0
  -25.9443  -30.8286   21.3707 C   0  0  0  0  0  0
  -26.0256  -29.4598   20.7222 C   0  0  0  0  0  0
  -27.2152  -28.6914   20.7358 C   0  0  0  0  0  0
  -26.0794  -26.9450   19.4730 C   0  0  0  0  0  0
  -24.8912  -27.7008   19.4726 C   0  0  0  0  0  0
  -23.6296  -29.8249   20.1595 C   0  0  0  0  0  0
  -25.4113  -36.3097   24.0340 C   0  0  1  0  0  0
  -20.5869  -28.3645   23.1284 C   0  0  2  0  0  0
  -20.6747  -26.9365   22.5400 C   0  0  0  0  0  0
  -19.5714  -26.6354   21.5200 C   0  0  0  0  0  0
  -18.1886  -26.7897   22.1602 C   0  0  0  0  0  0
  -19.1515  -28.8820   23.2858 C   0  0  0  0  0  0
  -18.9455  -30.1419   23.8882 C   0  0  0  0  0  0
  -17.6457  -30.6561   24.0532 C   0  0  0  0  0  0
  -25.9054  -34.9465   23.5136 C   0  0  0  0  0  0
  -16.5347  -29.9070   23.6310 C   0  0  0  0  0  0
  -16.7255  -28.6490   23.0336 C   0  0  0  0  0  0
  -26.4470  -31.6613   25.0791 C   0  0  0  0  0  0
  -25.3722  -31.3717   26.1546 C   0  0  0  0  0  0
  -27.0331  -30.3082   24.6127 C   0  0  0  0  0  0
  -27.6030  -32.4389   25.7556 C   0  0  0  0  0  0
  -27.5570  -37.1812   24.8460 C   0  0  0  0  0  0
  -21.4184  -29.3042   22.3734 N   0  0  0  0  0  0
  -26.4307  -37.3778   23.9401 N   0  0  0  0  0  0
  -24.6769  -31.0774   22.1005 N   0  0  0  0  0  0
  -23.4248  -28.8087   23.2959 O   0  0  0  0  0  0
  -28.3488  -26.6004   20.1264 O   0  0  0  0  0  0
  -26.5616  -34.8905   22.4693 O   0  0  0  0  0  0
  -23.5359  -32.1457   23.7464 O   0  0  0  0  0  0
  -32.9226  -17.2622   23.3236 C   0  0  0  0  0  0
  -32.3384  -16.2271   22.5671 C   0  0  0  0  0  0
  -30.1427  -17.2118   22.9173 C   0  0  0  0  0  0
  -32.1213  -18.2757   23.8895 C   0  0  0  0  0  0
  -30.7224  -18.2430   23.6881 C   0  0  0  0  0  0
  -30.9406  -16.1984   22.3510 C   0  0  0  0  0  0
  -27.9571  -23.6206   20.8158 C   0  0  0  0  0  0
  -27.8991  -22.2848   21.5948 C   0  0  0  0  0  0
  -28.7978  -23.9737   23.0009 C   0  0  0  0  0  0
  -28.0385  -24.7382   21.8773 C   0  0  2  0  0  0
  -32.7718  -19.3669   24.7248 C   0  0  0  0  0  0
  -26.6280  -25.0994   22.4023 C   0  0  0  0  0  0
  -29.1121  -22.1895   25.3066 C   0  0  0  0  0  0
  -27.2556  -20.8100   24.3975 C   0  0  0  0  0  0
  -29.8071  -19.2716   24.3252 C   0  0  0  0  0  0
  -28.7800  -26.0360   21.3851 C   0  0  0  0  0  0
  -29.5901  -20.5298   23.4464 C   0  0  0  0  0  0
  -28.5537  -21.5581   24.0078 C   0  0  0  0  0  0
  -30.2867  -15.1450   21.6540 N   0  0  0  0  0  0
  -28.1584  -22.6305   23.0156 N   0  3  2  0  0  0
  -31.4501  -12.3717   19.0774 H   0  0  0  0  0  0
  -30.2871  -11.2624   19.7419 H   0  0  0  0  0  0
  -29.7014  -11.8473   17.3705 H   0  0  0  0  0  0
  -29.6423  -13.5405   17.7880 H   0  0  0  0  0  0
  -27.8017  -11.3307   18.7761 H   0  0  0  0  0  0
  -27.3426  -12.6892   17.7867 H   0  0  0  0  0  0
  -27.7200  -14.2597   19.6128 H   0  0  0  0  0  0
  -28.6634  -11.8928   21.2971 H   0  0  0  0  0  0
  -28.4514  -13.5055   21.8866 H   0  0  0  0  0  0
  -25.2730   -9.5687   22.4750 H   0  0  0  0  0  0
  -23.9978   -7.4631   22.7474 H   0  0  0  0  0  0
  -21.0810   -8.8731   19.8955 H   0  0  0  0  0  0
  -22.3633  -10.9648   19.6157 H   0  0  0  0  0  0
  -21.2014   -7.6137   23.9697 H   0  0  0  0  0  0
  -21.1505   -6.0524   25.9072 H   0  0  0  0  0  0
  -22.0592   -2.7589   23.2859 H   0  0  0  0  0  0
  -22.4122  -11.9847   22.4778 H   0  0  0  0  0  0
  -21.1129  -13.1235   22.2677 H   0  0  0  0  0  0
  -24.6520  -15.8372   20.5020 H   0  0  0  0  0  0
  -26.2801  -15.6329   20.0993 H   0  0  0  0  0  0
  -26.7136  -32.5575   23.1228 H   0  0  0  0  0  0
  -24.9962  -33.9773   25.0420 H   0  0  0  0  0  0
  -22.7038  -31.3023   21.4051 H   0  0  0  0  0  0
  -23.3736  -35.9718   23.3341 H   0  0  0  0  0  0
  -24.3595  -36.8970   22.2078 H   0  0  0  0  0  0
  -23.7291  -37.6547   23.6688 H   0  0  0  0  0  0
  -26.0631  -31.5972   20.6049 H   0  0  0  0  0  0
  -26.8269  -30.8810   21.9940 H   0  0  0  0  0  0
  -28.1121  -29.0679   21.2080 H   0  0  0  0  0  0
  -26.0938  -25.9765   18.9879 H   0  0  0  0  0  0
  -24.0068  -27.3221   18.9808 H   0  0  0  0  0  0
  -23.7411  -30.6089   19.4093 H   0  0  0  0  0  0
  -22.7548  -29.2521   19.8504 H   0  0  0  0  0  0
  -25.1278  -36.1979   25.0830 H   0  0  0  0  0  0
  -20.9927  -28.3189   24.1408 H   0  0  0  0  0  0
  -20.5684  -26.2220   23.3586 H   0  0  0  0  0  0
  -21.6597  -26.7408   22.1137 H   0  0  0  0  0  0
  -19.6892  -25.6267   21.1217 H   0  0  0  0  0  0
  -19.6666  -27.3176   20.6732 H   0  0  0  0  0  0
  -17.4162  -26.6652   21.4001 H   0  0  0  0  0  0
  -18.0245  -26.0067   22.9011 H   0  0  0  0  0  0
  -19.7959  -30.7173   24.2291 H   0  0  0  0  0  0
  -17.5045  -31.6261   24.5102 H   0  0  0  0  0  0
  -15.5348  -30.2957   23.7673 H   0  0  0  0  0  0
  -15.8645  -28.0799   22.7075 H   0  0  0  0  0  0
  -24.5836  -30.7139   25.7875 H   0  0  0  0  0  0
  -24.8972  -32.2902   26.5051 H   0  0  0  0  0  0
  -25.8079  -30.8840   27.0270 H   0  0  0  0  0  0
  -26.2901  -29.6843   24.1178 H   0  0  0  0  0  0
  -27.4126  -29.7316   25.4557 H   0  0  0  0  0  0
  -27.8705  -30.4447   23.9278 H   0  0  0  0  0  0
  -27.2594  -33.3672   26.2117 H   0  0  0  0  0  0
  -28.3815  -32.6990   25.0372 H   0  0  0  0  0  0
  -28.0711  -31.8557   26.5474 H   0  0  0  0  0  0
  -28.2547  -38.0153   24.7482 H   0  0  0  0  0  0
  -28.1096  -36.2651   24.6309 H   0  0  0  0  0  0
  -27.2279  -37.1482   25.8870 H   0  0  0  0  0  0
  -20.9379  -29.8941   21.7081 H   0  0  0  0  0  0
  -26.0198  -38.2856   24.1406 H   0  0  0  0  0  0
  -33.9920  -17.2643   23.4834 H   0  0  0  0  0  0
  -32.9774  -15.4488   22.1754 H   0  0  0  0  0  0
  -29.0709  -17.1965   22.7725 H   0  0  0  0  0  0
  -27.1230  -23.7376   20.1227 H   0  0  0  0  0  0
  -28.8663  -23.6226   20.2130 H   0  0  0  0  0  0
  -28.6447  -21.6193   21.1659 H   0  0  0  0  0  0
  -26.9276  -21.7957   21.5056 H   0  0  0  0  0  0
  -28.7273  -24.4834   23.9624 H   0  0  0  0  0  0
  -29.8595  -23.8682   22.7722 H   0  0  0  0  0  0
  -32.4814  -20.3547   24.3649 H   0  0  0  0  0  0
  -33.8595  -19.3087   24.6874 H   0  0  0  0  0  0
  -32.4682  -19.2799   25.7698 H   0  0  0  0  0  0
  -26.0652  -24.2284   22.7425 H   0  0  0  0  0  0
  -26.0069  -25.5635   21.6453 H   0  0  0  0  0  0
  -26.6898  -25.7860   23.2448 H   0  0  0  0  0  0
  -29.2875  -21.4434   26.0831 H   0  0  0  0  0  0
  -28.4100  -22.9057   25.7338 H   0  0  0  0  0  0
  -30.0596  -22.6994   25.1394 H   0  0  0  0  0  0
  -27.4046  -20.1213   25.2294 H   0  0  0  0  0  0
  -26.8587  -20.2261   23.5666 H   0  0  0  0  0  0
  -26.4768  -21.4958   24.7316 H   0  0  0  0  0  0
  -30.1665  -19.5261   25.3214 H   0  0  0  0  0  0
  -28.8668  -18.7488   24.4852 H   0  0  0  0  0  0
  -29.8347  -25.7976   21.2453 H   0  0  0  0  0  0
  -28.7687  -26.8006   22.1636 H   0  0  0  0  0  0
  -29.2726  -20.1435   22.4803 H   0  0  0  0  0  0
  -30.5452  -21.0282   23.2744 H   0  0  0  0  0  0
  -29.3545  -14.9139   21.9617 H   0  0  0  0  0  0
  -27.2383  -22.8756   23.3460 H   0  0  0  0  0  0
  1 25  1  0  0  0
  1 30  2  0  0  0
  1 89  1  0  0  0
  2  3  1  0  0  0
  2 25  1  0  0  0
  2 91  1  0  0  0
  2 92  1  0  0  0
  3  4  1  0  0  0
  3 93  1  0  0  0
  3 94  1  0  0  0
  4  5  1  0  0  0
  4 95  1  0  0  0
  4 96  1  0  0  0
  5  6  1  0  0  0
  5 26  1  0  0  0
  5 97  1  0  0  0
  6 25  1  0  0  0
  6 98  1  0  0  0
  6 99  1  0  0  0
  7  8  2  0  0  0
  7 26  1  0  0  0
  7 29  1  0  0  0
  8  9  1  0  0  0
  8 22  1  0  0  0
  9 10  1  0  0  0
  9 27  2  0  0  0
 10 11  2  0  0  0
 10 15  1  0  0  0
 11 12  1  0  0  0
 11100  1  0  0  0
 12 13  2  0  0  0
 12101  1  0  0  0
 13 14  1  0  0  0
 13 31  1  0  0  0
 14 15  2  0  0  0
 14102  1  0  0  0
 15103  1  0  0  0
 16 17  2  0  0  0
 16 21  1  0  0  0
 16 31  1  0  0  0
 17 18  1  0  0  0
 17104  1  0  0  0
 18 19  2  0  0  0
 18105  1  0  0  0
 19 20  1  0  0  0
 19 24  1  0  0  0
 20 21  2  0  0  0
 20106  1  0  0  0
 21 23  1  0  0  0
 22 28  1  0  0  0
 22 32  2  0  0  0
 26 27  1  0  0  0
 28107  1  0  0  0
 28108  1  0  0  0
 29109  1  0  0  0
 29110  1  0  0  0
 33 34  1  0  0  0
 33 66  1  0  0  0
 33 70  2  0  0  0
 34 36  1  0  0  0
 34 59  1  0  0  0
 34111  1  0  0  0
 35 44  2  0  0  0
 35 45  1  0  0  0
 35 68  1  0  0  0
 36 56  1  0  0  0
 36112  1  0  0  0
 37 39  1  0  0  0
 37 47  1  0  0  0
 37 66  1  0  0  0
 37113  1  0  0  0
 38 43  2  0  0  0
 38 46  1  0  0  0
 38 47  1  0  0  0
 39 64  1  0  0  0
 39 67  2  0  0  0
 40 52  1  0  0  0
 40 53  2  0  0  0
 40 58  1  0  0  0
 41114  1  0  0  0
 41115  1  0  0  0
 41116  1  0  0  0
 41 48  1  0  0  0
 42 43  1  0  0  0
 42 66  1  0  0  0
 42117  1  0  0  0
 42118  1  0  0  0
 43 44  1  0  0  0
 44119  1  0  0  0
 45 46  2  0  0  0
 45120  1  0  0  0
 46121  1  0  0  0
 47122  1  0  0  0
 47123  1  0  0  0
 48 56  1  0  0  0
 48 65  1  0  0  0
 48124  1  0  0  0
 49 50  1  0  0  0
 49 53  1  0  0  0
 49 64  1  0  0  0
 49125  1  0  0  0
 50 51  1  0  0  0
 50126  1  0  0  0
 50127  1  0  0  0
 51 52  1  0  0  0
 51128  1  0  0  0
 51129  1  0  0  0
 52130  1  0  0  0
 52131  1  0  0  0
 53 54  1  0  0  0
 54 55  2  0  0  0
 54132  1  0  0  0
 55 57  1  0  0  0
 55133  1  0  0  0
 56 69  2  0  0  0
 57 58  2  0  0  0
 57134  1  0  0  0
 58135  1  0  0  0
 59 60  1  0  0  0
 59 61  1  0  0  0
 59 62  1  0  0  0
 60136  1  0  0  0
 60137  1  0  0  0
 60138  1  0  0  0
 61139  1  0  0  0
 61140  1  0  0  0
 61141  1  0  0  0
 62142  1  0  0  0
 62143  1  0  0  0
 62144  1  0  0  0
 63 65  1  0  0  0
 63145  1  0  0  0
 63146  1  0  0  0
 63147  1  0  0  0
 64148  1  0  0  0
 65149  1  0  0  0
 68 86  1  0  0  0
 71 72  2  0  0  0
 71 74  1  0  0  0
 71150  1  0  0  0
 72 76  1  0  0  0
 72151  1  0  0  0
 73 75  1  0  0  0
 73 76  2  0  0  0
 73152  1  0  0  0
 74 75  2  0  0  0
 74 81  1  0  0  0
 75 85  1  0  0  0
 76 89  1  0  0  0
 77 78  1  0  0  0
 77 80  1  0  0  0
 77153  1  0  0  0
 77154  1  0  0  0
 78155  1  0  0  0
 78156  1  0  0  0
 78 90  1  0  0  0
 79 80  1  0  0  0
 79 90  1  0  0  0
 79157  1  0  0  0
 79158  1  0  0  0
 80 82  1  0  0  0
 80 86  1  0  0  0
 81159  1  0  0  0
 81160  1  0  0  0
 81161  1  0  0  0
 82162  1  0  0  0
 82163  1  0  0  0
 82164  1  0  0  0
 83165  1  0  0  0
 83166  1  0  0  0
 83167  1  0  0  0
 83 88  1  0  0  0
 84 88  1  0  0  0
 84168  1  0  0  0
 84169  1  0  0  0
 84170  1  0  0  0
 85 87  1  0  0  0
 85171  1  0  0  0
 85172  1  0  0  0
 86173  1  0  0  0
 86174  1  0  0  0
 87 88  1  0  0  0
 87175  1  0  0  0
 87176  1  0  0  0
 88 90  1  0  0  0
 89177  1  0  0  0
 90178  1  0  0  0
M  CHG  1  90   1
M  ISO  4   1 100  68 101  86 101  89 100
M  END
> <chiral flag>
0

> <version>
0

> <s_m_source_file>
/data/baiqing/PycharmProjects/Reinvent-master-3.2/result/LINK_invent/BTK/process_docking_weight1_custom_product_contain_oxygen_bond_distance_aromatic_linkinvent_7_9_3/rearranged_h_0140.sdf

> <i_m_source_file_index>
97

> <r_mmod_Potential_Energy-OPLS-2005>
2.19047951698303

> <r_mmod_Stretch_Energy-OPLS-2005>
45.0830726623535

> <r_mmod_Bend_Energy-OPLS-2005>
163.277969360352

> <r_mmod_Torsional_Energy-OPLS-2005>
315.973602294922

> <r_mmod_Improper_Torsional_Energy-OPLS-2005>
1.95658683776855

> <r_mmod_Van_der_Waal_Energy-OPLS-2005>
159.235061645508

> <r_mmod_Electrostatic_Energy-OPLS-2005>
-273.008941650391

> <r_mmod_Solvation_Energy-OPLS-2005>
-422.525909423828

> <b_mmod_Minimization_Converged-OPLS-2005>
0

> <r_mmod_RMS_Derivative-OPLS-2005>
4.53542757034302

$$$$
